REMARK SMILES O=C(NCCCCCCNC(=O)[C@H]1CCCCN1C(=O)CCl)c1ccc(-c2c3nc(c(-c4c(F)c(F)c(F)c(F)c4F)c4ccc([nH]4)c(-c4c(F)c(F)c(F)c(F)c4F)c4nc(c(-c5c(F)c(F)c(F)c(F)c5F)c5ccc2[nH]5)C=C4)C=C3)cc1
REMARK SMILES IDX 6 1 5 2 4 3 3 4 1 5 2 6 23 8 24 9 85 10 25 11 84 12 26 13
REMARK SMILES IDX 27 14 28 15 78 16 29 17 83 18 77 19 79 20 30 21 82 22 76 23
REMARK SMILES IDX 75 24 31 26 63 27 43 28 62 29 44 30 47 31 61 32 80 33 45 34
REMARK SMILES IDX 46 35 60 37 81 38 48 39 32 40 33 41 41 42 34 43 35 44 39 45
REMARK SMILES IDX 42 46 36 47 37 48 40 49 38 50 64 51 65 52 73 53 66 54 67 55
REMARK SMILES IDX 71 56 74 57 68 58 69 59 72 60 70 61 49 62 50 63 58 64 51 65
REMARK SMILES IDX 52 66 56 67 59 68 53 69 54 70 57 71 55 72 7 73 8 74 9 75
REMARK SMILES IDX 10 76 11 77 12 79 13 80 14 81 18 82 15 83 17 84 16 85 19 86
REMARK SMILES IDX 20 87 21 88 22 89
REMARK H PARENT 3 7 79 25 47 36 10 78
REMARK Flexibility Score: inf
ROOT
ATOM      1  C   UNL     1      10.363  11.456  -5.280  1.00  0.00     0.002 C 
ENDROOT
BRANCH   1   2
ATOM      2  C   UNL     1       9.941  12.795  -4.675  1.00  0.00     0.021 C 
BRANCH   2   3
ATOM      3  C   UNL     1      11.108  13.663  -4.230  1.00  0.00     0.116 C 
BRANCH   3   4
ATOM      4  N   UNL     1      11.911  14.108  -5.359  1.00  0.00    -0.352 N 
ATOM      5  O   UNL     1      12.655  15.596  -6.888  1.00  0.00    -0.269 OA
ATOM      6  C   UNL     1      12.151  15.388  -5.789  1.00  0.00     0.251 C 
ATOM      7  H   UNL     1      12.339  13.394  -5.885  1.00  0.00     0.163 HD
BRANCH   6   8
ATOM      8  C   UNL     1      11.786  16.520  -4.915  1.00  0.00     0.039 A 
ATOM      9  C   UNL     1      12.097  16.479  -3.553  1.00  0.00     0.014 A 
ATOM     10  C   UNL     1      11.129  17.626  -5.458  1.00  0.00     0.014 A 
ATOM     11  C   UNL     1      11.633  17.480  -2.712  1.00  0.00     0.010 A 
ATOM     12  C   UNL     1      10.750  18.680  -4.624  1.00  0.00     0.010 A 
ATOM     13  C   UNL     1      10.982  18.605  -3.241  1.00  0.00    -0.014 A 
BRANCH  13  14
ATOM     14  C   UNL     1      10.637  19.730  -2.337  1.00  0.00     0.031 A 
ATOM     15  C   UNL     1       9.211  20.135  -2.102  1.00  0.00     0.074 A 
ATOM     16  C   UNL     1      11.641  20.376  -1.713  1.00  0.00     0.049 A 
ATOM     17  N   UNL     1       8.743  21.097  -1.346  1.00  0.00    -0.248 NA
ATOM     18  C   UNL     1       8.174  19.370  -2.810  1.00  0.00     0.031 C 
ATOM     19  C   UNL     1      13.066  20.072  -1.877  1.00  0.00     0.029 A 
ATOM     20  N   UNL     1      11.626  21.407  -0.811  1.00  0.00    -0.354 N 
ATOM     21  C   UNL     1       7.363  21.064  -1.498  1.00  0.00     0.074 A 
ATOM     22  C   UNL     1       7.069  20.006  -2.441  1.00  0.00     0.031 C 
ATOM     23  C   UNL     1      13.782  20.868  -1.072  1.00  0.00     0.029 A 
ATOM     24  C   UNL     1      12.877  21.787  -0.394  1.00  0.00     0.049 A 
ATOM     25  H   UNL     1      10.797  21.835  -0.494  1.00  0.00     0.167 HD
ATOM     26  C   UNL     1       6.432  21.845  -0.897  1.00  0.00     0.037 A 
ATOM     27  C   UNL     1      13.260  22.784   0.424  1.00  0.00     0.037 A 
ATOM     28  C   UNL     1       6.740  22.893   0.044  1.00  0.00     0.049 A 
ATOM     29  C   UNL     1      12.206  23.659   1.039  1.00  0.00     0.074 A 
ATOM     30  C   UNL     1       5.867  23.718   0.732  1.00  0.00     0.029 A 
ATOM     31  N   UNL     1       8.022  23.269   0.420  1.00  0.00    -0.354 N 
ATOM     32  N   UNL     1      10.903  23.592   0.920  1.00  0.00    -0.248 NA
ATOM     33  C   UNL     1      12.677  24.749   1.902  1.00  0.00     0.031 C 
ATOM     34  C   UNL     1       6.620  24.630   1.477  1.00  0.00     0.029 A 
ATOM     35  C   UNL     1       7.963  24.332   1.308  1.00  0.00     0.049 A 
ATOM     36  H   UNL     1       8.851  22.843   0.103  1.00  0.00     0.167 HD
ATOM     37  C   UNL     1      10.396  24.613   1.711  1.00  0.00     0.074 A 
ATOM     38  C   UNL     1      11.533  25.270   2.321  1.00  0.00     0.031 C 
ATOM     39  C   UNL     1       9.105  24.973   1.912  1.00  0.00     0.037 A 
BRANCH  26  40
ATOM     40  C   UNL     1       4.989  21.615  -1.251  1.00  0.00     0.064 A 
ATOM     41  C   UNL     1       4.301  20.462  -0.844  1.00  0.00     0.173 A 
ATOM     42  C   UNL     1       4.269  22.590  -1.959  1.00  0.00     0.173 A 
ATOM     43  F   UNL     1       4.943  19.494  -0.172  1.00  0.00    -0.203 F 
ATOM     44  C   UNL     1       2.954  20.283  -1.152  1.00  0.00     0.198 A 
ATOM     45  C   UNL     1       2.915  22.422  -2.239  1.00  0.00     0.198 A 
ATOM     46  F   UNL     1       4.874  23.715  -2.367  1.00  0.00    -0.203 F 
ATOM     47  F   UNL     1       2.330  19.154  -0.790  1.00  0.00    -0.200 F 
ATOM     48  C   UNL     1       2.260  21.266  -1.841  1.00  0.00     0.200 A 
ATOM     49  F   UNL     1       2.242  23.381  -2.891  1.00  0.00    -0.200 F 
ATOM     50  F   UNL     1       0.962  21.098  -2.127  1.00  0.00    -0.200 F 
ENDBRANCH  26  40
BRANCH  27  51
ATOM     51  C   UNL     1      14.704  23.010   0.691  1.00  0.00     0.064 A 
ATOM     52  C   UNL     1      15.245  22.802   1.966  1.00  0.00     0.173 A 
ATOM     53  C   UNL     1      15.574  23.434  -0.326  1.00  0.00     0.173 A 
ATOM     54  F   UNL     1      14.451  22.410   2.974  1.00  0.00    -0.203 F 
ATOM     55  C   UNL     1      16.595  23.032   2.221  1.00  0.00     0.198 A 
ATOM     56  C   UNL     1      16.930  23.630  -0.078  1.00  0.00     0.198 A 
ATOM     57  F   UNL     1      15.109  23.639  -1.567  1.00  0.00    -0.203 F 
ATOM     58  F   UNL     1      17.076  22.874   3.462  1.00  0.00    -0.200 F 
ATOM     59  C   UNL     1      17.438  23.439   1.197  1.00  0.00     0.200 A 
ATOM     60  F   UNL     1      17.744  24.002  -1.076  1.00  0.00    -0.200 F 
ATOM     61  F   UNL     1      18.737  23.655   1.442  1.00  0.00    -0.200 F 
ENDBRANCH  27  51
BRANCH  39  62
ATOM     62  C   UNL     1       8.852  26.105   2.866  1.00  0.00     0.064 A 
ATOM     63  C   UNL     1       9.190  27.429   2.550  1.00  0.00     0.173 A 
ATOM     64  C   UNL     1       8.237  25.862   4.104  1.00  0.00     0.173 A 
ATOM     65  F   UNL     1       9.797  27.712   1.387  1.00  0.00    -0.203 F 
ATOM     66  C   UNL     1       8.951  28.463   3.451  1.00  0.00     0.198 A 
ATOM     67  C   UNL     1       7.966  26.903   4.987  1.00  0.00     0.198 A 
ATOM     68  F   UNL     1       7.889  24.615   4.454  1.00  0.00    -0.203 F 
ATOM     69  F   UNL     1       9.335  29.712   3.152  1.00  0.00    -0.200 F 
ATOM     70  C   UNL     1       8.332  28.201   4.664  1.00  0.00     0.200 A 
ATOM     71  F   UNL     1       7.354  26.650   6.152  1.00  0.00    -0.200 F 
ATOM     72  F   UNL     1       8.095  29.199   5.527  1.00  0.00    -0.200 F 
ENDBRANCH  39  62
ENDBRANCH  13  14
ENDBRANCH   6   8
ENDBRANCH   3   4
ENDBRANCH   2   3
ENDBRANCH   1   2
BRANCH   1  73
ATOM     73  C   UNL     1      11.204  10.577  -4.348  1.00  0.00     0.002 C 
BRANCH  73  74
ATOM     74  C   UNL     1      10.581  10.332  -2.968  1.00  0.00     0.021 C 
BRANCH  74  75
ATOM     75  C   UNL     1       9.219   9.639  -3.028  1.00  0.00     0.116 C 
BRANCH  75  76
ATOM     76  N   UNL     1       9.347   8.271  -3.476  1.00  0.00    -0.354 N 
ATOM     77  C   UNL     1       9.288   7.100  -2.779  1.00  0.00     0.242 C 
ATOM     78  H   UNL     1       9.502   8.167  -4.443  1.00  0.00     0.163 HD
ATOM     79  O   UNL     1       9.350   6.064  -3.449  1.00  0.00    -0.273 OA
BRANCH  77  80
ATOM     80  C   UNL     1       8.981   7.077  -1.254  1.00  0.00     0.174 C 
ATOM     81  C   UNL     1       9.193   5.670  -0.664  1.00  0.00     0.035 C 
ATOM     82  N   UNL     1       9.744   8.048  -0.443  1.00  0.00    -0.330 N 
ATOM     83  C   UNL     1      10.680   5.327  -0.525  1.00  0.00     0.004 C 
ATOM     84  C   UNL     1      11.183   7.786  -0.369  1.00  0.00     0.120 C 
ATOM     85  C   UNL     1      11.435   6.413   0.243  1.00  0.00     0.022 C 
BRANCH  82  86
ATOM     86  C   UNL     1       9.048   8.964   0.341  1.00  0.00     0.238 C 
ATOM     87  O   UNL     1       7.814   8.982   0.375  1.00  0.00    -0.273 OA
BRANCH  86  88
ATOM     88  C   UNL     1       9.824  10.030   1.090  1.00  0.00     0.209 C 
ATOM     89  Cl  UNL     1      10.427   9.382   2.622  1.00  0.00    -0.116 Cl
ENDBRANCH  86  88
ENDBRANCH  82  86
ENDBRANCH  77  80
ENDBRANCH  75  76
ENDBRANCH  74  75
ENDBRANCH  73  74
ENDBRANCH   1  73
TORSDOF 15
