REMARK SMILES Cc1nc2sc3c(c2c2nc(CCC(=O)NCCCCCCNC(=O)c4ccc(-c5c6nc(c(-c7c(F)c(F)c(F)c(F)c7F)c7ccc([nH]7)c(-c7c(F)c(F)c(F)c(F)c7F)c7nc(c(-c8c(F)c(F)c(F)c(F)c8F)c8ccc5[nH]8)C=C7)C=C6)cc4)nn12)[C@@H](C)CCC3
REMARK SMILES IDX 19 1 18 2 17 3 16 4 14 5 15 6 13 8 12 9 11 10 1 11 2 12 3 13
REMARK SMILES IDX 90 14 4 15 9 16 89 17 5 18 8 19 10 20 6 21 7 22 95 23 91 24
REMARK SMILES IDX 94 25 92 26 93 27 20 28 21 29 22 30 23 31 24 32 25 34 26 35
REMARK SMILES IDX 27 36 88 37 28 38 87 39 29 40 30 41 31 42 81 43 32 44 86 45
REMARK SMILES IDX 80 46 82 47 33 48 85 49 79 50 78 51 34 53 66 54 46 55 65 56
REMARK SMILES IDX 47 57 50 58 64 59 83 60 48 61 49 62 63 64 84 65 51 66 35 67
REMARK SMILES IDX 36 68 44 69 37 70 38 71 42 72 45 73 39 74 40 75 43 76 41 77
REMARK SMILES IDX 67 78 68 79 76 80 69 81 70 82 74 83 77 84 71 85 72 86 75 87
REMARK SMILES IDX 73 88 52 89 53 90 61 91 54 92 55 93 59 94 62 95 56 96 57 97
REMARK SMILES IDX 60 98 58 99
REMARK H PARENT 16 7 23 33 82 52 50 63
REMARK Flexibility Score: inf
ROOT
ATOM      1  C   UNL     1      -2.439   1.207   4.495  1.00  0.00     0.002 C 
ENDROOT
BRANCH   1   2
ATOM      2  C   UNL     1      -2.474   1.697   3.060  1.00  0.00     0.021 C 
BRANCH   2   3
ATOM      3  C   UNL     1      -3.542   2.750   2.910  1.00  0.00     0.116 C 
BRANCH   3   4
ATOM      4  N   UNL     1      -3.292   3.810   3.884  1.00  0.00    -0.356 N 
ATOM      5  C   UNL     1      -2.102   4.473   4.085  1.00  0.00     0.220 C 
ATOM      6  O   UNL     1      -1.888   4.979   5.186  1.00  0.00    -0.275 OA
ATOM      7  H   UNL     1      -4.050   4.076   4.453  1.00  0.00     0.163 HD
BRANCH   5   8
ATOM      8  C   UNL     1      -1.148   4.659   2.907  1.00  0.00     0.108 C 
BRANCH   8   9
ATOM      9  C   UNL     1       0.330   4.212   3.063  1.00  0.00     0.089 C 
BRANCH   9  10
ATOM     10  C   UNL     1       0.656   2.728   2.997  1.00  0.00     0.152 A 
ATOM     11  C   UNL     1       0.877  -0.003  -0.123  1.00  0.00     0.090 C 
ATOM     12  C   UNL     1       0.520  -0.329   1.310  1.00  0.00     0.131 A 
ATOM     13  N   UNL     1       0.076  -1.529   1.611  1.00  0.00    -0.222 NA
ATOM     14  N   UNL     1       0.702   0.750   2.231  1.00  0.00    -0.199 N 
ATOM     15  C   UNL     1      -0.319  -1.678   2.911  1.00  0.00     0.129 A 
ATOM     16  C   UNL     1       0.501   0.699   3.614  1.00  0.00     0.168 A 
ATOM     17  N   UNL     1       0.829   2.059   1.838  1.00  0.00    -0.150 NA
ATOM     18  S   UNL     1      -1.580  -3.513   3.530  1.00  0.00    -0.120 S 
ATOM     19  C   UNL     1      -0.149  -0.544   4.196  1.00  0.00     0.060 A 
ATOM     20  N   UNL     1       0.612   1.912   4.117  1.00  0.00    -0.211 NA
ATOM     21  C   UNL     1      -1.857  -2.591   5.672  1.00  0.00     0.011 A 
ATOM     22  C   UNL     1      -1.030  -1.027   5.833  1.00  0.00    -0.018 A 
ATOM     23  C   UNL     1      -2.412  -3.368   6.828  1.00  0.00     0.047 C 
ATOM     24  C   UNL     1      -1.141  -0.345   7.246  1.00  0.00     0.018 C 
ATOM     25  C   UNL     1      -1.716  -2.775   8.091  1.00  0.00     0.006 C 
ATOM     26  C   UNL     1      -1.865   1.009   7.418  1.00  0.00     0.013 C 
ATOM     27  C   UNL     1      -1.978  -1.272   8.202  1.00  0.00     0.008 C 
ENDBRANCH   9  10
ENDBRANCH   8   9
ENDBRANCH   5   8
ENDBRANCH   3   4
ENDBRANCH   2   3
ENDBRANCH   1   2
BRANCH   1  28
ATOM     28  C   UNL     1      -2.939  -0.208   4.614  1.00  0.00     0.002 C 
BRANCH  28  29
ATOM     29  C   UNL     1      -1.974  -1.470   4.088  1.00  0.00     0.021 C 
BRANCH  29  30
ATOM     30  C   UNL     1      -0.142  -2.510   4.777  1.00  0.00     0.116 C 
BRANCH  30  31
ATOM     31  N   UNL     1      -0.035  -4.061   5.558  1.00  0.00    -0.352 N 
ATOM     32  C   UNL     1       0.479  -5.285   5.154  1.00  0.00     0.251 C 
ATOM     33  H   UNL     1      -0.415  -4.073   6.466  1.00  0.00     0.163 HD
ATOM     34  O   UNL     1       0.030  -6.363   5.515  1.00  0.00    -0.269 OA
BRANCH  32  35
ATOM     35  C   UNL     1       1.736  -5.197   4.430  1.00  0.00     0.039 A 
ATOM     36  C   UNL     1       2.382  -6.163   3.672  1.00  0.00     0.014 A 
ATOM     37  C   UNL     1       2.417  -4.032   4.698  1.00  0.00     0.014 A 
ATOM     38  C   UNL     1       3.661  -5.815   3.233  1.00  0.00     0.010 A 
ATOM     39  C   UNL     1       3.122  -3.544   3.678  1.00  0.00     0.010 A 
ATOM     40  C   UNL     1       4.061  -4.466   3.375  1.00  0.00    -0.014 A 
BRANCH  40  41
ATOM     41  C   UNL     1       5.224  -3.820   2.832  1.00  0.00     0.031 A 
ATOM     42  C   UNL     1       5.352  -4.220   1.428  1.00  0.00     0.074 A 
ATOM     43  C   UNL     1       5.938  -2.872   3.485  1.00  0.00     0.049 A 
ATOM     44  N   UNL     1       5.960  -5.298   1.080  1.00  0.00    -0.248 NA
ATOM     45  C   UNL     1       4.437  -3.702   0.395  1.00  0.00     0.031 C 
ATOM     46  C   UNL     1       5.714  -2.206   4.777  1.00  0.00     0.029 A 
ATOM     47  N   UNL     1       7.118  -2.323   3.084  1.00  0.00    -0.354 N 
ATOM     48  C   UNL     1       5.794  -5.396  -0.281  1.00  0.00     0.074 A 
ATOM     49  C   UNL     1       4.647  -4.587  -0.589  1.00  0.00     0.031 C 
ATOM     50  C   UNL     1       6.613  -1.202   4.949  1.00  0.00     0.029 A 
ATOM     51  C   UNL     1       7.580  -1.259   3.871  1.00  0.00     0.049 A 
ATOM     52  H   UNL     1       7.612  -2.650   2.298  1.00  0.00     0.167 HD
ATOM     53  C   UNL     1       6.859  -5.835  -1.000  1.00  0.00     0.037 A 
ATOM     54  C   UNL     1       8.730  -0.558   3.648  1.00  0.00     0.037 A 
ATOM     55  C   UNL     1       7.836  -6.434  -0.102  1.00  0.00     0.049 A 
ATOM     56  C   UNL     1       9.598  -1.454   2.825  1.00  0.00     0.074 A 
ATOM     57  C   UNL     1       7.822  -7.515   0.760  1.00  0.00     0.029 A 
ATOM     58  N   UNL     1       8.820  -5.587   0.358  1.00  0.00    -0.354 N 
ATOM     59  N   UNL     1      10.083  -2.578   3.287  1.00  0.00    -0.248 NA
ATOM     60  C   UNL     1       9.412  -1.390   1.381  1.00  0.00     0.031 C 
ATOM     61  C   UNL     1       8.514  -7.076   1.929  1.00  0.00     0.029 A 
ATOM     62  C   UNL     1       9.037  -5.803   1.694  1.00  0.00     0.049 A 
ATOM     63  H   UNL     1       9.297  -4.924  -0.191  1.00  0.00     0.167 HD
ATOM     64  C   UNL     1       9.840  -3.503   2.280  1.00  0.00     0.074 A 
ATOM     65  C   UNL     1       9.440  -2.701   1.118  1.00  0.00     0.031 C 
ATOM     66  C   UNL     1       9.644  -4.824   2.574  1.00  0.00     0.037 A 
BRANCH  53  67
ATOM     67  C   UNL     1       7.251  -5.276  -2.339  1.00  0.00     0.064 A 
ATOM     68  C   UNL     1       8.385  -5.825  -2.967  1.00  0.00     0.173 A 
ATOM     69  C   UNL     1       6.783  -4.058  -2.879  1.00  0.00     0.173 A 
ATOM     70  F   UNL     1       8.920  -6.974  -2.527  1.00  0.00    -0.203 F 
ATOM     71  C   UNL     1       9.054  -5.156  -3.992  1.00  0.00     0.198 A 
ATOM     72  C   UNL     1       7.428  -3.416  -3.931  1.00  0.00     0.198 A 
ATOM     73  F   UNL     1       5.759  -3.377  -2.357  1.00  0.00    -0.203 F 
ATOM     74  F   UNL     1      10.203  -5.654  -4.466  1.00  0.00    -0.200 F 
ATOM     75  C   UNL     1       8.579  -3.949  -4.468  1.00  0.00     0.200 A 
ATOM     76  F   UNL     1       6.965  -2.233  -4.361  1.00  0.00    -0.200 F 
ATOM     77  F   UNL     1       9.251  -3.276  -5.410  1.00  0.00    -0.200 F 
ENDBRANCH  53  67
BRANCH  54  78
ATOM     78  C   UNL     1       8.954   0.916   3.688  1.00  0.00     0.064 A 
ATOM     79  C   UNL     1      10.245   1.470   3.567  1.00  0.00     0.173 A 
ATOM     80  C   UNL     1       7.883   1.815   3.527  1.00  0.00     0.173 A 
ATOM     81  F   UNL     1      11.327   0.681   3.653  1.00  0.00    -0.203 F 
ATOM     82  C   UNL     1      10.448   2.827   3.276  1.00  0.00     0.198 A 
ATOM     83  C   UNL     1       8.087   3.168   3.231  1.00  0.00     0.198 A 
ATOM     84  F   UNL     1       6.617   1.377   3.555  1.00  0.00    -0.203 F 
ATOM     85  F   UNL     1      11.692   3.303   3.112  1.00  0.00    -0.200 F 
ATOM     86  C   UNL     1       9.367   3.672   3.094  1.00  0.00     0.200 A 
ATOM     87  F   UNL     1       7.032   3.965   3.012  1.00  0.00    -0.200 F 
ATOM     88  F   UNL     1       9.555   4.953   2.746  1.00  0.00    -0.200 F 
ENDBRANCH  54  78
BRANCH  66  89
ATOM     89  C   UNL     1       9.954  -5.304   3.971  1.00  0.00     0.064 A 
ATOM     90  C   UNL     1       9.195  -4.998   5.116  1.00  0.00     0.173 A 
ATOM     91  C   UNL     1      10.934  -6.295   4.098  1.00  0.00     0.173 A 
ATOM     92  F   UNL     1       8.195  -4.111   5.065  1.00  0.00    -0.203 F 
ATOM     93  C   UNL     1       9.409  -5.666   6.326  1.00  0.00     0.198 A 
ATOM     94  C   UNL     1      11.124  -6.981   5.293  1.00  0.00     0.198 A 
ATOM     95  F   UNL     1      11.658  -6.655   3.027  1.00  0.00    -0.203 F 
ATOM     96  F   UNL     1       8.659  -5.377   7.400  1.00  0.00    -0.200 F 
ATOM     97  C   UNL     1      10.363  -6.668   6.407  1.00  0.00     0.200 A 
ATOM     98  F   UNL     1      12.013  -7.982   5.348  1.00  0.00    -0.200 F 
ATOM     99  F   UNL     1      10.529  -7.353   7.547  1.00  0.00    -0.200 F 
ENDBRANCH  66  89
ENDBRANCH  40  41
ENDBRANCH  32  35
ENDBRANCH  30  31
ENDBRANCH  29  30
ENDBRANCH  28  29
ENDBRANCH   1  28
TORSDOF 15
