REMARK SMILES CN(C(=O)N[C@@](C)(C(=O)NCCCCCCNC(=O)c1ccc(-c2c3nc(c(-c4c(F)c(F)c(F)c(F)c4F)c4ccc([nH]4)c(-c4c(F)c(F)c(F)c(F)c4F)c4nc(c(-c5c(F)c(F)c(F)c(F)c5F)c5ccc2[nH]5)C=C4)C=C3)cc1)C(F)(F)F)c1ccc(F)cc1
REMARK SMILES IDX 13 1 12 2 11 3 10 4 8 5 9 6 6 8 7 9 5 10 3 11 4 12 2 14 1 15
REMARK SMILES IDX 87 16 88 17 93 18 89 19 92 20 90 21 91 22 83 23 84 24 85 25
REMARK SMILES IDX 86 26 14 27 15 28 16 29 17 30 18 31 19 33 20 34 21 35 82 36
REMARK SMILES IDX 22 37 81 38 23 39 24 40 25 41 75 42 26 43 80 44 74 45 76 46
REMARK SMILES IDX 27 47 79 48 73 49 72 50 28 52 60 53 40 54 59 55 41 56 44 57
REMARK SMILES IDX 58 58 77 59 42 60 43 61 57 63 78 64 45 65 29 66 30 67 38 68
REMARK SMILES IDX 31 69 32 70 36 71 39 72 33 73 34 74 37 75 35 76 61 77 62 78
REMARK SMILES IDX 70 79 63 80 64 81 68 82 71 83 65 84 66 85 69 86 67 87 46 88
REMARK SMILES IDX 47 89 55 90 48 91 49 92 53 93 56 94 50 95 51 96 54 97 52 98
REMARK H PARENT 10 7 5 13 17 32 76 51 44 62
REMARK Flexibility Score: inf
ROOT
ATOM      1  C   UNL     1      -0.591   2.569   6.790  1.00  0.00     0.002 C 
ENDROOT
BRANCH   1   2
ATOM      2  C   UNL     1      -1.199   1.619   5.748  1.00  0.00     0.021 C 
BRANCH   2   3
ATOM      3  C   UNL     1      -1.328   2.206   4.343  1.00  0.00     0.116 C 
BRANCH   3   4
ATOM      4  N   UNL     1      -0.028   2.589   3.833  1.00  0.00    -0.354 N 
ATOM      5  C   UNL     1       0.639   2.396   2.668  1.00  0.00     0.255 C 
ATOM      6  O   UNL     1       1.835   2.701   2.727  1.00  0.00    -0.272 OA
ATOM      7  H   UNL     1       0.494   3.112   4.484  1.00  0.00     0.163 HD
BRANCH   5   8
ATOM      8  C   UNL     1       0.004   1.778   1.397  1.00  0.00     0.213 C 
ATOM      9  C   UNL     1      -1.366   2.403   1.064  1.00  0.00     0.056 C 
BRANCH   8  10
ATOM     10  N   UNL     1      -0.226   0.320   1.735  1.00  0.00    -0.316 N 
ATOM     11  C   UNL     1       0.047  -0.965   1.476  1.00  0.00     0.322 C 
ATOM     12  O   UNL     1      -0.419  -1.712   2.348  1.00  0.00    -0.248 OA
ATOM     13  H   UNL     1      -0.865   0.314   2.485  1.00  0.00     0.166 HD
BRANCH  11  14
ATOM     14  N   UNL     1       0.756  -1.432   0.411  1.00  0.00    -0.298 N 
ATOM     15  C   UNL     1       1.166  -0.663  -0.745  1.00  0.00     0.155 C 
BRANCH  14  16
ATOM     16  C   UNL     1       1.004  -2.838   0.250  1.00  0.00     0.045 A 
ATOM     17  C   UNL     1      -0.038  -3.772   0.333  1.00  0.00     0.029 A 
ATOM     18  C   UNL     1       2.273  -3.268  -0.177  1.00  0.00     0.029 A 
ATOM     19  C   UNL     1       0.170  -5.094  -0.073  1.00  0.00     0.041 A 
ATOM     20  C   UNL     1       2.485  -4.593  -0.559  1.00  0.00     0.041 A 
ATOM     21  C   UNL     1       1.425  -5.488  -0.525  1.00  0.00     0.123 A 
ATOM     22  F   UNL     1       1.610  -6.743  -0.954  1.00  0.00    -0.207 F 
ENDBRANCH  14  16
ENDBRANCH  11  14
ENDBRANCH   8  10
BRANCH   8  23
ATOM     23  C   UNL     1       0.966   2.269   0.288  1.00  0.00     0.420 C 
ATOM     24  F   UNL     1       2.189   1.708   0.327  1.00  0.00    -0.168 F 
ATOM     25  F   UNL     1       0.453   2.050  -0.950  1.00  0.00    -0.168 F 
ATOM     26  F   UNL     1       1.135   3.618   0.342  1.00  0.00    -0.168 F 
ENDBRANCH   8  23
ENDBRANCH   5   8
ENDBRANCH   3   4
ENDBRANCH   2   3
ENDBRANCH   1   2
BRANCH   1  27
ATOM     27  C   UNL     1      -1.286   3.927   6.919  1.00  0.00     0.002 C 
BRANCH  27  28
ATOM     28  C   UNL     1      -2.787   3.855   7.196  1.00  0.00     0.021 C 
BRANCH  28  29
ATOM     29  C   UNL     1      -3.164   3.024   8.415  1.00  0.00     0.116 C 
BRANCH  29  30
ATOM     30  N   UNL     1      -2.620   3.571   9.647  1.00  0.00    -0.352 N 
ATOM     31  C   UNL     1      -3.266   3.854  10.823  1.00  0.00     0.251 C 
ATOM     32  H   UNL     1      -1.655   3.766   9.635  1.00  0.00     0.163 HD
ATOM     33  O   UNL     1      -2.697   4.484  11.711  1.00  0.00    -0.269 OA
BRANCH  31  34
ATOM     34  C   UNL     1      -4.665   3.420  11.006  1.00  0.00     0.039 A 
ATOM     35  C   UNL     1      -5.591   4.324  11.530  1.00  0.00     0.014 A 
ATOM     36  C   UNL     1      -5.064   2.130  10.644  1.00  0.00     0.014 A 
ATOM     37  C   UNL     1      -6.932   3.952  11.638  1.00  0.00     0.010 A 
ATOM     38  C   UNL     1      -6.412   1.791  10.671  1.00  0.00     0.010 A 
ATOM     39  C   UNL     1      -7.359   2.695  11.176  1.00  0.00    -0.014 A 
BRANCH  39  40
ATOM     40  C   UNL     1      -8.791   2.308  11.217  1.00  0.00     0.031 A 
ATOM     41  C   UNL     1      -9.237   1.151  12.065  1.00  0.00     0.074 A 
ATOM     42  C   UNL     1      -9.679   2.960  10.443  1.00  0.00     0.049 A 
ATOM     43  N   UNL     1     -10.433   0.637  12.205  1.00  0.00    -0.248 NA
ATOM     44  C   UNL     1      -8.193   0.461  12.838  1.00  0.00     0.031 C 
ATOM     45  C   UNL     1      -9.361   4.072   9.547  1.00  0.00     0.029 A 
ATOM     46  N   UNL     1     -11.030   2.781  10.286  1.00  0.00    -0.354 N 
ATOM     47  C   UNL     1     -10.282  -0.442  13.065  1.00  0.00     0.074 A 
ATOM     48  C   UNL     1      -8.870  -0.548  13.364  1.00  0.00     0.031 C 
ATOM     49  C   UNL     1     -10.492   4.504   8.966  1.00  0.00     0.029 A 
ATOM     50  C   UNL     1     -11.604   3.671   9.413  1.00  0.00     0.049 A 
ATOM     51  H   UNL     1     -11.539   2.080  10.754  1.00  0.00     0.167 HD
ATOM     52  C   UNL     1     -11.236  -1.256  13.579  1.00  0.00     0.037 A 
ATOM     53  C   UNL     1     -12.885   3.801   9.019  1.00  0.00     0.037 A 
ATOM     54  C   UNL     1     -12.640  -1.136  13.285  1.00  0.00     0.049 A 
ATOM     55  C   UNL     1     -13.922   2.862   9.574  1.00  0.00     0.074 A 
ATOM     56  C   UNL     1     -13.696  -1.865  13.802  1.00  0.00     0.029 A 
ATOM     57  N   UNL     1     -13.183  -0.234  12.380  1.00  0.00    -0.354 N 
ATOM     58  N   UNL     1     -13.783   1.897  10.449  1.00  0.00    -0.248 NA
ATOM     59  C   UNL     1     -15.296   3.037   9.085  1.00  0.00     0.031 C 
ATOM     60  C   UNL     1     -14.869  -1.452  13.159  1.00  0.00     0.029 A 
ATOM     61  C   UNL     1     -14.555  -0.416  12.293  1.00  0.00     0.049 A 
ATOM     62  H   UNL     1     -12.670   0.436  11.873  1.00  0.00     0.167 HD
ATOM     63  C   UNL     1     -15.053   1.370  10.643  1.00  0.00     0.074 A 
ATOM     64  C   UNL     1     -15.951   2.133   9.800  1.00  0.00     0.031 C 
ATOM     65  C   UNL     1     -15.440   0.351  11.450  1.00  0.00     0.037 A 
BRANCH  52  66
ATOM     66  C   UNL     1     -10.780  -2.359  14.494  1.00  0.00     0.064 A 
ATOM     67  C   UNL     1     -10.208  -2.095  15.749  1.00  0.00     0.173 A 
ATOM     68  C   UNL     1     -10.911  -3.702  14.108  1.00  0.00     0.173 A 
ATOM     69  F   UNL     1     -10.050  -0.829  16.168  1.00  0.00    -0.203 F 
ATOM     70  C   UNL     1      -9.735  -3.127  16.556  1.00  0.00     0.198 A 
ATOM     71  C   UNL     1     -10.474  -4.734  14.935  1.00  0.00     0.198 A 
ATOM     72  F   UNL     1     -11.459  -4.016  12.924  1.00  0.00    -0.203 F 
ATOM     73  F   UNL     1      -9.122  -2.844  17.714  1.00  0.00    -0.200 F 
ATOM     74  C   UNL     1      -9.873  -4.446  16.150  1.00  0.00     0.200 A 
ATOM     75  F   UNL     1     -10.623  -6.008  14.548  1.00  0.00    -0.200 F 
ATOM     76  F   UNL     1      -9.414  -5.438  16.925  1.00  0.00    -0.200 F 
ENDBRANCH  52  66
BRANCH  53  77
ATOM     77  C   UNL     1     -13.263   4.893   8.085  1.00  0.00     0.064 A 
ATOM     78  C   UNL     1     -14.038   5.974   8.530  1.00  0.00     0.173 A 
ATOM     79  C   UNL     1     -12.850   4.894   6.745  1.00  0.00     0.173 A 
ATOM     80  F   UNL     1     -14.473   6.009   9.798  1.00  0.00    -0.203 F 
ATOM     81  C   UNL     1     -14.395   7.008   7.667  1.00  0.00     0.198 A 
ATOM     82  C   UNL     1     -13.184   5.942   5.890  1.00  0.00     0.198 A 
ATOM     83  F   UNL     1     -12.103   3.886   6.272  1.00  0.00    -0.203 F 
ATOM     84  F   UNL     1     -15.167   8.010   8.109  1.00  0.00    -0.200 F 
ATOM     85  C   UNL     1     -13.962   6.995   6.350  1.00  0.00     0.200 A 
ATOM     86  F   UNL     1     -12.749   5.935   4.623  1.00  0.00    -0.200 F 
ATOM     87  F   UNL     1     -14.296   7.995   5.523  1.00  0.00    -0.200 F 
ENDBRANCH  53  77
BRANCH  65  88
ATOM     88  C   UNL     1     -16.906   0.022  11.491  1.00  0.00     0.064 A 
ATOM     89  C   UNL     1     -17.565  -0.565  10.401  1.00  0.00     0.173 A 
ATOM     90  C   UNL     1     -17.654   0.267  12.654  1.00  0.00     0.173 A 
ATOM     91  F   UNL     1     -16.902  -0.805   9.260  1.00  0.00    -0.203 F 
ATOM     92  C   UNL     1     -18.923  -0.868  10.463  1.00  0.00     0.198 A 
ATOM     93  C   UNL     1     -19.002  -0.070  12.725  1.00  0.00     0.198 A 
ATOM     94  F   UNL     1     -17.072   0.821  13.728  1.00  0.00    -0.203 F 
ATOM     95  F   UNL     1     -19.544  -1.377   9.390  1.00  0.00    -0.200 F 
ATOM     96  C   UNL     1     -19.638  -0.629  11.627  1.00  0.00     0.200 A 
ATOM     97  F   UNL     1     -19.686   0.146  13.857  1.00  0.00    -0.200 F 
ATOM     98  F   UNL     1     -20.943  -0.929  11.688  1.00  0.00    -0.200 F 
ENDBRANCH  65  88
ENDBRANCH  39  40
ENDBRANCH  31  34
ENDBRANCH  29  30
ENDBRANCH  28  29
ENDBRANCH  27  28
ENDBRANCH   1  27
TORSDOF 17
