REMARK SMILES O=C(NCCCCCCNC(=O)c1cc(-c2cccc(Cl)c2)oc1C(F)(F)F)c1ccc(-c2c3nc(c(-c4c(F)c(F)c(F)c(F)c4F)c4ccc([nH]4)c(-c4c(F)c(F)c(F)c(F)c4F)c4nc(c(-c5c(F)c(F)c(F)c(F)c5F)c5ccc2[nH]5)C=C4)C=C3)cc1
REMARK SMILES IDX 6 1 5 2 4 3 3 4 1 5 2 6 29 8 30 9 91 10 31 11 90 12 32 13
REMARK SMILES IDX 33 14 34 15 84 16 35 17 89 18 83 19 85 20 36 21 88 22 82 23
REMARK SMILES IDX 81 24 37 26 69 27 49 28 68 29 50 30 53 31 67 32 86 33 51 34
REMARK SMILES IDX 52 35 66 37 87 38 54 39 38 40 39 41 47 42 40 43 41 44 45 45
REMARK SMILES IDX 48 46 42 47 43 48 46 49 44 50 70 51 71 52 79 53 72 54 73 55
REMARK SMILES IDX 77 56 80 57 74 58 75 59 78 60 76 61 55 62 56 63 64 64 57 65
REMARK SMILES IDX 58 66 62 67 65 68 59 69 60 70 63 71 61 72 7 73 8 74 9 75
REMARK SMILES IDX 10 76 11 77 12 79 13 80 14 81 24 82 15 83 23 84 25 85 26 86
REMARK SMILES IDX 27 87 28 88 16 89 17 90 22 91 18 92 20 93 19 94 21 95
REMARK H PARENT 3 7 85 25 53 36 10 78
REMARK Flexibility Score: inf
ROOT
ATOM      1  C   UNL     1       4.195  -3.651  -1.179  1.00  0.00     0.002 C 
ENDROOT
BRANCH   1   2
ATOM      2  C   UNL     1       4.664  -2.642  -0.132  1.00  0.00     0.021 C 
BRANCH   2   3
ATOM      3  C   UNL     1       4.461  -1.178  -0.502  1.00  0.00     0.116 C 
BRANCH   3   4
ATOM      4  N   UNL     1       3.059  -0.813  -0.633  1.00  0.00    -0.352 N 
ATOM      5  O   UNL     1       1.141   0.278  -0.157  1.00  0.00    -0.269 OA
ATOM      6  C   UNL     1       2.359   0.204  -0.028  1.00  0.00     0.251 C 
ATOM      7  H   UNL     1       2.534  -1.378  -1.244  1.00  0.00     0.163 HD
BRANCH   6   8
ATOM      8  C   UNL     1       3.071   1.192   0.813  1.00  0.00     0.039 A 
ATOM      9  C   UNL     1       4.276   1.757   0.393  1.00  0.00     0.014 A 
ATOM     10  C   UNL     1       2.525   1.550   2.050  1.00  0.00     0.014 A 
ATOM     11  C   UNL     1       5.015   2.541   1.272  1.00  0.00     0.010 A 
ATOM     12  C   UNL     1       3.228   2.411   2.898  1.00  0.00     0.010 A 
ATOM     13  C   UNL     1       4.502   2.875   2.537  1.00  0.00    -0.014 A 
BRANCH  13  14
ATOM     14  C   UNL     1       5.314   3.722   3.450  1.00  0.00     0.031 A 
ATOM     15  C   UNL     1       5.830   3.182   4.756  1.00  0.00     0.074 A 
ATOM     16  C   UNL     1       5.626   4.976   3.071  1.00  0.00     0.049 A 
ATOM     17  N   UNL     1       6.599   3.763   5.645  1.00  0.00    -0.248 NA
ATOM     18  C   UNL     1       5.428   1.815   5.120  1.00  0.00     0.031 C 
ATOM     19  C   UNL     1       5.173   5.618   1.835  1.00  0.00     0.029 A 
ATOM     20  N   UNL     1       6.415   5.926   3.669  1.00  0.00    -0.354 N 
ATOM     21  C   UNL     1       6.749   2.848   6.679  1.00  0.00     0.074 A 
ATOM     22  C   UNL     1       5.974   1.680   6.321  1.00  0.00     0.031 C 
ATOM     23  C   UNL     1       5.734   6.832   1.740  1.00  0.00     0.029 A 
ATOM     24  C   UNL     1       6.542   7.076   2.930  1.00  0.00     0.049 A 
ATOM     25  H   UNL     1       6.847   5.796   4.543  1.00  0.00     0.167 HD
ATOM     26  C   UNL     1       7.475   2.969   7.817  1.00  0.00     0.037 A 
ATOM     27  C   UNL     1       7.230   8.204   3.182  1.00  0.00     0.037 A 
ATOM     28  C   UNL     1       8.270   4.122   8.158  1.00  0.00     0.049 A 
ATOM     29  C   UNL     1       8.029   8.307   4.450  1.00  0.00     0.074 A 
ATOM     30  C   UNL     1       9.075   4.319   9.267  1.00  0.00     0.029 A 
ATOM     31  N   UNL     1       8.358   5.275   7.391  1.00  0.00    -0.354 N 
ATOM     32  N   UNL     1       8.197   7.418   5.397  1.00  0.00    -0.248 NA
ATOM     33  C   UNL     1       8.736   9.574   4.681  1.00  0.00     0.031 C 
ATOM     34  C   UNL     1       9.616   5.607   9.193  1.00  0.00     0.029 A 
ATOM     35  C   UNL     1       9.189   6.194   8.013  1.00  0.00     0.049 A 
ATOM     36  H   UNL     1       7.898   5.419   6.533  1.00  0.00     0.167 HD
ATOM     37  C   UNL     1       9.047   8.004   6.323  1.00  0.00     0.074 A 
ATOM     38  C   UNL     1       9.373   9.320   5.815  1.00  0.00     0.031 C 
ATOM     39  C   UNL     1       9.514   7.497   7.490  1.00  0.00     0.037 A 
BRANCH  26  40
ATOM     40  C   UNL     1       7.434   1.829   8.795  1.00  0.00     0.064 A 
ATOM     41  C   UNL     1       8.075   0.609   8.537  1.00  0.00     0.173 A 
ATOM     42  C   UNL     1       6.782   1.978  10.029  1.00  0.00     0.173 A 
ATOM     43  F   UNL     1       8.704   0.410   7.368  1.00  0.00    -0.203 F 
ATOM     44  C   UNL     1       8.044  -0.428   9.466  1.00  0.00     0.198 A 
ATOM     45  C   UNL     1       6.776   0.949  10.967  1.00  0.00     0.198 A 
ATOM     46  F   UNL     1       6.158   3.127  10.330  1.00  0.00    -0.203 F 
ATOM     47  F   UNL     1       8.627  -1.601   9.179  1.00  0.00    -0.200 F 
ATOM     48  C   UNL     1       7.401  -0.255  10.683  1.00  0.00     0.200 A 
ATOM     49  F   UNL     1       6.164   1.123  12.147  1.00  0.00    -0.200 F 
ATOM     50  F   UNL     1       7.378  -1.252  11.578  1.00  0.00    -0.200 F 
ENDBRANCH  26  40
BRANCH  27  51
ATOM     51  C   UNL     1       7.209   9.317   2.198  1.00  0.00     0.064 A 
ATOM     52  C   UNL     1       8.354   9.646   1.460  1.00  0.00     0.173 A 
ATOM     53  C   UNL     1       6.045  10.064   1.969  1.00  0.00     0.173 A 
ATOM     54  F   UNL     1       9.496   8.972   1.659  1.00  0.00    -0.203 F 
ATOM     55  C   UNL     1       8.339  10.693   0.541  1.00  0.00     0.198 A 
ATOM     56  C   UNL     1       6.023  11.091   1.028  1.00  0.00     0.198 A 
ATOM     57  F   UNL     1       4.922   9.783   2.646  1.00  0.00    -0.203 F 
ATOM     58  F   UNL     1       9.458  11.014  -0.122  1.00  0.00    -0.200 F 
ATOM     59  C   UNL     1       7.172  11.409   0.320  1.00  0.00     0.200 A 
ATOM     60  F   UNL     1       4.889  11.769   0.806  1.00  0.00    -0.200 F 
ATOM     61  F   UNL     1       7.157  12.410  -0.570  1.00  0.00    -0.200 F 
ENDBRANCH  27  51
BRANCH  39  62
ATOM     62  C   UNL     1      10.463   8.354   8.275  1.00  0.00     0.064 A 
ATOM     63  C   UNL     1      10.031   9.500   8.957  1.00  0.00     0.173 A 
ATOM     64  C   UNL     1      11.822   8.012   8.357  1.00  0.00     0.173 A 
ATOM     65  F   UNL     1       8.745   9.878   8.895  1.00  0.00    -0.203 F 
ATOM     66  C   UNL     1      10.931  10.291   9.667  1.00  0.00     0.198 A 
ATOM     67  C   UNL     1      12.713   8.788   9.092  1.00  0.00     0.198 A 
ATOM     68  F   UNL     1      12.284   6.921   7.727  1.00  0.00    -0.203 F 
ATOM     69  F   UNL     1      10.506  11.412  10.267  1.00  0.00    -0.200 F 
ATOM     70  C   UNL     1      12.269   9.932   9.738  1.00  0.00     0.200 A 
ATOM     71  F   UNL     1      14.003   8.434   9.169  1.00  0.00    -0.200 F 
ATOM     72  F   UNL     1      13.133  10.694  10.423  1.00  0.00    -0.200 F 
ENDBRANCH  39  62
ENDBRANCH  13  14
ENDBRANCH   6   8
ENDBRANCH   3   4
ENDBRANCH   2   3
ENDBRANCH   1   2
BRANCH   1  73
ATOM     73  C   UNL     1       4.785  -3.475  -2.582  1.00  0.00     0.002 C 
BRANCH  73  74
ATOM     74  C   UNL     1       6.314  -3.415  -2.657  1.00  0.00     0.021 C 
BRANCH  74  75
ATOM     75  C   UNL     1       7.043  -4.606  -2.039  1.00  0.00     0.116 C 
BRANCH  75  76
ATOM     76  N   UNL     1       6.753  -5.849  -2.739  1.00  0.00    -0.352 N 
ATOM     77  C   UNL     1       7.625  -6.729  -3.320  1.00  0.00     0.255 C 
ATOM     78  H   UNL     1       5.800  -6.089  -2.802  1.00  0.00     0.163 HD
ATOM     79  O   UNL     1       7.201  -7.654  -4.014  1.00  0.00    -0.269 OA
BRANCH  77  80
ATOM     80  C   UNL     1       9.035  -6.535  -3.089  1.00  0.00     0.091 A 
ATOM     81  C   UNL     1       9.722  -6.424  -1.848  1.00  0.00     0.065 A 
ATOM     82  C   UNL     1      10.002  -6.428  -4.074  1.00  0.00     0.221 A 
ATOM     83  C   UNL     1      11.035  -6.147  -2.148  1.00  0.00     0.135 A 
ATOM     84  O   UNL     1      11.219  -6.154  -3.497  1.00  0.00    -0.451 OA
BRANCH  82  85
ATOM     85  C   UNL     1       9.951  -6.498  -5.556  1.00  0.00     0.450 C 
ATOM     86  F   UNL     1      10.676  -5.502  -6.132  1.00  0.00    -0.163 F 
ATOM     87  F   UNL     1      10.449  -7.668  -6.030  1.00  0.00    -0.163 F 
ATOM     88  F   UNL     1       8.691  -6.372  -6.046  1.00  0.00    -0.163 F 
ENDBRANCH  82  85
BRANCH  83  89
ATOM     89  C   UNL     1      12.189  -5.838  -1.325  1.00  0.00     0.019 A 
ATOM     90  C   UNL     1      12.489  -6.632  -0.209  1.00  0.00     0.012 A 
ATOM     91  C   UNL     1      12.960  -4.698  -1.582  1.00  0.00     0.032 A 
ATOM     92  C   UNL     1      13.539  -6.289   0.644  1.00  0.00     0.002 A 
ATOM     93  C   UNL     1      13.997  -4.351  -0.717  1.00  0.00     0.041 A 
ATOM     94  C   UNL     1      14.289  -5.140   0.394  1.00  0.00     0.020 A 
ATOM     95  Cl  UNL     1      14.904  -2.917  -1.005  1.00  0.00    -0.084 Cl
ENDBRANCH  83  89
ENDBRANCH  77  80
ENDBRANCH  75  76
ENDBRANCH  74  75
ENDBRANCH  73  74
ENDBRANCH   1  73
TORSDOF 15
