REMARK SMILES Cc1cccc(C(=O)NCCCCCCNC(=O)c2ccc(-c3c4nc(c(-c5c(F)c(F)c(F)c(F)c5F)c5ccc([nH]5)c(-c5c(F)c(F)c(F)c(F)c5F)c5nc(c(-c6c(F)c(F)c(F)c(F)c6F)c6ccc3[nH]6)C=C5)C=C4)cc2)c1OC[C@@H]1C[C@H]2CC[C@@H]1C2
REMARK SMILES IDX 12 1 11 2 10 3 9 4 7 5 8 6 6 8 1 9 2 10 3 11 82 12 4 13 5 14
REMARK SMILES IDX 83 15 84 16 85 17 86 18 90 19 87 20 89 21 91 22 88 23 13 24
REMARK SMILES IDX 14 25 15 26 16 27 17 28 18 30 19 31 20 32 81 33 21 34 80 35
REMARK SMILES IDX 22 36 23 37 24 38 74 39 25 40 79 41 73 42 75 43 26 44 78 45
REMARK SMILES IDX 72 46 71 47 27 49 59 50 39 51 58 52 40 53 43 54 57 55 76 56
REMARK SMILES IDX 41 57 42 58 56 60 77 61 44 62 28 63 29 64 37 65 30 66 31 67
REMARK SMILES IDX 35 68 38 69 32 70 33 71 36 72 34 73 60 74 61 75 69 76 62 77
REMARK SMILES IDX 63 78 67 79 70 80 64 81 65 82 68 83 66 84 45 85 46 86 54 87
REMARK SMILES IDX 47 88 48 89 52 90 55 91 49 92 50 93 53 94 51 95
REMARK H PARENT 9 7 16 29 75 48 43 59
REMARK Flexibility Score: inf
ROOT
ATOM      1  C   UNL     1       0.184   6.282  -0.894  1.00  0.00     0.002 C 
ENDROOT
BRANCH   1   2
ATOM      2  C   UNL     1       0.649   4.831  -0.702  1.00  0.00     0.021 C 
BRANCH   2   3
ATOM      3  C   UNL     1       0.023   4.105   0.494  1.00  0.00     0.116 C 
BRANCH   3   4
ATOM      4  N   UNL     1      -1.252   3.553   0.127  1.00  0.00    -0.352 N 
ATOM      5  C   UNL     1      -1.676   2.285  -0.143  1.00  0.00     0.255 C 
ATOM      6  O   UNL     1      -2.865   2.193  -0.476  1.00  0.00    -0.269 OA
ATOM      7  H   UNL     1      -1.966   4.228   0.055  1.00  0.00     0.163 HD
BRANCH   5   8
ATOM      8  C   UNL     1      -0.890   1.014  -0.018  1.00  0.00     0.082 A 
ATOM      9  C   UNL     1       1.929  -1.064  -1.560  1.00  0.00     0.048 C 
ATOM     10  C   UNL     1       0.793  -0.616  -0.678  1.00  0.00    -0.008 A 
ATOM     11  C   UNL     1      -0.043  -1.652  -0.216  1.00  0.00     0.007 A 
ATOM     12  C   UNL     1       0.422   0.735  -0.470  1.00  0.00     0.134 A 
ATOM     13  C   UNL     1      -1.271  -1.376   0.360  1.00  0.00     0.001 A 
ATOM     14  C   UNL     1      -1.702  -0.059   0.421  1.00  0.00     0.018 A 
BRANCH  12  15
ATOM     15  O   UNL     1       1.253   1.764  -0.807  1.00  0.00    -0.492 OA
BRANCH  15  16
ATOM     16  C   UNL     1       2.595   1.817  -0.260  1.00  0.00     0.233 C 
BRANCH  16  17
ATOM     17  C   UNL     1       2.836   1.340   1.197  1.00  0.00     0.030 C 
ATOM     18  C   UNL     1       3.735   2.327   2.004  1.00  0.00     0.011 C 
ATOM     19  C   UNL     1       3.703   0.049   1.268  1.00  0.00    -0.004 C 
ATOM     20  C   UNL     1       4.927   1.464   2.461  1.00  0.00    -0.010 C 
ATOM     21  C   UNL     1       3.619  -0.536   2.689  1.00  0.00     0.004 C 
ATOM     22  C   UNL     1       5.139   0.578   1.242  1.00  0.00     0.007 C 
ATOM     23  C   UNL     1       4.454   0.451   3.515  1.00  0.00     0.004 C 
ENDBRANCH  16  17
ENDBRANCH  15  16
ENDBRANCH  12  15
ENDBRANCH   5   8
ENDBRANCH   3   4
ENDBRANCH   2   3
ENDBRANCH   1   2
BRANCH   1  24
ATOM     24  C   UNL     1       0.381   7.226   0.305  1.00  0.00     0.002 C 
BRANCH  24  25
ATOM     25  C   UNL     1       1.721   7.115   1.038  1.00  0.00     0.021 C 
BRANCH  25  26
ATOM     26  C   UNL     1       2.906   7.643   0.239  1.00  0.00     0.116 C 
BRANCH  26  27
ATOM     27  N   UNL     1       3.435   8.909   0.750  1.00  0.00    -0.352 N 
ATOM     28  C   UNL     1       4.388   9.738   0.199  1.00  0.00     0.251 C 
ATOM     29  H   UNL     1       3.056   9.211   1.607  1.00  0.00     0.163 HD
ATOM     30  O   UNL     1       4.727  10.768   0.755  1.00  0.00    -0.269 OA
BRANCH  28  31
ATOM     31  C   UNL     1       4.910   9.414  -1.152  1.00  0.00     0.039 A 
ATOM     32  C   UNL     1       4.794  10.388  -2.147  1.00  0.00     0.014 A 
ATOM     33  C   UNL     1       5.287   8.111  -1.468  1.00  0.00     0.014 A 
ATOM     34  C   UNL     1       4.818   9.994  -3.482  1.00  0.00     0.010 A 
ATOM     35  C   UNL     1       5.234   7.707  -2.788  1.00  0.00     0.010 A 
ATOM     36  C   UNL     1       4.924   8.636  -3.788  1.00  0.00    -0.014 A 
BRANCH  36  37
ATOM     37  C   UNL     1       4.559   8.094  -5.093  1.00  0.00     0.031 A 
ATOM     38  C   UNL     1       5.583   7.649  -6.057  1.00  0.00     0.074 A 
ATOM     39  C   UNL     1       3.253   7.965  -5.420  1.00  0.00     0.049 A 
ATOM     40  N   UNL     1       5.400   7.650  -7.336  1.00  0.00    -0.248 NA
ATOM     41  C   UNL     1       6.907   7.184  -5.661  1.00  0.00     0.031 C 
ATOM     42  C   UNL     1       2.697   7.266  -6.577  1.00  0.00     0.029 A 
ATOM     43  N   UNL     1       2.155   8.644  -4.864  1.00  0.00    -0.354 N 
ATOM     44  C   UNL     1       6.445   6.971  -7.906  1.00  0.00     0.074 A 
ATOM     45  C   UNL     1       7.388   6.748  -6.831  1.00  0.00     0.031 C 
ATOM     46  C   UNL     1       1.488   7.779  -6.847  1.00  0.00     0.029 A 
ATOM     47  C   UNL     1       1.280   8.898  -5.948  1.00  0.00     0.049 A 
ATOM     48  H   UNL     1       2.023   8.890  -3.920  1.00  0.00     0.167 HD
ATOM     49  C   UNL     1       6.365   6.563  -9.203  1.00  0.00     0.037 A 
ATOM     50  C   UNL     1       0.977  10.173  -6.323  1.00  0.00     0.037 A 
ATOM     51  C   UNL     1       5.116   6.957  -9.843  1.00  0.00     0.049 A 
ATOM     52  C   UNL     1       1.380  10.537  -7.737  1.00  0.00     0.074 A 
ATOM     53  C   UNL     1       3.925   6.311 -10.130  1.00  0.00     0.029 A 
ATOM     54  N   UNL     1       4.869   8.303 -10.032  1.00  0.00    -0.354 N 
ATOM     55  N   UNL     1       2.014   9.741  -8.553  1.00  0.00    -0.248 NA
ATOM     56  C   UNL     1       1.197  11.877  -8.299  1.00  0.00     0.031 C 
ATOM     57  C   UNL     1       2.966   7.289 -10.516  1.00  0.00     0.029 A 
ATOM     58  C   UNL     1       3.575   8.527 -10.459  1.00  0.00     0.049 A 
ATOM     59  H   UNL     1       5.533   9.015  -9.882  1.00  0.00     0.167 HD
ATOM     60  C   UNL     1       2.376  10.440  -9.675  1.00  0.00     0.074 A 
ATOM     61  C   UNL     1       1.839  11.771  -9.474  1.00  0.00     0.031 C 
ATOM     62  C   UNL     1       3.134   9.893 -10.667  1.00  0.00     0.037 A 
BRANCH  49  63
ATOM     63  C   UNL     1       7.362   5.616  -9.807  1.00  0.00     0.064 A 
ATOM     64  C   UNL     1       6.955   4.571 -10.659  1.00  0.00     0.173 A 
ATOM     65  C   UNL     1       8.741   5.681  -9.541  1.00  0.00     0.173 A 
ATOM     66  F   UNL     1       5.679   4.437 -11.043  1.00  0.00    -0.203 F 
ATOM     67  C   UNL     1       7.848   3.605 -11.127  1.00  0.00     0.198 A 
ATOM     68  C   UNL     1       9.625   4.685  -9.964  1.00  0.00     0.198 A 
ATOM     69  F   UNL     1       9.264   6.719  -8.871  1.00  0.00    -0.203 F 
ATOM     70  F   UNL     1       7.406   2.625 -11.927  1.00  0.00    -0.200 F 
ATOM     71  C   UNL     1       9.175   3.641 -10.750  1.00  0.00     0.200 A 
ATOM     72  F   UNL     1      10.912   4.735  -9.593  1.00  0.00    -0.200 F 
ATOM     73  F   UNL     1      10.018   2.679 -11.148  1.00  0.00    -0.200 F 
ENDBRANCH  49  63
BRANCH  50  74
ATOM     74  C   UNL     1       0.940  11.118  -5.177  1.00  0.00     0.064 A 
ATOM     75  C   UNL     1      -0.007  10.898  -4.157  1.00  0.00     0.173 A 
ATOM     76  C   UNL     1       2.005  11.978  -4.896  1.00  0.00     0.173 A 
ATOM     77  F   UNL     1      -1.048  10.077  -4.373  1.00  0.00    -0.203 F 
ATOM     78  C   UNL     1       0.169  11.423  -2.880  1.00  0.00     0.198 A 
ATOM     79  C   UNL     1       2.168  12.520  -3.621  1.00  0.00     0.198 A 
ATOM     80  F   UNL     1       2.951  12.211  -5.818  1.00  0.00    -0.203 F 
ATOM     81  F   UNL     1      -0.689  11.103  -1.900  1.00  0.00    -0.200 F 
ATOM     82  C   UNL     1       1.271  12.214  -2.607  1.00  0.00     0.200 A 
ATOM     83  F   UNL     1       3.246  13.270  -3.352  1.00  0.00    -0.200 F 
ATOM     84  F   UNL     1       1.490  12.652  -1.359  1.00  0.00    -0.200 F 
ENDBRANCH  50  74
BRANCH  62  85
ATOM     85  C   UNL     1       3.533  10.619 -11.920  1.00  0.00     0.064 A 
ATOM     86  C   UNL     1       2.626  11.390 -12.664  1.00  0.00     0.173 A 
ATOM     87  C   UNL     1       4.818  10.459 -12.482  1.00  0.00     0.173 A 
ATOM     88  F   UNL     1       1.359  11.547 -12.251  1.00  0.00    -0.203 F 
ATOM     89  C   UNL     1       2.995  11.998 -13.866  1.00  0.00     0.198 A 
ATOM     90  C   UNL     1       5.168  11.024 -13.706  1.00  0.00     0.198 A 
ATOM     91  F   UNL     1       5.778   9.768 -11.849  1.00  0.00    -0.203 F 
ATOM     92  F   UNL     1       2.114  12.768 -14.519  1.00  0.00    -0.200 F 
ATOM     93  C   UNL     1       4.261  11.806 -14.392  1.00  0.00     0.200 A 
ATOM     94  F   UNL     1       6.390  10.808 -14.213  1.00  0.00    -0.200 F 
ATOM     95  F   UNL     1       4.605  12.372 -15.556  1.00  0.00    -0.200 F 
ENDBRANCH  62  85
ENDBRANCH  36  37
ENDBRANCH  28  31
ENDBRANCH  26  27
ENDBRANCH  25  26
ENDBRANCH  24  25
ENDBRANCH   1  24
TORSDOF 16
