REMARK SMILES O=C(NCCCCCCNC(=O)[C@@H]1CCCN1S(=O)(=O)c1ccc2[nH]c(=O)c(=O)[nH]c2c1)c1ccc(-c2c3nc(c(-c4c(F)c(F)c(F)c(F)c4F)c4ccc([nH]4)c(-c4c(F)c(F)c(F)c(F)c4F)c4nc(c(-c5c(F)c(F)c(F)c(F)c5F)c5ccc2[nH]5)C=C4)C=C3)cc1
REMARK SMILES IDX 6 1 5 2 4 3 3 4 1 5 2 6 33 8 34 9 95 10 35 11 94 12 36 13
REMARK SMILES IDX 37 14 38 15 88 16 39 17 93 18 87 19 89 20 40 21 92 22 86 23
REMARK SMILES IDX 85 24 41 26 73 27 53 28 72 29 54 30 57 31 71 32 90 33 55 34
REMARK SMILES IDX 56 35 70 37 91 38 58 39 42 40 43 41 51 42 44 43 45 44 49 45
REMARK SMILES IDX 52 46 46 47 47 48 50 49 48 50 74 51 75 52 83 53 76 54 77 55
REMARK SMILES IDX 81 56 84 57 78 58 79 59 82 60 80 61 59 62 60 63 68 64 61 65
REMARK SMILES IDX 62 66 66 67 69 68 63 69 64 70 67 71 65 72 7 73 8 74 9 75
REMARK SMILES IDX 10 76 11 77 12 79 13 80 14 81 17 82 15 83 16 84 18 85 19 86
REMARK SMILES IDX 20 87 21 88 22 89 32 90 23 91 31 92 24 93 30 94 25 95 28 96
REMARK SMILES IDX 26 98 29 100 27 101
REMARK H PARENT 3 7 89 25 57 36 10 78 30 97 25 99
REMARK Flexibility Score: inf
ROOT
ATOM      1  C   UNL     1       3.951   1.474  -3.762  1.00  0.00     0.002 C 
ENDROOT
BRANCH   1   2
ATOM      2  C   UNL     1       4.316   0.338  -2.812  1.00  0.00     0.021 C 
BRANCH   2   3
ATOM      3  C   UNL     1       4.237   0.698  -1.334  1.00  0.00     0.116 C 
BRANCH   3   4
ATOM      4  N   UNL     1       2.870   0.740  -0.846  1.00  0.00    -0.352 N 
ATOM      5  O   UNL     1       1.059  -0.014   0.276  1.00  0.00    -0.269 OA
ATOM      6  C   UNL     1       2.272  -0.057   0.101  1.00  0.00     0.251 C 
ATOM      7  H   UNL     1       2.296   1.431  -1.246  1.00  0.00     0.163 HD
BRANCH   6   8
ATOM      8  C   UNL     1       3.100  -0.989   0.897  1.00  0.00     0.039 A 
ATOM      9  C   UNL     1       4.301  -0.558   1.464  1.00  0.00     0.014 A 
ATOM     10  C   UNL     1       2.672  -2.307   1.077  1.00  0.00     0.014 A 
ATOM     11  C   UNL     1       5.140  -1.477   2.081  1.00  0.00     0.010 A 
ATOM     12  C   UNL     1       3.473  -3.208   1.787  1.00  0.00     0.010 A 
ATOM     13  C   UNL     1       4.725  -2.806   2.274  1.00  0.00    -0.014 A 
BRANCH  13  14
ATOM     14  C   UNL     1       5.592  -3.710   3.072  1.00  0.00     0.031 A 
ATOM     15  C   UNL     1       6.244  -4.920   2.467  1.00  0.00     0.074 A 
ATOM     16  C   UNL     1       5.829  -3.382   4.357  1.00  0.00     0.049 A 
ATOM     17  N   UNL     1       7.085  -5.761   3.017  1.00  0.00    -0.248 NA
ATOM     18  C   UNL     1       5.910  -5.236   1.071  1.00  0.00     0.031 C 
ATOM     19  C   UNL     1       5.222  -2.247   5.058  1.00  0.00     0.029 A 
ATOM     20  N   UNL     1       6.661  -3.942   5.292  1.00  0.00    -0.354 N 
ATOM     21  C   UNL     1       7.371  -6.708   2.043  1.00  0.00     0.074 A 
ATOM     22  C   UNL     1       6.594  -6.356   0.873  1.00  0.00     0.031 C 
ATOM     23  C   UNL     1       5.749  -2.155   6.286  1.00  0.00     0.029 A 
ATOM     24  C   UNL     1       6.683  -3.257   6.482  1.00  0.00     0.049 A 
ATOM     25  H   UNL     1       7.191  -4.755   5.127  1.00  0.00     0.167 HD
ATOM     26  C   UNL     1       8.212  -7.768   2.121  1.00  0.00     0.037 A 
ATOM     27  C   UNL     1       7.374  -3.491   7.612  1.00  0.00     0.037 A 
ATOM     28  C   UNL     1       8.987  -8.110   3.288  1.00  0.00     0.049 A 
ATOM     29  C   UNL     1       8.309  -4.663   7.659  1.00  0.00     0.074 A 
ATOM     30  C   UNL     1       9.872  -9.161   3.462  1.00  0.00     0.029 A 
ATOM     31  N   UNL     1       8.972  -7.402   4.481  1.00  0.00    -0.354 N 
ATOM     32  N   UNL     1       8.584  -5.538   6.723  1.00  0.00    -0.248 NA
ATOM     33  C   UNL     1       9.029  -4.881   8.919  1.00  0.00     0.031 C 
ATOM     34  C   UNL     1      10.367  -9.108   4.770  1.00  0.00     0.029 A 
ATOM     35  C   UNL     1       9.823  -8.000   5.399  1.00  0.00     0.049 A 
ATOM     36  H   UNL     1       8.435  -6.594   4.652  1.00  0.00     0.167 HD
ATOM     37  C   UNL     1       9.504  -6.412   7.279  1.00  0.00     0.074 A 
ATOM     38  C   UNL     1       9.773  -5.937   8.621  1.00  0.00     0.031 C 
ATOM     39  C   UNL     1      10.065  -7.519   6.734  1.00  0.00     0.037 A 
BRANCH  26  40
ATOM     40  C   UNL     1       8.343  -8.648   0.911  1.00  0.00     0.064 A 
ATOM     41  C   UNL     1       9.046  -8.228  -0.227  1.00  0.00     0.173 A 
ATOM     42  C   UNL     1       7.818  -9.949   0.914  1.00  0.00     0.173 A 
ATOM     43  F   UNL     1       9.558  -6.989  -0.285  1.00  0.00    -0.203 F 
ATOM     44  C   UNL     1       9.209  -9.073  -1.322  1.00  0.00     0.198 A 
ATOM     45  C   UNL     1       8.002 -10.800  -0.173  1.00  0.00     0.198 A 
ATOM     46  F   UNL     1       7.141 -10.403   1.980  1.00  0.00    -0.203 F 
ATOM     47  F   UNL     1       9.860  -8.639  -2.411  1.00  0.00    -0.200 F 
ATOM     48  C   UNL     1       8.694 -10.361  -1.291  1.00  0.00     0.200 A 
ATOM     49  F   UNL     1       7.514 -12.048  -0.137  1.00  0.00    -0.200 F 
ATOM     50  F   UNL     1       8.863 -11.177  -2.341  1.00  0.00    -0.200 F 
ENDBRANCH  26  40
BRANCH  27  51
ATOM     51  C   UNL     1       7.196  -2.596   8.783  1.00  0.00     0.064 A 
ATOM     52  C   UNL     1       8.225  -1.748   9.210  1.00  0.00     0.173 A 
ATOM     53  C   UNL     1       5.983  -2.560   9.488  1.00  0.00     0.173 A 
ATOM     54  F   UNL     1       9.408  -1.759   8.578  1.00  0.00    -0.203 F 
ATOM     55  C   UNL     1       8.055  -0.908  10.309  1.00  0.00     0.198 A 
ATOM     56  C   UNL     1       5.803  -1.698  10.566  1.00  0.00     0.198 A 
ATOM     57  F   UNL     1       4.965  -3.348   9.113  1.00  0.00    -0.203 F 
ATOM     58  F   UNL     1       9.069  -0.137  10.723  1.00  0.00    -0.200 F 
ATOM     59  C   UNL     1       6.841  -0.879  10.981  1.00  0.00     0.200 A 
ATOM     60  F   UNL     1       4.623  -1.659  11.200  1.00  0.00    -0.200 F 
ATOM     61  F   UNL     1       6.675  -0.064  12.032  1.00  0.00    -0.200 F 
ENDBRANCH  27  51
BRANCH  39  62
ATOM     62  C   UNL     1      11.021  -8.282   7.600  1.00  0.00     0.064 A 
ATOM     63  C   UNL     1      10.569  -9.048   8.686  1.00  0.00     0.173 A 
ATOM     64  C   UNL     1      12.400  -8.247   7.345  1.00  0.00     0.173 A 
ATOM     65  F   UNL     1       9.261  -9.096   8.979  1.00  0.00    -0.203 F 
ATOM     66  C   UNL     1      11.468  -9.724   9.506  1.00  0.00     0.198 A 
ATOM     67  C   UNL     1      13.293  -8.947   8.152  1.00  0.00     0.198 A 
ATOM     68  F   UNL     1      12.880  -7.533   6.317  1.00  0.00    -0.203 F 
ATOM     69  F   UNL     1      11.019 -10.402  10.571  1.00  0.00    -0.200 F 
ATOM     70  C   UNL     1      12.827  -9.676   9.236  1.00  0.00     0.200 A 
ATOM     71  F   UNL     1      14.606  -8.906   7.887  1.00  0.00    -0.200 F 
ATOM     72  F   UNL     1      13.691 -10.323  10.031  1.00  0.00    -0.200 F 
ENDBRANCH  39  62
ENDBRANCH  13  14
ENDBRANCH   6   8
ENDBRANCH   3   4
ENDBRANCH   2   3
ENDBRANCH   1   2
BRANCH   1  73
ATOM     73  C   UNL     1       4.742   2.767  -3.564  1.00  0.00     0.002 C 
BRANCH  73  74
ATOM     74  C   UNL     1       6.256   2.605  -3.375  1.00  0.00     0.021 C 
BRANCH  74  75
ATOM     75  C   UNL     1       7.019   2.012  -4.556  1.00  0.00     0.116 C 
BRANCH  75  76
ATOM     76  N   UNL     1       7.019   2.887  -5.713  1.00  0.00    -0.355 N 
ATOM     77  C   UNL     1       7.843   3.868  -6.161  1.00  0.00     0.238 C 
ATOM     78  H   UNL     1       6.249   2.735  -6.306  1.00  0.00     0.163 HD
ATOM     79  O   UNL     1       7.409   4.496  -7.139  1.00  0.00    -0.273 OA
BRANCH  77  80
ATOM     80  C   UNL     1       9.196   4.244  -5.590  1.00  0.00     0.162 C 
ATOM     81  C   UNL     1      10.010   3.205  -4.834  1.00  0.00     0.032 C 
ATOM     82  N   UNL     1       9.537   5.545  -4.916  1.00  0.00    -0.185 NA
ATOM     83  C   UNL     1      11.348   3.909  -4.721  1.00  0.00     0.019 C 
ATOM     84  C   UNL     1      10.960   5.352  -4.410  1.00  0.00     0.103 C 
BRANCH  82  85
ATOM     85  S   UNL     1       8.559   6.238  -3.702  1.00  0.00     0.243 S 
ATOM     86  O   UNL     1       8.163   5.168  -2.803  1.00  0.00    -0.207 OA
ATOM     87  O   UNL     1       9.304   7.357  -3.176  1.00  0.00    -0.207 OA
BRANCH  85  88
ATOM     88  C   UNL     1       7.085   6.934  -4.420  1.00  0.00     0.084 A 
ATOM     89  C   UNL     1       6.067   6.119  -4.908  1.00  0.00     0.024 A 
ATOM     90  C   UNL     1       6.855   8.313  -4.313  1.00  0.00     0.050 A 
ATOM     91  C   UNL     1       4.893   6.657  -5.434  1.00  0.00     0.030 A 
ATOM     92  C   UNL     1       5.641   8.847  -4.758  1.00  0.00     0.066 A 
ATOM     93  C   UNL     1       4.682   8.025  -5.356  1.00  0.00     0.065 A 
ATOM     94  N   UNL     1       5.361  10.202  -4.566  1.00  0.00    -0.316 N 
ATOM     95  N   UNL     1       3.495   8.567  -5.848  1.00  0.00    -0.316 N 
ATOM     96  C   UNL     1       4.179  10.793  -4.963  1.00  0.00     0.314 A 
ATOM     97  H   UNL     1       6.040  10.764  -4.127  1.00  0.00     0.170 HD
ATOM     98  C   UNL     1       3.173   9.900  -5.733  1.00  0.00     0.314 A 
ATOM     99  H   UNL     1       2.858   7.968  -6.300  1.00  0.00     0.170 HD
ATOM    100  O   UNL     1       3.930  11.966  -4.716  1.00  0.00    -0.263 OA
ATOM    101  O   UNL     1       2.139  10.353  -6.204  1.00  0.00    -0.263 OA
ENDBRANCH  85  88
ENDBRANCH  82  85
ENDBRANCH  77  80
ENDBRANCH  75  76
ENDBRANCH  74  75
ENDBRANCH  73  74
ENDBRANCH   1  73
TORSDOF 15
