REMARK SMILES O=C(C[C@H]1CN(c2nc(C3CC3)ns2)CCO1)NCCCCCCNC(=O)c1ccc(-c2c3nc(c(-c4c(F)c(F)c(F)c(F)c4F)c4ccc([nH]4)c(-c4c(F)c(F)c(F)c(F)c4F)c4nc(c(-c5c(F)c(F)c(F)c(F)c5F)c5ccc2[nH]5)C=C4)C=C3)cc1
REMARK SMILES IDX 21 1 20 2 19 3 18 4 1 5 2 6 3 8 4 9 5 10 17 11 6 12 16 13
REMARK SMILES IDX 15 14 7 15 8 16 14 17 9 18 13 19 10 20 11 21 12 22 22 23
REMARK SMILES IDX 23 24 24 25 25 26 26 27 27 29 28 30 29 31 90 32 30 33 89 34
REMARK SMILES IDX 31 35 32 36 33 37 83 38 34 39 88 40 82 41 84 42 35 43 87 44
REMARK SMILES IDX 81 45 80 46 36 48 68 49 48 50 67 51 49 52 52 53 66 54 85 55
REMARK SMILES IDX 50 56 51 57 65 59 86 60 53 61 37 62 38 63 46 64 39 65 40 66
REMARK SMILES IDX 44 67 47 68 41 69 42 70 45 71 43 72 69 73 70 74 78 75 71 76
REMARK SMILES IDX 72 77 76 78 79 79 73 80 74 81 77 82 75 83 54 84 55 85 63 86
REMARK SMILES IDX 56 87 57 88 61 89 64 90 58 91 59 92 62 93 60 94
REMARK H PARENT 18 7 25 28 84 47 52 58
REMARK Flexibility Score: inf
ROOT
ATOM      1  C   UNL     1       7.438   5.868   1.986  1.00  0.00     0.002 C 
ENDROOT
BRANCH   1   2
ATOM      2  C   UNL     1       8.498   4.932   1.400  1.00  0.00     0.021 C 
BRANCH   2   3
ATOM      3  C   UNL     1       8.035   3.523   1.052  1.00  0.00     0.116 C 
BRANCH   3   4
ATOM      4  N   UNL     1       6.973   3.411   0.079  1.00  0.00    -0.356 N 
ATOM      5  O   UNL     1       7.404   1.196  -0.376  1.00  0.00    -0.275 OA
ATOM      6  C   UNL     1       6.673   2.179  -0.471  1.00  0.00     0.222 C 
ATOM      7  H   UNL     1       6.465   4.209  -0.192  1.00  0.00     0.163 HD
BRANCH   6   8
ATOM      8  C   UNL     1       5.379   2.104  -1.251  1.00  0.00     0.133 C 
BRANCH   8   9
ATOM      9  C   UNL     1       4.120   1.744  -0.445  1.00  0.00     0.147 C 
ATOM     10  C   UNL     1       4.322   1.002   0.890  1.00  0.00     0.151 C 
ATOM     11  O   UNL     1       3.222   2.869  -0.301  1.00  0.00    -0.374 OA
ATOM     12  N   UNL     1       4.684   1.930   1.960  1.00  0.00    -0.342 N 
ATOM     13  C   UNL     1       3.598   3.773   0.742  1.00  0.00     0.182 C 
ATOM     14  C   UNL     1       3.807   3.086   2.107  1.00  0.00     0.147 C 
BRANCH  12  15
ATOM     15  C   UNL     1       5.630   1.556   2.867  1.00  0.00     0.205 A 
ATOM     16  N   UNL     1       6.745   0.927   2.556  1.00  0.00    -0.203 NA
ATOM     17  S   UNL     1       5.580   1.859   4.573  1.00  0.00     0.004 S 
ATOM     18  C   UNL     1       7.564   0.816   3.671  1.00  0.00     0.147 A 
ATOM     19  N   UNL     1       7.090   1.205   4.856  1.00  0.00    -0.174 NA
BRANCH  18  20
ATOM     20  C   UNL     1       8.994   0.258   3.577  1.00  0.00     0.059 C 
ATOM     21  C   UNL     1       9.454  -0.378   2.279  1.00  0.00     0.012 C 
ATOM     22  C   UNL     1      10.043   0.921   2.708  1.00  0.00     0.012 C 
ENDBRANCH  18  20
ENDBRANCH  12  15
ENDBRANCH   8   9
ENDBRANCH   6   8
ENDBRANCH   3   4
ENDBRANCH   2   3
ENDBRANCH   1   2
BRANCH   1  23
ATOM     23  C   UNL     1       6.750   5.414   3.276  1.00  0.00     0.002 C 
BRANCH  23  24
ATOM     24  C   UNL     1       7.628   5.176   4.502  1.00  0.00     0.021 C 
BRANCH  24  25
ATOM     25  C   UNL     1       8.561   6.316   4.880  1.00  0.00     0.116 C 
BRANCH  25  26
ATOM     26  N   UNL     1       7.873   7.577   5.106  1.00  0.00    -0.352 N 
ATOM     27  C   UNL     1       8.075   8.525   6.080  1.00  0.00     0.251 C 
ATOM     28  H   UNL     1       7.154   7.781   4.465  1.00  0.00     0.163 HD
ATOM     29  O   UNL     1       7.317   9.481   6.170  1.00  0.00    -0.269 OA
BRANCH  27  30
ATOM     30  C   UNL     1       9.194   8.378   7.041  1.00  0.00     0.039 A 
ATOM     31  C   UNL     1       8.976   8.705   8.382  1.00  0.00     0.014 A 
ATOM     32  C   UNL     1      10.453   7.936   6.629  1.00  0.00     0.014 A 
ATOM     33  C   UNL     1      10.004   8.540   9.313  1.00  0.00     0.010 A 
ATOM     34  C   UNL     1      11.444   7.680   7.571  1.00  0.00     0.010 A 
ATOM     35  C   UNL     1      11.238   7.999   8.920  1.00  0.00    -0.014 A 
BRANCH  35  36
ATOM     36  C   UNL     1      12.342   7.807   9.895  1.00  0.00     0.031 A 
ATOM     37  C   UNL     1      13.635   8.559   9.719  1.00  0.00     0.074 A 
ATOM     38  C   UNL     1      12.200   6.932  10.909  1.00  0.00     0.049 A 
ATOM     39  N   UNL     1      14.740   8.487  10.419  1.00  0.00    -0.248 NA
ATOM     40  C   UNL     1      13.706   9.499   8.588  1.00  0.00     0.031 C 
ATOM     41  C   UNL     1      11.016   6.108  11.158  1.00  0.00     0.029 A 
ATOM     42  N   UNL     1      13.065   6.582  11.917  1.00  0.00    -0.354 N 
ATOM     43  C   UNL     1      15.628   9.366   9.813  1.00  0.00     0.074 A 
ATOM     44  C   UNL     1      14.966   9.901   8.644  1.00  0.00     0.031 C 
ATOM     45  C   UNL     1      11.220   5.365  12.258  1.00  0.00     0.029 A 
ATOM     46  C   UNL     1      12.561   5.630  12.770  1.00  0.00     0.049 A 
ATOM     47  H   UNL     1      13.961   6.976  12.019  1.00  0.00     0.167 HD
ATOM     48  C   UNL     1      16.870   9.727  10.214  1.00  0.00     0.037 A 
ATOM     49  C   UNL     1      13.124   5.033  13.838  1.00  0.00     0.037 A 
ATOM     50  C   UNL     1      17.523   9.203  11.385  1.00  0.00     0.049 A 
ATOM     51  C   UNL     1      14.515   5.439  14.251  1.00  0.00     0.074 A 
ATOM     52  C   UNL     1      18.775   9.508  11.886  1.00  0.00     0.029 A 
ATOM     53  N   UNL     1      16.967   8.264  12.242  1.00  0.00    -0.354 N 
ATOM     54  N   UNL     1      15.326   6.309  13.698  1.00  0.00    -0.248 NA
ATOM     55  C   UNL     1      15.065   4.790  15.449  1.00  0.00     0.031 C 
ATOM     56  C   UNL     1      18.994   8.725  13.024  1.00  0.00     0.029 A 
ATOM     57  C   UNL     1      17.853   7.978  13.267  1.00  0.00     0.049 A 
ATOM     58  H   UNL     1      16.075   7.861  12.136  1.00  0.00     0.167 HD
ATOM     59  C   UNL     1      16.457   6.344  14.504  1.00  0.00     0.074 A 
ATOM     60  C   UNL     1      16.221   5.419  15.592  1.00  0.00     0.031 C 
ATOM     61  C   UNL     1      17.589   7.075  14.357  1.00  0.00     0.037 A 
BRANCH  48  62
ATOM     62  C   UNL     1      17.595  10.755   9.394  1.00  0.00     0.064 A 
ATOM     63  C   UNL     1      17.166  12.092   9.353  1.00  0.00     0.173 A 
ATOM     64  C   UNL     1      18.752  10.418   8.677  1.00  0.00     0.173 A 
ATOM     65  F   UNL     1      16.056  12.465  10.009  1.00  0.00    -0.203 F 
ATOM     66  C   UNL     1      17.853  13.044   8.606  1.00  0.00     0.198 A 
ATOM     67  C   UNL     1      19.456  11.381   7.958  1.00  0.00     0.198 A 
ATOM     68  F   UNL     1      19.209   9.157   8.683  1.00  0.00    -0.203 F 
ATOM     69  F   UNL     1      17.395  14.302   8.543  1.00  0.00    -0.200 F 
ATOM     70  C   UNL     1      19.003  12.691   7.917  1.00  0.00     0.200 A 
ATOM     71  F   UNL     1      20.576  11.041   7.304  1.00  0.00    -0.200 F 
ATOM     72  F   UNL     1      19.671  13.612   7.209  1.00  0.00    -0.200 F 
ENDBRANCH  48  62
BRANCH  49  73
ATOM     73  C   UNL     1      12.377   3.999  14.605  1.00  0.00     0.064 A 
ATOM     74  C   UNL     1      11.989   4.220  15.935  1.00  0.00     0.173 A 
ATOM     75  C   UNL     1      12.078   2.750  14.041  1.00  0.00     0.173 A 
ATOM     76  F   UNL     1      12.266   5.392  16.527  1.00  0.00    -0.203 F 
ATOM     77  C   UNL     1      11.374   3.219  16.683  1.00  0.00     0.198 A 
ATOM     78  C   UNL     1      11.428   1.762  14.779  1.00  0.00     0.198 A 
ATOM     79  F   UNL     1      12.418   2.486  12.771  1.00  0.00    -0.203 F 
ATOM     80  F   UNL     1      11.083   3.434  17.974  1.00  0.00    -0.200 F 
ATOM     81  C   UNL     1      11.091   1.991  16.105  1.00  0.00     0.200 A 
ATOM     82  F   UNL     1      11.143   0.583  14.210  1.00  0.00    -0.200 F 
ATOM     83  F   UNL     1      10.508   1.026  16.827  1.00  0.00    -0.200 F 
ENDBRANCH  49  73
BRANCH  61  84
ATOM     84  C   UNL     1      18.628   6.961  15.437  1.00  0.00     0.064 A 
ATOM     85  C   UNL     1      19.377   5.791  15.630  1.00  0.00     0.173 A 
ATOM     86  C   UNL     1      18.890   8.054  16.279  1.00  0.00     0.173 A 
ATOM     87  F   UNL     1      19.158   4.714  14.861  1.00  0.00    -0.203 F 
ATOM     88  C   UNL     1      20.320   5.706  16.651  1.00  0.00     0.198 A 
ATOM     89  C   UNL     1      19.860   7.978  17.273  1.00  0.00     0.198 A 
ATOM     90  F   UNL     1      18.210   9.201  16.130  1.00  0.00    -0.203 F 
ATOM     91  F   UNL     1      20.977   4.556  16.858  1.00  0.00    -0.200 F 
ATOM     92  C   UNL     1      20.565   6.800  17.467  1.00  0.00     0.200 A 
ATOM     93  F   UNL     1      20.109   9.043  18.048  1.00  0.00    -0.200 F 
ATOM     94  F   UNL     1      21.476   6.717  18.447  1.00  0.00    -0.200 F 
ENDBRANCH  61  84
ENDBRANCH  35  36
ENDBRANCH  27  30
ENDBRANCH  25  26
ENDBRANCH  24  25
ENDBRANCH  23  24
ENDBRANCH   1  23
TORSDOF 16
