REMARK SMILES Cc1cc(C(=O)NCCCCCCNC(=O)c2ccc(-c3c4nc(c(-c5c(F)c(F)c(F)c(F)c5F)c5ccc([nH]5)c(-c5c(F)c(F)c(F)c(F)c5F)c5nc(c(-c6c(F)c(F)c(F)c(F)c6F)c6ccc3[nH]6)C=C5)C=C4)cc2)cc(S(=O)(=O)NNC(=O)c2c[nH]c3ccccc23)c1C
REMARK SMILES IDX 9 1 8 2 7 3 5 4 6 5 4 7 1 8 2 9 3 10 98 11 81 12 99 13 80 14
REMARK SMILES IDX 82 15 83 16 84 17 85 18 86 20 87 21 88 23 89 24 90 25 97 26
REMARK SMILES IDX 91 27 92 28 96 29 93 31 95 32 94 33 10 34 11 35 12 36 13 37
REMARK SMILES IDX 14 38 15 39 16 41 17 42 18 43 79 44 19 45 78 46 20 47 21 48
REMARK SMILES IDX 22 49 72 50 23 51 77 52 71 53 73 54 24 55 76 56 70 57 69 58
REMARK SMILES IDX 25 60 57 61 37 62 56 63 38 64 41 65 55 66 74 67 39 68 40 69
REMARK SMILES IDX 54 71 75 72 42 73 26 74 27 75 35 76 28 77 29 78 33 79 36 80
REMARK SMILES IDX 30 81 31 82 34 83 32 84 58 85 59 86 67 87 60 88 61 89 65 90
REMARK SMILES IDX 68 91 62 92 63 93 66 94 64 95 43 96 44 97 52 98 45 99 46 100
REMARK SMILES IDX 50 101 53 102 47 103 48 104 51 105 49 106
REMARK H PARENT 7 6 85 19 86 22 91 30 14 40 73 59 41 70
REMARK Flexibility Score: inf
ROOT
ATOM      1  C   UNL     1      -2.151   4.363  -0.675  1.00  0.00     0.021 C 
ENDROOT
BRANCH   1   2
ATOM      2  C   UNL     1      -2.384   3.449   0.533  1.00  0.00     0.116 C 
BRANCH   2   3
ATOM      3  N   UNL     1      -3.323   2.392   0.199  1.00  0.00    -0.352 N 
ATOM      4  C   UNL     1      -3.197   1.071  -0.146  1.00  0.00     0.251 C 
ATOM      5  O   UNL     1      -4.238   0.456  -0.391  1.00  0.00    -0.269 OA
ATOM      6  H   UNL     1      -4.261   2.692   0.225  1.00  0.00     0.163 HD
BRANCH   4   7
ATOM      7  C   UNL     1      -1.908   0.320  -0.208  1.00  0.00     0.041 A 
ATOM      8  C   UNL     1       1.851   0.878  -0.273  1.00  0.00     0.044 C 
ATOM      9  C   UNL     1       0.533   0.146  -0.279  1.00  0.00    -0.046 A 
ATOM     10  C   UNL     1      -0.650   0.908  -0.326  1.00  0.00     0.017 A 
ATOM     11  C   UNL     1       0.452  -1.261  -0.243  1.00  0.00    -0.028 A 
ATOM     12  C   UNL     1      -0.830  -1.864  -0.275  1.00  0.00     0.088 A 
ATOM     13  C   UNL     1       1.704  -2.107  -0.187  1.00  0.00     0.046 C 
ATOM     14  C   UNL     1      -1.989  -1.083  -0.201  1.00  0.00     0.036 A 
BRANCH  12  15
ATOM     15  S   UNL     1      -0.941  -3.618  -0.594  1.00  0.00     0.257 S 
ATOM     16  O   UNL     1      -0.422  -3.808  -1.937  1.00  0.00    -0.205 OA
ATOM     17  O   UNL     1      -0.382  -4.300   0.533  1.00  0.00    -0.205 OA
BRANCH  15  18
ATOM     18  N   UNL     1      -2.587  -4.067  -0.609  1.00  0.00    -0.123 NA
ATOM     19  H   UNL     1      -3.022  -3.605   0.189  1.00  0.00     0.167 HD
BRANCH  18  20
ATOM     20  N   UNL     1      -3.435  -3.779  -1.774  1.00  0.00    -0.273 N 
ATOM     21  C   UNL     1      -4.379  -4.705  -2.200  1.00  0.00     0.268 C 
ATOM     22  H   UNL     1      -3.334  -2.926  -2.255  1.00  0.00     0.186 HD
ATOM     23  O   UNL     1      -5.582  -4.498  -2.068  1.00  0.00    -0.268 OA
BRANCH  21  24
ATOM     24  C   UNL     1      -3.840  -5.730  -3.095  1.00  0.00     0.066 A 
ATOM     25  C   UNL     1      -2.505  -5.905  -3.419  1.00  0.00     0.097 A 
ATOM     26  C   UNL     1      -4.556  -6.606  -3.976  1.00  0.00     0.012 A 
ATOM     27  N   UNL     1      -2.471  -6.360  -4.708  1.00  0.00    -0.360 N 
ATOM     28  C   UNL     1      -3.718  -6.793  -5.078  1.00  0.00     0.046 A 
ATOM     29  C   UNL     1      -5.860  -7.139  -4.038  1.00  0.00     0.011 A 
ATOM     30  H   UNL     1      -1.672  -6.375  -5.283  1.00  0.00     0.166 HD
ATOM     31  C   UNL     1      -4.167  -7.306  -6.297  1.00  0.00     0.027 A 
ATOM     32  C   UNL     1      -6.281  -7.787  -5.208  1.00  0.00     0.001 A 
ATOM     33  C   UNL     1      -5.466  -7.813  -6.338  1.00  0.00     0.002 A 
ENDBRANCH  21  24
ENDBRANCH  18  20
ENDBRANCH  15  18
ENDBRANCH  12  15
ENDBRANCH   4   7
ENDBRANCH   2   3
ENDBRANCH   1   2
BRANCH   1  34
ATOM     34  C   UNL     1      -3.259   5.411  -0.868  1.00  0.00     0.002 C 
BRANCH  34  35
ATOM     35  C   UNL     1      -3.352   6.470   0.240  1.00  0.00     0.002 C 
BRANCH  35  36
ATOM     36  C   UNL     1      -2.079   7.290   0.471  1.00  0.00     0.021 C 
BRANCH  36  37
ATOM     37  C   UNL     1      -1.638   8.133  -0.723  1.00  0.00     0.116 C 
BRANCH  37  38
ATOM     38  N   UNL     1      -2.593   9.188  -1.028  1.00  0.00    -0.352 N 
ATOM     39  C   UNL     1      -2.398  10.543  -1.126  1.00  0.00     0.251 C 
ATOM     40  H   UNL     1      -3.516   8.885  -1.187  1.00  0.00     0.163 HD
ATOM     41  O   UNL     1      -3.361  11.301  -1.187  1.00  0.00    -0.269 OA
BRANCH  39  42
ATOM     42  C   UNL     1      -1.028  11.098  -1.146  1.00  0.00     0.039 A 
ATOM     43  C   UNL     1      -0.749  12.237  -0.384  1.00  0.00     0.014 A 
ATOM     44  C   UNL     1      -0.029  10.523  -1.937  1.00  0.00     0.014 A 
ATOM     45  C   UNL     1       0.544  12.766  -0.372  1.00  0.00     0.010 A 
ATOM     46  C   UNL     1       1.274  11.013  -1.876  1.00  0.00     0.010 A 
ATOM     47  C   UNL     1       1.572  12.141  -1.095  1.00  0.00    -0.014 A 
BRANCH  47  48
ATOM     48  C   UNL     1       2.964  12.655  -1.053  1.00  0.00     0.031 A 
ATOM     49  C   UNL     1       3.601  13.214  -2.295  1.00  0.00     0.074 A 
ATOM     50  C   UNL     1       3.675  12.559   0.087  1.00  0.00     0.049 A 
ATOM     51  N   UNL     1       4.828  13.631  -2.481  1.00  0.00    -0.248 NA
ATOM     52  C   UNL     1       2.753  13.291  -3.494  1.00  0.00     0.031 C 
ATOM     53  C   UNL     1       3.183  11.997   1.345  1.00  0.00     0.029 A 
ATOM     54  N   UNL     1       4.970  12.919   0.368  1.00  0.00    -0.354 N 
ATOM     55  C   UNL     1       4.902  14.007  -3.815  1.00  0.00     0.074 A 
ATOM     56  C   UNL     1       3.612  13.723  -4.407  1.00  0.00     0.031 C 
ATOM     57  C   UNL     1       4.158  12.061   2.266  1.00  0.00     0.029 A 
ATOM     58  C   UNL     1       5.353  12.635   1.656  1.00  0.00     0.049 A 
ATOM     59  H   UNL     1       5.567  13.340  -0.292  1.00  0.00     0.167 HD
ATOM     60  C   UNL     1       5.944  14.561  -4.481  1.00  0.00     0.037 A 
ATOM     61  C   UNL     1       6.538  12.809   2.271  1.00  0.00     0.037 A 
ATOM     62  C   UNL     1       7.217  14.866  -3.884  1.00  0.00     0.049 A 
ATOM     63  C   UNL     1       7.678  13.427   1.508  1.00  0.00     0.074 A 
ATOM     64  C   UNL     1       8.319  15.471  -4.463  1.00  0.00     0.029 A 
ATOM     65  N   UNL     1       7.557  14.592  -2.568  1.00  0.00    -0.354 N 
ATOM     66  N   UNL     1       7.718  13.830   0.262  1.00  0.00    -0.248 NA
ATOM     67  C   UNL     1       8.938  13.622   2.241  1.00  0.00     0.031 C 
ATOM     68  C   UNL     1       9.340  15.529  -3.507  1.00  0.00     0.029 A 
ATOM     69  C   UNL     1       8.858  15.002  -2.320  1.00  0.00     0.049 A 
ATOM     70  H   UNL     1       6.963  14.168  -1.907  1.00  0.00     0.167 HD
ATOM     71  C   UNL     1       8.990  14.350   0.068  1.00  0.00     0.074 A 
ATOM     72  C   UNL     1       9.689  14.225   1.331  1.00  0.00     0.031 C 
ATOM     73  C   UNL     1       9.533  14.880  -1.054  1.00  0.00     0.037 A 
BRANCH  60  74
ATOM     74  C   UNL     1       5.748  14.884  -5.933  1.00  0.00     0.064 A 
ATOM     75  C   UNL     1       4.918  15.939  -6.344  1.00  0.00     0.173 A 
ATOM     76  C   UNL     1       6.432  14.164  -6.924  1.00  0.00     0.173 A 
ATOM     77  F   UNL     1       4.233  16.651  -5.436  1.00  0.00    -0.203 F 
ATOM     78  C   UNL     1       4.763  16.245  -7.693  1.00  0.00     0.198 A 
ATOM     79  C   UNL     1       6.296  14.492  -8.271  1.00  0.00     0.198 A 
ATOM     80  F   UNL     1       7.242  13.149  -6.585  1.00  0.00    -0.203 F 
ATOM     81  F   UNL     1       3.933  17.230  -8.063  1.00  0.00    -0.200 F 
ATOM     82  C   UNL     1       5.458  15.527  -8.654  1.00  0.00     0.200 A 
ATOM     83  F   UNL     1       6.978  13.805  -9.198  1.00  0.00    -0.200 F 
ATOM     84  F   UNL     1       5.315  15.830  -9.952  1.00  0.00    -0.200 F 
ENDBRANCH  60  74
BRANCH  61  85
ATOM     85  C   UNL     1       6.704  12.409   3.693  1.00  0.00     0.064 A 
ATOM     86  C   UNL     1       6.863  13.373   4.698  1.00  0.00     0.173 A 
ATOM     87  C   UNL     1       6.719  11.060   4.074  1.00  0.00     0.173 A 
ATOM     88  F   UNL     1       6.875  14.676   4.380  1.00  0.00    -0.203 F 
ATOM     89  C   UNL     1       7.056  13.002   6.027  1.00  0.00     0.198 A 
ATOM     90  C   UNL     1       6.884  10.690   5.407  1.00  0.00     0.198 A 
ATOM     91  F   UNL     1       6.566  10.099   3.151  1.00  0.00    -0.203 F 
ATOM     92  F   UNL     1       7.254  13.942   6.961  1.00  0.00    -0.200 F 
ATOM     93  C   UNL     1       7.061  11.661   6.381  1.00  0.00     0.200 A 
ATOM     94  F   UNL     1       6.874   9.394   5.747  1.00  0.00    -0.200 F 
ATOM     95  F   UNL     1       7.245  11.304   7.660  1.00  0.00    -0.200 F 
ENDBRANCH  61  85
BRANCH  73  96
ATOM     96  C   UNL     1      10.938  15.399  -0.960  1.00  0.00     0.064 A 
ATOM     97  C   UNL     1      12.036  14.533  -0.867  1.00  0.00     0.173 A 
ATOM     98  C   UNL     1      11.188  16.779  -1.002  1.00  0.00     0.173 A 
ATOM     99  F   UNL     1      11.847  13.206  -0.808  1.00  0.00    -0.203 F 
ATOM    100  C   UNL     1      13.335  15.030  -0.796  1.00  0.00     0.198 A 
ATOM    101  C   UNL     1      12.489  17.272  -0.959  1.00  0.00     0.198 A 
ATOM    102  F   UNL     1      10.171  17.648  -1.096  1.00  0.00    -0.203 F 
ATOM    103  F   UNL     1      14.367  14.186  -0.663  1.00  0.00    -0.200 F 
ATOM    104  C   UNL     1      13.560  16.398  -0.849  1.00  0.00     0.200 A 
ATOM    105  F   UNL     1      12.706  18.593  -1.022  1.00  0.00    -0.200 F 
ATOM    106  F   UNL     1      14.811  16.875  -0.787  1.00  0.00    -0.200 F 
ENDBRANCH  73  96
ENDBRANCH  47  48
ENDBRANCH  39  42
ENDBRANCH  37  38
ENDBRANCH  36  37
ENDBRANCH  35  36
ENDBRANCH  34  35
ENDBRANCH   1  34
TORSDOF 17
