REMARK SMILES O=C(NCCCCCCNC(=O)[C@H]1C[C@H]2CCCC[C@@H]2[N@@H+]1C1CCS(=O)(=O)CC1)c1ccc(-c2c3nc(c(-c4c(F)c(F)c(F)c(F)c4F)c4ccc([nH]4)c(-c4c(F)c(F)c(F)c(F)c4F)c4nc(c(-c5c(F)c(F)c(F)c(F)c5F)c5ccc2[nH]5)C=C4)C=C3)cc1
REMARK SMILES IDX 6 1 5 2 4 3 3 4 1 5 2 6 30 8 31 9 92 10 32 11 91 12 33 13
REMARK SMILES IDX 34 14 35 15 85 16 36 17 90 18 84 19 86 20 37 21 89 22 83 23
REMARK SMILES IDX 82 24 38 26 70 27 50 28 69 29 51 30 54 31 68 32 87 33 52 34
REMARK SMILES IDX 53 35 67 37 88 38 55 39 39 40 40 41 48 42 41 43 42 44 46 45
REMARK SMILES IDX 49 46 43 47 44 48 47 49 45 50 71 51 72 52 80 53 73 54 74 55
REMARK SMILES IDX 78 56 81 57 75 58 76 59 79 60 77 61 56 62 57 63 65 64 58 65
REMARK SMILES IDX 59 66 63 67 66 68 60 69 61 70 64 71 62 72 7 73 8 74 9 75
REMARK SMILES IDX 10 76 11 77 12 79 13 80 14 81 21 82 15 83 20 84 16 86 19 87
REMARK SMILES IDX 17 88 18 89 22 90 23 91 29 92 24 93 28 94 25 95 26 96 27 97
REMARK H PARENT 3 7 86 25 54 36 10 78 21 85
REMARK Flexibility Score: inf
ROOT
ATOM      1  C   UNL     1       5.330  -1.639   2.228  1.00  0.00     0.002 C 
ENDROOT
BRANCH   1   2
ATOM      2  C   UNL     1       4.029  -2.053   2.920  1.00  0.00     0.021 C 
BRANCH   2   3
ATOM      3  C   UNL     1       2.950  -0.977   2.912  1.00  0.00     0.116 C 
BRANCH   3   4
ATOM      4  N   UNL     1       2.567  -0.615   1.555  1.00  0.00    -0.352 N 
ATOM      5  O   UNL     1       1.315  -0.716  -0.321  1.00  0.00    -0.269 OA
ATOM      6  C   UNL     1       1.386  -0.844   0.897  1.00  0.00     0.251 C 
ATOM      7  H   UNL     1       3.253  -0.137   1.036  1.00  0.00     0.163 HD
BRANCH   6   8
ATOM      8  C   UNL     1       0.194  -1.246   1.668  1.00  0.00     0.039 A 
ATOM      9  C   UNL     1      -0.121  -0.593   2.863  1.00  0.00     0.014 A 
ATOM     10  C   UNL     1      -0.631  -2.261   1.178  1.00  0.00     0.014 A 
ATOM     11  C   UNL     1      -1.187  -1.038   3.631  1.00  0.00     0.010 A 
ATOM     12  C   UNL     1      -1.758  -2.645   1.907  1.00  0.00     0.010 A 
ATOM     13  C   UNL     1      -2.034  -2.047   3.148  1.00  0.00    -0.014 A 
BRANCH  13  14
ATOM     14  C   UNL     1      -3.253  -2.400   3.913  1.00  0.00     0.031 A 
ATOM     15  C   UNL     1      -3.437  -3.769   4.494  1.00  0.00     0.074 A 
ATOM     16  C   UNL     1      -4.205  -1.460   4.066  1.00  0.00     0.049 A 
ATOM     17  N   UNL     1      -4.458  -4.254   5.155  1.00  0.00    -0.248 NA
ATOM     18  C   UNL     1      -2.338  -4.725   4.298  1.00  0.00     0.031 C 
ATOM     19  C   UNL     1      -4.136  -0.100   3.526  1.00  0.00     0.029 A 
ATOM     20  N   UNL     1      -5.413  -1.501   4.712  1.00  0.00    -0.354 N 
ATOM     21  C   UNL     1      -4.135  -5.574   5.438  1.00  0.00     0.074 A 
ATOM     22  C   UNL     1      -2.836  -5.824   4.849  1.00  0.00     0.031 C 
ATOM     23  C   UNL     1      -5.241   0.570   3.880  1.00  0.00     0.029 A 
ATOM     24  C   UNL     1      -6.125  -0.332   4.608  1.00  0.00     0.049 A 
ATOM     25  H   UNL     1      -5.739  -2.290   5.202  1.00  0.00     0.167 HD
ATOM     26  C   UNL     1      -4.859  -6.486   6.131  1.00  0.00     0.037 A 
ATOM     27  C   UNL     1      -7.369  -0.027   5.019  1.00  0.00     0.037 A 
ATOM     28  C   UNL     1      -6.151  -6.218   6.712  1.00  0.00     0.049 A 
ATOM     29  C   UNL     1      -8.166  -1.067   5.752  1.00  0.00     0.074 A 
ATOM     30  C   UNL     1      -6.945  -7.056   7.475  1.00  0.00     0.029 A 
ATOM     31  N   UNL     1      -6.848  -5.024   6.577  1.00  0.00    -0.354 N 
ATOM     32  N   UNL     1      -7.831  -2.296   6.062  1.00  0.00    -0.248 NA
ATOM     33  C   UNL     1      -9.510  -0.679   6.194  1.00  0.00     0.031 C 
ATOM     34  C   UNL     1      -8.149  -6.396   7.742  1.00  0.00     0.029 A 
ATOM     35  C   UNL     1      -8.079  -5.119   7.210  1.00  0.00     0.049 A 
ATOM     36  H   UNL     1      -6.517  -4.228   6.103  1.00  0.00     0.167 HD
ATOM     37  C   UNL     1      -8.912  -2.824   6.751  1.00  0.00     0.074 A 
ATOM     38  C   UNL     1      -9.908  -1.774   6.828  1.00  0.00     0.031 C 
ATOM     39  C   UNL     1      -9.064  -4.066   7.274  1.00  0.00     0.037 A 
BRANCH  26  40
ATOM     40  C   UNL     1      -4.287  -7.870   6.267  1.00  0.00     0.064 A 
ATOM     41  C   UNL     1      -3.140  -8.131   7.031  1.00  0.00     0.173 A 
ATOM     42  C   UNL     1      -4.912  -8.959   5.638  1.00  0.00     0.173 A 
ATOM     43  F   UNL     1      -2.497  -7.129   7.650  1.00  0.00    -0.203 F 
ATOM     44  C   UNL     1      -2.616  -9.419   7.125  1.00  0.00     0.198 A 
ATOM     45  C   UNL     1      -4.407 -10.250   5.763  1.00  0.00     0.198 A 
ATOM     46  F   UNL     1      -6.019  -8.772   4.902  1.00  0.00    -0.203 F 
ATOM     47  F   UNL     1      -1.484  -9.633   7.810  1.00  0.00    -0.200 F 
ATOM     48  C   UNL     1      -3.253 -10.478   6.496  1.00  0.00     0.200 A 
ATOM     49  F   UNL     1      -5.035 -11.274   5.168  1.00  0.00    -0.200 F 
ATOM     50  F   UNL     1      -2.749 -11.716   6.589  1.00  0.00    -0.200 F 
ENDBRANCH  26  40
BRANCH  27  51
ATOM     51  C   UNL     1      -7.926   1.316   4.717  1.00  0.00     0.064 A 
ATOM     52  C   UNL     1      -8.152   2.254   5.731  1.00  0.00     0.173 A 
ATOM     53  C   UNL     1      -8.203   1.701   3.395  1.00  0.00     0.173 A 
ATOM     54  F   UNL     1      -7.916   1.928   7.010  1.00  0.00    -0.203 F 
ATOM     55  C   UNL     1      -8.643   3.524   5.437  1.00  0.00     0.198 A 
ATOM     56  C   UNL     1      -8.662   2.981   3.099  1.00  0.00     0.198 A 
ATOM     57  F   UNL     1      -7.994   0.842   2.387  1.00  0.00    -0.203 F 
ATOM     58  F   UNL     1      -8.884   4.393   6.428  1.00  0.00    -0.200 F 
ATOM     59  C   UNL     1      -8.889   3.890   4.121  1.00  0.00     0.200 A 
ATOM     60  F   UNL     1      -8.876   3.337   1.825  1.00  0.00    -0.200 F 
ATOM     61  F   UNL     1      -9.346   5.117   3.839  1.00  0.00    -0.200 F 
ENDBRANCH  27  51
BRANCH  39  62
ATOM     62  C   UNL     1     -10.345  -4.352   8.004  1.00  0.00     0.064 A 
ATOM     63  C   UNL     1     -11.567  -4.484   7.328  1.00  0.00     0.173 A 
ATOM     64  C   UNL     1     -10.339  -4.542   9.394  1.00  0.00     0.173 A 
ATOM     65  F   UNL     1     -11.630  -4.293   6.002  1.00  0.00    -0.203 F 
ATOM     66  C   UNL     1     -12.739  -4.775   8.021  1.00  0.00     0.198 A 
ATOM     67  C   UNL     1     -11.507  -4.868  10.078  1.00  0.00     0.198 A 
ATOM     68  F   UNL     1      -9.196  -4.431  10.088  1.00  0.00    -0.203 F 
ATOM     69  F   UNL     1     -13.904  -4.850   7.361  1.00  0.00    -0.200 F 
ATOM     70  C   UNL     1     -12.707  -4.977   9.393  1.00  0.00     0.200 A 
ATOM     71  F   UNL     1     -11.469  -5.078  11.401  1.00  0.00    -0.200 F 
ATOM     72  F   UNL     1     -13.833  -5.272  10.055  1.00  0.00    -0.200 F 
ENDBRANCH  39  62
ENDBRANCH  13  14
ENDBRANCH   6   8
ENDBRANCH   3   4
ENDBRANCH   2   3
ENDBRANCH   1   2
BRANCH   1  73
ATOM     73  C   UNL     1       5.981  -0.370   2.786  1.00  0.00     0.002 C 
BRANCH  73  74
ATOM     74  C   UNL     1       6.248  -0.407   4.290  1.00  0.00     0.021 C 
BRANCH  74  75
ATOM     75  C   UNL     1       7.274  -1.464   4.713  1.00  0.00     0.116 C 
BRANCH  75  76
ATOM     76  N   UNL     1       8.617  -0.912   4.661  1.00  0.00    -0.351 N 
ATOM     77  C   UNL     1       9.493  -0.581   5.658  1.00  0.00     0.278 C 
ATOM     78  H   UNL     1       8.955  -0.747   3.751  1.00  0.00     0.163 HD
ATOM     79  O   UNL     1      10.552  -0.046   5.319  1.00  0.00    -0.268 OA
BRANCH  77  80
ATOM     80  C   UNL     1       9.181  -0.955   7.127  1.00  0.00     0.275 C 
ATOM     81  C   UNL     1      10.103  -2.126   7.533  1.00  0.00     0.085 C 
ATOM     82  N   UNL     1       9.485   0.179   8.052  1.00  0.00    -0.320 N 
ATOM     83  C   UNL     1      10.657  -1.685   8.873  1.00  0.00     0.054 C 
ATOM     84  C   UNL     1      10.778  -0.178   8.678  1.00  0.00     0.188 C 
ATOM     85  H   UNL     1       9.522   1.027   7.486  1.00  0.00     0.349 HD
ATOM     86  C   UNL     1      11.968  -2.311   9.321  1.00  0.00     0.010 C 
ATOM     87  C   UNL     1      11.265   0.522   9.951  1.00  0.00     0.065 C 
ATOM     88  C   UNL     1      12.434  -1.638  10.616  1.00  0.00     0.001 C 
ATOM     89  C   UNL     1      12.560  -0.120  10.460  1.00  0.00     0.006 C 
BRANCH  82  90
ATOM     90  C   UNL     1       8.460   0.744   8.947  1.00  0.00     0.186 C 
ATOM     91  C   UNL     1       7.345   1.530   8.228  1.00  0.00     0.081 C 
ATOM     92  C   UNL     1       7.838  -0.148  10.044  1.00  0.00     0.081 C 
ATOM     93  C   UNL     1       6.280   0.691   7.568  1.00  0.00     0.143 C 
ATOM     94  C   UNL     1       6.878  -1.215   9.560  1.00  0.00     0.143 C 
ATOM     95  S   UNL     1       5.534  -0.530   8.616  1.00  0.00     0.150 S 
ATOM     96  O   UNL     1       5.029  -1.579   7.750  1.00  0.00    -0.229 OA
ATOM     97  O   UNL     1       4.652   0.162   9.537  1.00  0.00    -0.229 OA
ENDBRANCH  82  90
ENDBRANCH  77  80
ENDBRANCH  75  76
ENDBRANCH  74  75
ENDBRANCH  73  74
ENDBRANCH   1  73
TORSDOF 14
