REMARK SMILES C[C@@]([NH2+]Cc1ccccc1Br)(C(=O)NCCCCCCNC(=O)c1ccc(-c2c3nc(c(-c4c(F)c(F)c(F)c(F)c4F)c4ccc([nH]4)c(-c4c(F)c(F)c(F)c(F)c4F)c4nc(c(-c5c(F)c(F)c(F)c(F)c5F)c5ccc2[nH]5)C=C4)C=C3)cc1)C(F)(F)F
REMARK SMILES IDX 17 1 16 2 15 3 14 4 12 5 13 6 2 8 1 9 3 10 4 13 5 14 6 15
REMARK SMILES IDX 10 16 7 17 9 18 11 19 8 20 87 21 88 22 89 23 90 24 18 25
REMARK SMILES IDX 19 26 20 27 21 28 22 29 23 31 24 32 25 33 86 34 26 35 85 36
REMARK SMILES IDX 27 37 28 38 29 39 79 40 30 41 84 42 78 43 80 44 31 45 83 46
REMARK SMILES IDX 77 47 76 48 32 50 64 51 44 52 63 53 45 54 48 55 62 56 81 57
REMARK SMILES IDX 46 58 47 59 61 61 82 62 49 63 33 64 34 65 42 66 35 67 36 68
REMARK SMILES IDX 40 69 43 70 37 71 38 72 41 73 39 74 65 75 66 76 74 77 67 78
REMARK SMILES IDX 68 79 72 80 75 81 69 82 70 83 73 84 71 85 50 86 51 87 59 88
REMARK SMILES IDX 52 89 53 90 57 91 60 92 54 93 55 94 58 95 56 96
REMARK H PARENT 14 7 3 11 3 12 21 30 80 49 48 60
REMARK Flexibility Score: inf
ROOT
ATOM      1  C   UNL     1      -3.065   0.665   2.842  1.00  0.00     0.002 C 
ENDROOT
BRANCH   1   2
ATOM      2  C   UNL     1      -1.551   0.541   2.614  1.00  0.00     0.021 C 
BRANCH   2   3
ATOM      3  C   UNL     1      -1.105  -0.878   2.254  1.00  0.00     0.116 C 
BRANCH   3   4
ATOM      4  N   UNL     1      -1.684  -1.262   0.987  1.00  0.00    -0.350 N 
ATOM      5  C   UNL     1      -1.167  -1.273  -0.273  1.00  0.00     0.290 C 
ATOM      6  O   UNL     1      -1.992  -1.485  -1.167  1.00  0.00    -0.267 OA
ATOM      7  H   UNL     1      -2.617  -1.570   1.044  1.00  0.00     0.163 HD
BRANCH   5   8
ATOM      8  C   UNL     1       0.344  -1.111  -0.556  1.00  0.00     0.268 C 
ATOM      9  C   UNL     1       0.887   0.256  -0.075  1.00  0.00     0.101 C 
BRANCH   8  10
ATOM     10  N   UNL     1       1.136  -2.139   0.223  1.00  0.00    -0.322 N 
ATOM     11  H   UNL     1       1.012  -1.936   1.215  1.00  0.00     0.347 HD
ATOM     12  H   UNL     1       2.092  -2.049  -0.120  1.00  0.00     0.347 HD
BRANCH  10  13
ATOM     13  C   UNL     1       0.791  -3.554   0.015  1.00  0.00     0.299 C 
BRANCH  13  14
ATOM     14  C   UNL     1       1.309  -4.230  -1.238  1.00  0.00     0.020 A 
ATOM     15  C   UNL     1       2.344  -3.675  -2.011  1.00  0.00     0.011 A 
ATOM     16  C   UNL     1       0.761  -5.450  -1.680  1.00  0.00     0.026 A 
ATOM     17  C   UNL     1       2.679  -4.199  -3.261  1.00  0.00     0.001 A 
ATOM     18  C   UNL     1       1.124  -5.997  -2.917  1.00  0.00     0.016 A 
ATOM     19  Br  UNL     1      -0.471  -6.454  -0.631  1.00  0.00    -0.050 Br
ATOM     20  C   UNL     1       2.052  -5.347  -3.725  1.00  0.00     0.001 A 
ENDBRANCH  13  14
ENDBRANCH  10  13
ENDBRANCH   8  10
BRANCH   8  21
ATOM     21  C   UNL     1       0.462  -1.054  -2.112  1.00  0.00     0.453 C 
ATOM     22  F   UNL     1      -0.188   0.020  -2.628  1.00  0.00    -0.164 F 
ATOM     23  F   UNL     1       1.768  -0.892  -2.468  1.00  0.00    -0.164 F 
ATOM     24  F   UNL     1       0.011  -2.152  -2.747  1.00  0.00    -0.164 F 
ENDBRANCH   8  21
ENDBRANCH   5   8
ENDBRANCH   3   4
ENDBRANCH   2   3
ENDBRANCH   1   2
BRANCH   1  25
ATOM     25  C   UNL     1      -3.629  -0.276   3.911  1.00  0.00     0.002 C 
BRANCH  25  26
ATOM     26  C   UNL     1      -2.939  -0.172   5.272  1.00  0.00     0.021 C 
BRANCH  26  27
ATOM     27  C   UNL     1      -2.997   1.218   5.891  1.00  0.00     0.116 C 
BRANCH  27  28
ATOM     28  N   UNL     1      -4.363   1.620   6.187  1.00  0.00    -0.352 N 
ATOM     29  C   UNL     1      -4.897   2.050   7.372  1.00  0.00     0.251 C 
ATOM     30  H   UNL     1      -4.991   1.577   5.430  1.00  0.00     0.163 HD
ATOM     31  O   UNL     1      -6.115   2.138   7.511  1.00  0.00    -0.269 OA
BRANCH  29  32
ATOM     32  C   UNL     1      -4.001   2.395   8.493  1.00  0.00     0.039 A 
ATOM     33  C   UNL     1      -4.321   1.949   9.777  1.00  0.00     0.014 A 
ATOM     34  C   UNL     1      -2.849   3.157   8.277  1.00  0.00     0.014 A 
ATOM     35  C   UNL     1      -3.458   2.227  10.837  1.00  0.00     0.010 A 
ATOM     36  C   UNL     1      -1.949   3.362   9.317  1.00  0.00     0.010 A 
ATOM     37  C   UNL     1      -2.250   2.909  10.611  1.00  0.00    -0.014 A 
BRANCH  37  38
ATOM     38  C   UNL     1      -1.296   3.165  11.719  1.00  0.00     0.031 A 
ATOM     39  C   UNL     1      -0.981   4.576  12.132  1.00  0.00     0.074 A 
ATOM     40  C   UNL     1      -0.677   2.130  12.317  1.00  0.00     0.049 A 
ATOM     41  N   UNL     1      -0.143   5.005  13.043  1.00  0.00    -0.248 NA
ATOM     42  C   UNL     1      -1.679   5.650  11.409  1.00  0.00     0.031 C 
ATOM     43  C   UNL     1      -0.865   0.720  11.971  1.00  0.00     0.029 A 
ATOM     44  N   UNL     1       0.241   2.102  13.336  1.00  0.00    -0.354 N 
ATOM     45  C   UNL     1      -0.208   6.391  12.993  1.00  0.00     0.074 A 
ATOM     46  C   UNL     1      -1.118   6.734  11.922  1.00  0.00     0.031 C 
ATOM     47  C   UNL     1      -0.109  -0.036  12.783  1.00  0.00     0.029 A 
ATOM     48  C   UNL     1       0.648   0.836  13.677  1.00  0.00     0.049 A 
ATOM     49  H   UNL     1       0.575   2.914  13.782  1.00  0.00     0.167 HD
ATOM     50  C   UNL     1       0.415   7.295  13.786  1.00  0.00     0.037 A 
ATOM     51  C   UNL     1       1.537   0.425  14.601  1.00  0.00     0.037 A 
ATOM     52  C   UNL     1       1.306   6.947  14.862  1.00  0.00     0.049 A 
ATOM     53  C   UNL     1       2.229   1.452  15.457  1.00  0.00     0.074 A 
ATOM     54  C   UNL     1       1.946   7.784  15.758  1.00  0.00     0.029 A 
ATOM     55  N   UNL     1       1.688   5.652  15.183  1.00  0.00    -0.354 N 
ATOM     56  N   UNL     1       2.106   2.757  15.449  1.00  0.00    -0.248 NA
ATOM     57  C   UNL     1       3.178   0.946  16.458  1.00  0.00     0.031 C 
ATOM     58  C   UNL     1       2.760   7.002  16.583  1.00  0.00     0.029 A 
ATOM     59  C   UNL     1       2.577   5.671  16.246  1.00  0.00     0.049 A 
ATOM     60  H   UNL     1       1.375   4.840  14.723  1.00  0.00     0.167 HD
ATOM     61  C   UNL     1       2.932   3.225  16.462  1.00  0.00     0.074 A 
ATOM     62  C   UNL     1       3.540   2.062  17.074  1.00  0.00     0.031 C 
ATOM     63  C   UNL     1       3.167   4.503  16.851  1.00  0.00     0.037 A 
BRANCH  50  64
ATOM     64  C   UNL     1       0.155   8.751  13.519  1.00  0.00     0.064 A 
ATOM     65  C   UNL     1      -1.099   9.334  13.758  1.00  0.00     0.173 A 
ATOM     66  C   UNL     1       1.184   9.583  13.052  1.00  0.00     0.173 A 
ATOM     67  F   UNL     1      -2.121   8.582  14.194  1.00  0.00    -0.203 F 
ATOM     68  C   UNL     1      -1.323  10.685  13.508  1.00  0.00     0.198 A 
ATOM     69  C   UNL     1       0.967  10.942  12.837  1.00  0.00     0.198 A 
ATOM     70  F   UNL     1       2.405   9.082  12.812  1.00  0.00    -0.203 F 
ATOM     71  F   UNL     1      -2.544  11.206  13.691  1.00  0.00    -0.200 F 
ATOM     72  C   UNL     1      -0.288  11.490  13.056  1.00  0.00     0.200 A 
ATOM     73  F   UNL     1       1.972  11.721  12.415  1.00  0.00    -0.200 F 
ATOM     74  F   UNL     1      -0.502  12.792  12.824  1.00  0.00    -0.200 F 
ENDBRANCH  50  64
BRANCH  51  75
ATOM     75  C   UNL     1       1.810  -1.026  14.779  1.00  0.00     0.064 A 
ATOM     76  C   UNL     1       1.428  -1.692  15.952  1.00  0.00     0.173 A 
ATOM     77  C   UNL     1       2.467  -1.773  13.791  1.00  0.00     0.173 A 
ATOM     78  F   UNL     1       0.814  -1.018  16.936  1.00  0.00    -0.203 F 
ATOM     79  C   UNL     1       1.717  -3.042  16.141  1.00  0.00     0.198 A 
ATOM     80  C   UNL     1       2.726  -3.131  13.966  1.00  0.00     0.198 A 
ATOM     81  F   UNL     1       2.848  -1.186  12.646  1.00  0.00    -0.203 F 
ATOM     82  F   UNL     1       1.389  -3.640  17.294  1.00  0.00    -0.200 F 
ATOM     83  C   UNL     1       2.360  -3.762  15.145  1.00  0.00     0.200 A 
ATOM     84  F   UNL     1       3.332  -3.826  12.995  1.00  0.00    -0.200 F 
ATOM     85  F   UNL     1       2.636  -5.061  15.326  1.00  0.00    -0.200 F 
ENDBRANCH  51  75
BRANCH  63  86
ATOM     86  C   UNL     1       4.087   4.709  18.021  1.00  0.00     0.064 A 
ATOM     87  C   UNL     1       5.465   4.461  17.934  1.00  0.00     0.173 A 
ATOM     88  C   UNL     1       3.584   5.195  19.238  1.00  0.00     0.173 A 
ATOM     89  F   UNL     1       5.995   3.983  16.797  1.00  0.00    -0.203 F 
ATOM     90  C   UNL     1       6.299   4.659  19.031  1.00  0.00     0.198 A 
ATOM     91  C   UNL     1       4.427   5.427  20.322  1.00  0.00     0.198 A 
ATOM     92  F   UNL     1       2.276   5.458  19.374  1.00  0.00    -0.203 F 
ATOM     93  F   UNL     1       7.602   4.360  18.942  1.00  0.00    -0.200 F 
ATOM     94  C   UNL     1       5.781   5.149  20.221  1.00  0.00     0.200 A 
ATOM     95  F   UNL     1       3.927   5.918  21.464  1.00  0.00    -0.200 F 
ATOM     96  F   UNL     1       6.587   5.347  21.273  1.00  0.00    -0.200 F 
ENDBRANCH  63  86
ENDBRANCH  37  38
ENDBRANCH  29  32
ENDBRANCH  27  28
ENDBRANCH  26  27
ENDBRANCH  25  26
ENDBRANCH   1  25
TORSDOF 17
