REMARK SMILES CCN(C(=O)Cc1c(C(=O)NCCCCCCNC(=O)c2ccc(-c3c4nc(c(-c5c(F)c(F)c(F)c(F)c5F)c5ccc([nH]5)c(-c5c(F)c(F)c(F)c(F)c5F)c5nc(c(-c6c(F)c(F)c(F)c(F)c6F)c6ccc3[nH]6)C=C5)C=C4)cc2)[nH]c2ccc(Cl)cc12)c1ccc(C)c(C)c1
REMARK SMILES IDX 13 1 12 2 11 3 9 4 10 5 8 7 7 8 91 9 84 10 85 11 90 12 86 14
REMARK SMILES IDX 88 15 87 16 89 17 6 18 4 19 5 20 3 21 2 22 1 23 92 24 93 25
REMARK SMILES IDX 99 26 94 27 97 28 95 29 98 30 96 31 14 32 15 33 16 34 17 35
REMARK SMILES IDX 18 36 19 37 20 39 21 40 22 41 83 42 23 43 82 44 24 45 25 46
REMARK SMILES IDX 26 47 76 48 27 49 81 50 75 51 77 52 28 53 80 54 74 55 73 56
REMARK SMILES IDX 29 58 61 59 41 60 60 61 42 62 45 63 59 64 78 65 43 66 44 67
REMARK SMILES IDX 58 69 79 70 46 71 30 72 31 73 39 74 32 75 33 76 37 77 40 78
REMARK SMILES IDX 34 79 35 80 38 81 36 82 62 83 63 84 71 85 64 86 65 87 69 88
REMARK SMILES IDX 72 89 66 90 67 91 70 92 68 93 47 94 48 95 56 96 49 97 50 98
REMARK SMILES IDX 54 99 57 100 51 101 52 102 55 103 53 104
REMARK H PARENT 11 6 84 13 18 38 77 57 45 68
REMARK Flexibility Score: inf
ROOT
ATOM      1  C   UNL     1      -2.791   4.875  -2.861  1.00  0.00     0.021 C 
ENDROOT
BRANCH   1   2
ATOM      2  C   UNL     1      -3.724   3.995  -2.022  1.00  0.00     0.116 C 
BRANCH   2   3
ATOM      3  N   UNL     1      -4.295   2.951  -2.833  1.00  0.00    -0.351 N 
ATOM      4  C   UNL     1      -4.053   1.620  -2.992  1.00  0.00     0.268 C 
ATOM      5  O   UNL     1      -4.864   1.055  -3.737  1.00  0.00    -0.268 OA
ATOM      6  H   UNL     1      -5.029   3.273  -3.404  1.00  0.00     0.163 HD
BRANCH   4   7
ATOM      7  C   UNL     1      -3.010   0.828  -2.352  1.00  0.00     0.109 A 
ATOM      8  C   UNL     1      -1.767   0.977  -1.710  1.00  0.00    -0.000 A 
ATOM      9  C   UNL     1      -1.268  -0.360  -1.436  1.00  0.00     0.005 A 
ATOM     10  N   UNL     1      -3.235  -0.541  -2.406  1.00  0.00    -0.350 N 
ATOM     11  C   UNL     1      -2.236  -1.269  -1.838  1.00  0.00     0.046 A 
ATOM     12  C   UNL     1      -0.082  -0.895  -0.889  1.00  0.00     0.031 A 
ATOM     13  H   UNL     1      -4.036  -0.943  -2.814  1.00  0.00     0.167 HD
ATOM     14  C   UNL     1      -2.117  -2.657  -1.683  1.00  0.00     0.028 A 
ATOM     15  C   UNL     1       0.063  -2.276  -0.725  1.00  0.00     0.041 A 
ATOM     16  C   UNL     1      -0.946  -3.148  -1.104  1.00  0.00     0.022 A 
ATOM     17  Cl  UNL     1       1.520  -2.894  -0.044  1.00  0.00    -0.084 Cl
BRANCH   8  18
ATOM     18  C   UNL     1      -1.040   2.243  -1.346  1.00  0.00     0.139 C 
BRANCH  18  19
ATOM     19  C   UNL     1       0.462   2.264  -1.570  1.00  0.00     0.231 C 
ATOM     20  O   UNL     1       0.881   2.384  -2.727  1.00  0.00    -0.274 OA
BRANCH  19  21
ATOM     21  N   UNL     1       1.314   2.218  -0.461  1.00  0.00    -0.312 N 
BRANCH  21  22
ATOM     22  C   UNL     1       0.914   2.027   0.947  1.00  0.00     0.122 C 
ATOM     23  C   UNL     1       1.811   1.097   1.764  1.00  0.00     0.028 C 
ENDBRANCH  21  22
BRANCH  21  24
ATOM     24  C   UNL     1       2.692   2.457  -0.706  1.00  0.00     0.044 A 
ATOM     25  C   UNL     1       3.186   3.758  -0.732  1.00  0.00     0.026 A 
ATOM     26  C   UNL     1       3.538   1.380  -0.981  1.00  0.00     0.030 A 
ATOM     27  C   UNL     1       4.533   3.975  -1.024  1.00  0.00     0.006 A 
ATOM     28  C   UNL     1       4.897   1.585  -1.261  1.00  0.00    -0.046 A 
ATOM     29  C   UNL     1       5.403   2.899  -1.282  1.00  0.00    -0.048 A 
ATOM     30  C   UNL     1       5.759   0.386  -1.544  1.00  0.00     0.044 C 
ATOM     31  C   UNL     1       6.831   3.216  -1.632  1.00  0.00     0.044 C 
ENDBRANCH  21  24
ENDBRANCH  19  21
ENDBRANCH  18  19
ENDBRANCH   8  18
ENDBRANCH   4   7
ENDBRANCH   2   3
ENDBRANCH   1   2
BRANCH   1  32
ATOM     32  C   UNL     1      -3.499   6.040  -3.562  1.00  0.00     0.002 C 
BRANCH  32  33
ATOM     33  C   UNL     1      -4.031   7.124  -2.617  1.00  0.00     0.002 C 
BRANCH  33  34
ATOM     34  C   UNL     1      -2.985   7.752  -1.690  1.00  0.00     0.021 C 
BRANCH  34  35
ATOM     35  C   UNL     1      -1.823   8.432  -2.409  1.00  0.00     0.116 C 
BRANCH  35  36
ATOM     36  N   UNL     1      -2.275   9.566  -3.201  1.00  0.00    -0.352 N 
ATOM     37  C   UNL     1      -1.969  10.893  -3.075  1.00  0.00     0.251 C 
ATOM     38  H   UNL     1      -2.891   9.345  -3.937  1.00  0.00     0.163 HD
ATOM     39  O   UNL     1      -2.645  11.741  -3.665  1.00  0.00    -0.269 OA
BRANCH  37  40
ATOM     40  C   UNL     1      -0.833  11.325  -2.237  1.00  0.00     0.039 A 
ATOM     41  C   UNL     1      -0.979  12.451  -1.421  1.00  0.00     0.014 A 
ATOM     42  C   UNL     1       0.392  10.653  -2.291  1.00  0.00     0.014 A 
ATOM     43  C   UNL     1       0.088  12.877  -0.628  1.00  0.00     0.010 A 
ATOM     44  C   UNL     1       1.434  11.039  -1.451  1.00  0.00     0.010 A 
ATOM     45  C   UNL     1       1.296  12.162  -0.621  1.00  0.00    -0.014 A 
BRANCH  45  46
ATOM     46  C   UNL     1       2.434  12.585   0.233  1.00  0.00     0.031 A 
ATOM     47  C   UNL     1       3.712  13.066  -0.398  1.00  0.00     0.074 A 
ATOM     48  C   UNL     1       2.339  12.478   1.572  1.00  0.00     0.049 A 
ATOM     49  N   UNL     1       4.840  13.408   0.171  1.00  0.00    -0.248 NA
ATOM     50  C   UNL     1       3.733  13.147  -1.867  1.00  0.00     0.031 C 
ATOM     51  C   UNL     1       1.169  11.983   2.299  1.00  0.00     0.029 A 
ATOM     52  N   UNL     1       3.246  12.767   2.560  1.00  0.00    -0.354 N 
ATOM     53  C   UNL     1       5.706  13.726  -0.867  1.00  0.00     0.074 A 
ATOM     54  C   UNL     1       4.991  13.492  -2.102  1.00  0.00     0.031 C 
ATOM     55  C   UNL     1       1.423  12.018   3.616  1.00  0.00     0.029 A 
ATOM     56  C   UNL     1       2.783  12.505   3.826  1.00  0.00     0.049 A 
ATOM     57  H   UNL     1       4.144  13.127   2.378  1.00  0.00     0.167 HD
ATOM     58  C   UNL     1       6.976  14.192  -0.794  1.00  0.00     0.037 A 
ATOM     59  C   UNL     1       3.391  12.639   5.020  1.00  0.00     0.037 A 
ATOM     60  C   UNL     1       7.672  14.455   0.438  1.00  0.00     0.049 A 
ATOM     61  C   UNL     1       4.798  13.171   5.072  1.00  0.00     0.074 A 
ATOM     62  C   UNL     1       8.938  14.985   0.618  1.00  0.00     0.029 A 
ATOM     63  N   UNL     1       7.158  14.209   1.702  1.00  0.00    -0.354 N 
ATOM     64  N   UNL     1       5.584  13.530   4.086  1.00  0.00    -0.248 NA
ATOM     65  C   UNL     1       5.398  13.327   6.404  1.00  0.00     0.031 C 
ATOM     66  C   UNL     1       9.205  15.023   1.990  1.00  0.00     0.029 A 
ATOM     67  C   UNL     1       8.088  14.561   2.667  1.00  0.00     0.049 A 
ATOM     68  H   UNL     1       6.264  13.839   1.887  1.00  0.00     0.167 HD
ATOM     69  C   UNL     1       6.756  13.981   4.677  1.00  0.00     0.074 A 
ATOM     70  C   UNL     1       6.573  13.864   6.109  1.00  0.00     0.031 C 
ATOM     71  C   UNL     1       7.883  14.450   4.088  1.00  0.00     0.037 A 
BRANCH  58  72
ATOM     72  C   UNL     1       7.696  14.455  -2.085  1.00  0.00     0.064 A 
ATOM     73  C   UNL     1       7.342  15.528  -2.918  1.00  0.00     0.173 A 
ATOM     74  C   UNL     1       8.780  13.654  -2.472  1.00  0.00     0.173 A 
ATOM     75  F   UNL     1       6.306  16.317  -2.598  1.00  0.00    -0.203 F 
ATOM     76  C   UNL     1       8.032  15.773  -4.102  1.00  0.00     0.198 A 
ATOM     77  C   UNL     1       9.486  13.919  -3.643  1.00  0.00     0.198 A 
ATOM     78  F   UNL     1       9.163  12.619  -1.709  1.00  0.00    -0.203 F 
ATOM     79  F   UNL     1       7.649  16.777  -4.903  1.00  0.00    -0.200 F 
ATOM     80  C   UNL     1       9.108  14.974  -4.460  1.00  0.00     0.200 A 
ATOM     81  F   UNL     1      10.533  13.154  -3.980  1.00  0.00    -0.200 F 
ATOM     82  F   UNL     1       9.777  15.217  -5.595  1.00  0.00    -0.200 F 
ENDBRANCH  58  72
BRANCH  59  83
ATOM     83  C   UNL     1       2.665  12.287   6.267  1.00  0.00     0.064 A 
ATOM     84  C   UNL     1       2.262  13.281   7.170  1.00  0.00     0.173 A 
ATOM     85  C   UNL     1       2.365  10.955   6.587  1.00  0.00     0.173 A 
ATOM     86  F   UNL     1       2.544  14.568   6.917  1.00  0.00    -0.203 F 
ATOM     87  C   UNL     1       1.609  12.955   8.356  1.00  0.00     0.198 A 
ATOM     88  C   UNL     1       1.687  10.632   7.761  1.00  0.00     0.198 A 
ATOM     89  F   UNL     1       2.722   9.967   5.754  1.00  0.00    -0.203 F 
ATOM     90  F   UNL     1       1.278  13.921   9.224  1.00  0.00    -0.200 F 
ATOM     91  C   UNL     1       1.317  11.631   8.649  1.00  0.00     0.200 A 
ATOM     92  F   UNL     1       1.394   9.353   8.032  1.00  0.00    -0.200 F 
ATOM     93  F   UNL     1       0.688  11.318   9.789  1.00  0.00    -0.200 F 
ENDBRANCH  59  83
BRANCH  71  94
ATOM     94  C   UNL     1       8.990  14.909   4.991  1.00  0.00     0.064 A 
ATOM     95  C   UNL     1       9.772  14.000   5.717  1.00  0.00     0.173 A 
ATOM     96  C   UNL     1       9.293  16.275   5.100  1.00  0.00     0.173 A 
ATOM     97  F   UNL     1       9.511  12.686   5.657  1.00  0.00    -0.203 F 
ATOM     98  C   UNL     1      10.803  14.444   6.541  1.00  0.00     0.198 A 
ATOM     99  C   UNL     1      10.343  16.713   5.902  1.00  0.00     0.198 A 
ATOM    100  F   UNL     1       8.578  17.183   4.421  1.00  0.00    -0.203 F 
ATOM    101  F   UNL     1      11.508  13.562   7.263  1.00  0.00    -0.200 F 
ATOM    102  C   UNL     1      11.092  15.798   6.628  1.00  0.00     0.200 A 
ATOM    103  F   UNL     1      10.629  18.020   5.975  1.00  0.00    -0.200 F 
ATOM    104  F   UNL     1      12.088  16.223   7.417  1.00  0.00    -0.200 F 
ENDBRANCH  71  94
ENDBRANCH  45  46
ENDBRANCH  37  40
ENDBRANCH  35  36
ENDBRANCH  34  35
ENDBRANCH  33  34
ENDBRANCH  32  33
ENDBRANCH   1  32
TORSDOF 18
