REMARK SMILES CC(=O)N1CCCN(S(=O)(=O)c2ccc(C)c(C(=O)NCCCCCCNC(=O)c3ccc(-c4c5nc(c(-c6c(F)c(F)c(F)c(F)c6F)c6ccc([nH]6)c(-c6c(F)c(F)c(F)c(F)c6F)c6nc(c(-c7c(F)c(F)c(F)c(F)c7F)c7ccc4[nH]7)C=C6)C=C5)cc3)c2)CC1
REMARK SMILES IDX 21 1 20 2 18 3 19 4 17 6 12 7 13 8 93 9 14 10 15 11 16 12
REMARK SMILES IDX 9 13 10 14 11 15 8 16 94 17 95 18 4 19 2 20 1 21 3 22 5 23
REMARK SMILES IDX 6 24 7 26 22 28 23 29 24 30 25 31 26 32 27 33 28 34 29 36
REMARK SMILES IDX 30 37 31 38 92 39 32 40 91 41 33 42 34 43 35 44 85 45 36 46
REMARK SMILES IDX 90 47 84 48 86 49 37 50 89 51 83 52 82 53 38 55 70 56 50 57
REMARK SMILES IDX 69 58 51 59 54 60 68 61 87 62 52 63 53 64 67 66 88 67 55 68
REMARK SMILES IDX 39 69 40 70 48 71 41 72 42 73 46 74 49 75 43 76 44 77 47 78
REMARK SMILES IDX 45 79 71 80 72 81 80 82 73 83 74 84 78 85 81 86 75 87 76 88
REMARK SMILES IDX 79 89 77 90 56 91 57 92 65 93 58 94 59 95 63 96 66 97 60 98
REMARK SMILES IDX 61 99 64 100 62 101
REMARK H PARENT 20 5 27 35 86 54 54 65
REMARK Flexibility Score: 80.00
ROOT
ATOM      1  C   UNL     1      -4.031  10.200  -0.487  1.00  0.00     0.116 C 
ENDROOT
BRANCH   1   2
ATOM      2  N   UNL     1      -2.940  10.485  -1.375  1.00  0.00    -0.352 N 
ATOM      3  C   UNL     1      -2.214   9.624  -2.177  1.00  0.00     0.251 C 
ATOM      4  O   UNL     1      -1.446  10.145  -2.989  1.00  0.00    -0.269 OA
ATOM      5  H   UNL     1      -2.669  11.431  -1.420  1.00  0.00     0.163 HD
BRANCH   3   6
ATOM      6  C   UNL     1      -2.201   8.118  -2.043  1.00  0.00     0.044 A 
ATOM      7  C   UNL     1      -0.695   6.169  -2.112  1.00  0.00     0.083 A 
ATOM      8  C   UNL     1      -1.696   5.393  -1.545  1.00  0.00     0.022 A 
ATOM      9  C   UNL     1      -0.930   7.535  -2.311  1.00  0.00     0.035 A 
ATOM     10  C   UNL     1      -2.971   5.910  -1.386  1.00  0.00     0.005 A 
ATOM     11  C   UNL     1      -3.262   7.247  -1.706  1.00  0.00    -0.038 A 
ATOM     12  C   UNL     1      -4.728   7.566  -1.685  1.00  0.00     0.045 C 
BRANCH   7  13
ATOM     13  S   UNL     1       0.923   5.465  -2.377  1.00  0.00     0.243 S 
ATOM     14  O   UNL     1       1.301   4.879  -1.099  1.00  0.00    -0.207 OA
ATOM     15  O   UNL     1       1.753   6.469  -2.983  1.00  0.00    -0.207 OA
BRANCH  13  16
ATOM     16  N   UNL     1       0.760   4.208  -3.518  1.00  0.00    -0.196 NA
BRANCH  16  17
ATOM     17  C   UNL     1      -0.289   3.168  -3.435  1.00  0.00     0.124 C 
BRANCH  17  18
ATOM     18  C   UNL     1      -0.204   2.277  -2.206  1.00  0.00     0.136 C 
BRANCH  18  19
ATOM     19  N   UNL     1       0.979   1.436  -2.062  1.00  0.00    -0.342 N 
BRANCH  19  20
ATOM     20  C   UNL     1       0.691   0.169  -1.546  1.00  0.00     0.219 C 
ATOM     21  C   UNL     1       1.483  -0.271  -0.338  1.00  0.00     0.114 C 
ATOM     22  O   UNL     1      -0.271  -0.494  -1.936  1.00  0.00    -0.275 OA
ENDBRANCH  19  20
BRANCH  19  23
ATOM     23  C   UNL     1       2.268   2.095  -1.864  1.00  0.00     0.121 C 
BRANCH  23  24
ATOM     24  C   UNL     1       2.880   2.874  -3.035  1.00  0.00     0.038 CG0
ATOM     25  G   UNL     1       2.020   3.627  -4.043  1.00  0.00     0.000 G0
ENDBRANCH  23  24
ENDBRANCH  19  23
ENDBRANCH  18  19
ENDBRANCH  17  18
ENDBRANCH  16  17
BRANCH  16  26
ATOM     26  C   UNL     1       2.020   3.627  -4.043  1.00  0.00     0.104 CG0
ATOM     27  G   UNL     1       2.880   2.874  -3.035  1.00  0.00     0.000 G0
ENDBRANCH  16  26
ENDBRANCH  13  16
ENDBRANCH   7  13
ENDBRANCH   3   6
ENDBRANCH   1   2
BRANCH   1  28
ATOM     28  C   UNL     1      -4.392  11.217   0.587  1.00  0.00     0.021 C 
BRANCH  28  29
ATOM     29  C   UNL     1      -4.915  12.597   0.174  1.00  0.00     0.002 C 
BRANCH  29  30
ATOM     30  C   UNL     1      -5.929  12.714  -0.972  1.00  0.00     0.002 C 
BRANCH  30  31
ATOM     31  C   UNL     1      -7.123  11.763  -0.990  1.00  0.00     0.021 C 
BRANCH  31  32
ATOM     32  C   UNL     1      -8.092  11.883   0.174  1.00  0.00     0.116 C 
BRANCH  32  33
ATOM     33  N   UNL     1      -9.118  12.900  -0.008  1.00  0.00    -0.352 N 
ATOM     34  C   UNL     1     -10.222  13.200   0.771  1.00  0.00     0.251 C 
ATOM     35  H   UNL     1      -9.010  13.461  -0.809  1.00  0.00     0.163 HD
ATOM     36  O   UNL     1     -11.033  14.036   0.385  1.00  0.00    -0.269 OA
BRANCH  34  37
ATOM     37  C   UNL     1     -10.326  12.657   2.147  1.00  0.00     0.039 A 
ATOM     38  C   UNL     1     -10.634  13.570   3.167  1.00  0.00     0.014 A 
ATOM     39  C   UNL     1      -9.832  11.398   2.463  1.00  0.00     0.014 A 
ATOM     40  C   UNL     1     -10.149  13.344   4.449  1.00  0.00     0.010 A 
ATOM     41  C   UNL     1      -9.236  11.229   3.689  1.00  0.00     0.010 A 
ATOM     42  C   UNL     1      -9.327  12.242   4.649  1.00  0.00    -0.014 A 
BRANCH  42  43
ATOM     43  C   UNL     1      -8.434  12.091   5.783  1.00  0.00     0.031 A 
ATOM     44  C   UNL     1      -8.753  11.102   6.825  1.00  0.00     0.074 A 
ATOM     45  C   UNL     1      -7.235  12.713   5.737  1.00  0.00     0.049 A 
ATOM     46  N   UNL     1      -8.188  11.050   7.980  1.00  0.00    -0.248 NA
ATOM     47  C   UNL     1      -9.793  10.097   6.651  1.00  0.00     0.031 C 
ATOM     48  C   UNL     1      -6.045  12.416   6.528  1.00  0.00     0.029 A 
ATOM     49  N   UNL     1      -6.907  13.893   5.048  1.00  0.00    -0.354 N 
ATOM     50  C   UNL     1      -8.552   9.861   8.572  1.00  0.00     0.074 A 
ATOM     51  C   UNL     1      -9.622   9.355   7.748  1.00  0.00     0.031 C 
ATOM     52  C   UNL     1      -5.242  13.493   6.527  1.00  0.00     0.029 A 
ATOM     53  C   UNL     1      -5.976  14.564   5.875  1.00  0.00     0.049 A 
ATOM     54  H   UNL     1      -7.252  14.190   4.175  1.00  0.00     0.167 HD
ATOM     55  C   UNL     1      -7.788   9.395   9.604  1.00  0.00     0.037 A 
ATOM     56  C   UNL     1      -6.292  15.754   6.468  1.00  0.00     0.037 A 
ATOM     57  C   UNL     1      -6.800  10.404   9.996  1.00  0.00     0.049 A 
ATOM     58  C   UNL     1      -6.258  15.700   7.978  1.00  0.00     0.074 A 
ATOM     59  C   UNL     1      -5.455  10.564   9.703  1.00  0.00     0.029 A 
ATOM     60  N   UNL     1      -7.236  11.620  10.516  1.00  0.00    -0.354 N 
ATOM     61  N   UNL     1      -6.384  14.600   8.667  1.00  0.00    -0.248 NA
ATOM     62  C   UNL     1      -6.087  16.876   8.826  1.00  0.00     0.031 C 
ATOM     63  C   UNL     1      -5.101  11.907   9.986  1.00  0.00     0.029 A 
ATOM     64  C   UNL     1      -6.222  12.557  10.476  1.00  0.00     0.049 A 
ATOM     65  H   UNL     1      -8.142  11.788  10.864  1.00  0.00     0.167 HD
ATOM     66  C   UNL     1      -6.318  14.888  10.005  1.00  0.00     0.074 A 
ATOM     67  C   UNL     1      -6.123  16.325  10.053  1.00  0.00     0.031 C 
ATOM     68  C   UNL     1      -6.432  13.915  10.958  1.00  0.00     0.037 A 
BRANCH  55  69
ATOM     69  C   UNL     1      -7.717   7.944  10.055  1.00  0.00     0.064 A 
ATOM     70  C   UNL     1      -6.571   7.464  10.732  1.00  0.00     0.173 A 
ATOM     71  C   UNL     1      -8.683   6.954   9.791  1.00  0.00     0.173 A 
ATOM     72  F   UNL     1      -5.606   8.292  11.151  1.00  0.00    -0.203 F 
ATOM     73  C   UNL     1      -6.365   6.107  11.008  1.00  0.00     0.198 A 
ATOM     74  C   UNL     1      -8.463   5.593  10.032  1.00  0.00     0.198 A 
ATOM     75  F   UNL     1      -9.904   7.258   9.348  1.00  0.00    -0.203 F 
ATOM     76  F   UNL     1      -5.245   5.719  11.632  1.00  0.00    -0.200 F 
ATOM     77  C   UNL     1      -7.297   5.167  10.628  1.00  0.00     0.200 A 
ATOM     78  F   UNL     1      -9.399   4.699   9.680  1.00  0.00    -0.200 F 
ATOM     79  F   UNL     1      -7.088   3.864  10.860  1.00  0.00    -0.200 F 
ENDBRANCH  55  69
BRANCH  56  80
ATOM     80  C   UNL     1      -7.241  16.564   5.655  1.00  0.00     0.064 A 
ATOM     81  C   UNL     1      -6.815  17.000   4.384  1.00  0.00     0.173 A 
ATOM     82  C   UNL     1      -8.619  16.543   5.903  1.00  0.00     0.173 A 
ATOM     83  F   UNL     1      -5.504  17.041   4.097  1.00  0.00    -0.203 F 
ATOM     84  C   UNL     1      -7.727  17.263   3.365  1.00  0.00     0.198 A 
ATOM     85  C   UNL     1      -9.530  16.827   4.882  1.00  0.00     0.198 A 
ATOM     86  F   UNL     1      -9.089  16.127   7.087  1.00  0.00    -0.203 F 
ATOM     87  F   UNL     1      -7.287  17.546   2.130  1.00  0.00    -0.200 F 
ATOM     88  C   UNL     1      -9.085  17.145   3.607  1.00  0.00     0.200 A 
ATOM     89  F   UNL     1     -10.845  16.690   5.107  1.00  0.00    -0.200 F 
ATOM     90  F   UNL     1      -9.962  17.294   2.604  1.00  0.00    -0.200 F 
ENDBRANCH  56  80
BRANCH  68  91
ATOM     91  C   UNL     1      -6.651  14.133  12.438  1.00  0.00     0.064 A 
ATOM     92  C   UNL     1      -7.262  15.275  12.982  1.00  0.00     0.173 A 
ATOM     93  C   UNL     1      -6.383  13.092  13.363  1.00  0.00     0.173 A 
ATOM     94  F   UNL     1      -7.681  16.282  12.205  1.00  0.00    -0.203 F 
ATOM     95  C   UNL     1      -7.524  15.394  14.351  1.00  0.00     0.198 A 
ATOM     96  C   UNL     1      -6.706  13.189  14.716  1.00  0.00     0.198 A 
ATOM     97  F   UNL     1      -5.827  11.934  12.978  1.00  0.00    -0.203 F 
ATOM     98  F   UNL     1      -8.068  16.524  14.824  1.00  0.00    -0.200 F 
ATOM     99  C   UNL     1      -7.260  14.348  15.213  1.00  0.00     0.200 A 
ATOM    100  F   UNL     1      -6.497  12.141  15.526  1.00  0.00    -0.200 F 
ATOM    101  F   UNL     1      -7.561  14.447  16.515  1.00  0.00    -0.200 F 
ENDBRANCH  68  91
ENDBRANCH  42  43
ENDBRANCH  34  37
ENDBRANCH  32  33
ENDBRANCH  31  32
ENDBRANCH  30  31
ENDBRANCH  29  30
ENDBRANCH  28  29
ENDBRANCH   1  28
TORSDOF 16
