REMARK SMILES O=C(NCCCCCCNC(=O)c1ccc(-n2cc(CSc3nc4ccccc4c(=O)n3-c3ccc(Cl)cc3)nn2)cc1)c1ccc(-c2c3nc(c(-c4c(F)c(F)c(F)c(F)c4F)c4ccc([nH]4)c(-c4c(F)c(F)c(F)c(F)c4F)c4nc(c(-c5c(F)c(F)c(F)c(F)c5F)c5ccc2[nH]5)C=C4)C=C3)cc1
REMARK SMILES IDX 8 1 7 2 6 3 5 4 4 5 3 6 1 7 2 8 44 10 45 11 106 12 46 13
REMARK SMILES IDX 105 14 47 15 48 16 49 17 99 18 50 19 104 20 98 21 100 22
REMARK SMILES IDX 51 23 103 24 97 25 96 26 52 28 84 29 64 30 83 31 65 32 68 33
REMARK SMILES IDX 82 34 101 35 66 36 67 37 81 39 102 40 69 41 53 42 54 43
REMARK SMILES IDX 62 44 55 45 56 46 60 47 63 48 57 49 58 50 61 51 59 52 85 53
REMARK SMILES IDX 86 54 94 55 87 56 88 57 92 58 95 59 89 60 90 61 93 62 91 63
REMARK SMILES IDX 70 64 71 65 79 66 72 67 73 68 77 69 80 70 74 71 75 72 78 73
REMARK SMILES IDX 76 74 9 75 10 76 11 77 12 79 13 80 14 81 43 82 15 83 42 84
REMARK SMILES IDX 16 85 17 86 18 87 41 88 19 89 40 90 20 91 21 92 22 93 23 94
REMARK SMILES IDX 32 95 24 96 30 97 25 98 29 99 31 100 26 101 28 102 27 103
REMARK SMILES IDX 33 104 34 105 39 106 35 107 38 108 36 109 37 110
REMARK H PARENT 3 9 100 27 68 38 10 78
REMARK Flexibility Score: inf
ROOT
ATOM      1  C   UNL     1       6.438   3.838   1.771  1.00  0.00     0.021 C 
ENDROOT
BRANCH   1   2
ATOM      2  C   UNL     1       4.914   3.794   1.633  1.00  0.00     0.002 C 
BRANCH   2   3
ATOM      3  C   UNL     1       4.380   3.485   0.229  1.00  0.00     0.002 C 
BRANCH   3   4
ATOM      4  C   UNL     1       4.891   2.190  -0.422  1.00  0.00     0.021 C 
BRANCH   4   5
ATOM      5  C   UNL     1       4.656   0.922   0.397  1.00  0.00     0.116 C 
BRANCH   5   6
ATOM      6  N   UNL     1       3.260   0.660   0.676  1.00  0.00    -0.352 N 
ATOM      7  O   UNL     1       1.197  -0.108   0.700  1.00  0.00    -0.269 OA
ATOM      8  C   UNL     1       2.247  -0.017   0.058  1.00  0.00     0.251 C 
ATOM      9  H   UNL     1       2.968   1.071   1.521  1.00  0.00     0.163 HD
BRANCH   8  10
ATOM     10  C   UNL     1       2.284  -0.587  -1.318  1.00  0.00     0.039 A 
ATOM     11  C   UNL     1       3.408  -0.727  -2.131  1.00  0.00     0.014 A 
ATOM     12  C   UNL     1       1.036  -1.000  -1.832  1.00  0.00     0.014 A 
ATOM     13  C   UNL     1       3.275  -1.190  -3.443  1.00  0.00     0.010 A 
ATOM     14  C   UNL     1       0.899  -1.468  -3.134  1.00  0.00     0.010 A 
ATOM     15  C   UNL     1       2.016  -1.527  -3.957  1.00  0.00    -0.014 A 
BRANCH  15  16
ATOM     16  C   UNL     1       1.930  -2.084  -5.309  1.00  0.00     0.031 A 
ATOM     17  C   UNL     1       2.663  -3.374  -5.492  1.00  0.00     0.074 A 
ATOM     18  C   UNL     1       1.150  -1.584  -6.292  1.00  0.00     0.049 A 
ATOM     19  N   UNL     1       3.634  -3.635  -6.306  1.00  0.00    -0.248 NA
ATOM     20  C   UNL     1       2.332  -4.486  -4.586  1.00  0.00     0.031 C 
ATOM     21  C   UNL     1       0.151  -0.516  -6.213  1.00  0.00     0.029 A 
ATOM     22  N   UNL     1       1.040  -1.998  -7.590  1.00  0.00    -0.354 N 
ATOM     23  C   UNL     1       3.945  -4.983  -6.126  1.00  0.00     0.074 A 
ATOM     24  C   UNL     1       3.192  -5.426  -4.981  1.00  0.00     0.031 C 
ATOM     25  C   UNL     1      -0.602  -0.514  -7.339  1.00  0.00     0.029 A 
ATOM     26  C   UNL     1      -0.051  -1.478  -8.277  1.00  0.00     0.049 A 
ATOM     27  H   UNL     1       1.684  -2.616  -8.006  1.00  0.00     0.167 HD
ATOM     28  C   UNL     1       4.666  -5.683  -7.045  1.00  0.00     0.037 A 
ATOM     29  C   UNL     1      -0.488  -1.842  -9.511  1.00  0.00     0.037 A 
ATOM     30  C   UNL     1       5.412  -4.806  -7.906  1.00  0.00     0.049 A 
ATOM     31  C   UNL     1       0.634  -2.523 -10.200  1.00  0.00     0.074 A 
ATOM     32  C   UNL     1       6.427  -3.890  -7.707  1.00  0.00     0.029 A 
ATOM     33  N   UNL     1       4.904  -4.525  -9.149  1.00  0.00    -0.354 N 
ATOM     34  N   UNL     1       1.723  -1.919 -10.585  1.00  0.00    -0.248 NA
ATOM     35  C   UNL     1       0.732  -3.966 -10.052  1.00  0.00     0.031 C 
ATOM     36  C   UNL     1       6.122  -2.810  -8.586  1.00  0.00     0.029 A 
ATOM     37  C   UNL     1       4.987  -3.166  -9.315  1.00  0.00     0.049 A 
ATOM     38  H   UNL     1       4.548  -5.174  -9.798  1.00  0.00     0.167 HD
ATOM     39  C   UNL     1       2.736  -2.820 -10.300  1.00  0.00     0.074 A 
ATOM     40  C   UNL     1       2.061  -4.089 -10.040  1.00  0.00     0.031 C 
ATOM     41  C   UNL     1       4.002  -2.390 -10.027  1.00  0.00     0.037 A 
BRANCH  28  42
ATOM     42  C   UNL     1       4.448  -7.139  -7.374  1.00  0.00     0.064 A 
ATOM     43  C   UNL     1       5.350  -7.804  -8.230  1.00  0.00     0.173 A 
ATOM     44  C   UNL     1       3.233  -7.814  -7.130  1.00  0.00     0.173 A 
ATOM     45  F   UNL     1       6.527  -7.245  -8.551  1.00  0.00    -0.203 F 
ATOM     46  C   UNL     1       5.025  -9.014  -8.850  1.00  0.00     0.198 A 
ATOM     47  C   UNL     1       2.933  -9.045  -7.710  1.00  0.00     0.198 A 
ATOM     48  F   UNL     1       2.247  -7.260  -6.414  1.00  0.00    -0.203 F 
ATOM     49  F   UNL     1       5.863  -9.548  -9.750  1.00  0.00    -0.200 F 
ATOM     50  C   UNL     1       3.814  -9.630  -8.595  1.00  0.00     0.200 A 
ATOM     51  F   UNL     1       1.745  -9.616  -7.467  1.00  0.00    -0.200 F 
ATOM     52  F   UNL     1       3.474 -10.757  -9.235  1.00  0.00    -0.200 F 
ENDBRANCH  28  42
BRANCH  29  53
ATOM     53  C   UNL     1      -1.881  -1.951 -10.015  1.00  0.00     0.064 A 
ATOM     54  C   UNL     1      -2.160  -2.031 -11.391  1.00  0.00     0.173 A 
ATOM     55  C   UNL     1      -2.934  -2.291  -9.145  1.00  0.00     0.173 A 
ATOM     56  F   UNL     1      -1.198  -1.777 -12.290  1.00  0.00    -0.203 F 
ATOM     57  C   UNL     1      -3.410  -2.449 -11.866  1.00  0.00     0.198 A 
ATOM     58  C   UNL     1      -4.180  -2.706  -9.619  1.00  0.00     0.198 A 
ATOM     59  F   UNL     1      -2.740  -2.327  -7.819  1.00  0.00    -0.203 F 
ATOM     60  F   UNL     1      -3.619  -2.574 -13.184  1.00  0.00    -0.200 F 
ATOM     61  C   UNL     1      -4.415  -2.797 -10.979  1.00  0.00     0.200 A 
ATOM     62  F   UNL     1      -5.130  -3.083  -8.751  1.00  0.00    -0.200 F 
ATOM     63  F   UNL     1      -5.588  -3.261 -11.430  1.00  0.00    -0.200 F 
ENDBRANCH  29  53
BRANCH  41  64
ATOM     64  C   UNL     1       4.322  -0.942 -10.273  1.00  0.00     0.064 A 
ATOM     65  C   UNL     1       3.708   0.128  -9.597  1.00  0.00     0.173 A 
ATOM     66  C   UNL     1       5.395  -0.637 -11.119  1.00  0.00     0.173 A 
ATOM     67  F   UNL     1       2.742  -0.086  -8.696  1.00  0.00    -0.203 F 
ATOM     68  C   UNL     1       4.128   1.443  -9.793  1.00  0.00     0.198 A 
ATOM     69  C   UNL     1       5.836   0.673 -11.284  1.00  0.00     0.198 A 
ATOM     70  F   UNL     1       6.055  -1.622 -11.748  1.00  0.00    -0.203 F 
ATOM     71  F   UNL     1       3.522   2.448  -9.141  1.00  0.00    -0.200 F 
ATOM     72  C   UNL     1       5.197   1.713 -10.630  1.00  0.00     0.200 A 
ATOM     73  F   UNL     1       6.904   0.923 -12.055  1.00  0.00    -0.200 F 
ATOM     74  F   UNL     1       5.631   2.972 -10.784  1.00  0.00    -0.200 F 
ENDBRANCH  41  64
ENDBRANCH  15  16
ENDBRANCH   8  10
ENDBRANCH   5   6
ENDBRANCH   4   5
ENDBRANCH   3   4
ENDBRANCH   2   3
ENDBRANCH   1   2
BRANCH   1  75
ATOM     75  C   UNL     1       7.139   4.857   0.875  1.00  0.00     0.116 C 
BRANCH  75  76
ATOM     76  N   UNL     1       6.832   6.228   1.245  1.00  0.00    -0.352 N 
ATOM     77  C   UNL     1       7.668   7.212   1.721  1.00  0.00     0.251 C 
ATOM     78  H   UNL     1       5.889   6.492   1.139  1.00  0.00     0.163 HD
ATOM     79  O   UNL     1       7.223   8.282   2.100  1.00  0.00    -0.269 OA
BRANCH  77  80
ATOM     80  C   UNL     1       9.119   6.948   1.801  1.00  0.00     0.039 A 
ATOM     81  C   UNL     1       9.753   7.076   3.041  1.00  0.00     0.016 A 
ATOM     82  C   UNL     1       9.843   6.579   0.663  1.00  0.00     0.016 A 
ATOM     83  C   UNL     1      11.104   6.750   3.168  1.00  0.00     0.029 A 
ATOM     84  C   UNL     1      11.201   6.285   0.779  1.00  0.00     0.029 A 
ATOM     85  C   UNL     1      11.828   6.364   2.035  1.00  0.00     0.066 A 
BRANCH  85  86
ATOM     86  N   UNL     1      13.214   6.134   2.150  1.00  0.00    -0.220 N 
ATOM     87  C   UNL     1      14.152   6.343   1.178  1.00  0.00     0.141 A 
ATOM     88  N   UNL     1      13.822   5.690   3.272  1.00  0.00    -0.062 NA
ATOM     89  C   UNL     1      15.365   6.061   1.758  1.00  0.00     0.093 A 
ATOM     90  N   UNL     1      15.127   5.594   3.026  1.00  0.00    -0.134 NA
BRANCH  89  91
ATOM     91  C   UNL     1      16.700   5.989   1.125  1.00  0.00     0.138 C 
BRANCH  91  92
ATOM     92  S   UNL     1      17.844   7.368   1.075  1.00  0.00    -0.081 SA
BRANCH  92  93
ATOM     93  C   UNL     1      17.095   8.924   1.326  1.00  0.00     0.176 A 
ATOM     94  N   UNL     1      17.859   9.705   2.033  1.00  0.00    -0.223 NA
ATOM     95  N   UNL     1      15.864   9.352   0.843  1.00  0.00    -0.255 N 
ATOM     96  C   UNL     1      17.367  10.947   2.439  1.00  0.00     0.079 A 
ATOM     97  C   UNL     1      15.175  10.219   1.710  1.00  0.00     0.266 A 
ATOM     98  C   UNL     1      18.223  11.926   2.947  1.00  0.00     0.029 A 
ATOM     99  C   UNL     1      16.000  11.171   2.472  1.00  0.00     0.066 A 
ATOM    100  O   UNL     1      13.959  10.238   1.895  1.00  0.00    -0.268 OA
ATOM    101  C   UNL     1      17.701  13.070   3.560  1.00  0.00     0.002 A 
ATOM    102  C   UNL     1      15.460  12.279   3.133  1.00  0.00     0.016 A 
ATOM    103  C   UNL     1      16.319  13.224   3.693  1.00  0.00     0.001 A 
BRANCH  95 104
ATOM    104  C   UNL     1      15.224   8.970  -0.406  1.00  0.00     0.051 A 
ATOM    105  C   UNL     1      14.034   9.606  -0.823  1.00  0.00     0.028 A 
ATOM    106  C   UNL     1      15.711   7.988  -1.277  1.00  0.00     0.028 A 
ATOM    107  C   UNL     1      13.249   9.113  -1.872  1.00  0.00     0.022 A 
ATOM    108  C   UNL     1      14.901   7.434  -2.283  1.00  0.00     0.022 A 
ATOM    109  C   UNL     1      13.650   7.972  -2.544  1.00  0.00     0.041 A 
ATOM    110  Cl  UNL     1      12.599   7.217  -3.671  1.00  0.00    -0.084 Cl
ENDBRANCH  95 104
ENDBRANCH  92  93
ENDBRANCH  91  92
ENDBRANCH  89  91
ENDBRANCH  85  86
ENDBRANCH  77  80
ENDBRANCH  75  76
ENDBRANCH   1  75
TORSDOF 18
