REMARK SMILES C/C(=C\CN1CC(=O)N2CCC[C@H]2C1=O)C(=O)NCCCCCCNC(=O)c1ccc(-c2c3nc(c(-c4c(F)c(F)c(F)c(F)c4F)c4ccc([nH]4)c(-c4c(F)c(F)c(F)c(F)c4F)c4nc(c(-c5c(F)c(F)c(F)c(F)c5F)c5ccc2[nH]5)C=C4)C=C3)cc1
REMARK SMILES IDX 21 1 20 2 19 3 18 4 16 5 17 6 2 8 1 9 3 10 4 11 5 12 6 13
REMARK SMILES IDX 14 14 7 15 13 16 15 17 8 18 9 19 12 20 10 21 11 22 22 23
REMARK SMILES IDX 23 24 24 25 25 26 26 27 27 29 28 30 29 31 90 32 30 33 89 34
REMARK SMILES IDX 31 35 32 36 33 37 83 38 34 39 88 40 82 41 84 42 35 43 87 44
REMARK SMILES IDX 81 45 80 46 36 48 68 49 48 50 67 51 49 52 52 53 66 54 85 55
REMARK SMILES IDX 50 56 51 57 65 59 86 60 53 61 37 62 38 63 46 64 39 65 40 66
REMARK SMILES IDX 44 67 47 68 41 69 42 70 45 71 43 72 69 73 70 74 78 75 71 76
REMARK SMILES IDX 72 77 76 78 79 79 73 80 74 81 77 82 75 83 54 84 55 85 63 86
REMARK SMILES IDX 56 87 57 88 61 89 64 90 58 91 59 92 62 93 60 94
REMARK H PARENT 18 7 25 28 84 47 52 58
REMARK Flexibility Score: inf
ROOT
ATOM      1  C   UNL     1      -1.353  -5.178   3.309  1.00  0.00     0.002 C 
ENDROOT
BRANCH   1   2
ATOM      2  C   UNL     1      -1.803  -3.770   2.918  1.00  0.00     0.021 C 
BRANCH   2   3
ATOM      3  C   UNL     1      -0.765  -2.658   3.027  1.00  0.00     0.116 C 
BRANCH   3   4
ATOM      4  N   UNL     1       0.366  -2.812   2.130  1.00  0.00    -0.352 N 
ATOM      5  C   UNL     1       0.992  -1.925   1.303  1.00  0.00     0.246 C 
ATOM      6  O   UNL     1       1.962  -2.316   0.654  1.00  0.00    -0.270 OA
ATOM      7  H   UNL     1       0.749  -3.718   2.115  1.00  0.00     0.163 HD
BRANCH   5   8
ATOM      8  C   UNL     1       0.473  -0.532   1.095  1.00  0.00     0.012 C 
ATOM      9  C   UNL     1       0.574  -0.067  -0.330  1.00  0.00     0.050 C 
ATOM     10  C   UNL     1       0.034   0.219   2.123  1.00  0.00     0.003 C 
BRANCH  10  11
ATOM     11  C   UNL     1      -0.584   1.583   2.079  1.00  0.00     0.148 C 
BRANCH  11  12
ATOM     12  N   UNL     1      -2.026   1.462   1.888  1.00  0.00    -0.328 N 
ATOM     13  C   UNL     1      -2.656   2.276   0.835  1.00  0.00     0.220 C 
ATOM     14  C   UNL     1      -2.826   0.925   2.907  1.00  0.00     0.246 C 
ATOM     15  C   UNL     1      -3.939   1.639   0.284  1.00  0.00     0.242 C 
ATOM     16  C   UNL     1      -4.335   1.065   2.652  1.00  0.00     0.174 C 
ATOM     17  O   UNL     1      -2.381   0.510   3.975  1.00  0.00    -0.272 OA
ATOM     18  O   UNL     1      -4.345   1.831  -0.857  1.00  0.00    -0.273 OA
ATOM     19  N   UNL     1      -4.651   0.952   1.238  1.00  0.00    -0.329 N 
ATOM     20  C   UNL     1      -5.197  -0.021   3.286  1.00  0.00     0.037 C 
ATOM     21  C   UNL     1      -5.880   0.226   0.999  1.00  0.00     0.120 C 
ATOM     22  C   UNL     1      -6.440  -0.023   2.395  1.00  0.00     0.024 C 
ENDBRANCH  11  12
ENDBRANCH  10  11
ENDBRANCH   5   8
ENDBRANCH   3   4
ENDBRANCH   2   3
ENDBRANCH   1   2
BRANCH   1  23
ATOM     23  C   UNL     1      -0.720  -5.346   4.692  1.00  0.00     0.002 C 
BRANCH  23  24
ATOM     24  C   UNL     1      -1.488  -4.763   5.881  1.00  0.00     0.021 C 
BRANCH  24  25
ATOM     25  C   UNL     1      -2.940  -5.207   6.038  1.00  0.00     0.116 C 
BRANCH  25  26
ATOM     26  N   UNL     1      -3.081  -6.638   6.233  1.00  0.00    -0.352 N 
ATOM     27  C   UNL     1      -3.778  -7.343   7.183  1.00  0.00     0.251 C 
ATOM     28  H   UNL     1      -2.599  -7.194   5.578  1.00  0.00     0.163 HD
ATOM     29  O   UNL     1      -3.660  -8.565   7.235  1.00  0.00    -0.269 OA
BRANCH  27  30
ATOM     30  C   UNL     1      -4.651  -6.659   8.167  1.00  0.00     0.039 A 
ATOM     31  C   UNL     1      -4.647  -7.122   9.488  1.00  0.00     0.014 A 
ATOM     32  C   UNL     1      -5.509  -5.616   7.805  1.00  0.00     0.014 A 
ATOM     33  C   UNL     1      -5.457  -6.512  10.449  1.00  0.00     0.010 A 
ATOM     34  C   UNL     1      -6.273  -4.966   8.778  1.00  0.00     0.010 A 
ATOM     35  C   UNL     1      -6.259  -5.410  10.109  1.00  0.00    -0.014 A 
BRANCH  35  36
ATOM     36  C   UNL     1      -7.073  -4.721  11.144  1.00  0.00     0.031 A 
ATOM     37  C   UNL     1      -8.575  -4.766  11.098  1.00  0.00     0.074 A 
ATOM     38  C   UNL     1      -6.454  -4.020  12.115  1.00  0.00     0.049 A 
ATOM     39  N   UNL     1      -9.446  -4.225  11.915  1.00  0.00    -0.248 NA
ATOM     40  C   UNL     1      -9.182  -5.497   9.976  1.00  0.00     0.031 C 
ATOM     41  C   UNL     1      -5.006  -3.851  12.239  1.00  0.00     0.029 A 
ATOM     42  N   UNL     1      -6.964  -3.318  13.179  1.00  0.00    -0.354 N 
ATOM     43  C   UNL     1     -10.697  -4.541  11.401  1.00  0.00     0.074 A 
ATOM     44  C   UNL     1     -10.474  -5.280  10.177  1.00  0.00     0.031 C 
ATOM     45  C   UNL     1      -4.742  -3.115  13.331  1.00  0.00     0.029 A 
ATOM     46  C   UNL     1      -6.000  -2.740  13.969  1.00  0.00     0.049 A 
ATOM     47  H   UNL     1      -7.928  -3.236  13.358  1.00  0.00     0.167 HD
ATOM     48  C   UNL     1     -11.919  -4.259  11.915  1.00  0.00     0.037 A 
ATOM     49  C   UNL     1      -6.117  -1.996  15.085  1.00  0.00     0.037 A 
ATOM     50  C   UNL     1     -12.140  -3.547  13.147  1.00  0.00     0.049 A 
ATOM     51  C   UNL     1      -7.484  -1.720  15.647  1.00  0.00     0.074 A 
ATOM     52  C   UNL     1     -13.339  -3.270  13.781  1.00  0.00     0.029 A 
ATOM     53  N   UNL     1     -11.138  -2.998  13.933  1.00  0.00    -0.354 N 
ATOM     54  N   UNL     1      -8.657  -2.089  15.192  1.00  0.00    -0.248 NA
ATOM     55  C   UNL     1      -7.543  -0.933  16.887  1.00  0.00     0.031 C 
ATOM     56  C   UNL     1     -13.066  -2.520  14.931  1.00  0.00     0.029 A 
ATOM     57  C   UNL     1     -11.693  -2.368  15.036  1.00  0.00     0.049 A 
ATOM     58  H   UNL     1     -10.175  -3.049  13.737  1.00  0.00     0.167 HD
ATOM     59  C   UNL     1      -9.588  -1.601  16.097  1.00  0.00     0.074 A 
ATOM     60  C   UNL     1      -8.844  -0.926  17.140  1.00  0.00     0.031 C 
ATOM     61  C   UNL     1     -10.940  -1.699  16.066  1.00  0.00     0.037 A 
BRANCH  48  62
ATOM     62  C   UNL     1     -13.120  -4.729  11.147  1.00  0.00     0.064 A 
ATOM     63  C   UNL     1     -13.464  -6.087  11.081  1.00  0.00     0.173 A 
ATOM     64  C   UNL     1     -13.963  -3.807  10.508  1.00  0.00     0.173 A 
ATOM     65  F   UNL     1     -12.686  -7.010  11.666  1.00  0.00    -0.203 F 
ATOM     66  C   UNL     1     -14.594  -6.508  10.383  1.00  0.00     0.198 A 
ATOM     67  C   UNL     1     -15.106  -4.228   9.834  1.00  0.00     0.198 A 
ATOM     68  F   UNL     1     -13.683  -2.495  10.545  1.00  0.00    -0.203 F 
ATOM     69  F   UNL     1     -14.879  -7.814  10.298  1.00  0.00    -0.200 F 
ATOM     70  C   UNL     1     -15.417  -5.578   9.767  1.00  0.00     0.200 A 
ATOM     71  F   UNL     1     -15.908  -3.327   9.248  1.00  0.00    -0.200 F 
ATOM     72  F   UNL     1     -16.508  -5.983   9.102  1.00  0.00    -0.200 F 
ENDBRANCH  48  62
BRANCH  49  73
ATOM     73  C   UNL     1      -4.899  -1.489  15.767  1.00  0.00     0.064 A 
ATOM     74  C   UNL     1      -4.494  -2.015  17.001  1.00  0.00     0.173 A 
ATOM     75  C   UNL     1      -4.120  -0.469  15.203  1.00  0.00     0.173 A 
ATOM     76  F   UNL     1      -5.220  -2.976  17.590  1.00  0.00    -0.203 F 
ATOM     77  C   UNL     1      -3.365  -1.526  17.656  1.00  0.00     0.198 A 
ATOM     78  C   UNL     1      -2.976   0.001  15.845  1.00  0.00     0.198 A 
ATOM     79  F   UNL     1      -4.464   0.064  14.021  1.00  0.00    -0.203 F 
ATOM     80  F   UNL     1      -3.025  -2.015  18.856  1.00  0.00    -0.200 F 
ATOM     81  C   UNL     1      -2.604  -0.522  17.075  1.00  0.00     0.200 A 
ATOM     82  F   UNL     1      -2.237   0.962  15.275  1.00  0.00    -0.200 F 
ATOM     83  F   UNL     1      -1.518  -0.054  17.703  1.00  0.00    -0.200 F 
ENDBRANCH  49  73
BRANCH  61  84
ATOM     84  C   UNL     1     -11.696  -1.080  17.204  1.00  0.00     0.064 A 
ATOM     85  C   UNL     1     -11.809   0.311  17.340  1.00  0.00     0.173 A 
ATOM     86  C   UNL     1     -12.330  -1.888  18.161  1.00  0.00     0.173 A 
ATOM     87  F   UNL     1     -11.207   1.126  16.460  1.00  0.00    -0.203 F 
ATOM     88  C   UNL     1     -12.503   0.872  18.410  1.00  0.00     0.198 A 
ATOM     89  C   UNL     1     -13.047  -1.324  19.213  1.00  0.00     0.198 A 
ATOM     90  F   UNL     1     -12.258  -3.225  18.072  1.00  0.00    -0.203 F 
ATOM     91  F   UNL     1     -12.553   2.204  18.548  1.00  0.00    -0.200 F 
ATOM     92  C   UNL     1     -13.125   0.054  19.341  1.00  0.00     0.200 A 
ATOM     93  F   UNL     1     -13.656  -2.115  20.106  1.00  0.00    -0.200 F 
ATOM     94  F   UNL     1     -13.792   0.596  20.370  1.00  0.00    -0.200 F 
ENDBRANCH  61  84
ENDBRANCH  35  36
ENDBRANCH  27  30
ENDBRANCH  25  26
ENDBRANCH  24  25
ENDBRANCH  23  24
ENDBRANCH   1  23
TORSDOF 15
