REMARK SMILES Cc1nn([C@H]2CCS(=O)(=O)C2)c(C)c1/C=C(\CC(=O)NCCCCCCNC(=O)c1ccc(-c2c3nc(c(-c4c(F)c(F)c(F)c(F)c4F)c4ccc([nH]4)c(-c4c(F)c(F)c(F)c(F)c4F)c4nc(c(-c5c(F)c(F)c(F)c(F)c5F)c5ccc2[nH]5)C=C4)C=C3)cc1)c1nc2ccccc2s1
REMARK SMILES IDX 23 1 22 2 21 3 20 4 18 5 19 6 17 8 16 9 15 10 14 11 1 12
REMARK SMILES IDX 2 13 3 14 4 15 12 16 13 17 5 18 6 19 11 20 7 21 8 22 9 23
REMARK SMILES IDX 10 24 93 25 94 26 101 27 95 28 100 29 96 30 99 31 97 32
REMARK SMILES IDX 98 33 24 34 25 35 26 36 27 37 28 38 29 40 30 41 31 42 92 43
REMARK SMILES IDX 32 44 91 45 33 46 34 47 35 48 85 49 36 50 90 51 84 52 86 53
REMARK SMILES IDX 37 54 89 55 83 56 82 57 38 59 70 60 50 61 69 62 51 63 54 64
REMARK SMILES IDX 68 65 87 66 52 67 53 68 67 70 88 71 55 72 39 73 40 74 48 75
REMARK SMILES IDX 41 76 42 77 46 78 49 79 43 80 44 81 47 82 45 83 71 84 72 85
REMARK SMILES IDX 80 86 73 87 74 88 78 89 81 90 75 91 76 92 79 93 77 94 56 95
REMARK SMILES IDX 57 96 65 97 58 98 59 99 63 100 66 101 60 102 61 103 64 104
REMARK SMILES IDX 62 105
REMARK H PARENT 20 7 27 39 86 58 54 69
REMARK Flexibility Score: inf
ROOT
ATOM      1  C   UNL     1       1.727 -12.425   1.151  1.00  0.00     0.002 C 
ENDROOT
BRANCH   1   2
ATOM      2  C   UNL     1       2.335 -11.126   0.613  1.00  0.00     0.021 C 
BRANCH   2   3
ATOM      3  C   UNL     1       2.026  -9.928   1.504  1.00  0.00     0.116 C 
BRANCH   3   4
ATOM      4  N   UNL     1       2.707 -10.071   2.772  1.00  0.00    -0.356 N 
ATOM      5  C   UNL     1       3.906  -9.525   3.132  1.00  0.00     0.224 C 
ATOM      6  O   UNL     1       4.512  -9.990   4.097  1.00  0.00    -0.275 OA
ATOM      7  H   UNL     1       2.256 -10.622   3.451  1.00  0.00     0.163 HD
BRANCH   5   8
ATOM      8  C   UNL     1       4.333  -8.227   2.464  1.00  0.00     0.138 C 
BRANCH   8   9
ATOM      9  C   UNL     1       4.864  -8.251   1.041  1.00  0.00    -0.002 C 
ATOM     10  C   UNL     1       4.346  -7.518   0.019  1.00  0.00     0.019 C 
BRANCH  10  11
ATOM     11  C   UNL     1       3.142  -6.723   0.030  1.00  0.00     0.019 A 
ATOM     12  C   UNL     1       2.297  -7.037  -2.441  1.00  0.00     0.069 C 
ATOM     13  C   UNL     1       2.190  -6.611  -1.021  1.00  0.00     0.067 A 
ATOM     14  N   UNL     1       1.071  -6.008  -0.602  1.00  0.00    -0.177 NA
ATOM     15  N   UNL     1       1.318  -5.688   0.684  1.00  0.00    -0.265 N 
ATOM     16  C   UNL     1       2.648  -5.869   1.009  1.00  0.00     0.043 A 
ATOM     17  C   UNL     1       3.311  -5.224   2.176  1.00  0.00     0.067 C 
BRANCH  15  18
ATOM     18  C   UNL     1       0.217  -5.148   1.480  1.00  0.00     0.123 C 
ATOM     19  C   UNL     1      -1.148  -5.814   1.169  1.00  0.00     0.044 C 
ATOM     20  C   UNL     1       0.369  -5.328   2.989  1.00  0.00     0.164 C 
ATOM     21  C   UNL     1      -2.159  -5.292   2.185  1.00  0.00     0.139 C 
ATOM     22  S   UNL     1      -1.226  -4.952   3.660  1.00  0.00     0.152 S 
ATOM     23  O   UNL     1      -1.275  -3.535   3.924  1.00  0.00    -0.229 OA
ATOM     24  O   UNL     1      -1.543  -5.946   4.670  1.00  0.00    -0.229 OA
ENDBRANCH  15  18
ENDBRANCH  10  11
BRANCH   9  25
ATOM     25  C   UNL     1       5.962  -9.134   0.760  1.00  0.00     0.121 A 
ATOM     26  N   UNL     1       5.887 -10.447   0.839  1.00  0.00    -0.236 NA
ATOM     27  S   UNL     1       7.571  -8.530   0.600  1.00  0.00    -0.114 S 
ATOM     28  C   UNL     1       7.118 -10.959   1.202  1.00  0.00     0.082 A 
ATOM     29  C   UNL     1       8.173 -10.046   1.162  1.00  0.00     0.055 A 
ATOM     30  C   UNL     1       7.359 -12.262   1.679  1.00  0.00     0.030 A 
ATOM     31  C   UNL     1       9.465 -10.388   1.590  1.00  0.00     0.021 A 
ATOM     32  C   UNL     1       8.615 -12.580   2.204  1.00  0.00     0.002 A 
ATOM     33  C   UNL     1       9.652 -11.652   2.162  1.00  0.00     0.002 A 
ENDBRANCH   9  25
ENDBRANCH   8   9
ENDBRANCH   5   8
ENDBRANCH   3   4
ENDBRANCH   2   3
ENDBRANCH   1   2
BRANCH   1  34
ATOM     34  C   UNL     1       0.208 -12.376   1.367  1.00  0.00     0.002 C 
BRANCH  34  35
ATOM     35  C   UNL     1      -0.620 -11.945   0.147  1.00  0.00     0.021 C 
BRANCH  35  36
ATOM     36  C   UNL     1      -0.503 -12.907  -1.022  1.00  0.00     0.116 C 
BRANCH  36  37
ATOM     37  N   UNL     1      -1.038 -14.230  -0.697  1.00  0.00    -0.352 N 
ATOM     38  C   UNL     1      -1.029 -15.375  -1.465  1.00  0.00     0.251 C 
ATOM     39  H   UNL     1      -1.461 -14.313   0.188  1.00  0.00     0.163 HD
ATOM     40  O   UNL     1      -1.812 -16.291  -1.250  1.00  0.00    -0.269 OA
BRANCH  38  41
ATOM     41  C   UNL     1      -0.038 -15.482  -2.545  1.00  0.00     0.039 A 
ATOM     42  C   UNL     1      -0.355 -16.043  -3.784  1.00  0.00     0.014 A 
ATOM     43  C   UNL     1       1.233 -14.975  -2.294  1.00  0.00     0.014 A 
ATOM     44  C   UNL     1       0.610 -16.028  -4.787  1.00  0.00     0.010 A 
ATOM     45  C   UNL     1       2.102 -14.780  -3.329  1.00  0.00     0.010 A 
ATOM     46  C   UNL     1       1.833 -15.381  -4.549  1.00  0.00    -0.014 A 
BRANCH  46  47
ATOM     47  C   UNL     1       2.826 -15.214  -5.600  1.00  0.00     0.031 A 
ATOM     48  C   UNL     1       2.311 -14.497  -6.794  1.00  0.00     0.074 A 
ATOM     49  C   UNL     1       4.138 -15.472  -5.398  1.00  0.00     0.049 A 
ATOM     50  N   UNL     1       2.127 -14.976  -7.978  1.00  0.00    -0.248 NA
ATOM     51  C   UNL     1       1.781 -13.133  -6.618  1.00  0.00     0.031 C 
ATOM     52  C   UNL     1       4.807 -15.874  -4.153  1.00  0.00     0.029 A 
ATOM     53  N   UNL     1       5.184 -15.331  -6.256  1.00  0.00    -0.354 N 
ATOM     54  C   UNL     1       1.666 -13.916  -8.753  1.00  0.00     0.074 A 
ATOM     55  C   UNL     1       1.280 -12.883  -7.830  1.00  0.00     0.031 C 
ATOM     56  C   UNL     1       6.143 -15.713  -4.277  1.00  0.00     0.029 A 
ATOM     57  C   UNL     1       6.439 -15.372  -5.654  1.00  0.00     0.049 A 
ATOM     58  H   UNL     1       5.063 -15.210  -7.226  1.00  0.00     0.167 HD
ATOM     59  C   UNL     1       1.911 -13.886 -10.092  1.00  0.00     0.037 A 
ATOM     60  C   UNL     1       7.631 -15.118  -6.253  1.00  0.00     0.037 A 
ATOM     61  C   UNL     1       2.301 -15.193 -10.565  1.00  0.00     0.049 A 
ATOM     62  C   UNL     1       7.416 -15.249  -7.715  1.00  0.00     0.074 A 
ATOM     63  C   UNL     1       1.702 -16.436 -10.598  1.00  0.00     0.029 A 
ATOM     64  N   UNL     1       3.644 -15.419 -10.739  1.00  0.00    -0.354 N 
ATOM     65  N   UNL     1       7.135 -16.377  -8.306  1.00  0.00    -0.248 NA
ATOM     66  C   UNL     1       7.040 -14.048  -8.444  1.00  0.00     0.031 C 
ATOM     67  C   UNL     1       2.752 -17.360 -10.313  1.00  0.00     0.029 A 
ATOM     68  C   UNL     1       3.945 -16.644 -10.205  1.00  0.00     0.049 A 
ATOM     69  H   UNL     1       4.281 -14.807 -11.173  1.00  0.00     0.167 HD
ATOM     70  C   UNL     1       6.166 -16.049  -9.242  1.00  0.00     0.074 A 
ATOM     71  C   UNL     1       6.208 -14.591  -9.337  1.00  0.00     0.031 C 
ATOM     72  C   UNL     1       5.227 -16.965  -9.622  1.00  0.00     0.037 A 
BRANCH  59  73
ATOM     73  C   UNL     1       2.226 -12.632 -10.880  1.00  0.00     0.064 A 
ATOM     74  C   UNL     1       2.418 -12.743 -12.274  1.00  0.00     0.173 A 
ATOM     75  C   UNL     1       2.661 -11.417 -10.307  1.00  0.00     0.173 A 
ATOM     76  F   UNL     1       2.050 -13.855 -12.929  1.00  0.00    -0.203 F 
ATOM     77  C   UNL     1       3.089 -11.763 -13.010  1.00  0.00     0.198 A 
ATOM     78  C   UNL     1       3.283 -10.418 -11.055  1.00  0.00     0.198 A 
ATOM     79  F   UNL     1       2.612 -11.182  -8.992  1.00  0.00    -0.203 F 
ATOM     80  F   UNL     1       3.374 -11.979 -14.301  1.00  0.00    -0.200 F 
ATOM     81  C   UNL     1       3.530 -10.606 -12.397  1.00  0.00     0.200 A 
ATOM     82  F   UNL     1       3.718  -9.311 -10.438  1.00  0.00    -0.200 F 
ATOM     83  F   UNL     1       4.235  -9.697 -13.082  1.00  0.00    -0.200 F 
ENDBRANCH  59  73
BRANCH  60  84
ATOM     84  C   UNL     1       8.832 -14.453  -5.690  1.00  0.00     0.064 A 
ATOM     85  C   UNL     1      10.078 -14.537  -6.335  1.00  0.00     0.173 A 
ATOM     86  C   UNL     1       8.717 -13.478  -4.680  1.00  0.00     0.173 A 
ATOM     87  F   UNL     1      10.257 -15.404  -7.342  1.00  0.00    -0.203 F 
ATOM     88  C   UNL     1      11.135 -13.680  -6.008  1.00  0.00     0.198 A 
ATOM     89  C   UNL     1       9.773 -12.624  -4.353  1.00  0.00     0.198 A 
ATOM     90  F   UNL     1       7.545 -13.265  -4.064  1.00  0.00    -0.203 F 
ATOM     91  F   UNL     1      12.287 -13.747  -6.690  1.00  0.00    -0.200 F 
ATOM     92  C   UNL     1      10.978 -12.717  -5.025  1.00  0.00     0.200 A 
ATOM     93  F   UNL     1       9.594 -11.666  -3.432  1.00  0.00    -0.200 F 
ATOM     94  F   UNL     1      11.966 -11.851  -4.759  1.00  0.00    -0.200 F 
ENDBRANCH  60  84
BRANCH  72  95
ATOM     95  C   UNL     1       5.445 -18.399  -9.226  1.00  0.00     0.064 A 
ATOM     96  C   UNL     1       5.459 -18.869  -7.900  1.00  0.00     0.173 A 
ATOM     97  C   UNL     1       5.495 -19.357 -10.246  1.00  0.00     0.173 A 
ATOM     98  F   UNL     1       5.325 -18.027  -6.867  1.00  0.00    -0.203 F 
ATOM     99  C   UNL     1       5.552 -20.231  -7.616  1.00  0.00     0.198 A 
ATOM    100  C   UNL     1       5.550 -20.718  -9.961  1.00  0.00     0.198 A 
ATOM    101  F   UNL     1       5.435 -18.971 -11.531  1.00  0.00    -0.203 F 
ATOM    102  F   UNL     1       5.571 -20.654  -6.343  1.00  0.00    -0.200 F 
ATOM    103  C   UNL     1       5.588 -21.155  -8.647  1.00  0.00     0.200 A 
ATOM    104  F   UNL     1       5.536 -21.607 -10.963  1.00  0.00    -0.200 F 
ATOM    105  F   UNL     1       5.633 -22.467  -8.377  1.00  0.00    -0.200 F 
ENDBRANCH  72  95
ENDBRANCH  46  47
ENDBRANCH  38  41
ENDBRANCH  36  37
ENDBRANCH  35  36
ENDBRANCH  34  35
ENDBRANCH   1  34
TORSDOF 17
