REMARK SMILES O=C(NCCCCCCNC(=O)c1ccccc1NC(=O)c1cc2cc(Cl)cc(Cl)c2oc1=O)c1ccc(-c2c3nc(c(-c4c(F)c(F)c(F)c(F)c4F)c4ccc([nH]4)c(-c4c(F)c(F)c(F)c(F)c4F)c4nc(c(-c5c(F)c(F)c(F)c(F)c5F)c5ccc2[nH]5)C=C4)C=C3)cc1
REMARK SMILES IDX 6 1 5 2 4 3 3 4 1 5 2 6 35 8 36 9 97 10 37 11 96 12 38 13
REMARK SMILES IDX 39 14 40 15 90 16 41 17 95 18 89 19 91 20 42 21 94 22 88 23
REMARK SMILES IDX 87 24 43 26 75 27 55 28 74 29 56 30 59 31 73 32 92 33 57 34
REMARK SMILES IDX 58 35 72 37 93 38 60 39 44 40 45 41 53 42 46 43 47 44 51 45
REMARK SMILES IDX 54 46 48 47 49 48 52 49 50 50 76 51 77 52 85 53 78 54 79 55
REMARK SMILES IDX 83 56 86 57 80 58 81 59 84 60 82 61 61 62 62 63 70 64 63 65
REMARK SMILES IDX 64 66 68 67 71 68 65 69 66 70 69 71 67 72 7 73 8 74 9 75
REMARK SMILES IDX 10 76 11 77 12 79 13 80 14 81 18 82 15 83 17 84 16 85 19 86
REMARK SMILES IDX 20 87 21 89 22 90 23 91 33 92 24 93 32 94 34 95 25 96 31 97
REMARK SMILES IDX 26 98 29 99 27 100 28 101 30 102
REMARK H PARENT 3 7 91 25 59 36 10 78 19 88
REMARK Flexibility Score: inf
ROOT
ATOM      1  C   UNL     1       4.197   3.538  -1.958  1.00  0.00     0.002 C 
ENDROOT
BRANCH   1   2
ATOM      2  C   UNL     1       4.691   2.091  -1.976  1.00  0.00     0.021 C 
BRANCH   2   3
ATOM      3  C   UNL     1       4.439   1.273  -0.715  1.00  0.00     0.116 C 
BRANCH   3   4
ATOM      4  N   UNL     1       3.033   1.096  -0.408  1.00  0.00    -0.352 N 
ATOM      5  O   UNL     1       1.160  -0.003   0.193  1.00  0.00    -0.269 OA
ATOM      6  C   UNL     1       2.381  -0.016   0.070  1.00  0.00     0.251 C 
ATOM      7  H   UNL     1       2.464   1.884  -0.564  1.00  0.00     0.163 HD
BRANCH   6   8
ATOM      8  C   UNL     1       3.134  -1.248   0.410  1.00  0.00     0.039 A 
ATOM      9  C   UNL     1       4.331  -1.204   1.129  1.00  0.00     0.014 A 
ATOM     10  C   UNL     1       2.600  -2.484   0.028  1.00  0.00     0.014 A 
ATOM     11  C   UNL     1       5.043  -2.378   1.373  1.00  0.00     0.010 A 
ATOM     12  C   UNL     1       3.285  -3.668   0.321  1.00  0.00     0.010 A 
ATOM     13  C   UNL     1       4.525  -3.621   0.974  1.00  0.00    -0.014 A 
BRANCH  13  14
ATOM     14  C   UNL     1       5.268  -4.862   1.302  1.00  0.00     0.031 A 
ATOM     15  C   UNL     1       5.949  -5.665   0.232  1.00  0.00     0.074 A 
ATOM     16  C   UNL     1       5.350  -5.249   2.589  1.00  0.00     0.049 A 
ATOM     17  N   UNL     1       6.677  -6.748   0.352  1.00  0.00    -0.248 NA
ATOM     18  C   UNL     1       5.791  -5.199  -1.153  1.00  0.00     0.031 C 
ATOM     19  C   UNL     1       4.714  -4.563   3.715  1.00  0.00     0.029 A 
ATOM     20  N   UNL     1       6.015  -6.299   3.169  1.00  0.00    -0.354 N 
ATOM     21  C   UNL     1       7.051  -7.100  -0.937  1.00  0.00     0.074 A 
ATOM     22  C   UNL     1       6.459  -6.125  -1.829  1.00  0.00     0.031 C 
ATOM     23  C   UNL     1       5.051  -5.186   4.854  1.00  0.00     0.029 A 
ATOM     24  C   UNL     1       5.900  -6.330   4.537  1.00  0.00     0.049 A 
ATOM     25  H   UNL     1       6.524  -6.966   2.655  1.00  0.00     0.167 HD
ATOM     26  C   UNL     1       7.821  -8.139  -1.338  1.00  0.00     0.037 A 
ATOM     27  C   UNL     1       6.423  -7.184   5.436  1.00  0.00     0.037 A 
ATOM     28  C   UNL     1       8.427  -9.100  -0.453  1.00  0.00     0.049 A 
ATOM     29  C   UNL     1       7.288  -8.315   4.965  1.00  0.00     0.074 A 
ATOM     30  C   UNL     1       9.251 -10.168  -0.769  1.00  0.00     0.029 A 
ATOM     31  N   UNL     1       8.276  -9.107   0.925  1.00  0.00    -0.354 N 
ATOM     32  N   UNL     1       7.654  -8.620   3.745  1.00  0.00    -0.248 NA
ATOM     33  C   UNL     1       7.810  -9.222   5.996  1.00  0.00     0.031 C 
ATOM     34  C   UNL     1       9.580 -10.835   0.418  1.00  0.00     0.029 A 
ATOM     35  C   UNL     1       8.981 -10.167   1.473  1.00  0.00     0.049 A 
ATOM     36  H   UNL     1       7.745  -8.456   1.439  1.00  0.00     0.167 HD
ATOM     37  C   UNL     1       8.446  -9.752   3.858  1.00  0.00     0.074 A 
ATOM     38  C   UNL     1       8.529 -10.067   5.270  1.00  0.00     0.031 C 
ATOM     39  C   UNL     1       9.044 -10.471   2.878  1.00  0.00     0.037 A 
BRANCH  26  40
ATOM     40  C   UNL     1       8.054  -8.300  -2.808  1.00  0.00     0.064 A 
ATOM     41  C   UNL     1       8.986  -7.505  -3.491  1.00  0.00     0.173 A 
ATOM     42  C   UNL     1       7.381  -9.298  -3.530  1.00  0.00     0.173 A 
ATOM     43  F   UNL     1       9.647  -6.534  -2.843  1.00  0.00    -0.203 F 
ATOM     44  C   UNL     1       9.229  -7.698  -4.848  1.00  0.00     0.198 A 
ATOM     45  C   UNL     1       7.638  -9.497  -4.883  1.00  0.00     0.198 A 
ATOM     46  F   UNL     1       6.484 -10.085  -2.918  1.00  0.00    -0.203 F 
ATOM     47  F   UNL     1      10.112  -6.917  -5.487  1.00  0.00    -0.200 F 
ATOM     48  C   UNL     1       8.560  -8.697  -5.541  1.00  0.00     0.200 A 
ATOM     49  F   UNL     1       6.998 -10.467  -5.550  1.00  0.00    -0.200 F 
ATOM     50  F   UNL     1       8.804  -8.887  -6.846  1.00  0.00    -0.200 F 
ENDBRANCH  26  40
BRANCH  27  51
ATOM     51  C   UNL     1       6.152  -6.979   6.878  1.00  0.00     0.064 A 
ATOM     52  C   UNL     1       7.140  -6.461   7.725  1.00  0.00     0.173 A 
ATOM     53  C   UNL     1       4.897  -7.268   7.430  1.00  0.00     0.173 A 
ATOM     54  F   UNL     1       8.361  -6.188   7.241  1.00  0.00    -0.203 F 
ATOM     55  C   UNL     1       6.883  -6.242   9.076  1.00  0.00     0.198 A 
ATOM     56  C   UNL     1       4.635  -7.032   8.777  1.00  0.00     0.198 A 
ATOM     57  F   UNL     1       3.921  -7.763   6.655  1.00  0.00    -0.203 F 
ATOM     58  F   UNL     1       7.851  -5.767   9.871  1.00  0.00    -0.200 F 
ATOM     59  C   UNL     1       5.629  -6.522   9.599  1.00  0.00     0.200 A 
ATOM     60  F   UNL     1       3.420  -7.294   9.277  1.00  0.00    -0.200 F 
ATOM     61  F   UNL     1       5.380  -6.303  10.897  1.00  0.00    -0.200 F 
ENDBRANCH  27  51
BRANCH  39  62
ATOM     62  C   UNL     1       9.832 -11.670   3.304  1.00  0.00     0.064 A 
ATOM     63  C   UNL     1       9.194 -12.868   3.655  1.00  0.00     0.173 A 
ATOM     64  C   UNL     1      11.233 -11.628   3.343  1.00  0.00     0.173 A 
ATOM     65  F   UNL     1       7.855 -12.946   3.649  1.00  0.00    -0.203 F 
ATOM     66  C   UNL     1       9.933 -13.980   4.048  1.00  0.00     0.198 A 
ATOM     67  C   UNL     1      11.969 -12.748   3.720  1.00  0.00     0.198 A 
ATOM     68  F   UNL     1      11.885 -10.503   3.016  1.00  0.00    -0.203 F 
ATOM     69  F   UNL     1       9.303 -15.106   4.413  1.00  0.00    -0.200 F 
ATOM     70  C   UNL     1      11.318 -13.921   4.077  1.00  0.00     0.200 A 
ATOM     71  F   UNL     1      13.307 -12.691   3.747  1.00  0.00    -0.200 F 
ATOM     72  F   UNL     1      12.028 -14.992   4.458  1.00  0.00    -0.200 F 
ENDBRANCH  39  62
ENDBRANCH  13  14
ENDBRANCH   6   8
ENDBRANCH   3   4
ENDBRANCH   2   3
ENDBRANCH   1   2
BRANCH   1  73
ATOM     73  C   UNL     1       4.605   4.404  -0.763  1.00  0.00     0.002 C 
BRANCH  73  74
ATOM     74  C   UNL     1       6.098   4.487  -0.419  1.00  0.00     0.021 C 
BRANCH  74  75
ATOM     75  C   UNL     1       7.058   4.746  -1.577  1.00  0.00     0.116 C 
BRANCH  75  76
ATOM     76  N   UNL     1       6.734   5.934  -2.346  1.00  0.00    -0.352 N 
ATOM     77  C   UNL     1       7.565   6.857  -2.932  1.00  0.00     0.253 C 
ATOM     78  H   UNL     1       5.772   6.103  -2.467  1.00  0.00     0.163 HD
ATOM     79  O   UNL     1       7.084   7.851  -3.467  1.00  0.00    -0.269 OA
BRANCH  77  80
ATOM     80  C   UNL     1       9.037   6.681  -2.915  1.00  0.00     0.063 A 
ATOM     81  C   UNL     1       9.762   7.744  -2.354  1.00  0.00     0.016 A 
ATOM     82  C   UNL     1       9.696   5.561  -3.474  1.00  0.00     0.054 A 
ATOM     83  C   UNL     1      11.150   7.689  -2.300  1.00  0.00     0.001 A 
ATOM     84  C   UNL     1      11.092   5.522  -3.392  1.00  0.00     0.027 A 
ATOM     85  C   UNL     1      11.810   6.577  -2.812  1.00  0.00     0.002 A 
BRANCH  82  86
ATOM     86  N   UNL     1       8.912   4.538  -4.051  1.00  0.00    -0.321 N 
ATOM     87  C   UNL     1       9.164   3.316  -4.594  1.00  0.00     0.263 C 
ATOM     88  H   UNL     1       7.954   4.763  -4.063  1.00  0.00     0.170 HD
ATOM     89  O   UNL     1       8.210   2.551  -4.749  1.00  0.00    -0.269 OA
BRANCH  87  90
ATOM     90  C   UNL     1      10.538   2.940  -5.024  1.00  0.00     0.126 A 
ATOM     91  C   UNL     1      10.944   1.664  -4.828  1.00  0.00     0.033 A 
ATOM     92  C   UNL     1      10.828   3.352  -6.425  1.00  0.00     0.349 A 
ATOM     93  C   UNL     1      10.268   0.709  -5.733  1.00  0.00     0.021 A 
ATOM     94  O   UNL     1      10.336   2.475  -7.396  1.00  0.00    -0.421 OA
ATOM     95  O   UNL     1      11.423   4.387  -6.691  1.00  0.00    -0.245 OA
ATOM     96  C   UNL     1       9.934  -0.587  -5.349  1.00  0.00     0.032 A 
ATOM     97  C   UNL     1       9.927   1.172  -7.012  1.00  0.00     0.157 A 
ATOM     98  C   UNL     1       9.227  -1.396  -6.242  1.00  0.00     0.043 A 
ATOM     99  C   UNL     1       9.215   0.367  -7.897  1.00  0.00     0.085 A 
ATOM    100  Cl  UNL     1       8.790  -2.994  -5.772  1.00  0.00    -0.084 Cl
ATOM    101  C   UNL     1       8.858  -0.924  -7.507  1.00  0.00     0.045 A 
ATOM    102  Cl  UNL     1       8.748   0.936  -9.453  1.00  0.00    -0.080 Cl
ENDBRANCH  87  90
ENDBRANCH  82  86
ENDBRANCH  77  80
ENDBRANCH  75  76
ENDBRANCH  74  75
ENDBRANCH  73  74
ENDBRANCH   1  73
TORSDOF 15
