REMARK SMILES CC1(C)C(NC(=O)[C@@H]2CCC[C@@H](C(=O)NCCCCCCNC(=O)c3ccc(-c4c5nc(c(-c6c(F)c(F)c(F)c(F)c6F)c6ccc([nH]6)c(-c6c(F)c(F)c(F)c(F)c6F)c6nc(c(-c7c(F)c(F)c(F)c(F)c7F)c7ccc4[nH]7)C=C6)C=C5)cc3)C2)C1(C)C
REMARK SMILES IDX 18 1 17 2 16 3 15 4 13 5 14 6 12 8 8 9 9 10 88 11 10 12
REMARK SMILES IDX 11 13 6 14 5 15 7 17 4 18 1 19 2 20 3 21 89 22 90 23 91 24
REMARK SMILES IDX 19 25 20 26 21 27 22 28 23 29 24 31 25 32 26 33 87 34 27 35
REMARK SMILES IDX 86 36 28 37 29 38 30 39 80 40 31 41 85 42 79 43 81 44 32 45
REMARK SMILES IDX 84 46 78 47 77 48 33 50 65 51 45 52 64 53 46 54 49 55 63 56
REMARK SMILES IDX 82 57 47 58 48 59 62 61 83 62 50 63 34 64 35 65 43 66 36 67
REMARK SMILES IDX 37 68 41 69 44 70 38 71 39 72 42 73 40 74 66 75 67 76 75 77
REMARK SMILES IDX 68 78 69 79 73 80 76 81 70 82 71 83 74 84 72 85 51 86 52 87
REMARK SMILES IDX 60 88 53 89 54 90 58 91 61 92 55 93 56 94 59 95 57 96
REMARK H PARENT 15 7 5 16 22 30 81 49 49 60
REMARK Flexibility Score: inf
ROOT
ATOM      1  C   UNL     1       5.656   9.434   2.319  1.00  0.00     0.002 C 
ENDROOT
BRANCH   1   2
ATOM      2  C   UNL     1       4.250   9.104   2.836  1.00  0.00     0.021 C 
BRANCH   2   3
ATOM      3  C   UNL     1       3.237   8.791   1.736  1.00  0.00     0.116 C 
BRANCH   3   4
ATOM      4  N   UNL     1       3.637   7.613   0.995  1.00  0.00    -0.356 N 
ATOM      5  C   UNL     1       3.062   6.387   0.902  1.00  0.00     0.223 C 
ATOM      6  O   UNL     1       3.703   5.501   0.335  1.00  0.00    -0.275 OA
ATOM      7  H   UNL     1       4.463   7.719   0.471  1.00  0.00     0.163 HD
BRANCH   5   8
ATOM      8  C   UNL     1       1.662   6.151   1.460  1.00  0.00     0.079 C 
ATOM      9  C   UNL     1       0.841   4.327  -0.135  1.00  0.00     0.079 C 
ATOM     10  C   UNL     1       0.649   3.415   1.081  1.00  0.00     0.013 C 
ATOM     11  C   UNL     1       0.704   5.787   0.313  1.00  0.00     0.027 C 
ATOM     12  C   UNL     1       1.738   3.675   2.114  1.00  0.00     0.002 C 
ATOM     13  C   UNL     1       1.698   5.121   2.595  1.00  0.00     0.013 C 
BRANCH   9  14
ATOM     14  C   UNL     1      -0.115   3.979  -1.276  1.00  0.00     0.223 C 
ATOM     15  N   UNL     1       0.086   2.793  -1.945  1.00  0.00    -0.352 N 
ATOM     16  H   UNL     1      -0.510   2.613  -2.707  1.00  0.00     0.163 HD
ATOM     17  O   UNL     1      -1.029   4.725  -1.629  1.00  0.00    -0.275 OA
BRANCH  15  18
ATOM     18  C   UNL     1       1.066   1.794  -1.653  1.00  0.00     0.094 C 
ATOM     19  C   UNL     1       1.302  -0.246  -0.091  1.00  0.00     0.014 C 
ATOM     20  C   UNL     1       0.648   0.374  -1.308  1.00  0.00    -0.007 C 
ATOM     21  C   UNL     1      -0.807  -0.032  -1.418  1.00  0.00     0.014 C 
ATOM     22  C   UNL     1       1.464   0.672  -2.585  1.00  0.00    -0.007 C 
ATOM     23  C   UNL     1       2.946   0.354  -2.630  1.00  0.00     0.014 C 
ATOM     24  C   UNL     1       0.835   0.592  -3.957  1.00  0.00     0.014 C 
ENDBRANCH  15  18
ENDBRANCH   9  14
ENDBRANCH   5   8
ENDBRANCH   3   4
ENDBRANCH   2   3
ENDBRANCH   1   2
BRANCH   1  25
ATOM     25  C   UNL     1       5.715  10.558   1.279  1.00  0.00     0.002 C 
BRANCH  25  26
ATOM     26  C   UNL     1       5.059  11.869   1.712  1.00  0.00     0.021 C 
BRANCH  26  27
ATOM     27  C   UNL     1       5.630  12.463   2.993  1.00  0.00     0.116 C 
BRANCH  27  28
ATOM     28  N   UNL     1       7.024  12.846   2.844  1.00  0.00    -0.352 N 
ATOM     29  C   UNL     1       7.621  14.053   3.104  1.00  0.00     0.251 C 
ATOM     30  H   UNL     1       7.624  12.141   2.510  1.00  0.00     0.163 HD
ATOM     31  O   UNL     1       8.774  14.269   2.739  1.00  0.00    -0.269 OA
BRANCH  29  32
ATOM     32  C   UNL     1       6.862  15.106   3.810  1.00  0.00     0.039 A 
ATOM     33  C   UNL     1       6.918  16.417   3.331  1.00  0.00     0.014 A 
ATOM     34  C   UNL     1       6.094  14.799   4.936  1.00  0.00     0.014 A 
ATOM     35  C   UNL     1       6.158  17.410   3.951  1.00  0.00     0.010 A 
ATOM     36  C   UNL     1       5.275  15.770   5.500  1.00  0.00     0.010 A 
ATOM     37  C   UNL     1       5.305  17.088   5.019  1.00  0.00    -0.014 A 
BRANCH  37  38
ATOM     38  C   UNL     1       4.444  18.117   5.655  1.00  0.00     0.031 A 
ATOM     39  C   UNL     1       4.644  18.479   7.099  1.00  0.00     0.074 A 
ATOM     40  C   UNL     1       3.442  18.677   4.950  1.00  0.00     0.049 A 
ATOM     41  N   UNL     1       3.958  19.303   7.851  1.00  0.00    -0.248 NA
ATOM     42  C   UNL     1       5.744  17.802   7.802  1.00  0.00     0.031 C 
ATOM     43  C   UNL     1       3.121  18.377   3.555  1.00  0.00     0.029 A 
ATOM     44  N   UNL     1       2.504  19.609   5.316  1.00  0.00    -0.354 N 
ATOM     45  C   UNL     1       4.533  19.231   9.113  1.00  0.00     0.074 A 
ATOM     46  C   UNL     1       5.582  18.237   9.042  1.00  0.00     0.031 C 
ATOM     47  C   UNL     1       2.080  19.133   3.172  1.00  0.00     0.029 A 
ATOM     48  C   UNL     1       1.632  19.936   4.306  1.00  0.00     0.049 A 
ATOM     49  H   UNL     1       2.460  20.006   6.216  1.00  0.00     0.167 HD
ATOM     50  C   UNL     1       4.230  19.946  10.223  1.00  0.00     0.037 A 
ATOM     51  C   UNL     1       0.586  20.783   4.299  1.00  0.00     0.037 A 
ATOM     52  C   UNL     1       3.193  20.943  10.282  1.00  0.00     0.049 A 
ATOM     53  C   UNL     1       0.250  21.547   5.552  1.00  0.00     0.074 A 
ATOM     54  C   UNL     1       2.846  21.765  11.339  1.00  0.00     0.029 A 
ATOM     55  N   UNL     1       2.329  21.246   9.239  1.00  0.00    -0.354 N 
ATOM     56  N   UNL     1       0.846  21.525   6.720  1.00  0.00    -0.248 NA
ATOM     57  C   UNL     1      -0.901  22.456   5.483  1.00  0.00     0.031 C 
ATOM     58  C   UNL     1       1.731  22.520  10.958  1.00  0.00     0.029 A 
ATOM     59  C   UNL     1       1.426  22.219   9.640  1.00  0.00     0.049 A 
ATOM     60  H   UNL     1       2.353  20.831   8.347  1.00  0.00     0.167 HD
ATOM     61  C   UNL     1       0.164  22.438   7.514  1.00  0.00     0.074 A 
ATOM     62  C   UNL     1      -0.883  23.005   6.689  1.00  0.00     0.031 C 
ATOM     63  C   UNL     1       0.389  22.778   8.807  1.00  0.00     0.037 A 
BRANCH  50  64
ATOM     64  C   UNL     1       5.024  19.659  11.467  1.00  0.00     0.064 A 
ATOM     65  C   UNL     1       6.393  19.960  11.559  1.00  0.00     0.173 A 
ATOM     66  C   UNL     1       4.407  19.083  12.588  1.00  0.00     0.173 A 
ATOM     67  F   UNL     1       7.037  20.504  10.514  1.00  0.00    -0.203 F 
ATOM     68  C   UNL     1       7.121  19.652  12.705  1.00  0.00     0.198 A 
ATOM     69  C   UNL     1       5.130  18.811  13.746  1.00  0.00     0.198 A 
ATOM     70  F   UNL     1       3.100  18.781  12.561  1.00  0.00    -0.203 F 
ATOM     71  F   UNL     1       8.441  19.884  12.741  1.00  0.00    -0.200 F 
ATOM     72  C   UNL     1       6.489  19.084  13.800  1.00  0.00     0.200 A 
ATOM     73  F   UNL     1       4.514  18.277  14.809  1.00  0.00    -0.200 F 
ATOM     74  F   UNL     1       7.191  18.788  14.902  1.00  0.00    -0.200 F 
ENDBRANCH  50  64
BRANCH  51  75
ATOM     75  C   UNL     1      -0.199  20.977   3.052  1.00  0.00     0.064 A 
ATOM     76  C   UNL     1      -0.140  22.189   2.348  1.00  0.00     0.173 A 
ATOM     77  C   UNL     1      -1.010  19.959   2.530  1.00  0.00     0.173 A 
ATOM     78  F   UNL     1       0.607  23.199   2.818  1.00  0.00    -0.203 F 
ATOM     79  C   UNL     1      -0.873  22.380   1.179  1.00  0.00     0.198 A 
ATOM     80  C   UNL     1      -1.720  20.141   1.345  1.00  0.00     0.198 A 
ATOM     81  F   UNL     1      -1.097  18.779   3.161  1.00  0.00    -0.203 F 
ATOM     82  F   UNL     1      -0.830  23.561   0.550  1.00  0.00    -0.200 F 
ATOM     83  C   UNL     1      -1.657  21.353   0.674  1.00  0.00     0.200 A 
ATOM     84  F   UNL     1      -2.463  19.141   0.852  1.00  0.00    -0.200 F 
ATOM     85  F   UNL     1      -2.355  21.534  -0.455  1.00  0.00    -0.200 F 
ENDBRANCH  51  75
BRANCH  63  86
ATOM     86  C   UNL     1      -0.489  23.841   9.405  1.00  0.00     0.064 A 
ATOM     87  C   UNL     1      -1.844  23.613   9.686  1.00  0.00     0.173 A 
ATOM     88  C   UNL     1       0.046  25.096   9.738  1.00  0.00     0.173 A 
ATOM     89  F   UNL     1      -2.409  22.436   9.374  1.00  0.00    -0.203 F 
ATOM     90  C   UNL     1      -2.637  24.608  10.252  1.00  0.00     0.198 A 
ATOM     91  C   UNL     1      -0.740  26.077  10.336  1.00  0.00     0.198 A 
ATOM     92  F   UNL     1       1.338  25.366   9.497  1.00  0.00    -0.203 F 
ATOM     93  F   UNL     1      -3.941  24.385  10.462  1.00  0.00    -0.200 F 
ATOM     94  C   UNL     1      -2.082  25.836  10.584  1.00  0.00     0.200 A 
ATOM     95  F   UNL     1      -0.198  27.255  10.672  1.00  0.00    -0.200 F 
ATOM     96  F   UNL     1      -2.844  26.789  11.138  1.00  0.00    -0.200 F 
ENDBRANCH  63  86
ENDBRANCH  37  38
ENDBRANCH  29  32
ENDBRANCH  27  28
ENDBRANCH  26  27
ENDBRANCH  25  26
ENDBRANCH   1  25
TORSDOF 15
