REMARK SMILES O=C(CNC(=O)[C@H]1CC[C@@H](Cn2cnc3ccccc3c2=O)CC1)NCCCCCCNC(=O)c1ccc(-c2c3nc(c(-c4c(F)c(F)c(F)c(F)c4F)c4ccc([nH]4)c(-c4c(F)c(F)c(F)c(F)c4F)c4nc(c(-c5c(F)c(F)c(F)c(F)c5F)c5ccc2[nH]5)C=C4)C=C3)cc1
REMARK SMILES IDX 27 1 26 2 25 3 1 4 2 5 3 7 4 8 5 9 6 11 7 12 24 13 8 14
REMARK SMILES IDX 23 15 9 16 10 17 11 18 12 19 13 20 21 21 14 22 20 23 22 24
REMARK SMILES IDX 15 25 19 26 16 27 18 28 17 29 28 30 29 31 30 32 31 33 32 34
REMARK SMILES IDX 33 35 34 37 35 38 36 39 97 40 37 41 96 42 38 43 39 44 40 45
REMARK SMILES IDX 90 46 41 47 95 48 89 49 91 50 42 51 94 52 88 53 87 54 43 56
REMARK SMILES IDX 75 57 55 58 74 59 56 60 59 61 73 62 92 63 57 64 58 65 72 67
REMARK SMILES IDX 93 68 60 69 44 70 45 71 53 72 46 73 47 74 51 75 54 76 48 77
REMARK SMILES IDX 49 78 52 79 50 80 76 81 77 82 85 83 78 84 79 85 83 86 86 87
REMARK SMILES IDX 80 88 81 89 84 90 82 91 61 92 62 93 70 94 63 95 64 96 68 97
REMARK SMILES IDX 71 98 65 99 66 100 69 101 67 102
REMARK H PARENT 25 6 4 10 32 36 91 55 59 66
REMARK Flexibility Score: inf
ROOT
ATOM      1  C   UNL     1       2.725   3.019   0.974  1.00  0.00     0.021 C 
ENDROOT
BRANCH   1   2
ATOM      2  C   UNL     1       2.201   2.349  -0.298  1.00  0.00     0.116 C 
BRANCH   2   3
ATOM      3  N   UNL     1       2.755   1.028  -0.495  1.00  0.00    -0.355 N 
ATOM      4  O   UNL     1       1.000  -0.090   0.462  1.00  0.00    -0.273 OA
ATOM      5  C   UNL     1       2.091  -0.114  -0.102  1.00  0.00     0.239 C 
ATOM      6  H   UNL     1       3.637   0.941  -0.924  1.00  0.00     0.163 HD
BRANCH   5   7
ATOM      7  C   UNL     1       2.877  -1.416  -0.291  1.00  0.00     0.216 C 
BRANCH   7   8
ATOM      8  N   UNL     1       4.006  -1.315  -1.214  1.00  0.00    -0.347 N 
ATOM      9  C   UNL     1       5.348  -1.370  -1.014  1.00  0.00     0.223 C 
ATOM     10  H   UNL     1       3.745  -1.182  -2.154  1.00  0.00     0.164 HD
ATOM     11  O   UNL     1       6.065  -1.250  -2.011  1.00  0.00    -0.275 OA
BRANCH   9  12
ATOM     12  C   UNL     1       5.983  -1.528   0.368  1.00  0.00     0.078 C 
ATOM     13  C   UNL     1       5.712  -0.311   1.255  1.00  0.00     0.014 C 
ATOM     14  C   UNL     1       5.684  -2.878   1.024  1.00  0.00     0.014 C 
ATOM     15  C   UNL     1       6.254  -0.470   2.673  1.00  0.00     0.006 C 
ATOM     16  C   UNL     1       6.194  -2.964   2.461  1.00  0.00     0.006 C 
ATOM     17  C   UNL     1       5.789  -1.772   3.344  1.00  0.00     0.009 C 
BRANCH  17  18
ATOM     18  C   UNL     1       4.285  -1.702   3.702  1.00  0.00     0.130 C 
BRANCH  18  19
ATOM     19  N   UNL     1       3.758  -2.942   4.259  1.00  0.00    -0.298 N 
ATOM     20  C   UNL     1       4.064  -3.293   5.552  1.00  0.00     0.203 A 
ATOM     21  C   UNL     1       2.923  -3.735   3.482  1.00  0.00     0.261 A 
ATOM     22  N   UNL     1       3.672  -4.372   6.141  1.00  0.00    -0.238 NA
ATOM     23  C   UNL     1       2.477  -4.997   4.093  1.00  0.00     0.066 A 
ATOM     24  O   UNL     1       2.554  -3.450   2.346  1.00  0.00    -0.269 OA
ATOM     25  C   UNL     1       2.878  -5.262   5.403  1.00  0.00     0.077 A 
ATOM     26  C   UNL     1       1.690  -5.905   3.375  1.00  0.00     0.016 A 
ATOM     27  C   UNL     1       2.475  -6.460   5.994  1.00  0.00     0.029 A 
ATOM     28  C   UNL     1       1.299  -7.099   3.975  1.00  0.00     0.001 A 
ATOM     29  C   UNL     1       1.691  -7.377   5.285  1.00  0.00     0.002 A 
ENDBRANCH  18  19
ENDBRANCH  17  18
ENDBRANCH   9  12
ENDBRANCH   7   8
ENDBRANCH   5   7
ENDBRANCH   2   3
ENDBRANCH   1   2
BRANCH   1  30
ATOM     30  C   UNL     1       4.234   3.289   0.993  1.00  0.00     0.002 C 
BRANCH  30  31
ATOM     31  C   UNL     1       4.796   4.075  -0.196  1.00  0.00     0.002 C 
BRANCH  31  32
ATOM     32  C   UNL     1       4.130   5.424  -0.462  1.00  0.00     0.021 C 
BRANCH  32  33
ATOM     33  C   UNL     1       4.195   6.416   0.693  1.00  0.00     0.116 C 
BRANCH  33  34
ATOM     34  N   UNL     1       5.545   6.889   0.965  1.00  0.00    -0.352 N 
ATOM     35  C   UNL     1       6.006   8.178   1.100  1.00  0.00     0.251 C 
ATOM     36  H   UNL     1       6.225   6.185   1.067  1.00  0.00     0.163 HD
ATOM     37  O   UNL     1       7.209   8.399   1.208  1.00  0.00    -0.269 OA
BRANCH  35  38
ATOM     38  C   UNL     1       5.051   9.308   1.071  1.00  0.00     0.039 A 
ATOM     39  C   UNL     1       3.864   9.259   1.804  1.00  0.00     0.014 A 
ATOM     40  C   UNL     1       5.335  10.419   0.271  1.00  0.00     0.014 A 
ATOM     41  C   UNL     1       2.886  10.228   1.597  1.00  0.00     0.010 A 
ATOM     42  C   UNL     1       4.384  11.434   0.128  1.00  0.00     0.010 A 
ATOM     43  C   UNL     1       3.129  11.319   0.746  1.00  0.00    -0.014 A 
BRANCH  43  44
ATOM     44  C   UNL     1       2.046  12.308   0.501  1.00  0.00     0.031 A 
ATOM     45  C   UNL     1       1.425  12.446  -0.864  1.00  0.00     0.074 A 
ATOM     46  C   UNL     1       1.573  13.036   1.530  1.00  0.00     0.049 A 
ATOM     47  N   UNL     1       0.447  13.227  -1.251  1.00  0.00    -0.248 NA
ATOM     48  C   UNL     1       1.971  11.598  -1.935  1.00  0.00     0.031 C 
ATOM     49  C   UNL     1       2.081  12.983   2.901  1.00  0.00     0.029 A 
ATOM     50  N   UNL     1       0.541  13.940   1.591  1.00  0.00    -0.354 N 
ATOM     51  C   UNL     1       0.272  12.977  -2.606  1.00  0.00     0.074 A 
ATOM     52  C   UNL     1       1.263  11.994  -2.985  1.00  0.00     0.031 C 
ATOM     53  C   UNL     1       1.325  13.771   3.679  1.00  0.00     0.029 A 
ATOM     54  C   UNL     1       0.317  14.429   2.854  1.00  0.00     0.049 A 
ATOM     55  H   UNL     1       0.013  14.210   0.805  1.00  0.00     0.167 HD
ATOM     56  C   UNL     1      -0.643  13.508  -3.453  1.00  0.00     0.037 A 
ATOM     57  C   UNL     1      -0.594  15.315   3.299  1.00  0.00     0.037 A 
ATOM     58  C   UNL     1      -1.646  14.467  -3.071  1.00  0.00     0.049 A 
ATOM     59  C   UNL     1      -1.569  15.920   2.330  1.00  0.00     0.074 A 
ATOM     60  C   UNL     1      -2.628  15.046  -3.857  1.00  0.00     0.029 A 
ATOM     61  N   UNL     1      -1.798  14.987  -1.795  1.00  0.00    -0.354 N 
ATOM     62  N   UNL     1      -1.724  15.673   1.053  1.00  0.00    -0.248 NA
ATOM     63  C   UNL     1      -2.489  16.935   2.862  1.00  0.00     0.031 C 
ATOM     64  C   UNL     1      -3.350  15.945  -3.065  1.00  0.00     0.029 A 
ATOM     65  C   UNL     1      -2.845  15.895  -1.776  1.00  0.00     0.049 A 
ATOM     66  H   UNL     1      -1.244  14.747  -1.017  1.00  0.00     0.167 HD
ATOM     67  C   UNL     1      -2.760  16.492   0.629  1.00  0.00     0.074 A 
ATOM     68  C   UNL     1      -3.212  17.230   1.790  1.00  0.00     0.031 C 
ATOM     69  C   UNL     1      -3.283  16.625  -0.614  1.00  0.00     0.037 A 
BRANCH  56  70
ATOM     70  C   UNL     1      -0.607  13.067  -4.887  1.00  0.00     0.064 A 
ATOM     71  C   UNL     1      -1.051  11.794  -5.275  1.00  0.00     0.173 A 
ATOM     72  C   UNL     1      -0.189  13.952  -5.893  1.00  0.00     0.173 A 
ATOM     73  F   UNL     1      -1.450  10.908  -4.350  1.00  0.00    -0.203 F 
ATOM     74  C   UNL     1      -1.064  11.418  -6.616  1.00  0.00     0.198 A 
ATOM     75  C   UNL     1      -0.227  13.581  -7.235  1.00  0.00     0.198 A 
ATOM     76  F   UNL     1       0.238  15.183  -5.576  1.00  0.00    -0.203 F 
ATOM     77  F   UNL     1      -1.463  10.186  -6.960  1.00  0.00    -0.200 F 
ATOM     78  C   UNL     1      -0.661  12.314  -7.595  1.00  0.00     0.200 A 
ATOM     79  F   UNL     1       0.151  14.453  -8.181  1.00  0.00    -0.200 F 
ATOM     80  F   UNL     1      -0.688  11.955  -8.886  1.00  0.00    -0.200 F 
ENDBRANCH  56  70
BRANCH  57  81
ATOM     81  C   UNL     1      -0.625  15.668   4.741  1.00  0.00     0.064 A 
ATOM     82  C   UNL     1      -1.674  15.237   5.563  1.00  0.00     0.173 A 
ATOM     83  C   UNL     1       0.409  16.408   5.332  1.00  0.00     0.173 A 
ATOM     84  F   UNL     1      -2.695  14.544   5.038  1.00  0.00    -0.203 F 
ATOM     85  C   UNL     1      -1.688  15.534   6.924  1.00  0.00     0.198 A 
ATOM     86  C   UNL     1       0.408  16.682   6.698  1.00  0.00     0.198 A 
ATOM     87  F   UNL     1       1.436  16.841   4.586  1.00  0.00    -0.203 F 
ATOM     88  F   UNL     1      -2.715  15.131   7.685  1.00  0.00    -0.200 F 
ATOM     89  C   UNL     1      -0.642  16.247   7.492  1.00  0.00     0.200 A 
ATOM     90  F   UNL     1       1.428  17.357   7.245  1.00  0.00    -0.200 F 
ATOM     91  F   UNL     1      -0.647  16.517   8.805  1.00  0.00    -0.200 F 
ENDBRANCH  57  81
BRANCH  69  92
ATOM     92  C   UNL     1      -4.410  17.598  -0.788  1.00  0.00     0.064 A 
ATOM     93  C   UNL     1      -4.183  18.982  -0.793  1.00  0.00     0.173 A 
ATOM     94  C   UNL     1      -5.717  17.143  -1.017  1.00  0.00     0.173 A 
ATOM     95  F   UNL     1      -2.953  19.465  -0.566  1.00  0.00    -0.203 F 
ATOM     96  C   UNL     1      -5.228  19.876  -1.008  1.00  0.00     0.198 A 
ATOM     97  C   UNL     1      -6.755  18.039  -1.256  1.00  0.00     0.198 A 
ATOM     98  F   UNL     1      -5.983  15.828  -1.028  1.00  0.00    -0.203 F 
ATOM     99  F   UNL     1      -4.996  21.195  -0.978  1.00  0.00    -0.200 F 
ATOM    100  C   UNL     1      -6.511  19.404  -1.248  1.00  0.00     0.200 A 
ATOM    101  F   UNL     1      -7.991  17.581  -1.499  1.00  0.00    -0.200 F 
ATOM    102  F   UNL     1      -7.513  20.266  -1.467  1.00  0.00    -0.200 F 
ENDBRANCH  69  92
ENDBRANCH  43  44
ENDBRANCH  35  38
ENDBRANCH  33  34
ENDBRANCH  32  33
ENDBRANCH  31  32
ENDBRANCH  30  31
ENDBRANCH   1  30
TORSDOF 17
