REMARK SMILES CCc1ccc(S(=O)(=O)Cc2noc(C(=O)NCCCCCCNC(=O)c3ccc(-c4c5nc(c(-c6c(F)c(F)c(F)c(F)c6F)c6ccc([nH]6)c(-c6c(F)c(F)c(F)c(F)c6F)c6nc(c(-c7c(F)c(F)c(F)c(F)c7F)c7ccc4[nH]7)C=C6)C=C5)cc3)n2)cc1
REMARK SMILES IDX 19 1 18 2 17 3 15 4 16 5 14 7 11 8 12 9 90 10 13 11 10 12
REMARK SMILES IDX 7 13 8 14 9 15 6 16 3 17 4 18 92 19 5 20 91 21 2 22 1 23
REMARK SMILES IDX 20 24 21 25 22 26 23 27 24 28 25 29 26 31 27 32 28 33 89 34
REMARK SMILES IDX 29 35 88 36 30 37 31 38 32 39 82 40 33 41 87 42 81 43 83 44
REMARK SMILES IDX 34 45 86 46 80 47 79 48 35 50 67 51 47 52 66 53 48 54 51 55
REMARK SMILES IDX 65 56 84 57 49 58 50 59 64 61 85 62 52 63 36 64 37 65 45 66
REMARK SMILES IDX 38 67 39 68 43 69 46 70 40 71 41 72 44 73 42 74 68 75 69 76
REMARK SMILES IDX 77 77 70 78 71 79 75 80 78 81 72 82 73 83 76 84 74 85 53 86
REMARK SMILES IDX 54 87 62 88 55 89 56 90 60 91 63 92 57 93 58 94 61 95 59 96
REMARK H PARENT 17 6 24 30 83 49 51 60
REMARK Flexibility Score: inf
ROOT
ATOM      1  C   UNL     1       3.511   4.163   7.467  1.00  0.00     0.021 C 
ENDROOT
BRANCH   1   2
ATOM      2  C   UNL     1       3.230   3.321   6.224  1.00  0.00     0.116 C 
BRANCH   2   3
ATOM      3  N   UNL     1       4.423   3.158   5.411  1.00  0.00    -0.348 N 
ATOM      4  C   UNL     1       5.171   2.031   5.123  1.00  0.00     0.309 C 
ATOM      5  O   UNL     1       6.192   2.219   4.452  1.00  0.00    -0.264 OA
ATOM      6  H   UNL     1       4.755   3.987   4.997  1.00  0.00     0.163 HD
BRANCH   4   7
ATOM      7  C   UNL     1       4.752   0.720   5.581  1.00  0.00     0.315 A 
ATOM      8  C   UNL     1       3.760  -0.970   6.350  1.00  0.00     0.187 A 
ATOM      9  N   UNL     1       4.896  -1.479   5.867  1.00  0.00    -0.061 NA
ATOM     10  N   UNL     1       3.642   0.389   6.210  1.00  0.00    -0.186 NA
ATOM     11  O   UNL     1       5.553  -0.361   5.334  1.00  0.00    -0.329 OA
BRANCH   8  12
ATOM     12  C   UNL     1       2.717  -1.733   7.051  1.00  0.00     0.223 C 
BRANCH  12  13
ATOM     13  S   UNL     1       1.975  -3.038   6.128  1.00  0.00     0.185 S 
ATOM     14  O   UNL     1       0.705  -3.334   6.771  1.00  0.00    -0.223 OA
ATOM     15  O   UNL     1       2.961  -4.092   5.967  1.00  0.00    -0.223 OA
BRANCH  13  16
ATOM     16  C   UNL     1       1.548  -2.481   4.495  1.00  0.00     0.067 A 
ATOM     17  C   UNL     1       0.881  -1.749   1.861  1.00  0.00    -0.048 A 
ATOM     18  C   UNL     1       1.002  -3.099   2.221  1.00  0.00     0.005 A 
ATOM     19  C   UNL     1       1.066  -0.775   2.853  1.00  0.00     0.005 A 
ATOM     20  C   UNL     1       1.345  -3.465   3.523  1.00  0.00     0.020 A 
ATOM     21  C   UNL     1       1.387  -1.135   4.168  1.00  0.00     0.020 A 
BRANCH  17  22
ATOM     22  C   UNL     1       0.479  -1.414   0.441  1.00  0.00     0.032 C 
ATOM     23  C   UNL     1       0.958  -0.069  -0.090  1.00  0.00     0.009 C 
ENDBRANCH  17  22
ENDBRANCH  13  16
ENDBRANCH  12  13
ENDBRANCH   8  12
ENDBRANCH   4   7
ENDBRANCH   2   3
ENDBRANCH   1   2
BRANCH   1  24
ATOM     24  C   UNL     1       3.747   5.649   7.176  1.00  0.00     0.002 C 
BRANCH  24  25
ATOM     25  C   UNL     1       2.607   6.356   6.434  1.00  0.00     0.002 C 
BRANCH  25  26
ATOM     26  C   UNL     1       1.226   6.224   7.082  1.00  0.00     0.021 C 
BRANCH  26  27
ATOM     27  C   UNL     1       1.140   6.762   8.506  1.00  0.00     0.116 C 
BRANCH  27  28
ATOM     28  N   UNL     1       1.393   8.192   8.567  1.00  0.00    -0.352 N 
ATOM     29  C   UNL     1       0.628   9.191   9.116  1.00  0.00     0.251 C 
ATOM     30  H   UNL     1       2.236   8.488   8.154  1.00  0.00     0.163 HD
ATOM     31  O   UNL     1       0.903  10.367   8.899  1.00  0.00    -0.269 OA
BRANCH  29  32
ATOM     32  C   UNL     1      -0.541   8.851   9.955  1.00  0.00     0.039 A 
ATOM     33  C   UNL     1      -1.726   9.571   9.783  1.00  0.00     0.014 A 
ATOM     34  C   UNL     1      -0.467   7.842  10.918  1.00  0.00     0.014 A 
ATOM     35  C   UNL     1      -2.852   9.243  10.540  1.00  0.00     0.010 A 
ATOM     36  C   UNL     1      -1.610   7.463  11.616  1.00  0.00     0.010 A 
ATOM     37  C   UNL     1      -2.812   8.166  11.441  1.00  0.00    -0.014 A 
BRANCH  37  38
ATOM     38  C   UNL     1      -4.016   7.767  12.213  1.00  0.00     0.031 A 
ATOM     39  C   UNL     1      -4.019   7.860  13.714  1.00  0.00     0.074 A 
ATOM     40  C   UNL     1      -5.087   7.267  11.566  1.00  0.00     0.049 A 
ATOM     41  N   UNL     1      -4.953   7.513  14.564  1.00  0.00    -0.248 NA
ATOM     42  C   UNL     1      -2.800   8.386  14.345  1.00  0.00     0.031 C 
ATOM     43  C   UNL     1      -5.187   7.080  10.118  1.00  0.00     0.029 A 
ATOM     44  N   UNL     1      -6.291   6.814  12.044  1.00  0.00    -0.354 N 
ATOM     45  C   UNL     1      -4.428   7.765  15.825  1.00  0.00     0.074 A 
ATOM     46  C   UNL     1      -3.074   8.236  15.632  1.00  0.00     0.031 C 
ATOM     47  C   UNL     1      -6.395   6.577   9.823  1.00  0.00     0.029 A 
ATOM     48  C   UNL     1      -7.139   6.366  11.061  1.00  0.00     0.049 A 
ATOM     49  H   UNL     1      -6.525   6.811  13.000  1.00  0.00     0.167 HD
ATOM     50  C   UNL     1      -5.030   7.638  17.032  1.00  0.00     0.037 A 
ATOM     51  C   UNL     1      -8.375   5.838  11.149  1.00  0.00     0.037 A 
ATOM     52  C   UNL     1      -6.384   7.186  17.217  1.00  0.00     0.049 A 
ATOM     53  C   UNL     1      -9.019   5.699  12.502  1.00  0.00     0.074 A 
ATOM     54  C   UNL     1      -7.107   7.082  18.392  1.00  0.00     0.029 A 
ATOM     55  N   UNL     1      -7.218   6.752  16.195  1.00  0.00    -0.354 N 
ATOM     56  N   UNL     1      -8.542   6.012  13.682  1.00  0.00    -0.248 NA
ATOM     57  C   UNL     1     -10.377   5.140  12.533  1.00  0.00     0.031 C 
ATOM     58  C   UNL     1      -8.357   6.530  18.090  1.00  0.00     0.029 A 
ATOM     59  C   UNL     1      -8.438   6.351  16.718  1.00  0.00     0.049 A 
ATOM     60  H   UNL     1      -6.979   6.732  15.241  1.00  0.00     0.167 HD
ATOM     61  C   UNL     1      -9.549   5.718  14.592  1.00  0.00     0.074 A 
ATOM     62  C   UNL     1     -10.669   5.215  13.824  1.00  0.00     0.031 C 
ATOM     63  C   UNL     1      -9.546   5.855  15.941  1.00  0.00     0.037 A 
BRANCH  50  64
ATOM     64  C   UNL     1      -4.220   7.988  18.250  1.00  0.00     0.064 A 
ATOM     65  C   UNL     1      -3.821   9.307  18.520  1.00  0.00     0.173 A 
ATOM     66  C   UNL     1      -3.856   6.994  19.171  1.00  0.00     0.173 A 
ATOM     67  F   UNL     1      -4.134  10.295  17.668  1.00  0.00    -0.203 F 
ATOM     68  C   UNL     1      -3.055   9.610  19.643  1.00  0.00     0.198 A 
ATOM     69  C   UNL     1      -3.120   7.307  20.312  1.00  0.00     0.198 A 
ATOM     70  F   UNL     1      -4.215   5.718  18.968  1.00  0.00    -0.203 F 
ATOM     71  F   UNL     1      -2.632  10.866  19.844  1.00  0.00    -0.200 F 
ATOM     72  C   UNL     1      -2.710   8.611  20.541  1.00  0.00     0.200 A 
ATOM     73  F   UNL     1      -2.801   6.343  21.187  1.00  0.00    -0.200 F 
ATOM     74  F   UNL     1      -1.976   8.905  21.622  1.00  0.00    -0.200 F 
ENDBRANCH  50  64
BRANCH  51  75
ATOM     75  C   UNL     1      -9.092   5.427   9.913  1.00  0.00     0.064 A 
ATOM     76  C   UNL     1     -10.218   6.132   9.464  1.00  0.00     0.173 A 
ATOM     77  C   UNL     1      -8.665   4.329   9.152  1.00  0.00     0.173 A 
ATOM     78  F   UNL     1     -10.676   7.178  10.168  1.00  0.00    -0.203 F 
ATOM     79  C   UNL     1     -10.899   5.744   8.313  1.00  0.00     0.198 A 
ATOM     80  C   UNL     1      -9.328   3.961   7.984  1.00  0.00     0.198 A 
ATOM     81  F   UNL     1      -7.589   3.625   9.534  1.00  0.00    -0.203 F 
ATOM     82  F   UNL     1     -11.997   6.410   7.931  1.00  0.00    -0.200 F 
ATOM     83  C   UNL     1     -10.449   4.663   7.569  1.00  0.00     0.200 A 
ATOM     84  F   UNL     1      -8.879   2.927   7.259  1.00  0.00    -0.200 F 
ATOM     85  F   UNL     1     -11.099   4.296   6.457  1.00  0.00    -0.200 F 
ENDBRANCH  51  75
BRANCH  63  86
ATOM     86  C   UNL     1     -10.807   5.490  16.673  1.00  0.00     0.064 A 
ATOM     87  C   UNL     1     -11.236   4.160  16.794  1.00  0.00     0.173 A 
ATOM     88  C   UNL     1     -11.577   6.486  17.295  1.00  0.00     0.173 A 
ATOM     89  F   UNL     1     -10.545   3.172  16.206  1.00  0.00    -0.203 F 
ATOM     90  C   UNL     1     -12.405   3.844  17.482  1.00  0.00     0.198 A 
ATOM     91  C   UNL     1     -12.726   6.163  18.012  1.00  0.00     0.198 A 
ATOM     92  F   UNL     1     -11.209   7.774  17.218  1.00  0.00    -0.203 F 
ATOM     93  F   UNL     1     -12.824   2.572  17.537  1.00  0.00    -0.200 F 
ATOM     94  C   UNL     1     -13.143   4.844  18.098  1.00  0.00     0.200 A 
ATOM     95  F   UNL     1     -13.428   7.129  18.620  1.00  0.00    -0.200 F 
ATOM     96  F   UNL     1     -14.263   4.537  18.767  1.00  0.00    -0.200 F 
ENDBRANCH  63  86
ENDBRANCH  37  38
ENDBRANCH  29  32
ENDBRANCH  27  28
ENDBRANCH  26  27
ENDBRANCH  25  26
ENDBRANCH  24  25
ENDBRANCH   1  24
TORSDOF 17
