REMARK SMILES O=C(NCCCCCCNC(=O)C1CCN(S(=O)(=O)C2CC2)CC1)c1ccc(-c2c3nc(c(-c4c(F)c(F)c(F)c(F)c4F)c4ccc([nH]4)c(-c4c(F)c(F)c(F)c(F)c4F)c4nc(c(-c5c(F)c(F)c(F)c(F)c5F)c5ccc2[nH]5)C=C4)C=C3)cc1
REMARK SMILES IDX 6 1 5 2 4 3 3 4 1 5 2 6 25 8 26 9 87 10 27 11 86 12 28 13
REMARK SMILES IDX 29 14 30 15 80 16 31 17 85 18 79 19 81 20 32 21 84 22 78 23
REMARK SMILES IDX 77 24 33 26 65 27 45 28 64 29 46 30 49 31 63 32 82 33 47 34
REMARK SMILES IDX 48 35 62 37 83 38 50 39 34 40 35 41 43 42 36 43 37 44 41 45
REMARK SMILES IDX 44 46 38 47 39 48 42 49 40 50 66 51 67 52 75 53 68 54 69 55
REMARK SMILES IDX 73 56 76 57 70 58 71 59 74 60 72 61 51 62 52 63 60 64 53 65
REMARK SMILES IDX 54 66 58 67 61 68 55 69 56 70 59 71 57 72 7 73 8 74 9 75
REMARK SMILES IDX 10 76 11 77 12 79 13 80 14 81 24 82 15 83 23 84 16 85 17 86
REMARK SMILES IDX 18 87 19 88 20 89 21 90 22 91
REMARK H PARENT 3 7 81 25 49 36 10 78
REMARK Flexibility Score: inf
ROOT
ATOM      1  C   UNL     1       3.787   3.742   0.232  1.00  0.00     0.002 C 
ENDROOT
BRANCH   1   2
ATOM      2  C   UNL     1       4.416   2.529  -0.456  1.00  0.00     0.021 C 
BRANCH   2   3
ATOM      3  C   UNL     1       4.292   1.234   0.332  1.00  0.00     0.116 C 
BRANCH   3   4
ATOM      4  N   UNL     1       2.899   0.847   0.506  1.00  0.00    -0.352 N 
ATOM      5  O   UNL     1       1.024  -0.325   0.049  1.00  0.00    -0.269 OA
ATOM      6  C   UNL     1       2.249  -0.265   0.037  1.00  0.00     0.251 C 
ATOM      7  H   UNL     1       2.349   1.470   1.034  1.00  0.00     0.163 HD
BRANCH   6   8
ATOM      8  C   UNL     1       3.041  -1.400  -0.477  1.00  0.00     0.039 A 
ATOM      9  C   UNL     1       4.172  -1.830   0.220  1.00  0.00     0.014 A 
ATOM     10  C   UNL     1       2.633  -2.059  -1.639  1.00  0.00     0.014 A 
ATOM     11  C   UNL     1       4.961  -2.844  -0.303  1.00  0.00     0.010 A 
ATOM     12  C   UNL     1       3.373  -3.145  -2.112  1.00  0.00     0.010 A 
ATOM     13  C   UNL     1       4.545  -3.542  -1.449  1.00  0.00    -0.014 A 
BRANCH  13  14
ATOM     14  C   UNL     1       5.283  -4.766  -1.843  1.00  0.00     0.031 A 
ATOM     15  C   UNL     1       6.010  -4.859  -3.152  1.00  0.00     0.074 A 
ATOM     16  C   UNL     1       5.290  -5.800  -0.978  1.00  0.00     0.049 A 
ATOM     17  N   UNL     1       6.694  -5.863  -3.639  1.00  0.00    -0.248 NA
ATOM     18  C   UNL     1       5.962  -3.681  -4.032  1.00  0.00     0.031 C 
ATOM     19  C   UNL     1       4.599  -5.819   0.315  1.00  0.00     0.029 A 
ATOM     20  N   UNL     1       5.901  -7.025  -1.042  1.00  0.00    -0.354 N 
ATOM     21  C   UNL     1       7.142  -5.449  -4.886  1.00  0.00     0.074 A 
ATOM     22  C   UNL     1       6.639  -4.108  -5.091  1.00  0.00     0.031 C 
ATOM     23  C   UNL     1       4.857  -6.976   0.938  1.00  0.00     0.029 A 
ATOM     24  C   UNL     1       5.661  -7.812   0.059  1.00  0.00     0.049 A 
ATOM     25  H   UNL     1       6.458  -7.313  -1.801  1.00  0.00     0.167 HD
ATOM     26  C   UNL     1       7.906  -6.135  -5.770  1.00  0.00     0.037 A 
ATOM     27  C   UNL     1       6.018  -9.083   0.317  1.00  0.00     0.037 A 
ATOM     28  C   UNL     1       8.410  -7.467  -5.543  1.00  0.00     0.049 A 
ATOM     29  C   UNL     1       6.833  -9.823  -0.705  1.00  0.00     0.074 A 
ATOM     30  C   UNL     1       9.238  -8.223  -6.355  1.00  0.00     0.029 A 
ATOM     31  N   UNL     1       8.125  -8.245  -4.431  1.00  0.00    -0.354 N 
ATOM     32  N   UNL     1       7.302  -9.399  -1.854  1.00  0.00    -0.248 NA
ATOM     33  C   UNL     1       7.166 -11.219  -0.398  1.00  0.00     0.031 C 
ATOM     34  C   UNL     1       9.399  -9.481  -5.767  1.00  0.00     0.029 A 
ATOM     35  C   UNL     1       8.729  -9.487  -4.554  1.00  0.00     0.049 A 
ATOM     36  H   UNL     1       7.575  -7.958  -3.666  1.00  0.00     0.167 HD
ATOM     37  C   UNL     1       8.001 -10.467  -2.396  1.00  0.00     0.074 A 
ATOM     38  C   UNL     1       7.921 -11.548  -1.435  1.00  0.00     0.031 C 
ATOM     39  C   UNL     1       8.643 -10.550  -3.586  1.00  0.00     0.037 A 
BRANCH  26  40
ATOM     40  C   UNL     1       8.240  -5.481  -7.080  1.00  0.00     0.064 A 
ATOM     41  C   UNL     1       9.155  -4.422  -7.166  1.00  0.00     0.173 A 
ATOM     42  C   UNL     1       7.712  -5.990  -8.277  1.00  0.00     0.173 A 
ATOM     43  F   UNL     1       9.685  -3.894  -6.053  1.00  0.00    -0.203 F 
ATOM     44  C   UNL     1       9.525  -3.893  -8.402  1.00  0.00     0.198 A 
ATOM     45  C   UNL     1       8.104  -5.478  -9.511  1.00  0.00     0.198 A 
ATOM     46  F   UNL     1       6.839  -7.008  -8.252  1.00  0.00    -0.203 F 
ATOM     47  F   UNL     1      10.385  -2.867  -8.460  1.00  0.00    -0.200 F 
ATOM     48  C   UNL     1       9.009  -4.429  -9.573  1.00  0.00     0.200 A 
ATOM     49  F   UNL     1       7.618  -6.010 -10.641  1.00  0.00    -0.200 F 
ATOM     50  F   UNL     1       9.385  -3.936 -10.761  1.00  0.00    -0.200 F 
ENDBRANCH  26  40
BRANCH  27  51
ATOM     51  C   UNL     1       5.576  -9.745   1.572  1.00  0.00     0.064 A 
ATOM     52  C   UNL     1       6.502 -10.163   2.538  1.00  0.00     0.173 A 
ATOM     53  C   UNL     1       4.218 -10.001   1.819  1.00  0.00     0.173 A 
ATOM     54  F   UNL     1       7.813  -9.955   2.343  1.00  0.00    -0.203 F 
ATOM     55  C   UNL     1       6.091 -10.844   3.682  1.00  0.00     0.198 A 
ATOM     56  C   UNL     1       3.805 -10.646   2.982  1.00  0.00     0.198 A 
ATOM     57  F   UNL     1       3.288  -9.615   0.933  1.00  0.00    -0.203 F 
ATOM     58  F   UNL     1       7.004 -11.292   4.554  1.00  0.00    -0.200 F 
ATOM     59  C   UNL     1       4.743 -11.081   3.905  1.00  0.00     0.200 A 
ATOM     60  F   UNL     1       2.500 -10.852   3.204  1.00  0.00    -0.200 F 
ATOM     61  F   UNL     1       4.349 -11.738   5.004  1.00  0.00    -0.200 F 
ENDBRANCH  27  51
BRANCH  39  62
ATOM     62  C   UNL     1       9.338 -11.844  -3.895  1.00  0.00     0.064 A 
ATOM     63  C   UNL     1       8.622 -13.020  -4.164  1.00  0.00     0.173 A 
ATOM     64  C   UNL     1      10.740 -11.903  -3.942  1.00  0.00     0.173 A 
ATOM     65  F   UNL     1       7.281 -13.021  -4.114  1.00  0.00    -0.203 F 
ATOM     66  C   UNL     1       9.284 -14.215  -4.434  1.00  0.00     0.198 A 
ATOM     67  C   UNL     1      11.397 -13.091  -4.249  1.00  0.00     0.198 A 
ATOM     68  F   UNL     1      11.472 -10.807  -3.697  1.00  0.00    -0.203 F 
ATOM     69  F   UNL     1       8.580 -15.339  -4.626  1.00  0.00    -0.200 F 
ATOM     70  C   UNL     1      10.669 -14.247  -4.484  1.00  0.00     0.200 A 
ATOM     71  F   UNL     1      12.735 -13.117  -4.313  1.00  0.00    -0.200 F 
ATOM     72  F   UNL     1      11.304 -15.397  -4.750  1.00  0.00    -0.200 F 
ENDBRANCH  39  62
ENDBRANCH  13  14
ENDBRANCH   6   8
ENDBRANCH   3   4
ENDBRANCH   2   3
ENDBRANCH   1   2
BRANCH   1  73
ATOM     73  C   UNL     1       4.332   4.059   1.631  1.00  0.00     0.002 C 
BRANCH  73  74
ATOM     74  C   UNL     1       5.854   4.173   1.720  1.00  0.00     0.021 C 
BRANCH  74  75
ATOM     75  C   UNL     1       6.444   5.239   0.800  1.00  0.00     0.116 C 
BRANCH  75  76
ATOM     76  N   UNL     1       6.531   6.529   1.431  1.00  0.00    -0.356 N 
ATOM     77  C   UNL     1       7.585   7.321   1.734  1.00  0.00     0.223 C 
ATOM     78  H   UNL     1       5.660   6.907   1.690  1.00  0.00     0.163 HD
ATOM     79  O   UNL     1       7.299   8.429   2.207  1.00  0.00    -0.275 OA
BRANCH  77  80
ATOM     80  C   UNL     1       9.064   6.950   1.554  1.00  0.00     0.081 C 
ATOM     81  C   UNL     1       9.616   6.904   0.140  1.00  0.00     0.030 C 
ATOM     82  C   UNL     1       9.593   5.806   2.396  1.00  0.00     0.030 C 
ATOM     83  C   UNL     1       9.630   5.545  -0.534  1.00  0.00     0.103 C 
ATOM     84  C   UNL     1       9.553   4.433   1.752  1.00  0.00     0.103 C 
ATOM     85  N   UNL     1      10.014   4.373   0.339  1.00  0.00    -0.202 NA
BRANCH  85  86
ATOM     86  S   UNL     1       9.597   2.908  -0.519  1.00  0.00     0.216 S 
ATOM     87  O   UNL     1       8.150   2.830  -0.520  1.00  0.00    -0.212 OA
ATOM     88  O   UNL     1      10.308   2.964  -1.782  1.00  0.00    -0.212 OA
BRANCH  86  89
ATOM     89  C   UNL     1      10.129   1.355   0.234  1.00  0.00     0.124 C 
ATOM     90  C   UNL     1      11.060   1.382   1.401  1.00  0.00     0.022 C 
ATOM     91  C   UNL     1       9.594   1.097   1.617  1.00  0.00     0.022 C 
ENDBRANCH  86  89
ENDBRANCH  85  86
ENDBRANCH  77  80
ENDBRANCH  75  76
ENDBRANCH  74  75
ENDBRANCH  73  74
ENDBRANCH   1  73
TORSDOF 15
