REMARK SMILES O=C(CCCN1C(=O)C(=O)/C(=C(\[O-])c2ccccc2)[C@H]1c1ccc([N+](=O)[O-])cc1)NCCCCCCNC(=O)c1ccc(-c2c3nc(c(-c4c(F)c(F)c(F)c(F)c4F)c4ccc([nH]4)c(-c4c(F)c(F)c(F)c(F)c4F)c4nc(c(-c5c(F)c(F)c(F)c(F)c5F)c5ccc2[nH]5)C=C4)C=C3)cc1
REMARK SMILES IDX 32 1 31 2 30 3 1 4 2 5 3 7 4 8 5 9 6 10 7 11 20 12 8 13 9 14
REMARK SMILES IDX 11 15 10 16 12 17 13 18 21 19 22 20 29 21 23 22 28 23 24 24
REMARK SMILES IDX 25 25 26 26 27 27 14 28 15 29 19 30 16 31 18 32 17 33 33 34
REMARK SMILES IDX 34 35 35 36 36 37 37 38 38 39 39 41 40 42 41 43 102 44 42 45
REMARK SMILES IDX 101 46 43 47 44 48 45 49 95 50 46 51 100 52 94 53 96 54
REMARK SMILES IDX 47 55 99 56 93 57 92 58 48 60 80 61 60 62 79 63 61 64 64 65
REMARK SMILES IDX 78 66 97 67 62 68 63 69 77 71 98 72 65 73 49 74 50 75 58 76
REMARK SMILES IDX 51 77 52 78 56 79 59 80 53 81 54 82 57 83 55 84 81 85 82 86
REMARK SMILES IDX 90 87 83 88 84 89 88 90 91 91 85 92 86 93 89 94 87 95 66 96
REMARK SMILES IDX 67 97 75 98 68 99 69 100 73 101 76 102 70 103 71 104 74 105
REMARK SMILES IDX 72 106
REMARK H PARENT 30 6 37 40 96 59 64 70
REMARK Flexibility Score: inf
ROOT
ATOM      1  C   UNL     1       2.244  -3.123  -1.747  1.00  0.00     0.021 C 
ENDROOT
BRANCH   1   2
ATOM      2  C   UNL     1       1.910  -2.388  -0.449  1.00  0.00     0.116 C 
BRANCH   2   3
ATOM      3  N   UNL     1       2.655  -1.151  -0.317  1.00  0.00    -0.356 N 
ATOM      4  O   UNL     1       0.990   0.031   0.727  1.00  0.00    -0.275 OA
ATOM      5  C   UNL     1       2.128  -0.029   0.276  1.00  0.00     0.220 C 
ATOM      6  H   UNL     1       3.574  -1.113  -0.665  1.00  0.00     0.163 HD
BRANCH   5   7
ATOM      7  C   UNL     1       3.084   1.145   0.317  1.00  0.00     0.102 C 
BRANCH   7   8
ATOM      8  C   UNL     1       4.139   1.022   1.420  1.00  0.00     0.031 C 
BRANCH   8   9
ATOM      9  C   UNL     1       5.385   0.182   1.081  1.00  0.00     0.121 C 
BRANCH   9  10
ATOM     10  N   UNL     1       6.044   0.506  -0.182  1.00  0.00    -0.325 N 
ATOM     11  C   UNL     1       6.268   1.799  -0.612  1.00  0.00     0.295 C 
ATOM     12  C   UNL     1       6.633  -0.501  -1.071  1.00  0.00     0.150 C 
ATOM     13  O   UNL     1       6.058   2.848  -0.041  1.00  0.00    -0.265 OA
ATOM     14  C   UNL     1       6.750   1.691  -2.053  1.00  0.00     0.248 C 
ATOM     15  C   UNL     1       6.887   0.252  -2.359  1.00  0.00     0.025 C 
ATOM     16  O   UNL     1       6.932   2.604  -2.831  1.00  0.00    -0.283 OA
ATOM     17  C   UNL     1       7.189  -0.164  -3.602  1.00  0.00    -0.092 C 
ATOM     18  O   UNL     1       7.382   0.688  -4.670  1.00  0.00    -0.872 OA
BRANCH  12  19
ATOM     19  C   UNL     1       7.850  -1.210  -0.473  1.00  0.00    -0.020 A 
ATOM     20  C   UNL     1       9.169  -0.929  -0.879  1.00  0.00     0.013 A 
ATOM     21  C   UNL     1       7.660  -2.245   0.465  1.00  0.00     0.013 A 
ATOM     22  C   UNL     1      10.245  -1.711  -0.444  1.00  0.00     0.086 A 
ATOM     23  C   UNL     1       8.734  -3.008   0.936  1.00  0.00     0.086 A 
ATOM     24  C   UNL     1      10.021  -2.756   0.455  1.00  0.00     0.269 A 
BRANCH  24  25
ATOM     25  N   UNL     1      11.138  -3.609   0.875  1.00  0.00     0.062 N 
ATOM     26  O   UNL     1      12.195  -3.531   0.233  1.00  0.00    -0.258 OA
ATOM     27  O   UNL     1      10.954  -4.359   1.844  1.00  0.00    -0.258 OA
ENDBRANCH  24  25
ENDBRANCH  12  19
BRANCH  17  28
ATOM     28  C   UNL     1       7.441  -1.571  -3.936  1.00  0.00    -0.033 A 
ATOM     29  C   UNL     1       8.760  -2.007  -4.120  1.00  0.00     0.007 A 
ATOM     30  C   UNL     1       6.399  -2.489  -4.083  1.00  0.00     0.007 A 
ATOM     31  C   UNL     1       9.036  -3.350  -4.381  1.00  0.00     0.001 A 
ATOM     32  C   UNL     1       6.674  -3.834  -4.346  1.00  0.00     0.001 A 
ATOM     33  C   UNL     1       7.992  -4.267  -4.478  1.00  0.00     0.000 A 
ENDBRANCH  17  28
ENDBRANCH   9  10
ENDBRANCH   8   9
ENDBRANCH   7   8
ENDBRANCH   5   7
ENDBRANCH   2   3
ENDBRANCH   1   2
BRANCH   1  34
ATOM     34  C   UNL     1       3.729  -3.434  -1.950  1.00  0.00     0.002 C 
BRANCH  34  35
ATOM     35  C   UNL     1       4.399  -4.275  -0.861  1.00  0.00     0.002 C 
BRANCH  35  36
ATOM     36  C   UNL     1       3.889  -5.712  -0.761  1.00  0.00     0.021 C 
BRANCH  36  37
ATOM     37  C   UNL     1       4.081  -6.550  -2.022  1.00  0.00     0.116 C 
BRANCH  37  38
ATOM     38  N   UNL     1       5.478  -6.752  -2.375  1.00  0.00    -0.352 N 
ATOM     39  C   UNL     1       6.060  -7.860  -2.946  1.00  0.00     0.251 C 
ATOM     40  H   UNL     1       6.083  -6.000  -2.182  1.00  0.00     0.163 HD
ATOM     41  O   UNL     1       7.274  -7.911  -3.115  1.00  0.00    -0.269 OA
BRANCH  39  42
ATOM     42  C   UNL     1       5.209  -9.010  -3.320  1.00  0.00     0.039 A 
ATOM     43  C   UNL     1       5.554 -10.284  -2.864  1.00  0.00     0.014 A 
ATOM     44  C   UNL     1       4.053  -8.822  -4.082  1.00  0.00     0.014 A 
ATOM     45  C   UNL     1       4.698 -11.361  -3.108  1.00  0.00     0.010 A 
ATOM     46  C   UNL     1       3.171  -9.882  -4.271  1.00  0.00     0.010 A 
ATOM     47  C   UNL     1       3.481 -11.160  -3.780  1.00  0.00    -0.014 A 
BRANCH  47  48
ATOM     48  C   UNL     1       2.513 -12.270  -3.970  1.00  0.00     0.031 A 
ATOM     49  C   UNL     1       2.193 -12.764  -5.352  1.00  0.00     0.074 A 
ATOM     50  C   UNL     1       1.866 -12.781  -2.905  1.00  0.00     0.049 A 
ATOM     51  N   UNL     1       1.321 -13.664  -5.729  1.00  0.00    -0.248 NA
ATOM     52  C   UNL     1       2.935 -12.145  -6.462  1.00  0.00     0.031 C 
ATOM     53  C   UNL     1       2.051 -12.352  -1.517  1.00  0.00     0.029 A 
ATOM     54  N   UNL     1       0.910 -13.763  -2.824  1.00  0.00    -0.354 N 
ATOM     55  C   UNL     1       1.397 -13.707  -7.115  1.00  0.00     0.074 A 
ATOM     56  C   UNL     1       2.366 -12.710  -7.516  1.00  0.00     0.031 C 
ATOM     57  C   UNL     1       1.249 -13.079  -0.722  1.00  0.00     0.029 A 
ATOM     58  C   UNL     1       0.470 -14.000  -1.544  1.00  0.00     0.049 A 
ATOM     59  H   UNL     1       0.573 -14.252  -3.608  1.00  0.00     0.167 HD
ATOM     60  C   UNL     1       0.737 -14.521  -7.973  1.00  0.00     0.037 A 
ATOM     61  C   UNL     1      -0.462 -14.858  -1.087  1.00  0.00     0.037 A 
ATOM     62  C   UNL     1      -0.204 -15.532  -7.570  1.00  0.00     0.049 A 
ATOM     63  C   UNL     1      -1.178 -15.754  -2.061  1.00  0.00     0.074 A 
ATOM     64  C   UNL     1      -0.879 -16.447  -8.359  1.00  0.00     0.029 A 
ATOM     65  N   UNL     1      -0.604 -15.761  -6.261  1.00  0.00    -0.354 N 
ATOM     66  N   UNL     1      -1.047 -15.833  -3.363  1.00  0.00    -0.248 NA
ATOM     67  C   UNL     1      -2.166 -16.687  -1.501  1.00  0.00     0.031 C 
ATOM     68  C   UNL     1      -1.717 -17.204  -7.533  1.00  0.00     0.029 A 
ATOM     69  C   UNL     1      -1.530 -16.792  -6.223  1.00  0.00     0.049 A 
ATOM     70  H   UNL     1      -0.278 -15.266  -5.476  1.00  0.00     0.167 HD
ATOM     71  C   UNL     1      -1.911 -16.839  -3.773  1.00  0.00     0.074 A 
ATOM     72  C   UNL     1      -2.553 -17.351  -2.581  1.00  0.00     0.031 C 
ATOM     73  C   UNL     1      -2.150 -17.298  -5.026  1.00  0.00     0.037 A 
BRANCH  60  74
ATOM     74  C   UNL     1       1.016 -14.355  -9.438  1.00  0.00     0.064 A 
ATOM     75  C   UNL     1       2.243 -14.738 -10.000  1.00  0.00     0.173 A 
ATOM     76  C   UNL     1       0.033 -13.839 -10.296  1.00  0.00     0.173 A 
ATOM     77  F   UNL     1       3.220 -15.225  -9.220  1.00  0.00    -0.203 F 
ATOM     78  C   UNL     1       2.486 -14.583 -11.362  1.00  0.00     0.198 A 
ATOM     79  C   UNL     1       0.270 -13.713 -11.663  1.00  0.00     0.198 A 
ATOM     80  F   UNL     1      -1.160 -13.462  -9.811  1.00  0.00    -0.203 F 
ATOM     81  F   UNL     1       3.684 -14.910 -11.868  1.00  0.00    -0.200 F 
ATOM     82  C   UNL     1       1.498 -14.078 -12.193  1.00  0.00     0.200 A 
ATOM     83  F   UNL     1      -0.690 -13.235 -12.466  1.00  0.00    -0.200 F 
ATOM     84  F   UNL     1       1.732 -13.935 -13.505  1.00  0.00    -0.200 F 
ENDBRANCH  60  74
BRANCH  61  85
ATOM     85  C   UNL     1      -0.753 -14.933   0.368  1.00  0.00     0.064 A 
ATOM     86  C   UNL     1      -0.375 -16.054   1.119  1.00  0.00     0.173 A 
ATOM     87  C   UNL     1      -1.419 -13.895   1.034  1.00  0.00     0.173 A 
ATOM     88  F   UNL     1       0.245 -17.082   0.521  1.00  0.00    -0.203 F 
ATOM     89  C   UNL     1      -0.670 -16.143   2.478  1.00  0.00     0.198 A 
ATOM     90  C   UNL     1      -1.690 -13.973   2.399  1.00  0.00     0.198 A 
ATOM     91  F   UNL     1      -1.798 -12.798   0.362  1.00  0.00    -0.203 F 
ATOM     92  F   UNL     1      -0.336 -17.246   3.163  1.00  0.00    -0.200 F 
ATOM     93  C   UNL     1      -1.322 -15.101   3.118  1.00  0.00     0.200 A 
ATOM     94  F   UNL     1      -2.308 -12.957   3.017  1.00  0.00    -0.200 F 
ATOM     95  F   UNL     1      -1.603 -15.185   4.426  1.00  0.00    -0.200 F 
ENDBRANCH  61  85
BRANCH  73  96
ATOM     96  C   UNL     1      -3.119 -18.434  -5.170  1.00  0.00     0.064 A 
ATOM     97  C   UNL     1      -4.500 -18.249  -5.008  1.00  0.00     0.173 A 
ATOM     98  C   UNL     1      -2.663 -19.715  -5.517  1.00  0.00     0.173 A 
ATOM     99  F   UNL     1      -4.983 -17.046  -4.661  1.00  0.00    -0.203 F 
ATOM    100  C   UNL     1      -5.387 -19.310  -5.167  1.00  0.00     0.198 A 
ATOM    101  C   UNL     1      -3.555 -20.767  -5.702  1.00  0.00     0.198 A 
ATOM    102  F   UNL     1      -1.352 -19.942  -5.688  1.00  0.00    -0.203 F 
ATOM    103  F   UNL     1      -6.698 -19.121  -4.965  1.00  0.00    -0.200 F 
ATOM    104  C   UNL     1      -4.915 -20.566  -5.521  1.00  0.00     0.200 A 
ATOM    105  F   UNL     1      -3.098 -21.976  -6.055  1.00  0.00    -0.200 F 
ATOM    106  F   UNL     1      -5.771 -21.584  -5.681  1.00  0.00    -0.200 F 
ENDBRANCH  73  96
ENDBRANCH  47  48
ENDBRANCH  39  42
ENDBRANCH  37  38
ENDBRANCH  36  37
ENDBRANCH  35  36
ENDBRANCH  34  35
ENDBRANCH   1  34
TORSDOF 19
