REMARK SMILES CC[C@@](C)([NH2+]CCC(=O)NC(C)C)C(=O)NCCCCCCNC(=O)c1ccc(-c2c3nc(c(-c4c(F)c(F)c(F)c(F)c4F)c4ccc([nH]4)c(-c4c(F)c(F)c(F)c(F)c4F)c4nc(c(-c5c(F)c(F)c(F)c(F)c5F)c5ccc2[nH]5)C=C4)C=C3)cc1
REMARK SMILES IDX 18 1 17 2 16 3 14 4 15 5 3 7 4 8 2 9 1 10 5 11 6 14 7 15
REMARK SMILES IDX 8 16 9 17 10 18 11 20 12 21 13 22 19 23 20 24 21 25 22 26
REMARK SMILES IDX 23 27 24 28 25 30 26 31 27 32 88 33 28 34 87 35 29 36 30 37
REMARK SMILES IDX 31 38 81 39 32 40 86 41 80 42 82 43 33 44 85 45 79 46 78 47
REMARK SMILES IDX 34 49 66 50 46 51 65 52 47 53 50 54 64 55 83 56 48 57 49 58
REMARK SMILES IDX 63 60 84 61 51 62 35 63 36 64 44 65 37 66 38 67 42 68 45 69
REMARK SMILES IDX 39 70 40 71 43 72 41 73 67 74 68 75 76 76 69 77 70 78 74 79
REMARK SMILES IDX 77 80 71 81 72 82 75 83 73 84 52 85 53 86 61 87 54 88 55 89
REMARK SMILES IDX 59 90 62 91 56 92 57 93 60 94 58 95
REMARK H PARENT 16 6 5 12 5 13 10 19 23 29 82 48 50 59
REMARK Flexibility Score: inf
ROOT
ATOM      1  C   UNL     1       3.693  -5.767   0.975  1.00  0.00     0.021 C 
ENDROOT
BRANCH   1   2
ATOM      2  C   UNL     1       3.252  -4.427   1.555  1.00  0.00     0.116 C 
BRANCH   2   3
ATOM      3  N   UNL     1       3.685  -3.345   0.705  1.00  0.00    -0.351 N 
ATOM      4  C   UNL     1       2.969  -2.443  -0.019  1.00  0.00     0.281 C 
ATOM      5  O   UNL     1       3.622  -1.762  -0.817  1.00  0.00    -0.268 OA
ATOM      6  H   UNL     1       4.661  -3.241   0.639  1.00  0.00     0.163 HD
BRANCH   4   7
ATOM      7  C   UNL     1       1.421  -2.267   0.157  1.00  0.00     0.172 C 
ATOM      8  C   UNL     1       1.109  -1.930   1.625  1.00  0.00     0.090 C 
BRANCH   7   9
ATOM      9  C   UNL     1       0.981  -1.040  -0.732  1.00  0.00     0.075 C 
ATOM     10  C   UNL     1       1.346   0.349  -0.217  1.00  0.00     0.011 C 
ENDBRANCH   7   9
BRANCH   7  11
ATOM     11  N   UNL     1       0.691  -3.371  -0.522  1.00  0.00    -0.333 N 
ATOM     12  H   UNL     1       1.298  -3.638  -1.297  1.00  0.00     0.347 HD
ATOM     13  H   UNL     1      -0.216  -2.913  -0.612  1.00  0.00     0.347 HD
BRANCH  11  14
ATOM     14  C   UNL     1       0.228  -4.639   0.031  1.00  0.00     0.271 C 
BRANCH  14  15
ATOM     15  C   UNL     1      -0.506  -4.721   1.374  1.00  0.00     0.161 C 
BRANCH  15  16
ATOM     16  C   UNL     1      -2.014  -4.881   1.324  1.00  0.00     0.225 C 
ATOM     17  O   UNL     1      -2.550  -5.915   1.728  1.00  0.00    -0.275 OA
ATOM     18  N   UNL     1      -2.809  -3.849   0.923  1.00  0.00    -0.354 N 
ATOM     19  H   UNL     1      -3.771  -3.950   1.110  1.00  0.00     0.163 HD
BRANCH  18  20
ATOM     20  C   UNL     1      -2.419  -2.621   0.255  1.00  0.00     0.075 C 
ATOM     21  C   UNL     1      -2.776  -2.696  -1.224  1.00  0.00     0.030 C 
ATOM     22  C   UNL     1      -3.009  -1.390   0.926  1.00  0.00     0.030 C 
ENDBRANCH  18  20
ENDBRANCH  15  16
ENDBRANCH  14  15
ENDBRANCH  11  14
ENDBRANCH   7  11
ENDBRANCH   4   7
ENDBRANCH   2   3
ENDBRANCH   1   2
BRANCH   1  23
ATOM     23  C   UNL     1       5.159  -6.095   1.266  1.00  0.00     0.002 C 
BRANCH  23  24
ATOM     24  C   UNL     1       5.507  -6.171   2.756  1.00  0.00     0.002 C 
BRANCH  24  25
ATOM     25  C   UNL     1       4.609  -7.099   3.581  1.00  0.00     0.021 C 
BRANCH  25  26
ATOM     26  C   UNL     1       4.527  -8.527   3.053  1.00  0.00     0.116 C 
BRANCH  26  27
ATOM     27  N   UNL     1       5.842  -9.140   2.960  1.00  0.00    -0.352 N 
ATOM     28  C   UNL     1       6.300 -10.293   3.531  1.00  0.00     0.251 C 
ATOM     29  H   UNL     1       6.496  -8.654   2.407  1.00  0.00     0.163 HD
ATOM     30  O   UNL     1       7.506 -10.543   3.543  1.00  0.00    -0.269 OA
BRANCH  28  31
ATOM     31  C   UNL     1       5.348 -11.243   4.132  1.00  0.00     0.039 A 
ATOM     32  C   UNL     1       5.661 -11.830   5.360  1.00  0.00     0.014 A 
ATOM     33  C   UNL     1       4.167 -11.586   3.464  1.00  0.00     0.014 A 
ATOM     34  C   UNL     1       4.777 -12.744   5.932  1.00  0.00     0.010 A 
ATOM     35  C   UNL     1       3.255 -12.444   4.068  1.00  0.00     0.010 A 
ATOM     36  C   UNL     1       3.563 -13.048   5.296  1.00  0.00    -0.014 A 
BRANCH  36  37
ATOM     37  C   UNL     1       2.625 -14.041   5.872  1.00  0.00     0.031 A 
ATOM     38  C   UNL     1       2.374 -15.333   5.144  1.00  0.00     0.074 A 
ATOM     39  C   UNL     1       1.974 -13.763   7.016  1.00  0.00     0.049 A 
ATOM     40  N   UNL     1       1.536 -16.297   5.430  1.00  0.00    -0.248 NA
ATOM     41  C   UNL     1       3.151 -15.561   3.914  1.00  0.00     0.031 C 
ATOM     42  C   UNL     1       2.109 -12.527   7.789  1.00  0.00     0.029 A 
ATOM     43  N   UNL     1       1.057 -14.499   7.723  1.00  0.00    -0.354 N 
ATOM     44  C   UNL     1       1.679 -17.234   4.416  1.00  0.00     0.074 A 
ATOM     45  C   UNL     1       2.639 -16.701   3.475  1.00  0.00     0.031 C 
ATOM     46  C   UNL     1       1.312 -12.595   8.868  1.00  0.00     0.029 A 
ATOM     47  C   UNL     1       0.588 -13.862   8.846  1.00  0.00     0.049 A 
ATOM     48  H   UNL     1       0.762 -15.398   7.451  1.00  0.00     0.167 HD
ATOM     49  C   UNL     1       1.084 -18.444   4.296  1.00  0.00     0.037 A 
ATOM     50  C   UNL     1      -0.329 -14.258   9.748  1.00  0.00     0.037 A 
ATOM     51  C   UNL     1       0.147 -18.980   5.247  1.00  0.00     0.049 A 
ATOM     52  C   UNL     1      -0.971 -15.611   9.592  1.00  0.00     0.074 A 
ATOM     53  C   UNL     1      -0.502 -20.202   5.227  1.00  0.00     0.029 A 
ATOM     54  N   UNL     1      -0.266 -18.325   6.397  1.00  0.00    -0.354 N 
ATOM     55  N   UNL     1      -0.795 -16.507   8.651  1.00  0.00    -0.248 NA
ATOM     56  C   UNL     1      -1.927 -16.014  10.632  1.00  0.00     0.031 C 
ATOM     57  C   UNL     1      -1.328 -20.276   6.353  1.00  0.00     0.029 A 
ATOM     58  C   UNL     1      -1.159 -19.119   7.096  1.00  0.00     0.049 A 
ATOM     59  H   UNL     1       0.032 -17.429   6.675  1.00  0.00     0.167 HD
ATOM     60  C   UNL     1      -1.587 -17.591   9.004  1.00  0.00     0.074 A 
ATOM     61  C   UNL     1      -2.234 -17.246  10.252  1.00  0.00     0.031 C 
ATOM     62  C   UNL     1      -1.766 -18.767   8.353  1.00  0.00     0.037 A 
BRANCH  49  63
ATOM     63  C   UNL     1       1.446 -19.282   3.104  1.00  0.00     0.064 A 
ATOM     64  C   UNL     1       2.712 -19.878   2.990  1.00  0.00     0.173 A 
ATOM     65  C   UNL     1       0.509 -19.532   2.092  1.00  0.00     0.173 A 
ATOM     66  F   UNL     1       3.648 -19.658   3.924  1.00  0.00    -0.203 F 
ATOM     67  C   UNL     1       3.031 -20.677   1.896  1.00  0.00     0.198 A 
ATOM     68  C   UNL     1       0.822 -20.356   1.013  1.00  0.00     0.198 A 
ATOM     69  F   UNL     1      -0.717 -18.990   2.154  1.00  0.00    -0.203 F 
ATOM     70  F   UNL     1       4.260 -21.202   1.788  1.00  0.00    -0.200 F 
ATOM     71  C   UNL     1       2.084 -20.923   0.913  1.00  0.00     0.200 A 
ATOM     72  F   UNL     1      -0.098 -20.603   0.071  1.00  0.00    -0.200 F 
ATOM     73  F   UNL     1       2.389 -21.703  -0.133  1.00  0.00    -0.200 F 
ENDBRANCH  49  63
BRANCH  50  74
ATOM     74  C   UNL     1      -0.684 -13.377  10.892  1.00  0.00     0.064 A 
ATOM     75  C   UNL     1      -0.342 -13.726  12.206  1.00  0.00     0.173 A 
ATOM     76  C   UNL     1      -1.400 -12.186  10.699  1.00  0.00     0.173 A 
ATOM     77  F   UNL     1       0.327 -14.864  12.443  1.00  0.00    -0.203 F 
ATOM     78  C   UNL     1      -0.732 -12.937  13.286  1.00  0.00     0.198 A 
ATOM     79  C   UNL     1      -1.763 -11.382  11.778  1.00  0.00     0.198 A 
ATOM     80  F   UNL     1      -1.745 -11.802   9.462  1.00  0.00    -0.203 F 
ATOM     81  F   UNL     1      -0.444 -13.326  14.535  1.00  0.00    -0.200 F 
ATOM     82  C   UNL     1      -1.440 -11.764  13.071  1.00  0.00     0.200 A 
ATOM     83  F   UNL     1      -2.433 -10.242  11.565  1.00  0.00    -0.200 F 
ATOM     84  F   UNL     1      -1.820 -11.009  14.110  1.00  0.00    -0.200 F 
ENDBRANCH  50  74
BRANCH  62  85
ATOM     85  C   UNL     1      -2.647 -19.788   9.010  1.00  0.00     0.064 A 
ATOM     86  C   UNL     1      -4.038 -19.634   9.072  1.00  0.00     0.173 A 
ATOM     87  C   UNL     1      -2.088 -20.957   9.550  1.00  0.00     0.173 A 
ATOM     88  F   UNL     1      -4.618 -18.528   8.582  1.00  0.00    -0.203 F 
ATOM     89  C   UNL     1      -4.837 -20.600   9.678  1.00  0.00     0.198 A 
ATOM     90  C   UNL     1      -2.892 -21.934  10.128  1.00  0.00     0.198 A 
ATOM     91  F   UNL     1      -0.762 -21.155   9.508  1.00  0.00    -0.203 F 
ATOM     92  F   UNL     1      -6.161 -20.409   9.771  1.00  0.00    -0.200 F 
ATOM     93  C   UNL     1      -4.265 -21.751  10.198  1.00  0.00     0.200 A 
ATOM     94  F   UNL     1      -2.339 -23.052  10.618  1.00  0.00    -0.200 F 
ATOM     95  F   UNL     1      -5.037 -22.682  10.776  1.00  0.00    -0.200 F 
ENDBRANCH  62  85
ENDBRANCH  36  37
ENDBRANCH  28  31
ENDBRANCH  26  27
ENDBRANCH  25  26
ENDBRANCH  24  25
ENDBRANCH  23  24
ENDBRANCH   1  23
TORSDOF 19
