REMARK SMILES C[C@@H]1C(=O)NC(=O)CN1C(=O)NC1(CC(=O)NCCCCCCNC(=O)c2ccc(-c3c4nc(c(-c5c(F)c(F)c(F)c(F)c5F)c5ccc([nH]5)c(-c5c(F)c(F)c(F)c(F)c5F)c5nc(c(-c6c(F)c(F)c(F)c(F)c6F)c6ccc3[nH]6)C=C5)C=C4)cc2)CCC1
REMARK SMILES IDX 20 1 19 2 18 3 17 4 15 5 16 6 14 8 13 9 90 10 92 11 91 12
REMARK SMILES IDX 12 13 10 14 11 15 9 17 1 18 2 19 3 20 4 21 5 22 8 23 6 24
REMARK SMILES IDX 7 26 21 27 22 28 23 29 24 30 25 31 26 33 27 34 28 35 89 36
REMARK SMILES IDX 29 37 88 38 30 39 31 40 32 41 82 42 33 43 87 44 81 45 83 46
REMARK SMILES IDX 34 47 86 48 80 49 79 50 35 52 67 53 47 54 66 55 48 56 51 57
REMARK SMILES IDX 65 58 84 59 49 60 50 61 64 63 85 64 52 65 36 66 37 67 45 68
REMARK SMILES IDX 38 69 39 70 43 71 46 72 40 73 41 74 44 75 42 76 68 77 69 78
REMARK SMILES IDX 77 79 70 80 71 81 75 82 78 83 72 84 73 85 76 86 74 87 53 88
REMARK SMILES IDX 54 89 62 90 55 91 56 92 60 93 63 94 57 95 58 96 61 97 59 98
REMARK H PARENT 17 7 12 16 5 25 24 32 83 51 51 62
REMARK Flexibility Score: inf
ROOT
ATOM      1  C   UNL     1      -1.079   6.174  -3.525  1.00  0.00     0.002 C 
ENDROOT
BRANCH   1   2
ATOM      2  C   UNL     1      -1.301   4.772  -2.953  1.00  0.00     0.021 C 
BRANCH   2   3
ATOM      3  C   UNL     1      -2.506   4.061  -3.577  1.00  0.00     0.116 C 
BRANCH   3   4
ATOM      4  N   UNL     1      -2.095   3.434  -4.814  1.00  0.00    -0.356 N 
ATOM      5  C   UNL     1      -1.658   2.158  -4.991  1.00  0.00     0.222 C 
ATOM      6  O   UNL     1      -0.958   1.897  -5.969  1.00  0.00    -0.275 OA
ATOM      7  H   UNL     1      -2.135   3.996  -5.621  1.00  0.00     0.163 HD
BRANCH   5   8
ATOM      8  C   UNL     1      -2.077   1.074  -4.030  1.00  0.00     0.128 C 
BRANCH   8   9
ATOM      9  C   UNL     1      -1.075   0.638  -2.931  1.00  0.00     0.051 C 
ATOM     10  C   UNL     1      -1.767  -0.509  -2.155  1.00  0.00     0.029 C 
ATOM     11  C   UNL     1      -1.067   1.480  -1.632  1.00  0.00     0.029 C 
ATOM     12  C   UNL     1      -2.065   0.484  -1.012  1.00  0.00     0.005 C 
BRANCH   9  13
ATOM     13  N   UNL     1       0.250   0.362  -3.528  1.00  0.00    -0.332 N 
ATOM     14  C   UNL     1       1.458  -0.169  -3.272  1.00  0.00     0.318 C 
ATOM     15  O   UNL     1       2.210  -0.141  -4.256  1.00  0.00    -0.249 OA
ATOM     16  H   UNL     1       0.245   0.687  -4.457  1.00  0.00     0.165 HD
BRANCH  14  17
ATOM     17  N   UNL     1       1.899  -0.704  -2.101  1.00  0.00    -0.304 N 
ATOM     18  C   UNL     1       1.988  -0.095   0.327  1.00  0.00     0.042 C 
ATOM     19  C   UNL     1       1.244  -0.814  -0.798  1.00  0.00     0.174 C 
ATOM     20  C   UNL     1       1.015  -2.285  -0.438  1.00  0.00     0.249 C 
ATOM     21  O   UNL     1       0.213  -2.634   0.427  1.00  0.00    -0.272 OA
ATOM     22  N   UNL     1       1.867  -3.197  -1.010  1.00  0.00    -0.293 N 
ATOM     23  C   UNL     1       3.171  -1.444  -2.163  1.00  0.00     0.222 C 
ATOM     24  C   UNL     1       2.956  -2.913  -1.800  1.00  0.00     0.246 C 
ATOM     25  H   UNL     1       1.679  -4.148  -0.838  1.00  0.00     0.173 HD
ATOM     26  O   UNL     1       3.786  -3.787  -2.040  1.00  0.00    -0.273 OA
ENDBRANCH  14  17
ENDBRANCH   9  13
ENDBRANCH   8   9
ENDBRANCH   5   8
ENDBRANCH   3   4
ENDBRANCH   2   3
ENDBRANCH   1   2
BRANCH   1  27
ATOM     27  C   UNL     1      -2.191   7.170  -3.174  1.00  0.00     0.002 C 
BRANCH  27  28
ATOM     28  C   UNL     1      -2.463   7.324  -1.675  1.00  0.00     0.021 C 
BRANCH  28  29
ATOM     29  C   UNL     1      -1.250   7.765  -0.862  1.00  0.00     0.116 C 
BRANCH  29  30
ATOM     30  N   UNL     1      -0.777   9.073  -1.286  1.00  0.00    -0.352 N 
ATOM     31  C   UNL     1      -0.713  10.245  -0.579  1.00  0.00     0.251 C 
ATOM     32  H   UNL     1      -0.457   9.123  -2.216  1.00  0.00     0.163 HD
ATOM     33  O   UNL     1      -0.551  11.311  -1.161  1.00  0.00    -0.269 OA
BRANCH  31  34
ATOM     34  C   UNL     1      -0.841  10.221   0.892  1.00  0.00     0.039 A 
ATOM     35  C   UNL     1      -1.626  11.191   1.520  1.00  0.00     0.014 A 
ATOM     36  C   UNL     1      -0.160   9.265   1.651  1.00  0.00     0.014 A 
ATOM     37  C   UNL     1      -1.762  11.176   2.908  1.00  0.00     0.010 A 
ATOM     38  C   UNL     1      -0.351   9.208   3.027  1.00  0.00     0.010 A 
ATOM     39  C   UNL     1      -1.145  10.170   3.670  1.00  0.00    -0.014 A 
BRANCH  39  40
ATOM     40  C   UNL     1      -1.310  10.116   5.144  1.00  0.00     0.031 A 
ATOM     41  C   UNL     1      -0.124  10.323   6.043  1.00  0.00     0.074 A 
ATOM     42  C   UNL     1      -2.515   9.821   5.667  1.00  0.00     0.049 A 
ATOM     43  N   UNL     1      -0.052  10.253   7.348  1.00  0.00    -0.248 NA
ATOM     44  C   UNL     1       1.159  10.623   5.387  1.00  0.00     0.031 C 
ATOM     45  C   UNL     1      -3.728   9.553   4.894  1.00  0.00     0.029 A 
ATOM     46  N   UNL     1      -2.915   9.686   6.972  1.00  0.00    -0.354 N 
ATOM     47  C   UNL     1       1.280  10.486   7.666  1.00  0.00     0.074 A 
ATOM     48  C   UNL     1       1.992  10.646   6.417  1.00  0.00     0.031 C 
ATOM     49  C   UNL     1      -4.742   9.308   5.739  1.00  0.00     0.029 A 
ATOM     50  C   UNL     1      -4.243   9.365   7.109  1.00  0.00     0.049 A 
ATOM     51  H   UNL     1      -2.308   9.809   7.737  1.00  0.00     0.167 HD
ATOM     52  C   UNL     1       1.851  10.581   8.891  1.00  0.00     0.037 A 
ATOM     53  C   UNL     1      -4.973   9.136   8.217  1.00  0.00     0.037 A 
ATOM     54  C   UNL     1       1.132  10.447  10.130  1.00  0.00     0.049 A 
ATOM     55  C   UNL     1      -4.313   9.246   9.565  1.00  0.00     0.074 A 
ATOM     56  C   UNL     1       1.607  10.587  11.423  1.00  0.00     0.029 A 
ATOM     57  N   UNL     1      -0.217  10.140  10.231  1.00  0.00    -0.354 N 
ATOM     58  N   UNL     1      -3.068   9.534   9.856  1.00  0.00    -0.248 NA
ATOM     59  C   UNL     1      -5.163   9.007  10.739  1.00  0.00     0.031 C 
ATOM     60  C   UNL     1       0.555  10.319  12.306  1.00  0.00     0.029 A 
ATOM     61  C   UNL     1      -0.587  10.064  11.564  1.00  0.00     0.049 A 
ATOM     62  H   UNL     1      -0.823   9.998   9.467  1.00  0.00     0.167 HD
ATOM     63  C   UNL     1      -2.991   9.540  11.242  1.00  0.00     0.074 A 
ATOM     64  C   UNL     1      -4.319   9.240  11.734  1.00  0.00     0.031 C 
ATOM     65  C   UNL     1      -1.917   9.772  12.036  1.00  0.00     0.037 A 
BRANCH  52  66
ATOM     66  C   UNL     1       3.328  10.847   8.950  1.00  0.00     0.064 A 
ATOM     67  C   UNL     1       3.868  12.086   8.572  1.00  0.00     0.173 A 
ATOM     68  C   UNL     1       4.210   9.864   9.423  1.00  0.00     0.173 A 
ATOM     69  F   UNL     1       3.070  13.056   8.102  1.00  0.00    -0.203 F 
ATOM     70  C   UNL     1       5.239  12.321   8.639  1.00  0.00     0.198 A 
ATOM     71  C   UNL     1       5.577  10.113   9.518  1.00  0.00     0.198 A 
ATOM     72  F   UNL     1       3.746   8.664   9.802  1.00  0.00    -0.203 F 
ATOM     73  F   UNL     1       5.737  13.494   8.226  1.00  0.00    -0.200 F 
ATOM     74  C   UNL     1       6.091  11.337   9.118  1.00  0.00     0.200 A 
ATOM     75  F   UNL     1       6.398   9.166   9.993  1.00  0.00    -0.200 F 
ATOM     76  F   UNL     1       7.410  11.567   9.189  1.00  0.00    -0.200 F 
ENDBRANCH  52  66
BRANCH  53  77
ATOM     77  C   UNL     1      -6.416   8.805   8.099  1.00  0.00     0.064 A 
ATOM     78  C   UNL     1      -7.399   9.714   8.516  1.00  0.00     0.173 A 
ATOM     79  C   UNL     1      -6.844   7.579   7.571  1.00  0.00     0.173 A 
ATOM     80  F   UNL     1      -7.038  10.893   9.046  1.00  0.00    -0.203 F 
ATOM     81  C   UNL     1      -8.753   9.401   8.430  1.00  0.00     0.198 A 
ATOM     82  C   UNL     1      -8.200   7.278   7.457  1.00  0.00     0.198 A 
ATOM     83  F   UNL     1      -5.945   6.677   7.151  1.00  0.00    -0.203 F 
ATOM     84  F   UNL     1      -9.669  10.270   8.878  1.00  0.00    -0.200 F 
ATOM     85  C   UNL     1      -9.153   8.185   7.895  1.00  0.00     0.200 A 
ATOM     86  F   UNL     1      -8.583   6.109   6.926  1.00  0.00    -0.200 F 
ATOM     87  F   UNL     1     -10.456   7.886   7.807  1.00  0.00    -0.200 F 
ENDBRANCH  53  77
BRANCH  65  88
ATOM     88  C   UNL     1      -2.140   9.745  13.520  1.00  0.00     0.064 A 
ATOM     89  C   UNL     1      -2.378   8.547  14.208  1.00  0.00     0.173 A 
ATOM     90  C   UNL     1      -2.078  10.932  14.267  1.00  0.00     0.173 A 
ATOM     91  F   UNL     1      -2.462   7.388  13.536  1.00  0.00    -0.203 F 
ATOM     92  C   UNL     1      -2.570   8.540  15.587  1.00  0.00     0.198 A 
ATOM     93  C   UNL     1      -2.241  10.917  15.649  1.00  0.00     0.198 A 
ATOM     94  F   UNL     1      -1.847  12.104  13.657  1.00  0.00    -0.203 F 
ATOM     95  F   UNL     1      -2.844   7.389  16.217  1.00  0.00    -0.200 F 
ATOM     96  C   UNL     1      -2.494   9.723  16.307  1.00  0.00     0.200 A 
ATOM     97  F   UNL     1      -2.153  12.059  16.345  1.00  0.00    -0.200 F 
ATOM     98  F   UNL     1      -2.672   9.713  17.635  1.00  0.00    -0.200 F 
ENDBRANCH  65  88
ENDBRANCH  39  40
ENDBRANCH  31  34
ENDBRANCH  29  30
ENDBRANCH  28  29
ENDBRANCH  27  28
ENDBRANCH   1  27
TORSDOF 16
