REMARK SMILES C[C@@H]1CN(C(=O)Nc2ccc(O)c(C(=O)NCCCCCCNC(=O)c3ccc(-c4c5nc(c(-c6c(F)c(F)c(F)c(F)c6F)c6ccc([nH]6)c(-c6c(F)c(F)c(F)c(F)c6F)c6nc(c(-c7c(F)c(F)c(F)c(F)c7F)c7ccc4[nH]7)C=C6)C=C5)cc3)c2)C[C@H]1C
REMARK SMILES IDX 20 1 19 2 18 3 17 4 16 5 14 6 15 7 13 9 8 10 9 11 89 12
REMARK SMILES IDX 10 13 11 14 7 15 1 16 2 17 3 18 91 19 4 20 90 21 92 22 5 23
REMARK SMILES IDX 6 24 12 26 21 28 22 29 23 30 24 31 25 33 26 34 27 35 88 36
REMARK SMILES IDX 28 37 87 38 29 39 30 40 31 41 81 42 32 43 86 44 80 45 82 46
REMARK SMILES IDX 33 47 85 48 79 49 78 50 34 52 66 53 46 54 65 55 47 56 50 57
REMARK SMILES IDX 64 58 83 59 48 60 49 61 63 63 84 64 51 65 35 66 36 67 44 68
REMARK SMILES IDX 37 69 38 70 42 71 45 72 39 73 40 74 43 75 41 76 67 77 68 78
REMARK SMILES IDX 76 79 69 80 70 81 74 82 77 83 71 84 72 85 75 86 73 87 52 88
REMARK SMILES IDX 53 89 61 90 54 91 55 92 59 93 62 94 56 95 57 96 60 97 58 98
REMARK H PARENT 16 8 7 25 12 27 23 32 82 51 50 62
REMARK Flexibility Score: inf
ROOT
ATOM      1  C   UNL     1      -4.737   6.658   2.853  1.00  0.00     0.002 C 
ENDROOT
BRANCH   1   2
ATOM      2  C   UNL     1      -5.696   5.510   2.525  1.00  0.00     0.002 C 
BRANCH   2   3
ATOM      3  C   UNL     1      -5.110   4.429   1.613  1.00  0.00     0.021 C 
BRANCH   3   4
ATOM      4  C   UNL     1      -3.959   3.639   2.244  1.00  0.00     0.116 C 
BRANCH   4   5
ATOM      5  N   UNL     1      -4.485   2.583   3.077  1.00  0.00    -0.352 N 
ATOM      6  C   UNL     1      -4.742   1.261   2.835  1.00  0.00     0.255 C 
ATOM      7  O   UNL     1      -5.261   0.631   3.762  1.00  0.00    -0.269 OA
ATOM      8  H   UNL     1      -4.699   2.868   3.994  1.00  0.00     0.163 HD
BRANCH   6   9
ATOM      9  C   UNL     1      -4.366   0.509   1.601  1.00  0.00     0.083 A 
ATOM     10  C   UNL     1      -3.576  -1.667   0.818  1.00  0.00     0.043 A 
ATOM     11  C   UNL     1      -3.676  -1.245  -0.501  1.00  0.00     0.030 A 
ATOM     12  C   UNL     1      -4.000  -0.830   1.849  1.00  0.00     0.044 A 
ATOM     13  C   UNL     1      -4.043   0.067  -0.775  1.00  0.00     0.049 A 
ATOM     14  C   UNL     1      -4.353   0.948   0.270  1.00  0.00     0.128 A 
BRANCH  10  15
ATOM     15  N   UNL     1      -3.045  -2.913   1.154  1.00  0.00    -0.308 N 
ATOM     16  C   UNL     1       1.405  -0.073  -0.000  1.00  0.00     0.010 C 
ATOM     17  C   UNL     1       0.743  -1.336  -0.526  1.00  0.00     0.010 C 
ATOM     18  C   UNL     1      -0.677  -1.495   0.011  1.00  0.00     0.125 C 
ATOM     19  C   UNL     1       1.409  -2.646  -0.101  1.00  0.00     0.010 C 
ATOM     20  N   UNL     1      -0.933  -2.930   0.064  1.00  0.00    -0.324 N 
ATOM     21  C   UNL     1       0.277  -3.662  -0.280  1.00  0.00     0.125 C 
ATOM     22  C   UNL     1       2.639  -2.985  -0.925  1.00  0.00     0.010 C 
ATOM     23  C   UNL     1      -1.992  -3.601   0.631  1.00  0.00     0.321 C 
ATOM     24  O   UNL     1      -1.961  -4.821   0.814  1.00  0.00    -0.248 OA
ATOM     25  H   UNL     1      -3.509  -3.371   1.892  1.00  0.00     0.171 HD
ENDBRANCH  10  15
BRANCH  14  26
ATOM     26  O   UNL     1      -4.664   2.221  -0.099  1.00  0.00    -0.507 OA
ATOM     27  H   UNL     1      -4.641   2.466  -1.004  1.00  0.00     0.293 HD
ENDBRANCH  14  26
ENDBRANCH   6   9
ENDBRANCH   4   5
ENDBRANCH   3   4
ENDBRANCH   2   3
ENDBRANCH   1   2
BRANCH   1  28
ATOM     28  C   UNL     1      -4.128   7.355   1.634  1.00  0.00     0.021 C 
BRANCH  28  29
ATOM     29  C   UNL     1      -5.153   7.994   0.703  1.00  0.00     0.116 C 
BRANCH  29  30
ATOM     30  N   UNL     1      -5.857   9.089   1.353  1.00  0.00    -0.352 N 
ATOM     31  C   UNL     1      -5.900  10.417   1.007  1.00  0.00     0.251 C 
ATOM     32  H   UNL     1      -6.375   8.843   2.154  1.00  0.00     0.163 HD
ATOM     33  O   UNL     1      -6.326  11.255   1.792  1.00  0.00    -0.269 OA
BRANCH  31  34
ATOM     34  C   UNL     1      -5.416  10.830  -0.325  1.00  0.00     0.039 A 
ATOM     35  C   UNL     1      -4.572  11.938  -0.432  1.00  0.00     0.014 A 
ATOM     36  C   UNL     1      -5.799  10.118  -1.465  1.00  0.00     0.014 A 
ATOM     37  C   UNL     1      -4.059  12.294  -1.681  1.00  0.00     0.010 A 
ATOM     38  C   UNL     1      -5.230  10.428  -2.695  1.00  0.00     0.010 A 
ATOM     39  C   UNL     1      -4.356  11.520  -2.815  1.00  0.00    -0.014 A 
BRANCH  39  40
ATOM     40  C   UNL     1      -3.769  11.831  -4.142  1.00  0.00     0.031 A 
ATOM     41  C   UNL     1      -4.663  12.222  -5.285  1.00  0.00     0.074 A 
ATOM     42  C   UNL     1      -2.445  11.679  -4.337  1.00  0.00     0.049 A 
ATOM     43  N   UNL     1      -4.361  12.425  -6.542  1.00  0.00    -0.248 NA
ATOM     44  C   UNL     1      -6.094  12.377  -4.979  1.00  0.00     0.031 C 
ATOM     45  C   UNL     1      -1.481  11.265  -3.316  1.00  0.00     0.029 A 
ATOM     46  N   UNL     1      -1.682  11.840  -5.467  1.00  0.00    -0.354 N 
ATOM     47  C   UNL     1      -5.562  12.715  -7.176  1.00  0.00     0.074 A 
ATOM     48  C   UNL     1      -6.604  12.607  -6.179  1.00  0.00     0.031 C 
ATOM     49  C   UNL     1      -0.255  11.222  -3.860  1.00  0.00     0.029 A 
ATOM     50  C   UNL     1      -0.351  11.560  -5.277  1.00  0.00     0.049 A 
ATOM     51  H   UNL     1      -2.054  12.129  -6.331  1.00  0.00     0.167 HD
ATOM     52  C   UNL     1      -5.771  13.063  -8.468  1.00  0.00     0.037 A 
ATOM     53  C   UNL     1       0.673  11.561  -6.151  1.00  0.00     0.037 A 
ATOM     54  C   UNL     1      -4.726  13.190  -9.449  1.00  0.00     0.049 A 
ATOM     55  C   UNL     1       0.410  11.930  -7.587  1.00  0.00     0.074 A 
ATOM     56  C   UNL     1      -4.825  13.591 -10.769  1.00  0.00     0.029 A 
ATOM     57  N   UNL     1      -3.386  12.914  -9.214  1.00  0.00    -0.354 N 
ATOM     58  N   UNL     1      -0.720  12.264  -8.161  1.00  0.00    -0.248 NA
ATOM     59  C   UNL     1       1.565  11.925  -8.495  1.00  0.00     0.031 C 
ATOM     60  C   UNL     1      -3.556  13.506 -11.349  1.00  0.00     0.029 A 
ATOM     61  C   UNL     1      -2.654  13.110 -10.374  1.00  0.00     0.049 A 
ATOM     62  H   UNL     1      -3.012  12.621  -8.352  1.00  0.00     0.167 HD
ATOM     63  C   UNL     1      -0.408  12.542  -9.485  1.00  0.00     0.074 A 
ATOM     64  C   UNL     1       1.020  12.347  -9.627  1.00  0.00     0.031 C 
ATOM     65  C   UNL     1      -1.230  12.924 -10.493  1.00  0.00     0.037 A 
BRANCH  52  66
ATOM     66  C   UNL     1      -7.186  13.331  -8.896  1.00  0.00     0.064 A 
ATOM     67  C   UNL     1      -7.894  14.453  -8.440  1.00  0.00     0.173 A 
ATOM     68  C   UNL     1      -7.829  12.475  -9.804  1.00  0.00     0.173 A 
ATOM     69  F   UNL     1      -7.330  15.297  -7.563  1.00  0.00    -0.203 F 
ATOM     70  C   UNL     1      -9.203  14.692  -8.852  1.00  0.00     0.198 A 
ATOM     71  C   UNL     1      -9.126  12.735 -10.239  1.00  0.00     0.198 A 
ATOM     72  F   UNL     1      -7.197  11.390 -10.276  1.00  0.00    -0.203 F 
ATOM     73  F   UNL     1      -9.876  15.742  -8.362  1.00  0.00    -0.200 F 
ATOM     74  C   UNL     1      -9.814  13.838  -9.757  1.00  0.00     0.200 A 
ATOM     75  F   UNL     1      -9.710  11.917 -11.125  1.00  0.00    -0.200 F 
ATOM     76  F   UNL     1     -11.071  14.074 -10.159  1.00  0.00    -0.200 F 
ENDBRANCH  52  66
BRANCH  53  77
ATOM     77  C   UNL     1       2.045  11.216  -5.692  1.00  0.00     0.064 A 
ATOM     78  C   UNL     1       3.056  12.186  -5.654  1.00  0.00     0.173 A 
ATOM     79  C   UNL     1       2.377   9.913  -5.292  1.00  0.00     0.173 A 
ATOM     80  F   UNL     1       2.794  13.442  -6.045  1.00  0.00    -0.203 F 
ATOM     81  C   UNL     1       4.352  11.862  -5.257  1.00  0.00     0.198 A 
ATOM     82  C   UNL     1       3.665   9.597  -4.865  1.00  0.00     0.198 A 
ATOM     83  F   UNL     1       1.446   8.948  -5.303  1.00  0.00    -0.203 F 
ATOM     84  F   UNL     1       5.311  12.797  -5.279  1.00  0.00    -0.200 F 
ATOM     85  C   UNL     1       4.654  10.569  -4.858  1.00  0.00     0.200 A 
ATOM     86  F   UNL     1       3.948   8.350  -4.465  1.00  0.00    -0.200 F 
ATOM     87  F   UNL     1       5.899  10.257  -4.473  1.00  0.00    -0.200 F 
ENDBRANCH  53  77
BRANCH  65  88
ATOM     88  C   UNL     1      -0.603  13.201 -11.829  1.00  0.00     0.064 A 
ATOM     89  C   UNL     1      -0.106  12.170 -12.640  1.00  0.00     0.173 A 
ATOM     90  C   UNL     1      -0.547  14.512 -12.326  1.00  0.00     0.173 A 
ATOM     91  F   UNL     1      -0.122  10.901 -12.204  1.00  0.00    -0.203 F 
ATOM     92  C   UNL     1       0.443  12.445 -13.890  1.00  0.00     0.198 A 
ATOM     93  C   UNL     1      -0.028  14.779 -13.589  1.00  0.00     0.198 A 
ATOM     94  F   UNL     1      -1.015  15.534 -11.593  1.00  0.00    -0.203 F 
ATOM     95  F   UNL     1       0.954  11.450 -14.628  1.00  0.00    -0.200 F 
ATOM     96  C   UNL     1       0.473  13.747 -14.367  1.00  0.00     0.200 A 
ATOM     97  F   UNL     1      -0.015  16.036 -14.055  1.00  0.00    -0.200 F 
ATOM     98  F   UNL     1       0.991  14.007 -15.575  1.00  0.00    -0.200 F 
ENDBRANCH  65  88
ENDBRANCH  39  40
ENDBRANCH  31  34
ENDBRANCH  29  30
ENDBRANCH  28  29
ENDBRANCH   1  28
TORSDOF 15
