REMARK SMILES COC(=O)c1ccc(Cl)c(-c2ccc(C(=O)NCCCCCCNC(=O)c3ccc(-c4c5nc(c(-c6c(F)c(F)c(F)c(F)c6F)c6ccc([nH]6)c(-c6c(F)c(F)c(F)c(F)c6F)c6nc(c(-c7c(F)c(F)c(F)c(F)c7F)c7ccc4[nH]7)C=C6)C=C5)cc3)nc2)c1
REMARK SMILES IDX 20 1 19 2 18 3 17 4 15 5 16 6 14 8 11 9 12 10 91 11 13 12
REMARK SMILES IDX 90 13 10 14 5 15 6 16 92 17 7 18 8 19 9 20 3 21 4 22 2 23
REMARK SMILES IDX 1 24 21 25 22 26 23 27 24 28 25 29 26 31 27 32 28 33 89 34
REMARK SMILES IDX 29 35 88 36 30 37 31 38 32 39 82 40 33 41 87 42 81 43 83 44
REMARK SMILES IDX 34 45 86 46 80 47 79 48 35 50 67 51 47 52 66 53 48 54 51 55
REMARK SMILES IDX 65 56 84 57 49 58 50 59 64 61 85 62 52 63 36 64 37 65 45 66
REMARK SMILES IDX 38 67 39 68 43 69 46 70 40 71 41 72 44 73 42 74 68 75 69 76
REMARK SMILES IDX 77 77 70 78 71 79 75 80 78 81 72 82 73 83 76 84 74 85 53 86
REMARK SMILES IDX 54 87 62 88 55 89 56 90 60 91 63 92 57 93 58 94 61 95 59 96
REMARK H PARENT 17 7 24 30 83 49 51 60
REMARK Flexibility Score: inf
ROOT
ATOM      1  C   UNL     1       5.017 -13.336  -2.476  1.00  0.00     0.002 C 
ENDROOT
BRANCH   1   2
ATOM      2  C   UNL     1       4.106 -12.130  -2.202  1.00  0.00     0.021 C 
BRANCH   2   3
ATOM      3  C   UNL     1       3.650 -12.052  -0.743  1.00  0.00     0.116 C 
BRANCH   3   4
ATOM      4  N   UNL     1       4.654 -11.385   0.056  1.00  0.00    -0.351 N 
ATOM      5  C   UNL     1       4.769 -10.129   0.601  1.00  0.00     0.269 C 
ATOM      6  O   UNL     1       5.814  -9.917   1.223  1.00  0.00    -0.268 OA
ATOM      7  H   UNL     1       5.429 -11.960   0.254  1.00  0.00     0.163 HD
BRANCH   5   8
ATOM      8  C   UNL     1       3.718  -9.051   0.512  1.00  0.00     0.128 A 
ATOM      9  C   UNL     1       1.861  -6.982   0.606  1.00  0.00     0.002 A 
ATOM     10  C   UNL     1       1.724  -8.011  -0.326  1.00  0.00     0.013 A 
ATOM     11  C   UNL     1       2.977  -7.041   1.432  1.00  0.00     0.120 A 
ATOM     12  C   UNL     1       2.675  -9.029  -0.401  1.00  0.00     0.035 A 
ATOM     13  N   UNL     1       3.882  -8.046   1.417  1.00  0.00    -0.250 NA
BRANCH   9  14
ATOM     14  C   UNL     1       0.909  -5.871   0.635  1.00  0.00     0.003 A 
ATOM     15  C   UNL     1       0.429  -3.546   0.064  1.00  0.00     0.060 A 
ATOM     16  C   UNL     1      -0.895  -3.701   0.481  1.00  0.00     0.017 A 
ATOM     17  C   UNL     1       1.320  -4.624   0.133  1.00  0.00     0.026 A 
ATOM     18  C   UNL     1      -1.317  -4.931   0.990  1.00  0.00     0.022 A 
ATOM     19  C   UNL     1      -0.422  -6.004   1.075  1.00  0.00     0.048 A 
ATOM     20  Cl  UNL     1      -1.020  -7.488   1.736  1.00  0.00    -0.084 Cl
BRANCH  15  21
ATOM     21  C   UNL     1       0.940  -2.268  -0.479  1.00  0.00     0.337 C 
ATOM     22  O   UNL     1       1.799  -2.198  -1.336  1.00  0.00    -0.246 OA
BRANCH  21  23
ATOM     23  O   UNL     1       0.378  -1.239   0.201  1.00  0.00    -0.465 OA
ATOM     24  C   UNL     1       0.952   0.029  -0.115  1.00  0.00     0.282 C 
ENDBRANCH  21  23
ENDBRANCH  15  21
ENDBRANCH   9  14
ENDBRANCH   5   8
ENDBRANCH   3   4
ENDBRANCH   2   3
ENDBRANCH   1   2
BRANCH   1  25
ATOM     25  C   UNL     1       4.382 -14.699  -2.164  1.00  0.00     0.002 C 
BRANCH  25  26
ATOM     26  C   UNL     1       3.022 -14.934  -2.825  1.00  0.00     0.021 C 
BRANCH  26  27
ATOM     27  C   UNL     1       3.066 -14.907  -4.348  1.00  0.00     0.116 C 
BRANCH  27  28
ATOM     28  N   UNL     1       3.913 -15.967  -4.871  1.00  0.00    -0.352 N 
ATOM     29  C   UNL     1       3.590 -17.002  -5.709  1.00  0.00     0.251 C 
ATOM     30  H   UNL     1       4.854 -15.937  -4.582  1.00  0.00     0.163 HD
ATOM     31  O   UNL     1       4.349 -17.958  -5.836  1.00  0.00    -0.269 OA
BRANCH  29  32
ATOM     32  C   UNL     1       2.318 -16.964  -6.457  1.00  0.00     0.039 A 
ATOM     33  C   UNL     1       1.554 -18.129  -6.555  1.00  0.00     0.014 A 
ATOM     34  C   UNL     1       1.893 -15.785  -7.075  1.00  0.00     0.014 A 
ATOM     35  C   UNL     1       0.336 -18.097  -7.234  1.00  0.00     0.010 A 
ATOM     36  C   UNL     1       0.643 -15.735  -7.681  1.00  0.00     0.010 A 
ATOM     37  C   UNL     1      -0.143 -16.892  -7.775  1.00  0.00    -0.014 A 
BRANCH  37  38
ATOM     38  C   UNL     1      -1.464 -16.827  -8.449  1.00  0.00     0.031 A 
ATOM     39  C   UNL     1      -1.550 -16.478  -9.908  1.00  0.00     0.074 A 
ATOM     40  C   UNL     1      -2.585 -17.027  -7.730  1.00  0.00     0.049 A 
ATOM     41  N   UNL     1      -2.610 -16.310 -10.658  1.00  0.00    -0.248 NA
ATOM     42  C   UNL     1      -0.277 -16.261 -10.615  1.00  0.00     0.031 C 
ATOM     43  C   UNL     1      -2.629 -17.328  -6.298  1.00  0.00     0.029 A 
ATOM     44  N   UNL     1      -3.906 -16.998  -8.103  1.00  0.00    -0.354 N 
ATOM     45  C   UNL     1      -2.133 -15.960 -11.914  1.00  0.00     0.074 A 
ATOM     46  C   UNL     1      -0.693 -15.881 -11.814  1.00  0.00     0.031 C 
ATOM     47  C   UNL     1      -3.908 -17.479  -5.919  1.00  0.00     0.029 A 
ATOM     48  C   UNL     1      -4.775 -17.241  -7.068  1.00  0.00     0.049 A 
ATOM     49  H   UNL     1      -4.201 -16.819  -9.024  1.00  0.00     0.167 HD
ATOM     50  C   UNL     1      -2.834 -15.748 -13.053  1.00  0.00     0.037 A 
ATOM     51  C   UNL     1      -6.122 -17.258  -7.047  1.00  0.00     0.037 A 
ATOM     52  C   UNL     1      -4.266 -15.848 -13.150  1.00  0.00     0.049 A 
ATOM     53  C   UNL     1      -6.875 -16.999  -8.325  1.00  0.00     0.074 A 
ATOM     54  C   UNL     1      -5.067 -15.709 -14.270  1.00  0.00     0.029 A 
ATOM     55  N   UNL     1      -5.114 -16.108 -12.082  1.00  0.00    -0.354 N 
ATOM     56  N   UNL     1      -6.410 -16.741  -9.523  1.00  0.00    -0.248 NA
ATOM     57  C   UNL     1      -8.341 -17.040  -8.248  1.00  0.00     0.031 C 
ATOM     58  C   UNL     1      -6.402 -15.824 -13.870  1.00  0.00     0.029 A 
ATOM     59  C   UNL     1      -6.431 -16.103 -12.513  1.00  0.00     0.049 A 
ATOM     60  H   UNL     1      -4.823 -16.272 -11.156  1.00  0.00     0.167 HD
ATOM     61  C   UNL     1      -7.521 -16.623 -10.347  1.00  0.00     0.074 A 
ATOM     62  C   UNL     1      -8.683 -16.855  -9.515  1.00  0.00     0.031 C 
ATOM     63  C   UNL     1      -7.576 -16.347 -11.673  1.00  0.00     0.037 A 
BRANCH  50  64
ATOM     64  C   UNL     1      -2.064 -15.386 -14.291  1.00  0.00     0.064 A 
ATOM     65  C   UNL     1      -1.229 -16.309 -14.939  1.00  0.00     0.173 A 
ATOM     66  C   UNL     1      -2.204 -14.114 -14.869  1.00  0.00     0.173 A 
ATOM     67  F   UNL     1      -1.050 -17.535 -14.423  1.00  0.00    -0.203 F 
ATOM     68  C   UNL     1      -0.544 -15.966 -16.102  1.00  0.00     0.198 A 
ATOM     69  C   UNL     1      -1.545 -13.786 -16.051  1.00  0.00     0.198 A 
ATOM     70  F   UNL     1      -2.994 -13.194 -14.296  1.00  0.00    -0.203 F 
ATOM     71  F   UNL     1       0.284 -16.850 -16.675  1.00  0.00    -0.200 F 
ATOM     72  C   UNL     1      -0.711 -14.709 -16.662  1.00  0.00     0.200 A 
ATOM     73  F   UNL     1      -1.720 -12.575 -16.599  1.00  0.00    -0.200 F 
ATOM     74  F   UNL     1      -0.062 -14.385 -17.789  1.00  0.00    -0.200 F 
ENDBRANCH  50  64
BRANCH  51  75
ATOM     75  C   UNL     1      -6.847 -17.538  -5.779  1.00  0.00     0.064 A 
ATOM     76  C   UNL     1      -7.607 -18.706  -5.623  1.00  0.00     0.173 A 
ATOM     77  C   UNL     1      -6.816 -16.634  -4.706  1.00  0.00     0.173 A 
ATOM     78  F   UNL     1      -7.683 -19.593  -6.627  1.00  0.00    -0.203 F 
ATOM     79  C   UNL     1      -8.333 -18.944  -4.458  1.00  0.00     0.198 A 
ATOM     80  C   UNL     1      -7.515 -16.890  -3.528  1.00  0.00     0.198 A 
ATOM     81  F   UNL     1      -6.099 -15.505  -4.798  1.00  0.00    -0.203 F 
ATOM     82  F   UNL     1      -9.100 -20.039  -4.362  1.00  0.00    -0.200 F 
ATOM     83  C   UNL     1      -8.283 -18.038  -3.410  1.00  0.00     0.200 A 
ATOM     84  F   UNL     1      -7.449 -16.020  -2.511  1.00  0.00    -0.200 F 
ATOM     85  F   UNL     1      -8.983 -18.266  -2.290  1.00  0.00    -0.200 F 
ENDBRANCH  51  75
BRANCH  63  86
ATOM     86  C   UNL     1      -8.933 -16.325 -12.318  1.00  0.00     0.064 A 
ATOM     87  C   UNL     1      -9.863 -15.310 -12.052  1.00  0.00     0.173 A 
ATOM     88  C   UNL     1      -9.290 -17.315 -13.248  1.00  0.00     0.173 A 
ATOM     89  F   UNL     1      -9.577 -14.348 -11.161  1.00  0.00    -0.203 F 
ATOM     90  C   UNL     1     -11.112 -15.304 -12.668  1.00  0.00     0.198 A 
ATOM     91  C   UNL     1     -10.525 -17.285 -13.889  1.00  0.00     0.198 A 
ATOM     92  F   UNL     1      -8.434 -18.304 -13.546  1.00  0.00    -0.203 F 
ATOM     93  F   UNL     1     -12.005 -14.355 -12.356  1.00  0.00    -0.200 F 
ATOM     94  C   UNL     1     -11.438 -16.286 -13.592  1.00  0.00     0.200 A 
ATOM     95  F   UNL     1     -10.830 -18.224 -14.795  1.00  0.00    -0.200 F 
ATOM     96  F   UNL     1     -12.637 -16.272 -14.191  1.00  0.00    -0.200 F 
ENDBRANCH  63  86
ENDBRANCH  37  38
ENDBRANCH  29  32
ENDBRANCH  27  28
ENDBRANCH  26  27
ENDBRANCH  25  26
ENDBRANCH   1  25
TORSDOF 16
