REMARK SMILES COc1cccc([C@@H]2CN(C(=O)c3cnn(C)c3)C[C@H]2C(=O)NCCCCCCNC(=O)c2ccc(-c3c4nc(c(-c5c(F)c(F)c(F)c(F)c5F)c5ccc([nH]5)c(-c5c(F)c(F)c(F)c(F)c5F)c5nc(c(-c6c(F)c(F)c(F)c(F)c6F)c6ccc3[nH]6)C=C5)C=C4)cc2)c1OC
REMARK SMILES IDX 26 1 25 2 24 3 23 4 21 5 22 6 20 8 8 9 9 10 10 11 19 12 7 13
REMARK SMILES IDX 3 14 4 15 96 16 5 17 6 18 2 19 1 20 97 21 98 22 11 23 12 24
REMARK SMILES IDX 13 25 14 26 18 27 15 28 16 29 17 30 27 31 28 32 29 33 30 34
REMARK SMILES IDX 31 35 32 37 33 38 34 39 95 40 35 41 94 42 36 43 37 44 38 45
REMARK SMILES IDX 88 46 39 47 93 48 87 49 89 50 40 51 92 52 86 53 85 54 41 56
REMARK SMILES IDX 73 57 53 58 72 59 54 60 57 61 71 62 90 63 55 64 56 65 70 67
REMARK SMILES IDX 91 68 58 69 42 70 43 71 51 72 44 73 45 74 49 75 52 76 46 77
REMARK SMILES IDX 47 78 50 79 48 80 74 81 75 82 83 83 76 84 77 85 81 86 84 87
REMARK SMILES IDX 78 88 79 89 82 90 80 91 59 92 60 93 68 94 61 95 62 96 66 97
REMARK SMILES IDX 69 98 63 99 64 100 67 101 65 102
REMARK H PARENT 23 7 30 36 89 55 57 66
REMARK Flexibility Score: inf
ROOT
ATOM      1  C   UNL     1       4.122  -2.866  -8.738  1.00  0.00     0.002 C 
ENDROOT
BRANCH   1   2
ATOM      2  C   UNL     1       4.438  -3.399  -7.336  1.00  0.00     0.021 C 
BRANCH   2   3
ATOM      3  C   UNL     1       5.297  -2.489  -6.460  1.00  0.00     0.116 C 
BRANCH   3   4
ATOM      4  N   UNL     1       4.628  -1.244  -6.131  1.00  0.00    -0.356 N 
ATOM      5  C   UNL     1       4.311  -0.672  -4.940  1.00  0.00     0.225 C 
ATOM      6  O   UNL     1       3.799   0.451  -4.984  1.00  0.00    -0.275 OA
ATOM      7  H   UNL     1       4.354  -0.716  -6.915  1.00  0.00     0.163 HD
BRANCH   5   8
ATOM      8  C   UNL     1       4.534  -1.350  -3.598  1.00  0.00     0.107 C 
ATOM      9  C   UNL     1       3.703  -2.634  -3.413  1.00  0.00     0.057 C 
ATOM     10  C   UNL     1       4.617  -3.578  -2.624  1.00  0.00     0.129 C 
ATOM     11  N   UNL     1       5.965  -3.156  -2.974  1.00  0.00    -0.337 N 
ATOM     12  C   UNL     1       5.983  -1.748  -3.340  1.00  0.00     0.134 C 
BRANCH   9  13
ATOM     13  C   UNL     1       2.321  -2.431  -2.815  1.00  0.00     0.004 A 
ATOM     14  C   UNL     1       0.788  -1.706  -1.059  1.00  0.00     0.161 A 
ATOM     15  C   UNL     1      -0.297  -2.111  -1.846  1.00  0.00     0.050 A 
ATOM     16  C   UNL     1       2.103  -1.875  -1.532  1.00  0.00     0.164 A 
ATOM     17  C   UNL     1      -0.088  -2.645  -3.113  1.00  0.00     0.004 A 
ATOM     18  C   UNL     1       1.208  -2.797  -3.595  1.00  0.00     0.008 A 
BRANCH  14  19
ATOM     19  O   UNL     1       0.569  -1.240   0.213  1.00  0.00    -0.493 OA
ATOM     20  C   UNL     1      -0.367  -0.162   0.258  1.00  0.00     0.278 C 
ENDBRANCH  14  19
BRANCH  16  21
ATOM     21  O   UNL     1       3.242  -1.583  -0.823  1.00  0.00    -0.493 OA
ATOM     22  C   UNL     1       3.189  -0.482   0.077  1.00  0.00     0.278 C 
ENDBRANCH  16  21
ENDBRANCH   9  13
BRANCH  11  23
ATOM     23  C   UNL     1       7.160  -3.813  -2.723  1.00  0.00     0.257 C 
ATOM     24  O   UNL     1       8.238  -3.227  -2.820  1.00  0.00    -0.269 OA
BRANCH  23  25
ATOM     25  C   UNL     1       7.126  -5.210  -2.330  1.00  0.00     0.077 A 
ATOM     26  C   UNL     1       7.965  -5.833  -1.376  1.00  0.00     0.149 A 
ATOM     27  C   UNL     1       6.388  -6.259  -2.847  1.00  0.00     0.122 A 
ATOM     28  N   UNL     1       7.729  -7.142  -1.252  1.00  0.00    -0.181 NA
ATOM     29  N   UNL     1       6.769  -7.376  -2.161  1.00  0.00    -0.275 N 
ATOM     30  C   UNL     1       6.272  -8.719  -2.338  1.00  0.00     0.173 C 
ENDBRANCH  23  25
ENDBRANCH  11  23
ENDBRANCH   5   8
ENDBRANCH   3   4
ENDBRANCH   2   3
ENDBRANCH   1   2
BRANCH   1  31
ATOM     31  C   UNL     1       5.325  -2.490  -9.609  1.00  0.00     0.002 C 
BRANCH  31  32
ATOM     32  C   UNL     1       6.422  -3.549  -9.755  1.00  0.00     0.021 C 
BRANCH  32  33
ATOM     33  C   UNL     1       5.969  -4.930 -10.225  1.00  0.00     0.116 C 
BRANCH  33  34
ATOM     34  N   UNL     1       5.384  -4.920 -11.552  1.00  0.00    -0.352 N 
ATOM     35  C   UNL     1       5.474  -5.864 -12.546  1.00  0.00     0.251 C 
ATOM     36  H   UNL     1       4.846  -4.125 -11.771  1.00  0.00     0.163 HD
ATOM     37  O   UNL     1       4.982  -5.642 -13.648  1.00  0.00    -0.269 OA
BRANCH  35  38
ATOM     38  C   UNL     1       6.191  -7.139 -12.313  1.00  0.00     0.039 A 
ATOM     39  C   UNL     1       7.096  -7.577 -13.286  1.00  0.00     0.014 A 
ATOM     40  C   UNL     1       5.949  -7.924 -11.181  1.00  0.00     0.014 A 
ATOM     41  C   UNL     1       7.800  -8.770 -13.102  1.00  0.00     0.010 A 
ATOM     42  C   UNL     1       6.670  -9.104 -10.985  1.00  0.00     0.010 A 
ATOM     43  C   UNL     1       7.604  -9.532 -11.941  1.00  0.00    -0.014 A 
BRANCH  43  44
ATOM     44  C   UNL     1       8.376 -10.777 -11.715  1.00  0.00     0.031 A 
ATOM     45  C   UNL     1       7.733 -12.117 -11.912  1.00  0.00     0.074 A 
ATOM     46  C   UNL     1       9.649 -10.699 -11.288  1.00  0.00     0.049 A 
ATOM     47  N   UNL     1       8.228 -13.310 -11.696  1.00  0.00    -0.248 NA
ATOM     48  C   UNL     1       6.347 -12.118 -12.402  1.00  0.00     0.031 C 
ATOM     49  C   UNL     1      10.381  -9.458 -11.033  1.00  0.00     0.029 A 
ATOM     50  N   UNL     1      10.549 -11.689 -10.983  1.00  0.00    -0.354 N 
ATOM     51  C   UNL     1       7.209 -14.201 -11.995  1.00  0.00     0.074 A 
ATOM     52  C   UNL     1       6.066 -13.415 -12.412  1.00  0.00     0.031 C 
ATOM     53  C   UNL     1      11.621  -9.761 -10.613  1.00  0.00     0.029 A 
ATOM     54  C   UNL     1      11.763 -11.213 -10.558  1.00  0.00     0.049 A 
ATOM     55  H   UNL     1      10.342 -12.648 -11.061  1.00  0.00     0.167 HD
ATOM     56  C   UNL     1       7.225 -15.553 -11.927  1.00  0.00     0.037 A 
ATOM     57  C   UNL     1      12.867 -11.876 -10.166  1.00  0.00     0.037 A 
ATOM     58  C   UNL     1       8.364 -16.346 -11.552  1.00  0.00     0.049 A 
ATOM     59  C   UNL     1      12.877 -13.376 -10.158  1.00  0.00     0.074 A 
ATOM     60  C   UNL     1       8.477 -17.725 -11.495  1.00  0.00     0.029 A 
ATOM     61  N   UNL     1       9.593 -15.828 -11.178  1.00  0.00    -0.354 N 
ATOM     62  N   UNL     1      11.912 -14.207 -10.461  1.00  0.00    -0.248 NA
ATOM     63  C   UNL     1      14.132 -14.028  -9.755  1.00  0.00     0.031 C 
ATOM     64  C   UNL     1       9.777 -18.042 -11.080  1.00  0.00     0.029 A 
ATOM     65  C   UNL     1      10.471 -16.859 -10.887  1.00  0.00     0.049 A 
ATOM     66  H   UNL     1       9.810 -14.869 -11.127  1.00  0.00     0.167 HD
ATOM     67  C   UNL     1      12.440 -15.478 -10.291  1.00  0.00     0.074 A 
ATOM     68  C   UNL     1      13.814 -15.312  -9.864  1.00  0.00     0.031 C 
ATOM     69  C   UNL     1      11.835 -16.676 -10.471  1.00  0.00     0.037 A 
BRANCH  56  70
ATOM     70  C   UNL     1       5.954 -16.265 -12.260  1.00  0.00     0.064 A 
ATOM     71  C   UNL     1       5.611 -16.560 -13.585  1.00  0.00     0.173 A 
ATOM     72  C   UNL     1       5.088 -16.681 -11.239  1.00  0.00     0.173 A 
ATOM     73  F   UNL     1       6.407 -16.167 -14.591  1.00  0.00    -0.203 F 
ATOM     74  C   UNL     1       4.435 -17.244 -13.880  1.00  0.00     0.198 A 
ATOM     75  C   UNL     1       3.917 -17.372 -11.538  1.00  0.00     0.198 A 
ATOM     76  F   UNL     1       5.376 -16.414  -9.957  1.00  0.00    -0.203 F 
ATOM     77  F   UNL     1       4.113 -17.501 -15.155  1.00  0.00    -0.200 F 
ATOM     78  C   UNL     1       3.591 -17.651 -12.857  1.00  0.00     0.200 A 
ATOM     79  F   UNL     1       3.101 -17.763 -10.549  1.00  0.00    -0.200 F 
ATOM     80  F   UNL     1       2.459 -18.308 -13.143  1.00  0.00    -0.200 F 
ENDBRANCH  56  70
BRANCH  57  81
ATOM     81  C   UNL     1      14.067 -11.112  -9.758  1.00  0.00     0.064 A 
ATOM     82  C   UNL     1      15.112 -10.886 -10.662  1.00  0.00     0.173 A 
ATOM     83  C   UNL     1      14.182 -10.584  -8.466  1.00  0.00     0.173 A 
ATOM     84  F   UNL     1      15.044 -11.392 -11.902  1.00  0.00    -0.203 F 
ATOM     85  C   UNL     1      16.236 -10.156 -10.287  1.00  0.00     0.198 A 
ATOM     86  C   UNL     1      15.304  -9.847  -8.094  1.00  0.00     0.198 A 
ATOM     87  F   UNL     1      13.204 -10.783  -7.571  1.00  0.00    -0.203 F 
ATOM     88  F   UNL     1      17.232  -9.964 -11.162  1.00  0.00    -0.200 F 
ATOM     89  C   UNL     1      16.330  -9.635  -9.004  1.00  0.00     0.200 A 
ATOM     90  F   UNL     1      15.393  -9.345  -6.855  1.00  0.00    -0.200 F 
ATOM     91  F   UNL     1      17.412  -8.932  -8.643  1.00  0.00    -0.200 F 
ENDBRANCH  57  81
BRANCH  69  92
ATOM     92  C   UNL     1      12.658 -17.897 -10.216  1.00  0.00     0.064 A 
ATOM     93  C   UNL     1      12.784 -18.424  -8.924  1.00  0.00     0.173 A 
ATOM     94  C   UNL     1      13.296 -18.561 -11.271  1.00  0.00     0.173 A 
ATOM     95  F   UNL     1      12.198 -17.810  -7.884  1.00  0.00    -0.203 F 
ATOM     96  C   UNL     1      13.528 -19.578  -8.696  1.00  0.00     0.198 A 
ATOM     97  C   UNL     1      14.035 -19.718 -11.041  1.00  0.00     0.198 A 
ATOM     98  F   UNL     1      13.205 -18.085 -12.522  1.00  0.00    -0.203 F 
ATOM     99  F   UNL     1      13.652 -20.059  -7.451  1.00  0.00    -0.200 F 
ATOM    100  C   UNL     1      14.151 -20.224  -9.754  1.00  0.00     0.200 A 
ATOM    101  F   UNL     1      14.639 -20.340 -12.062  1.00  0.00    -0.200 F 
ATOM    102  F   UNL     1      14.870 -21.333  -9.532  1.00  0.00    -0.200 F 
ENDBRANCH  69  92
ENDBRANCH  43  44
ENDBRANCH  35  38
ENDBRANCH  33  34
ENDBRANCH  32  33
ENDBRANCH  31  32
ENDBRANCH   1  31
TORSDOF 18
