REMARK SMILES CC[N@@H+]1CCO[C@H](C[N@H+]2CCCCC[C@@H]2C(=O)NCCCCCCNC(=O)c2ccc(-c3c4nc(c(-c5c(F)c(F)c(F)c(F)c5F)c5ccc([nH]5)c(-c5c(F)c(F)c(F)c(F)c5F)c5nc(c(-c6c(F)c(F)c(F)c(F)c6F)c6ccc3[nH]6)C=C5)C=C4)cc2)C1
REMARK SMILES IDX 20 1 19 2 18 3 16 4 17 5 15 7 9 8 8 10 7 11 3 12 4 13 91 14
REMARK SMILES IDX 5 16 6 17 2 18 1 19 10 20 11 21 14 23 13 24 12 25 21 27
REMARK SMILES IDX 22 28 23 29 24 30 25 31 26 32 27 34 28 35 29 36 90 37 30 38
REMARK SMILES IDX 89 39 31 40 32 41 33 42 83 43 34 44 88 45 82 46 84 47 35 48
REMARK SMILES IDX 87 49 81 50 80 51 36 53 68 54 48 55 67 56 49 57 52 58 66 59
REMARK SMILES IDX 85 60 50 61 51 62 65 64 86 65 53 66 37 67 38 68 46 69 39 70
REMARK SMILES IDX 40 71 44 72 47 73 41 74 42 75 45 76 43 77 69 78 70 79 78 80
REMARK SMILES IDX 71 81 72 82 76 83 79 84 73 85 74 86 77 87 75 88 54 89 55 90
REMARK SMILES IDX 63 91 56 92 57 93 61 94 64 95 58 96 59 97 62 98 60 99
REMARK H PARENT 18 6 9 9 3 15 25 33 84 52 52 63
REMARK Flexibility Score: 90.00
ROOT
ATOM      1  C   UNL     1       2.830  -2.474  -5.547  1.00  0.00     0.021 C 
ENDROOT
BRANCH   1   2
ATOM      2  C   UNL     1       2.363  -2.141  -4.129  1.00  0.00     0.116 C 
BRANCH   2   3
ATOM      3  N   UNL     1       3.433  -2.336  -3.175  1.00  0.00    -0.351 N 
ATOM      4  C   UNL     1       4.128  -1.433  -2.429  1.00  0.00     0.278 C 
ATOM      5  O   UNL     1       5.022  -1.888  -1.704  1.00  0.00    -0.268 OA
ATOM      6  H   UNL     1       3.702  -3.274  -3.044  1.00  0.00     0.163 HD
BRANCH   4   7
ATOM      7  C   UNL     1       3.851   0.100  -2.449  1.00  0.00     0.274 C 
BRANCH   7   8
ATOM      8  N   UNL     1       2.429   0.387  -2.155  1.00  0.00    -0.322 N 
ATOM      9  H   UNL     1       1.915  -0.286  -2.723  1.00  0.00     0.348 HD
BRANCH   8  10
ATOM     10  C   UNL     1       2.110   0.155  -0.713  1.00  0.00     0.301 C 
BRANCH  10  11
ATOM     11  C   UNL     1       2.635   1.170   0.352  1.00  0.00     0.228 C 
ATOM     12  N   UNL     1       1.152   0.982   2.457  1.00  0.00    -0.331 N 
ATOM     13  C   UNL     1       0.596   2.278   2.083  1.00  0.00     0.291 C 
ATOM     14  C   UNL     1       2.439   0.695   1.823  1.00  0.00     0.300 C 
ATOM     15  H   UNL     1       1.414   1.093   3.437  1.00  0.00     0.348 HD
ATOM     16  C   UNL     1       0.743   2.610   0.600  1.00  0.00     0.222 C 
ATOM     17  O   UNL     1       2.102   2.497   0.168  1.00  0.00    -0.361 OA
BRANCH  12  18
ATOM     18  C   UNL     1       0.224  -0.110   2.693  1.00  0.00     0.258 C 
ATOM     19  C   UNL     1      -0.171  -0.963   1.500  1.00  0.00     0.071 C 
ENDBRANCH  12  18
ENDBRANCH  10  11
ENDBRANCH   8  10
BRANCH   8  20
ATOM     20  C   UNL     1       1.939   1.689  -2.609  1.00  0.00     0.262 C 
BRANCH  20  21
ATOM     21  C   UNL     1       1.577   1.709  -4.093  1.00  0.00     0.061 CG0
ATOM     22  G   UNL     1       2.748   1.953  -5.028  1.00  0.00     0.000 G0
ENDBRANCH  20  21
ENDBRANCH   8  20
ENDBRANCH   7   8
BRANCH   7  23
ATOM     23  C   UNL     1       4.567   0.813  -3.614  1.00  0.00     0.076 C 
BRANCH  23  24
ATOM     24  C   UNL     1       3.874   0.934  -4.962  1.00  0.00     0.007 C 
BRANCH  24  25
ATOM     25  C   UNL     1       2.748   1.953  -5.028  1.00  0.00     0.006 CG0
ATOM     26  G   UNL     1       1.577   1.709  -4.093  1.00  0.00     0.000 G0
ENDBRANCH  24  25
ENDBRANCH  23  24
ENDBRANCH   7  23
ENDBRANCH   4   7
ENDBRANCH   2   3
ENDBRANCH   1   2
BRANCH   1  27
ATOM     27  C   UNL     1       2.633  -3.934  -5.954  1.00  0.00     0.002 C 
BRANCH  27  28
ATOM     28  C   UNL     1       1.173  -4.384  -6.068  1.00  0.00     0.002 C 
BRANCH  28  29
ATOM     29  C   UNL     1       0.270  -3.502  -6.937  1.00  0.00     0.021 C 
BRANCH  29  30
ATOM     30  C   UNL     1       0.779  -3.241  -8.352  1.00  0.00     0.116 C 
BRANCH  30  31
ATOM     31  N   UNL     1       0.958  -4.468  -9.110  1.00  0.00    -0.352 N 
ATOM     32  C   UNL     1       0.412  -4.845 -10.307  1.00  0.00     0.251 C 
ATOM     33  H   UNL     1       1.563  -5.128  -8.700  1.00  0.00     0.163 HD
ATOM     34  O   UNL     1       0.534  -6.006 -10.701  1.00  0.00    -0.269 OA
BRANCH  32  35
ATOM     35  C   UNL     1      -0.339  -3.873 -11.128  1.00  0.00     0.039 A 
ATOM     36  C   UNL     1      -1.538  -4.279 -11.720  1.00  0.00     0.014 A 
ATOM     37  C   UNL     1       0.149  -2.581 -11.345  1.00  0.00     0.014 A 
ATOM     38  C   UNL     1      -2.272  -3.375 -12.490  1.00  0.00     0.010 A 
ATOM     39  C   UNL     1      -0.617  -1.660 -12.057  1.00  0.00     0.010 A 
ATOM     40  C   UNL     1      -1.830  -2.051 -12.644  1.00  0.00    -0.014 A 
BRANCH  40  41
ATOM     41  C   UNL     1      -2.625  -1.069 -13.425  1.00  0.00     0.031 A 
ATOM     42  C   UNL     1      -2.079  -0.497 -14.704  1.00  0.00     0.074 A 
ATOM     43  C   UNL     1      -3.821  -0.662 -12.959  1.00  0.00     0.049 A 
ATOM     44  N   UNL     1      -2.609   0.392 -15.506  1.00  0.00    -0.248 NA
ATOM     45  C   UNL     1      -0.750  -0.967 -15.125  1.00  0.00     0.031 C 
ATOM     46  C   UNL     1      -4.435  -1.108 -11.707  1.00  0.00     0.029 A 
ATOM     47  N   UNL     1      -4.731   0.223 -13.479  1.00  0.00    -0.354 N 
ATOM     48  C   UNL     1      -1.678   0.593 -16.516  1.00  0.00     0.074 A 
ATOM     49  C   UNL     1      -0.526  -0.223 -16.198  1.00  0.00     0.031 C 
ATOM     50  C   UNL     1      -5.632  -0.515 -11.570  1.00  0.00     0.029 A 
ATOM     51  C   UNL     1      -5.855   0.376 -12.705  1.00  0.00     0.049 A 
ATOM     52  H   UNL     1      -4.592   0.703 -14.328  1.00  0.00     0.167 HD
ATOM     53  C   UNL     1      -1.783   1.368 -17.622  1.00  0.00     0.037 A 
ATOM     54  C   UNL     1      -6.942   1.148 -12.890  1.00  0.00     0.037 A 
ATOM     55  C   UNL     1      -2.940   2.162 -17.947  1.00  0.00     0.049 A 
ATOM     56  C   UNL     1      -7.035   1.999 -14.127  1.00  0.00     0.074 A 
ATOM     57  C   UNL     1      -3.166   2.941 -19.068  1.00  0.00     0.029 A 
ATOM     58  N   UNL     1      -4.066   2.279 -17.146  1.00  0.00    -0.354 N 
ATOM     59  N   UNL     1      -6.176   2.130 -15.110  1.00  0.00    -0.248 NA
ATOM     60  C   UNL     1      -8.255   2.803 -14.287  1.00  0.00     0.031 C 
ATOM     61  C   UNL     1      -4.411   3.563 -18.926  1.00  0.00     0.029 A 
ATOM     62  C   UNL     1      -4.983   3.132 -17.740  1.00  0.00     0.049 A 
ATOM     63  H   UNL     1      -4.196   1.823 -16.283  1.00  0.00     0.167 HD
ATOM     64  C   UNL     1      -6.761   3.004 -16.015  1.00  0.00     0.074 A 
ATOM     65  C   UNL     1      -8.057   3.360 -15.473  1.00  0.00     0.031 C 
ATOM     66  C   UNL     1      -6.271   3.471 -17.189  1.00  0.00     0.037 A 
BRANCH  53  67
ATOM     67  C   UNL     1      -0.616   1.391 -18.567  1.00  0.00     0.064 A 
ATOM     68  C   UNL     1      -0.280   0.274 -19.348  1.00  0.00     0.173 A 
ATOM     69  C   UNL     1       0.156   2.553 -18.720  1.00  0.00     0.173 A 
ATOM     70  F   UNL     1      -0.979  -0.865 -19.232  1.00  0.00    -0.203 F 
ATOM     71  C   UNL     1       0.803   0.309 -20.222  1.00  0.00     0.198 A 
ATOM     72  C   UNL     1       1.219   2.594 -19.619  1.00  0.00     0.198 A 
ATOM     73  F   UNL     1      -0.125   3.652 -18.003  1.00  0.00    -0.203 F 
ATOM     74  F   UNL     1       1.135  -0.786 -20.919  1.00  0.00    -0.200 F 
ATOM     75  C   UNL     1       1.547   1.471 -20.362  1.00  0.00     0.200 A 
ATOM     76  F   UNL     1       1.929   3.722 -19.763  1.00  0.00    -0.200 F 
ATOM     77  F   UNL     1       2.585   1.505 -21.209  1.00  0.00    -0.200 F 
ENDBRANCH  53  67
BRANCH  54  78
ATOM     78  C   UNL     1      -8.046   1.125 -11.896  1.00  0.00     0.064 A 
ATOM     79  C   UNL     1      -9.287   0.553 -12.213  1.00  0.00     0.173 A 
ATOM     80  C   UNL     1      -7.889   1.674 -10.616  1.00  0.00     0.173 A 
ATOM     81  F   UNL     1      -9.492   0.034 -13.433  1.00  0.00    -0.203 F 
ATOM     82  C   UNL     1     -10.334   0.550 -11.295  1.00  0.00     0.198 A 
ATOM     83  C   UNL     1      -8.928   1.645  -9.688  1.00  0.00     0.198 A 
ATOM     84  F   UNL     1      -6.720   2.228 -10.261  1.00  0.00    -0.203 F 
ATOM     85  F   UNL     1     -11.523   0.039 -11.640  1.00  0.00    -0.200 F 
ATOM     86  C   UNL     1     -10.152   1.091 -10.031  1.00  0.00     0.200 A 
ATOM     87  F   UNL     1      -8.744   2.155  -8.463  1.00  0.00    -0.200 F 
ATOM     88  F   UNL     1     -11.158   1.085  -9.146  1.00  0.00    -0.200 F 
ENDBRANCH  54  78
BRANCH  66  89
ATOM     89  C   UNL     1      -7.154   4.389 -17.984  1.00  0.00     0.064 A 
ATOM     90  C   UNL     1      -7.412   5.705 -17.569  1.00  0.00     0.173 A 
ATOM     91  C   UNL     1      -7.724   3.956 -19.189  1.00  0.00     0.173 A 
ATOM     92  F   UNL     1      -6.902   6.162 -16.416  1.00  0.00    -0.203 F 
ATOM     93  C   UNL     1      -8.236   6.541 -18.318  1.00  0.00     0.198 A 
ATOM     94  C   UNL     1      -8.522   4.806 -19.951  1.00  0.00     0.198 A 
ATOM     95  F   UNL     1      -7.503   2.710 -19.635  1.00  0.00    -0.203 F 
ATOM     96  F   UNL     1      -8.512   7.776 -17.875  1.00  0.00    -0.200 F 
ATOM     97  C   UNL     1      -8.784   6.093 -19.511  1.00  0.00     0.200 A 
ATOM     98  F   UNL     1      -9.040   4.376 -21.110  1.00  0.00    -0.200 F 
ATOM     99  F   UNL     1      -9.573   6.902 -20.231  1.00  0.00    -0.200 F 
ENDBRANCH  66  89
ENDBRANCH  40  41
ENDBRANCH  32  35
ENDBRANCH  30  31
ENDBRANCH  29  30
ENDBRANCH  28  29
ENDBRANCH  27  28
ENDBRANCH   1  27
TORSDOF 16
