REMARK SMILES Cc1nc(Oc2ccc(F)cc2)c(C(=O)NCCCCCCNC(=O)c2ccc(-c3c4nc(c(-c5c(F)c(F)c(F)c(F)c5F)c5ccc([nH]5)c(-c5c(F)c(F)c(F)c(F)c5F)c5nc(c(-c6c(F)c(F)c(F)c(F)c6F)c6ccc3[nH]6)C=C5)C=C4)cc2)c(C)c1Cl
REMARK SMILES IDX 19 1 18 2 17 3 16 4 14 5 15 6 13 8 1 9 2 10 3 11 91 12 4 13
REMARK SMILES IDX 89 14 92 15 90 16 5 17 6 18 7 19 12 20 8 21 11 22 9 23 10 24
REMARK SMILES IDX 20 25 21 26 22 27 23 28 24 29 25 31 26 32 27 33 88 34 28 35
REMARK SMILES IDX 87 36 29 37 30 38 31 39 81 40 32 41 86 42 80 43 82 44 33 45
REMARK SMILES IDX 85 46 79 47 78 48 34 50 66 51 46 52 65 53 47 54 50 55 64 56
REMARK SMILES IDX 83 57 48 58 49 59 63 61 84 62 51 63 35 64 36 65 44 66 37 67
REMARK SMILES IDX 38 68 42 69 45 70 39 71 40 72 43 73 41 74 67 75 68 76 76 77
REMARK SMILES IDX 69 78 70 79 74 80 77 81 71 82 72 83 75 84 73 85 52 86 53 87
REMARK SMILES IDX 61 88 54 89 55 90 59 91 62 92 56 93 57 94 60 95 58 96
REMARK H PARENT 16 7 23 30 82 49 50 60
REMARK Flexibility Score: inf
ROOT
ATOM      1  C   UNL     1       1.537   8.822  -1.749  1.00  0.00     0.002 C 
ENDROOT
BRANCH   1   2
ATOM      2  C   UNL     1       2.020   7.375  -1.903  1.00  0.00     0.021 C 
BRANCH   2   3
ATOM      3  C   UNL     1       1.362   6.290  -1.058  1.00  0.00     0.116 C 
BRANCH   3   4
ATOM      4  N   UNL     1      -0.077   6.171  -1.160  1.00  0.00    -0.352 N 
ATOM      5  C   UNL     1      -0.865   5.091  -0.806  1.00  0.00     0.257 C 
ATOM      6  O   UNL     1      -2.041   5.272  -0.503  1.00  0.00    -0.269 OA
ATOM      7  H   UNL     1      -0.551   6.953  -1.524  1.00  0.00     0.163 HD
BRANCH   5   8
ATOM      8  C   UNL     1      -0.326   3.711  -0.789  1.00  0.00     0.106 A 
ATOM      9  C   UNL     1       0.731  -0.425  -0.628  1.00  0.00     0.068 C 
ATOM     10  C   UNL     1       0.449   1.050  -0.679  1.00  0.00     0.060 A 
ATOM     11  N   UNL     1      -0.444   1.442  -1.617  1.00  0.00    -0.216 NA
ATOM     12  C   UNL     1       1.005   1.947   0.231  1.00  0.00     0.066 A 
ATOM     13  C   UNL     1      -0.832   2.744  -1.673  1.00  0.00     0.232 A 
ATOM     14  C   UNL     1       0.579   3.292   0.221  1.00  0.00    -0.012 A 
ATOM     15  Cl  UNL     1       2.187   1.396   1.375  1.00  0.00    -0.082 Cl
ATOM     16  C   UNL     1       1.056   4.219   1.309  1.00  0.00     0.047 C 
BRANCH  13  17
ATOM     17  O   UNL     1      -1.874   2.875  -2.556  1.00  0.00    -0.438 OA
BRANCH  17  18
ATOM     18  C   UNL     1      -2.089   4.026  -3.258  1.00  0.00     0.129 A 
ATOM     19  C   UNL     1      -3.385   4.549  -3.193  1.00  0.00     0.050 A 
ATOM     20  C   UNL     1      -1.126   4.617  -4.076  1.00  0.00     0.050 A 
ATOM     21  C   UNL     1      -3.703   5.714  -3.884  1.00  0.00     0.043 A 
ATOM     22  C   UNL     1      -1.449   5.784  -4.772  1.00  0.00     0.043 A 
ATOM     23  C   UNL     1      -2.728   6.327  -4.660  1.00  0.00     0.123 A 
ATOM     24  F   UNL     1      -3.024   7.456  -5.316  1.00  0.00    -0.207 F 
ENDBRANCH  17  18
ENDBRANCH  13  17
ENDBRANCH   5   8
ENDBRANCH   3   4
ENDBRANCH   2   3
ENDBRANCH   1   2
BRANCH   1  25
ATOM     25  C   UNL     1       1.267   9.374  -0.346  1.00  0.00     0.002 C 
BRANCH  25  26
ATOM     26  C   UNL     1       2.353   9.214   0.718  1.00  0.00     0.021 C 
BRANCH  26  27
ATOM     27  C   UNL     1       3.759   9.654   0.332  1.00  0.00     0.116 C 
BRANCH  27  28
ATOM     28  N   UNL     1       3.857  11.077   0.065  1.00  0.00    -0.352 N 
ATOM     29  C   UNL     1       4.616  12.037   0.693  1.00  0.00     0.251 C 
ATOM     30  H   UNL     1       3.298  11.404  -0.677  1.00  0.00     0.163 HD
ATOM     31  O   UNL     1       4.480  13.219   0.410  1.00  0.00    -0.269 OA
BRANCH  29  32
ATOM     32  C   UNL     1       5.588  11.644   1.738  1.00  0.00     0.039 A 
ATOM     33  C   UNL     1       5.569  12.322   2.960  1.00  0.00     0.014 A 
ATOM     34  C   UNL     1       6.526  10.633   1.507  1.00  0.00     0.014 A 
ATOM     35  C   UNL     1       6.455  11.949   3.973  1.00  0.00     0.010 A 
ATOM     36  C   UNL     1       7.375  10.227   2.535  1.00  0.00     0.010 A 
ATOM     37  C   UNL     1       7.350  10.886   3.774  1.00  0.00    -0.014 A 
BRANCH  37  38
ATOM     38  C   UNL     1       8.294  10.479   4.843  1.00  0.00     0.031 A 
ATOM     39  C   UNL     1       9.760  10.765   4.694  1.00  0.00     0.074 A 
ATOM     40  C   UNL     1       7.837   9.831   5.931  1.00  0.00     0.049 A 
ATOM     41  N   UNL     1      10.746  10.481   5.506  1.00  0.00    -0.248 NA
ATOM     42  C   UNL     1      10.175  11.450   3.460  1.00  0.00     0.031 C 
ATOM     43  C   UNL     1       6.439   9.480   6.178  1.00  0.00     0.029 A 
ATOM     44  N   UNL     1       8.502   9.352   7.032  1.00  0.00    -0.354 N 
ATOM     45  C   UNL     1      11.892  10.961   4.888  1.00  0.00     0.074 A 
ATOM     46  C   UNL     1      11.491  11.496   3.605  1.00  0.00     0.031 C 
ATOM     47  C   UNL     1       6.346   8.864   7.368  1.00  0.00     0.029 A 
ATOM     48  C   UNL     1       7.679   8.754   7.955  1.00  0.00     0.049 A 
ATOM     49  H   UNL     1       9.476   9.431   7.150  1.00  0.00     0.167 HD
ATOM     50  C   UNL     1      13.160  10.981   5.362  1.00  0.00     0.037 A 
ATOM     51  C   UNL     1       7.970   8.186   9.141  1.00  0.00     0.037 A 
ATOM     52  C   UNL     1      13.556  10.453   6.639  1.00  0.00     0.049 A 
ATOM     53  C   UNL     1       9.396   8.171   9.621  1.00  0.00     0.074 A 
ATOM     54  C   UNL     1      14.811  10.451   7.221  1.00  0.00     0.029 A 
ATOM     55  N   UNL     1      12.698   9.827   7.533  1.00  0.00    -0.354 N 
ATOM     56  N   UNL     1      10.464   8.672   9.052  1.00  0.00    -0.248 NA
ATOM     57  C   UNL     1       9.656   7.514  10.911  1.00  0.00     0.031 C 
ATOM     58  C   UNL     1      14.721   9.789   8.449  1.00  0.00     0.029 A 
ATOM     59  C   UNL     1      13.402   9.415   8.652  1.00  0.00     0.049 A 
ATOM     60  H   UNL     1      11.733   9.695   7.391  1.00  0.00     0.167 HD
ATOM     61  C   UNL     1      11.517   8.415   9.920  1.00  0.00     0.074 A 
ATOM     62  C   UNL     1      10.958   7.720  11.061  1.00  0.00     0.031 C 
ATOM     63  C   UNL     1      12.828   8.729   9.782  1.00  0.00     0.037 A 
BRANCH  50  64
ATOM     64  C   UNL     1      14.210  11.613   4.497  1.00  0.00     0.064 A 
ATOM     65  C   UNL     1      14.251  13.002   4.300  1.00  0.00     0.173 A 
ATOM     66  C   UNL     1      15.205  10.834   3.890  1.00  0.00     0.173 A 
ATOM     67  F   UNL     1      13.313  13.789   4.848  1.00  0.00    -0.203 F 
ATOM     68  C   UNL     1      15.236  13.584   3.507  1.00  0.00     0.198 A 
ATOM     69  C   UNL     1      16.205  11.422   3.121  1.00  0.00     0.198 A 
ATOM     70  F   UNL     1      15.213   9.502   4.051  1.00  0.00    -0.203 F 
ATOM     71  F   UNL     1      15.229  14.908   3.298  1.00  0.00    -0.200 F 
ATOM     72  C   UNL     1      16.216  12.796   2.925  1.00  0.00     0.200 A 
ATOM     73  F   UNL     1      17.158  10.661   2.567  1.00  0.00    -0.200 F 
ATOM     74  F   UNL     1      17.168  13.358   2.168  1.00  0.00    -0.200 F 
ENDBRANCH  50  64
BRANCH  51  75
ATOM     75  C   UNL     1       6.876   7.629   9.977  1.00  0.00     0.064 A 
ATOM     76  C   UNL     1       6.472   8.280  11.150  1.00  0.00     0.173 A 
ATOM     77  C   UNL     1       6.199   6.456   9.614  1.00  0.00     0.173 A 
ATOM     78  F   UNL     1       7.104   9.394  11.548  1.00  0.00    -0.203 F 
ATOM     79  C   UNL     1       5.434   7.777  11.932  1.00  0.00     0.198 A 
ATOM     80  C   UNL     1       5.147   5.965  10.385  1.00  0.00     0.198 A 
ATOM     81  F   UNL     1       6.548   5.797   8.499  1.00  0.00    -0.203 F 
ATOM     82  F   UNL     1       5.085   8.406  13.063  1.00  0.00    -0.200 F 
ATOM     83  C   UNL     1       4.767   6.625  11.545  1.00  0.00     0.200 A 
ATOM     84  F   UNL     1       4.497   4.858  10.001  1.00  0.00    -0.200 F 
ATOM     85  F   UNL     1       3.762   6.147  12.290  1.00  0.00    -0.200 F 
ENDBRANCH  51  75
BRANCH  63  86
ATOM     86  C   UNL     1      13.757   8.343  10.895  1.00  0.00     0.064 A 
ATOM     87  C   UNL     1      14.158   7.013  11.082  1.00  0.00     0.173 A 
ATOM     88  C   UNL     1      14.318   9.325  11.725  1.00  0.00     0.173 A 
ATOM     89  F   UNL     1      13.639   6.037  10.321  1.00  0.00    -0.203 F 
ATOM     90  C   UNL     1      15.085   6.678  12.066  1.00  0.00     0.198 A 
ATOM     91  C   UNL     1      15.263   8.990  12.691  1.00  0.00     0.198 A 
ATOM     92  F   UNL     1      13.971  10.612  11.580  1.00  0.00    -0.203 F 
ATOM     93  F   UNL     1      15.436   5.398  12.245  1.00  0.00    -0.200 F 
ATOM     94  C   UNL     1      15.644   7.668  12.862  1.00  0.00     0.200 A 
ATOM     95  F   UNL     1      15.813   9.949  13.449  1.00  0.00    -0.200 F 
ATOM     96  F   UNL     1      16.550   7.346  13.795  1.00  0.00    -0.200 F 
ENDBRANCH  63  86
ENDBRANCH  37  38
ENDBRANCH  29  32
ENDBRANCH  27  28
ENDBRANCH  26  27
ENDBRANCH  25  26
ENDBRANCH   1  25
TORSDOF 15
