REMARK SMILES O=C(NCCCCCCNC(=O)[C@@H](CO)NC(=O)[C@H]1CCCc2ccccc21)c1ccc(-c2c3nc(c(-c4c(F)c(F)c(F)c(F)c4F)c4ccc([nH]4)c(-c4c(F)c(F)c(F)c(F)c4F)c4nc(c(-c5c(F)c(F)c(F)c(F)c5F)c5ccc2[nH]5)C=C4)C=C3)cc1
REMARK SMILES IDX 6 1 5 2 4 3 3 4 1 5 2 6 29 8 30 9 91 10 31 11 90 12 32 13
REMARK SMILES IDX 33 14 34 15 84 16 35 17 89 18 83 19 85 20 36 21 88 22 82 23
REMARK SMILES IDX 81 24 37 26 69 27 49 28 68 29 50 30 53 31 67 32 86 33 51 34
REMARK SMILES IDX 52 35 66 37 87 38 54 39 38 40 39 41 47 42 40 43 41 44 45 45
REMARK SMILES IDX 48 46 42 47 43 48 46 49 44 50 70 51 71 52 79 53 72 54 73 55
REMARK SMILES IDX 77 56 80 57 74 58 75 59 78 60 76 61 55 62 56 63 64 64 57 65
REMARK SMILES IDX 58 66 62 67 65 68 59 69 60 70 63 71 61 72 7 73 8 74 9 75
REMARK SMILES IDX 10 76 11 77 12 79 13 80 14 81 15 82 16 84 17 85 18 87 19 88
REMARK SMILES IDX 20 89 28 90 21 91 23 92 27 93 22 94 24 95 26 96 25 97
REMARK H PARENT 3 7 85 25 53 36 10 78 15 83 16 86
REMARK Flexibility Score: inf
ROOT
ATOM      1  C   UNL     1      16.966  10.096  10.686  1.00  0.00     0.002 C 
ENDROOT
BRANCH   1   2
ATOM      2  C   UNL     1      18.149   9.896   9.741  1.00  0.00     0.021 C 
BRANCH   2   3
ATOM      3  C   UNL     1      18.642  11.184   9.102  1.00  0.00     0.116 C 
BRANCH   3   4
ATOM      4  N   UNL     1      19.186  12.098  10.093  1.00  0.00    -0.352 N 
ATOM      5  O   UNL     1      20.853  13.169  11.184  1.00  0.00    -0.269 OA
ATOM      6  C   UNL     1      20.459  12.597  10.172  1.00  0.00     0.251 C 
ATOM      7  H   UNL     1      18.562  12.395  10.794  1.00  0.00     0.163 HD
BRANCH   6   8
ATOM      8  C   UNL     1      21.356  12.425   9.015  1.00  0.00     0.039 A 
ATOM      9  C   UNL     1      20.888  12.709   7.728  1.00  0.00     0.014 A 
ATOM     10  C   UNL     1      22.658  11.965   9.215  1.00  0.00     0.014 A 
ATOM     11  C   UNL     1      21.682  12.418   6.630  1.00  0.00     0.010 A 
ATOM     12  C   UNL     1      23.490  11.767   8.113  1.00  0.00     0.010 A 
ATOM     13  C   UNL     1      23.004  11.982   6.813  1.00  0.00    -0.014 A 
BRANCH  13  14
ATOM     14  C   UNL     1      23.894  11.867   5.634  1.00  0.00     0.031 A 
ATOM     15  C   UNL     1      24.472  10.549   5.217  1.00  0.00     0.074 A 
ATOM     16  C   UNL     1      24.172  12.990   4.944  1.00  0.00     0.049 A 
ATOM     17  N   UNL     1      25.292  10.286   4.232  1.00  0.00    -0.248 NA
ATOM     18  C   UNL     1      24.089   9.372   6.011  1.00  0.00     0.031 C 
ATOM     19  C   UNL     1      23.668  14.326   5.273  1.00  0.00     0.029 A 
ATOM     20  N   UNL     1      24.937  13.191   3.825  1.00  0.00    -0.354 N 
ATOM     21  C   UNL     1      25.539   8.922   4.295  1.00  0.00     0.074 A 
ATOM     22  C   UNL     1      24.802   8.413   5.433  1.00  0.00     0.031 C 
ATOM     23  C   UNL     1      24.105  15.200   4.357  1.00  0.00     0.029 A 
ATOM     24  C   UNL     1      24.980  14.504   3.425  1.00  0.00     0.049 A 
ATOM     25  H   UNL     1      25.409  12.467   3.354  1.00  0.00     0.167 HD
ATOM     26  C   UNL     1      26.309   8.170   3.472  1.00  0.00     0.037 A 
ATOM     27  C   UNL     1      25.676  15.091   2.435  1.00  0.00     0.037 A 
ATOM     28  C   UNL     1      27.032   8.694   2.341  1.00  0.00     0.049 A 
ATOM     29  C   UNL     1      26.557  14.237   1.570  1.00  0.00     0.074 A 
ATOM     30  C   UNL     1      27.808   8.011   1.421  1.00  0.00     0.029 A 
ATOM     31  N   UNL     1      27.077  10.035   1.981  1.00  0.00    -0.354 N 
ATOM     32  N   UNL     1      26.751  12.941   1.613  1.00  0.00    -0.248 NA
ATOM     33  C   UNL     1      27.319  14.927   0.523  1.00  0.00     0.031 C 
ATOM     34  C   UNL     1      28.371   8.944   0.543  1.00  0.00     0.029 A 
ATOM     35  C   UNL     1      27.895  10.202   0.874  1.00  0.00     0.049 A 
ATOM     36  H   UNL     1      26.599  10.760   2.445  1.00  0.00     0.167 HD
ATOM     37  C   UNL     1      27.640  12.656   0.588  1.00  0.00     0.074 A 
ATOM     38  C   UNL     1      27.930  13.913  -0.073  1.00  0.00     0.031 C 
ATOM     39  C   UNL     1      28.171  11.462   0.229  1.00  0.00     0.037 A 
BRANCH  26  40
ATOM     40  C   UNL     1      26.434   6.703   3.774  1.00  0.00     0.064 A 
ATOM     41  C   UNL     1      25.362   5.816   3.595  1.00  0.00     0.173 A 
ATOM     42  C   UNL     1      27.661   6.169   4.197  1.00  0.00     0.173 A 
ATOM     43  F   UNL     1      24.165   6.274   3.200  1.00  0.00    -0.203 F 
ATOM     44  C   UNL     1      25.507   4.454   3.852  1.00  0.00     0.198 A 
ATOM     45  C   UNL     1      27.811   4.803   4.424  1.00  0.00     0.198 A 
ATOM     46  F   UNL     1      28.722   6.970   4.378  1.00  0.00    -0.203 F 
ATOM     47  F   UNL     1      24.457   3.633   3.716  1.00  0.00    -0.200 F 
ATOM     48  C   UNL     1      26.733   3.948   4.258  1.00  0.00     0.200 A 
ATOM     49  F   UNL     1      29.000   4.314   4.801  1.00  0.00    -0.200 F 
ATOM     50  F   UNL     1      26.873   2.636   4.495  1.00  0.00    -0.200 F 
ENDBRANCH  26  40
BRANCH  27  51
ATOM     51  C   UNL     1      25.576  16.558   2.232  1.00  0.00     0.064 A 
ATOM     52  C   UNL     1      24.974  17.089   1.083  1.00  0.00     0.173 A 
ATOM     53  C   UNL     1      26.067  17.461   3.188  1.00  0.00     0.173 A 
ATOM     54  F   UNL     1      24.502  16.267   0.134  1.00  0.00    -0.203 F 
ATOM     55  C   UNL     1      24.886  18.466   0.889  1.00  0.00     0.198 A 
ATOM     56  C   UNL     1      25.947  18.836   3.009  1.00  0.00     0.198 A 
ATOM     57  F   UNL     1      26.644  17.004   4.310  1.00  0.00    -0.203 F 
ATOM     58  F   UNL     1      24.348  18.947  -0.239  1.00  0.00    -0.200 F 
ATOM     59  C   UNL     1      25.366  19.338   1.855  1.00  0.00     0.200 A 
ATOM     60  F   UNL     1      26.392  19.674   3.955  1.00  0.00    -0.200 F 
ATOM     61  F   UNL     1      25.273  20.662   1.671  1.00  0.00    -0.200 F 
ENDBRANCH  27  51
BRANCH  39  62
ATOM     62  C   UNL     1      29.095  11.455  -0.954  1.00  0.00     0.064 A 
ATOM     63  C   UNL     1      30.379  12.016  -0.889  1.00  0.00     0.173 A 
ATOM     64  C   UNL     1      28.701  10.852  -2.158  1.00  0.00     0.173 A 
ATOM     65  F   UNL     1      30.796  12.622   0.233  1.00  0.00    -0.203 F 
ATOM     66  C   UNL     1      31.225  11.995  -1.995  1.00  0.00     0.198 A 
ATOM     67  C   UNL     1      29.562  10.802  -3.250  1.00  0.00     0.198 A 
ATOM     68  F   UNL     1      27.485  10.298  -2.271  1.00  0.00    -0.203 F 
ATOM     69  F   UNL     1      32.427  12.584  -1.927  1.00  0.00    -0.200 F 
ATOM     70  C   UNL     1      30.820  11.381  -3.170  1.00  0.00     0.200 A 
ATOM     71  F   UNL     1      29.174  10.196  -4.380  1.00  0.00    -0.200 F 
ATOM     72  F   UNL     1      31.639  11.354  -4.231  1.00  0.00    -0.200 F 
ENDBRANCH  39  62
ENDBRANCH  13  14
ENDBRANCH   6   8
ENDBRANCH   3   4
ENDBRANCH   2   3
ENDBRANCH   1   2
BRANCH   1  73
ATOM     73  C   UNL     1      15.765  10.800  10.050  1.00  0.00     0.002 C 
BRANCH  73  74
ATOM     74  C   UNL     1      15.284  10.178   8.731  1.00  0.00     0.021 C 
BRANCH  74  75
ATOM     75  C   UNL     1      15.007   8.673   8.819  1.00  0.00     0.116 C 
BRANCH  75  76
ATOM     76  N   UNL     1      13.934   8.429   9.755  1.00  0.00    -0.354 N 
ATOM     77  C   UNL     1      12.606   8.316   9.509  1.00  0.00     0.244 C 
ATOM     78  H   UNL     1      14.204   8.332  10.697  1.00  0.00     0.163 HD
ATOM     79  O   UNL     1      11.845   8.721  10.395  1.00  0.00    -0.273 OA
BRANCH  77  80
ATOM     80  C   UNL     1      12.045   7.805   8.174  1.00  0.00     0.197 C 
BRANCH  80  81
ATOM     81  C   UNL     1      11.910   8.901   7.103  1.00  0.00     0.191 C 
BRANCH  81  82
ATOM     82  O   UNL     1      13.155   9.413   6.636  1.00  0.00    -0.394 OA
ATOM     83  H   UNL     1      13.629   9.831   7.372  1.00  0.00     0.210 HD
ENDBRANCH  81  82
ENDBRANCH  80  81
BRANCH  80  84
ATOM     84  N   UNL     1      12.655   6.580   7.654  1.00  0.00    -0.342 N 
ATOM     85  C   UNL     1      12.155   5.393   7.232  1.00  0.00     0.228 C 
ATOM     86  H   UNL     1      13.637   6.628   7.601  1.00  0.00     0.164 HD
ATOM     87  O   UNL     1      13.024   4.605   6.821  1.00  0.00    -0.274 OA
BRANCH  85  88
ATOM     88  C   UNL     1      10.669   4.933   7.186  1.00  0.00     0.109 C 
ATOM     89  C   UNL     1      10.657   3.499   7.786  1.00  0.00     0.018 C 
ATOM     90  C   UNL     1       9.585   5.824   7.778  1.00  0.00    -0.032 A 
ATOM     91  C   UNL     1       9.327   3.111   8.412  1.00  0.00     0.006 C 
ATOM     92  C   UNL     1       8.944   5.496   8.986  1.00  0.00    -0.044 A 
ATOM     93  C   UNL     1       9.198   7.006   7.127  1.00  0.00     0.005 A 
ATOM     94  C   UNL     1       8.999   4.093   9.532  1.00  0.00     0.036 C 
ATOM     95  C   UNL     1       8.198   6.468   9.665  1.00  0.00     0.004 A 
ATOM     96  C   UNL     1       8.429   7.964   7.795  1.00  0.00     0.000 A 
ATOM     97  C   UNL     1       7.981   7.716   9.089  1.00  0.00     0.000 A 
ENDBRANCH  85  88
ENDBRANCH  80  84
ENDBRANCH  77  80
ENDBRANCH  75  76
ENDBRANCH  74  75
ENDBRANCH  73  74
ENDBRANCH   1  73
TORSDOF 17
