REMARK SMILES COC(=O)c1ccc([C@H]2[C@H]3C(=O)CC(C)(C)CC3=Nc3ccccc3N2C(=O)CCC(=O)NCCCCCCNC(=O)c2ccc(-c3c4nc(c(-c5c(F)c(F)c(F)c(F)c5F)c5ccc([nH]5)c(-c5c(F)c(F)c(F)c(F)c5F)c5nc(c(-c6c(F)c(F)c(F)c(F)c6F)c6ccc3[nH]6)C=C5)C=C4)cc2)cc1
REMARK SMILES IDX 34 1 33 2 31 3 32 4 30 6 29 7 27 8 28 9 26 10 9 11 8 13 5 14
REMARK SMILES IDX 6 15 107 16 7 17 106 18 3 19 4 20 2 21 1 22 25 23 20 24
REMARK SMILES IDX 24 25 21 26 23 27 22 28 19 29 18 30 10 31 17 32 11 33 14 35
REMARK SMILES IDX 12 36 13 37 15 38 16 39 35 40 36 41 37 42 38 43 39 44 40 45
REMARK SMILES IDX 41 46 42 48 43 49 44 50 105 51 45 52 104 53 46 54 47 55
REMARK SMILES IDX 48 56 98 57 49 58 103 59 97 60 99 61 50 62 102 63 96 64
REMARK SMILES IDX 95 65 51 67 83 68 63 69 82 70 64 71 67 72 81 73 100 74 65 75
REMARK SMILES IDX 66 76 80 78 101 79 68 80 52 81 53 82 61 83 54 84 55 85 59 86
REMARK SMILES IDX 62 87 56 88 57 89 60 90 58 91 84 92 85 93 93 94 86 95 87 96
REMARK SMILES IDX 91 97 94 98 88 99 89 100 92 101 90 102 69 103 70 104 78 105
REMARK SMILES IDX 71 106 72 107 76 108 79 109 73 110 74 111 77 112 75 113
REMARK H PARENT 33 5 40 47 99 66 67 77
REMARK Flexibility Score: 100.00
ROOT
ATOM      1  C   UNL     1      -0.828  -3.228  -5.777  1.00  0.00     0.116 C 
ENDROOT
BRANCH   1   2
ATOM      2  N   UNL     1      -0.107  -4.368  -6.390  1.00  0.00    -0.356 N 
ATOM      3  C   UNL     1       1.097  -4.523  -7.016  1.00  0.00     0.220 C 
ATOM      4  O   UNL     1       1.307  -5.622  -7.545  1.00  0.00    -0.275 OA
ATOM      5  H   UNL     1      -0.615  -5.210  -6.333  1.00  0.00     0.163 HD
BRANCH   3   6
ATOM      6  C   UNL     1       2.171  -3.445  -7.113  1.00  0.00     0.110 C 
BRANCH   6   7
ATOM      7  C   UNL     1       2.247  -2.586  -8.384  1.00  0.00     0.110 C 
BRANCH   7   8
ATOM      8  C   UNL     1       1.505  -1.297  -8.170  1.00  0.00     0.228 C 
ATOM      9  O   UNL     1       2.195  -0.374  -7.721  1.00  0.00    -0.274 OA
BRANCH   8  10
ATOM     10  N   UNL     1       0.140  -1.135  -8.399  1.00  0.00    -0.302 N 
BRANCH  10  11
ATOM     11  C   UNL     1      -0.544   0.062  -7.607  1.00  0.00     0.137 CG0
ATOM     12  G   UNL     1      -1.383   1.121  -8.406  1.00  0.00     0.000 G0
BRANCH  11  13
ATOM     13  C   UNL     1       0.035   0.428  -6.174  1.00  0.00    -0.024 A 
ATOM     14  C   UNL     1       1.017   0.748  -3.453  1.00  0.00     0.060 A 
ATOM     15  C   UNL     1       1.584   1.444  -4.525  1.00  0.00     0.016 A 
ATOM     16  C   UNL     1      -0.043  -0.091  -3.733  1.00  0.00     0.016 A 
ATOM     17  C   UNL     1       1.087   1.300  -5.854  1.00  0.00     0.007 A 
ATOM     18  C   UNL     1      -0.488  -0.235  -5.053  1.00  0.00     0.007 A 
BRANCH  14  19
ATOM     19  C   UNL     1       1.526   0.897  -2.059  1.00  0.00     0.337 C 
ATOM     20  O   UNL     1       2.391   1.696  -1.723  1.00  0.00    -0.246 OA
BRANCH  19  21
ATOM     21  O   UNL     1       0.884   0.026  -1.236  1.00  0.00    -0.465 OA
ATOM     22  C   UNL     1       1.249   0.085   0.145  1.00  0.00     0.282 C 
ENDBRANCH  19  21
ENDBRANCH  14  19
ENDBRANCH  11  13
ENDBRANCH  10  11
BRANCH  10  23
ATOM     23  C   UNL     1      -0.707  -2.050  -9.292  1.00  0.00     0.070 A 
ATOM     24  C   UNL     1      -1.946  -1.649  -9.881  1.00  0.00     0.087 A 
ATOM     25  C   UNL     1      -0.398  -3.397  -9.559  1.00  0.00     0.028 A 
ATOM     26  C   UNL     1      -2.837  -2.571 -10.480  1.00  0.00     0.030 A 
ATOM     27  C   UNL     1      -1.276  -4.314 -10.174  1.00  0.00     0.002 A 
ATOM     28  C   UNL     1      -2.519  -3.911 -10.602  1.00  0.00     0.002 A 
BRANCH  24  29
ATOM     29  N   UNL     1      -2.423  -0.340  -9.859  1.00  0.00    -0.255 NA
ATOM     30  C   UNL     1      -1.507   0.560  -9.764  1.00  0.00     0.032 C 
ATOM     31  C   UNL     1      -1.383   1.121  -8.406  1.00  0.00     0.128 CG0
ATOM     32  C   UNL     1      -0.404   0.817 -10.764  1.00  0.00     0.059 C 
ATOM     33  C   UNL     1      -1.198   2.617  -8.525  1.00  0.00     0.144 C 
ATOM     34  G   UNL     1      -0.544   0.062  -7.607  1.00  0.00     0.000 G0
ATOM     35  C   UNL     1       0.365   2.127 -10.458  1.00  0.00    -0.023 C 
ATOM     36  O   UNL     1      -1.707   3.382  -7.702  1.00  0.00    -0.299 OA
ATOM     37  C   UNL     1      -0.578   3.160  -9.817  1.00  0.00     0.083 C 
ATOM     38  C   UNL     1       1.544   1.939  -9.497  1.00  0.00     0.012 C 
ATOM     39  C   UNL     1       0.980   2.617 -11.772  1.00  0.00     0.012 C 
ENDBRANCH  24  29
ENDBRANCH  10  23
ENDBRANCH   8  10
ENDBRANCH   7   8
ENDBRANCH   6   7
ENDBRANCH   3   6
ENDBRANCH   1   2
BRANCH   1  40
ATOM     40  C   UNL     1      -2.219  -3.023  -6.458  1.00  0.00     0.021 C 
BRANCH  40  41
ATOM     41  C   UNL     1      -3.392  -1.951  -6.323  1.00  0.00     0.002 C 
BRANCH  41  42
ATOM     42  C   UNL     1      -3.934  -1.169  -5.094  1.00  0.00     0.002 C 
BRANCH  42  43
ATOM     43  C   UNL     1      -3.660   0.340  -4.807  1.00  0.00     0.021 C 
BRANCH  43  44
ATOM     44  C   UNL     1      -4.095   1.506  -5.705  1.00  0.00     0.116 C 
BRANCH  44  45
ATOM     45  N   UNL     1      -5.505   1.825  -5.708  1.00  0.00    -0.352 N 
ATOM     46  C   UNL     1      -6.113   3.049  -5.515  1.00  0.00     0.251 C 
ATOM     47  H   UNL     1      -6.114   1.068  -5.870  1.00  0.00     0.163 HD
ATOM     48  O   UNL     1      -7.335   3.145  -5.594  1.00  0.00    -0.269 OA
BRANCH  46  49
ATOM     49  C   UNL     1      -5.319   4.258  -5.172  1.00  0.00     0.039 A 
ATOM     50  C   UNL     1      -5.648   4.964  -4.011  1.00  0.00     0.014 A 
ATOM     51  C   UNL     1      -4.301   4.737  -6.000  1.00  0.00     0.014 A 
ATOM     52  C   UNL     1      -4.944   6.126  -3.667  1.00  0.00     0.010 A 
ATOM     53  C   UNL     1      -3.559   5.867  -5.624  1.00  0.00     0.010 A 
ATOM     54  C   UNL     1      -3.884   6.591  -4.464  1.00  0.00    -0.014 A 
BRANCH  54  55
ATOM     55  C   UNL     1      -3.180   7.865  -4.120  1.00  0.00     0.031 A 
ATOM     56  C   UNL     1      -3.295   9.065  -5.030  1.00  0.00     0.074 A 
ATOM     57  C   UNL     1      -2.461   7.970  -2.982  1.00  0.00     0.049 A 
ATOM     58  N   UNL     1      -2.789  10.268  -4.891  1.00  0.00    -0.248 NA
ATOM     59  C   UNL     1      -4.071   8.888  -6.266  1.00  0.00     0.031 C 
ATOM     60  C   UNL     1      -2.240   6.890  -2.020  1.00  0.00     0.029 A 
ATOM     61  N   UNL     1      -1.787   9.039  -2.437  1.00  0.00    -0.354 N 
ATOM     62  C   UNL     1      -3.189  10.982  -6.016  1.00  0.00     0.074 A 
ATOM     63  C   UNL     1      -3.922  10.063  -6.858  1.00  0.00     0.031 C 
ATOM     64  C   UNL     1      -1.510   7.356  -0.993  1.00  0.00     0.029 A 
ATOM     65  C   UNL     1      -1.180   8.759  -1.234  1.00  0.00     0.049 A 
ATOM     66  H   UNL     1      -1.743   9.923  -2.868  1.00  0.00     0.167 HD
ATOM     67  C   UNL     1      -2.995  12.291  -6.309  1.00  0.00     0.037 A 
ATOM     68  C   UNL     1      -0.441   9.541  -0.420  1.00  0.00     0.037 A 
ATOM     69  C   UNL     1      -2.280  13.218  -5.470  1.00  0.00     0.049 A 
ATOM     70  C   UNL     1      -0.208  10.986  -0.792  1.00  0.00     0.074 A 
ATOM     71  C   UNL     1      -2.052  14.568  -5.674  1.00  0.00     0.029 A 
ATOM     72  N   UNL     1      -1.678  12.890  -4.265  1.00  0.00    -0.354 N 
ATOM     73  N   UNL     1      -0.645  11.659  -1.829  1.00  0.00    -0.248 NA
ATOM     74  C   UNL     1       0.614  11.784   0.130  1.00  0.00     0.031 C 
ATOM     75  C   UNL     1      -1.271  15.046  -4.619  1.00  0.00     0.029 A 
ATOM     76  C   UNL     1      -1.067  14.010  -3.723  1.00  0.00     0.049 A 
ATOM     77  H   UNL     1      -1.683  11.995  -3.855  1.00  0.00     0.167 HD
ATOM     78  C   UNL     1      -0.192  12.961  -1.659  1.00  0.00     0.074 A 
ATOM     79  C   UNL     1       0.541  12.990  -0.413  1.00  0.00     0.031 C 
ATOM     80  C   UNL     1      -0.366  14.037  -2.466  1.00  0.00     0.037 A 
BRANCH  67  81
ATOM     81  C   UNL     1      -3.579  12.815  -7.591  1.00  0.00     0.064 A 
ATOM     82  C   UNL     1      -4.965  12.960  -7.759  1.00  0.00     0.173 A 
ATOM     83  C   UNL     1      -2.746  13.239  -8.638  1.00  0.00     0.173 A 
ATOM     84  F   UNL     1      -5.807  12.563  -6.792  1.00  0.00    -0.203 F 
ATOM     85  C   UNL     1      -5.495  13.486  -8.934  1.00  0.00     0.198 A 
ATOM     86  C   UNL     1      -3.278  13.796  -9.798  1.00  0.00     0.198 A 
ATOM     87  F   UNL     1      -1.413  13.134  -8.527  1.00  0.00    -0.203 F 
ATOM     88  F   UNL     1      -6.824  13.575  -9.087  1.00  0.00    -0.200 F 
ATOM     89  C   UNL     1      -4.652  13.913  -9.948  1.00  0.00     0.200 A 
ATOM     90  F   UNL     1      -2.461  14.226 -10.770  1.00  0.00    -0.200 F 
ATOM     91  F   UNL     1      -5.162  14.436 -11.071  1.00  0.00    -0.200 F 
ENDBRANCH  67  81
BRANCH  68  92
ATOM     92  C   UNL     1       0.138   8.994   0.840  1.00  0.00     0.064 A 
ATOM     93  C   UNL     1      -0.262   9.481   2.095  1.00  0.00     0.173 A 
ATOM     94  C   UNL     1       1.151   8.024   0.816  1.00  0.00     0.173 A 
ATOM     95  F   UNL     1      -1.209  10.428   2.175  1.00  0.00    -0.203 F 
ATOM     96  C   UNL     1       0.358   9.052   3.268  1.00  0.00     0.198 A 
ATOM     97  C   UNL     1       1.743   7.568   1.992  1.00  0.00     0.198 A 
ATOM     98  F   UNL     1       1.574   7.524  -0.354  1.00  0.00    -0.203 F 
ATOM     99  F   UNL     1       0.009   9.593   4.443  1.00  0.00    -0.200 F 
ATOM    100  C   UNL     1       1.358   8.094   3.216  1.00  0.00     0.200 A 
ATOM    101  F   UNL     1       2.701   6.632   1.939  1.00  0.00    -0.200 F 
ATOM    102  F   UNL     1       1.961   7.689   4.342  1.00  0.00    -0.200 F 
ENDBRANCH  68  92
BRANCH  80 103
ATOM    103  C   UNL     1       0.182  15.356  -1.997  1.00  0.00     0.064 A 
ATOM    104  C   UNL     1       1.561  15.608  -1.930  1.00  0.00     0.173 A 
ATOM    105  C   UNL     1      -0.691  16.398  -1.645  1.00  0.00     0.173 A 
ATOM    106  F   UNL     1       2.440  14.645  -2.245  1.00  0.00    -0.203 F 
ATOM    107  C   UNL     1       2.043  16.840  -1.495  1.00  0.00     0.198 A 
ATOM    108  C   UNL     1      -0.205  17.640  -1.247  1.00  0.00     0.198 A 
ATOM    109  F   UNL     1      -2.019  16.215  -1.701  1.00  0.00    -0.203 F 
ATOM    110  F   UNL     1       3.364  17.038  -1.384  1.00  0.00    -0.200 F 
ATOM    111  C   UNL     1       1.161  17.857  -1.162  1.00  0.00     0.200 A 
ATOM    112  F   UNL     1      -1.060  18.626  -0.944  1.00  0.00    -0.200 F 
ATOM    113  F   UNL     1       1.628  19.044  -0.752  1.00  0.00    -0.200 F 
ENDBRANCH  80 103
ENDBRANCH  54  55
ENDBRANCH  46  49
ENDBRANCH  44  45
ENDBRANCH  43  44
ENDBRANCH  42  43
ENDBRANCH  41  42
ENDBRANCH  40  41
ENDBRANCH   1  40
TORSDOF 19
