REMARK SMILES CCc1n[nH]c2cc(CCC(=O)NCCCCCCNC(=O)c3ccc(-c4c5nc(c(-c6c(F)c(F)c(F)c(F)c6F)c6ccc([nH]6)c(-c6c(F)c(F)c(F)c(F)c6F)c6nc(c(-c7c(F)c(F)c(F)c(F)c7F)c7ccc4[nH]7)C=C6)C=C5)cc3)ccc12
REMARK SMILES IDX 16 1 15 2 14 3 13 4 11 5 12 6 10 8 9 9 8 10 3 11 4 12 88 13
REMARK SMILES IDX 5 14 6 15 87 16 7 18 86 19 2 20 1 21 17 22 18 23 19 24 20 25
REMARK SMILES IDX 21 26 22 28 23 29 24 30 85 31 25 32 84 33 26 34 27 35 28 36
REMARK SMILES IDX 78 37 29 38 83 39 77 40 79 41 30 42 82 43 76 44 75 45 31 47
REMARK SMILES IDX 63 48 43 49 62 50 44 51 47 52 61 53 80 54 45 55 46 56 60 58
REMARK SMILES IDX 81 59 48 60 32 61 33 62 41 63 34 64 35 65 39 66 42 67 36 68
REMARK SMILES IDX 37 69 40 70 38 71 64 72 65 73 73 74 66 75 67 76 71 77 74 78
REMARK SMILES IDX 68 79 69 80 72 81 70 82 49 83 50 84 58 85 51 86 52 87 56 88
REMARK SMILES IDX 59 89 53 90 54 91 57 92 55 93
REMARK H PARENT 13 7 5 17 20 27 79 46 47 57
REMARK Flexibility Score: inf
ROOT
ATOM      1  C   UNL     1       1.272  -0.343  -6.253  1.00  0.00     0.002 C 
ENDROOT
BRANCH   1   2
ATOM      2  C   UNL     1       0.871  -1.532  -5.381  1.00  0.00     0.021 C 
BRANCH   2   3
ATOM      3  C   UNL     1      -0.337  -2.348  -5.843  1.00  0.00     0.116 C 
BRANCH   3   4
ATOM      4  N   UNL     1       0.091  -3.446  -6.694  1.00  0.00    -0.356 N 
ATOM      5  C   UNL     1       0.281  -4.763  -6.396  1.00  0.00     0.220 C 
ATOM      6  O   UNL     1       0.895  -5.459  -7.208  1.00  0.00    -0.275 OA
ATOM      7  H   UNL     1       0.272  -3.201  -7.631  1.00  0.00     0.163 HD
BRANCH   5   8
ATOM      8  C   UNL     1      -0.281  -5.377  -5.128  1.00  0.00     0.105 C 
BRANCH   8   9
ATOM      9  C   UNL     1       0.784  -5.649  -4.058  1.00  0.00     0.045 C 
BRANCH   9  10
ATOM     10  C   UNL     1       0.961  -4.487  -3.106  1.00  0.00    -0.045 A 
ATOM     11  C   UNL     1       1.379  -0.795  -1.203  1.00  0.00     0.070 A 
ATOM     12  N   UNL     1       2.561  -0.390  -1.690  1.00  0.00    -0.180 NA
ATOM     13  C   UNL     1       1.057  -2.114  -1.620  1.00  0.00     0.023 A 
ATOM     14  N   UNL     1       2.992  -1.449  -2.404  1.00  0.00    -0.278 N 
ATOM     15  C   UNL     1       2.110  -2.496  -2.441  1.00  0.00     0.066 A 
ATOM     16  C   UNL     1      -0.025  -2.991  -1.445  1.00  0.00     0.012 A 
ATOM     17  H   UNL     1       3.865  -1.468  -2.859  1.00  0.00     0.190 HD
ATOM     18  C   UNL     1       2.113  -3.688  -3.177  1.00  0.00     0.032 A 
ATOM     19  C   UNL     1      -0.062  -4.169  -2.200  1.00  0.00     0.004 A 
BRANCH  11  20
ATOM     20  C   UNL     1       0.532   0.137  -0.407  1.00  0.00     0.055 C 
ATOM     21  C   UNL     1       0.847   0.089   1.076  1.00  0.00     0.011 C 
ENDBRANCH  11  20
ENDBRANCH   9  10
ENDBRANCH   8   9
ENDBRANCH   5   8
ENDBRANCH   3   4
ENDBRANCH   2   3
ENDBRANCH   1   2
BRANCH   1  22
ATOM     22  C   UNL     1       0.367   0.890  -6.150  1.00  0.00     0.002 C 
BRANCH  22  23
ATOM     23  C   UNL     1       0.104   1.438  -4.740  1.00  0.00     0.021 C 
BRANCH  23  24
ATOM     24  C   UNL     1       1.334   1.873  -3.940  1.00  0.00     0.116 C 
BRANCH  24  25
ATOM     25  N   UNL     1       1.935   3.101  -4.430  1.00  0.00    -0.352 N 
ATOM     26  C   UNL     1       2.191   4.293  -3.795  1.00  0.00     0.251 C 
ATOM     27  H   UNL     1       2.204   3.075  -5.376  1.00  0.00     0.163 HD
ATOM     28  O   UNL     1       2.658   5.225  -4.446  1.00  0.00    -0.269 OA
BRANCH  26  29
ATOM     29  C   UNL     1       1.876   4.512  -2.358  1.00  0.00     0.039 A 
ATOM     30  C   UNL     1       1.286   5.732  -2.005  1.00  0.00     0.014 A 
ATOM     31  C   UNL     1       2.199   3.599  -1.352  1.00  0.00     0.014 A 
ATOM     32  C   UNL     1       0.970   6.008  -0.670  1.00  0.00     0.010 A 
ATOM     33  C   UNL     1       1.828   3.852  -0.021  1.00  0.00     0.010 A 
ATOM     34  C   UNL     1       1.205   5.058   0.337  1.00  0.00    -0.014 A 
BRANCH  34  35
ATOM     35  C   UNL     1       0.773   5.339   1.739  1.00  0.00     0.031 A 
ATOM     36  C   UNL     1       1.773   5.494   2.855  1.00  0.00     0.074 A 
ATOM     37  C   UNL     1      -0.541   5.475   2.016  1.00  0.00     0.049 A 
ATOM     38  N   UNL     1       1.570   5.818   4.111  1.00  0.00    -0.248 NA
ATOM     39  C   UNL     1       3.182   5.240   2.525  1.00  0.00     0.031 C 
ATOM     40  C   UNL     1      -1.626   5.310   1.049  1.00  0.00     0.029 A 
ATOM     41  N   UNL     1      -1.188   5.795   3.187  1.00  0.00    -0.354 N 
ATOM     42  C   UNL     1       2.821   5.812   4.715  1.00  0.00     0.074 A 
ATOM     43  C   UNL     1       3.770   5.396   3.703  1.00  0.00     0.031 C 
ATOM     44  C   UNL     1      -2.797   5.569   1.652  1.00  0.00     0.029 A 
ATOM     45  C   UNL     1      -2.553   5.884   3.058  1.00  0.00     0.049 A 
ATOM     46  H   UNL     1      -0.717   5.946   4.039  1.00  0.00     0.167 HD
ATOM     47  C   UNL     1       3.156   6.144   5.987  1.00  0.00     0.037 A 
ATOM     48  C   UNL     1      -3.506   6.188   3.962  1.00  0.00     0.037 A 
ATOM     49  C   UNL     1       2.218   6.561   7.001  1.00  0.00     0.049 A 
ATOM     50  C   UNL     1      -3.110   6.530   5.374  1.00  0.00     0.074 A 
ATOM     51  C   UNL     1       2.475   6.961   8.302  1.00  0.00     0.029 A 
ATOM     52  N   UNL     1       0.842   6.620   6.834  1.00  0.00    -0.354 N 
ATOM     53  N   UNL     1      -1.915   6.600   5.907  1.00  0.00    -0.248 NA
ATOM     54  C   UNL     1      -4.200   6.851   6.307  1.00  0.00     0.031 C 
ATOM     55  C   UNL     1       1.253   7.202   8.940  1.00  0.00     0.029 A 
ATOM     56  C   UNL     1       0.237   7.020   8.018  1.00  0.00     0.049 A 
ATOM     57  H   UNL     1       0.365   6.409   5.999  1.00  0.00     0.167 HD
ATOM     58  C   UNL     1      -2.106   7.001   7.223  1.00  0.00     0.074 A 
ATOM     59  C   UNL     1      -3.531   7.181   7.402  1.00  0.00     0.031 C 
ATOM     60  C   UNL     1      -1.182   7.200   8.196  1.00  0.00     0.037 A 
BRANCH  47  61
ATOM     61  C   UNL     1       4.609   6.068   6.366  1.00  0.00     0.064 A 
ATOM     62  C   UNL     1       5.555   6.965   5.845  1.00  0.00     0.173 A 
ATOM     63  C   UNL     1       5.055   5.121   7.302  1.00  0.00     0.173 A 
ATOM     64  F   UNL     1       5.185   7.889   4.945  1.00  0.00    -0.203 F 
ATOM     65  C   UNL     1       6.895   6.895   6.220  1.00  0.00     0.198 A 
ATOM     66  C   UNL     1       6.388   5.076   7.700  1.00  0.00     0.198 A 
ATOM     67  F   UNL     1       4.193   4.247   7.843  1.00  0.00    -0.203 F 
ATOM     68  F   UNL     1       7.787   7.730   5.670  1.00  0.00    -0.200 F 
ATOM     69  C   UNL     1       7.309   5.956   7.152  1.00  0.00     0.200 A 
ATOM     70  F   UNL     1       6.783   4.181   8.616  1.00  0.00    -0.200 F 
ATOM     71  F   UNL     1       8.596   5.897   7.520  1.00  0.00    -0.200 F 
ENDBRANCH  47  61
BRANCH  48  72
ATOM     72  C   UNL     1      -4.939   6.202   3.558  1.00  0.00     0.064 A 
ATOM     73  C   UNL     1      -5.673   7.397   3.531  1.00  0.00     0.173 A 
ATOM     74  C   UNL     1      -5.609   5.019   3.216  1.00  0.00     0.173 A 
ATOM     75  F   UNL     1      -5.085   8.552   3.874  1.00  0.00    -0.203 F 
ATOM     76  C   UNL     1      -7.028   7.403   3.205  1.00  0.00     0.198 A 
ATOM     77  C   UNL     1      -6.955   5.031   2.856  1.00  0.00     0.198 A 
ATOM     78  F   UNL     1      -4.954   3.849   3.223  1.00  0.00    -0.203 F 
ATOM     79  F   UNL     1      -7.720   8.550   3.246  1.00  0.00    -0.200 F 
ATOM     80  C   UNL     1      -7.666   6.221   2.862  1.00  0.00     0.200 A 
ATOM     81  F   UNL     1      -7.563   3.888   2.510  1.00  0.00    -0.200 F 
ATOM     82  F   UNL     1      -8.969   6.226   2.547  1.00  0.00    -0.200 F 
ENDBRANCH  48  72
BRANCH  60  83
ATOM     83  C   UNL     1      -1.679   7.677   9.534  1.00  0.00     0.064 A 
ATOM     84  C   UNL     1      -2.455   6.861  10.372  1.00  0.00     0.173 A 
ATOM     85  C   UNL     1      -1.366   8.968   9.989  1.00  0.00     0.173 A 
ATOM     86  F   UNL     1      -2.795   5.623   9.983  1.00  0.00    -0.203 F 
ATOM     87  C   UNL     1      -2.934   7.334  11.592  1.00  0.00     0.198 A 
ATOM     88  C   UNL     1      -1.815   9.424  11.226  1.00  0.00     0.198 A 
ATOM     89  F   UNL     1      -0.621   9.790   9.235  1.00  0.00    -0.203 F 
ATOM     90  F   UNL     1      -3.729   6.559  12.343  1.00  0.00    -0.200 F 
ATOM     91  C   UNL     1      -2.609   8.612  12.021  1.00  0.00     0.200 A 
ATOM     92  F   UNL     1      -1.485  10.653  11.646  1.00  0.00    -0.200 F 
ATOM     93  F   UNL     1      -3.070   9.065  13.195  1.00  0.00    -0.200 F 
ENDBRANCH  60  83
ENDBRANCH  34  35
ENDBRANCH  26  29
ENDBRANCH  24  25
ENDBRANCH  23  24
ENDBRANCH  22  23
ENDBRANCH   1  22
TORSDOF 16
