REMARK SMILES COc1cccc([C@@H]2CN(C(=O)CSc3nc(C)n[nH]3)C[C@H]2C(=O)NCCCCCCNC(=O)c2ccc(-c3c4nc(c(-c5c(F)c(F)c(F)c(F)c5F)c5ccc([nH]5)c(-c5c(F)c(F)c(F)c(F)c5F)c5nc(c(-c6c(F)c(F)c(F)c(F)c6F)c6ccc3[nH]6)C=C5)C=C4)cc2)c1
REMARK SMILES IDX 27 1 26 2 25 3 23 4 24 5 22 7 8 8 9 9 10 10 21 11 7 12 3 13
REMARK SMILES IDX 4 14 98 15 5 16 6 17 2 18 1 19 11 20 12 21 13 22 14 23 15 24
REMARK SMILES IDX 16 25 20 26 17 27 19 28 18 30 28 31 29 32 30 33 31 34 32 35
REMARK SMILES IDX 33 36 34 38 35 39 36 40 97 41 37 42 96 43 38 44 39 45 40 46
REMARK SMILES IDX 90 47 41 48 95 49 89 50 91 51 42 52 94 53 88 54 87 55 43 57
REMARK SMILES IDX 75 58 55 59 74 60 56 61 59 62 73 63 92 64 57 65 58 66 72 68
REMARK SMILES IDX 93 69 60 70 44 71 45 72 53 73 46 74 47 75 51 76 54 77 48 78
REMARK SMILES IDX 49 79 52 80 50 81 76 82 77 83 85 84 78 85 79 86 83 87 86 88
REMARK SMILES IDX 80 89 81 90 84 91 82 92 61 93 62 94 70 95 63 96 64 97 68 98
REMARK SMILES IDX 71 99 65 100 66 101 69 102 67 103
REMARK H PARENT 25 6 20 29 32 37 91 56 59 67
REMARK Flexibility Score: inf
ROOT
ATOM      1  C   UNL     1       4.847  -7.184   3.467  1.00  0.00     0.021 C 
ENDROOT
BRANCH   1   2
ATOM      2  C   UNL     1       5.593  -6.347   2.430  1.00  0.00     0.116 C 
BRANCH   2   3
ATOM      3  N   UNL     1       4.841  -6.236   1.194  1.00  0.00    -0.356 N 
ATOM      4  C   UNL     1       4.340  -5.155   0.540  1.00  0.00     0.225 C 
ATOM      5  O   UNL     1       3.749  -5.357  -0.523  1.00  0.00    -0.275 OA
ATOM      6  H   UNL     1       4.662  -7.096   0.750  1.00  0.00     0.163 HD
BRANCH   4   7
ATOM      7  C   UNL     1       4.505  -3.742   1.063  1.00  0.00     0.107 C 
ATOM      8  C   UNL     1       3.881  -3.516   2.455  1.00  0.00     0.053 C 
ATOM      9  C   UNL     1       4.826  -2.511   3.115  1.00  0.00     0.128 C 
ATOM     10  N   UNL     1       6.125  -2.802   2.531  1.00  0.00    -0.341 N 
ATOM     11  C   UNL     1       5.977  -3.350   1.192  1.00  0.00     0.133 C 
BRANCH   8  12
ATOM     12  C   UNL     1       2.436  -3.078   2.477  1.00  0.00    -0.039 A 
ATOM     13  C   UNL     1       0.661  -1.538   1.842  1.00  0.00     0.119 A 
ATOM     14  C   UNL     1      -0.231  -2.240   2.652  1.00  0.00     0.046 A 
ATOM     15  C   UNL     1       1.992  -1.952   1.764  1.00  0.00     0.050 A 
ATOM     16  C   UNL     1       0.190  -3.367   3.356  1.00  0.00     0.004 A 
ATOM     17  C   UNL     1       1.516  -3.785   3.267  1.00  0.00     0.004 A 
BRANCH  13  18
ATOM     18  O   UNL     1       0.139  -0.439   1.218  1.00  0.00    -0.497 OA
ATOM     19  C   UNL     1       0.809  -0.013   0.036  1.00  0.00     0.278 C 
ENDBRANCH  13  18
ENDBRANCH   8  12
BRANCH  10  20
ATOM     20  C   UNL     1       7.363  -2.502   3.041  1.00  0.00     0.233 C 
ATOM     21  O   UNL     1       8.391  -2.647   2.372  1.00  0.00    -0.274 OA
BRANCH  20  22
ATOM     22  C   UNL     1       7.477  -1.956   4.448  1.00  0.00     0.178 C 
BRANCH  22  23
ATOM     23  S   UNL     1       6.919  -0.251   4.578  1.00  0.00    -0.077 SA
BRANCH  23  24
ATOM     24  C   UNL     1       7.796   0.649   3.397  1.00  0.00     0.184 A 
ATOM     25  N   UNL     1       7.659   1.940   3.222  1.00  0.00    -0.206 NA
ATOM     26  N   UNL     1       8.694   0.161   2.493  1.00  0.00    -0.254 N 
ATOM     27  C   UNL     1       8.509   2.208   2.183  1.00  0.00     0.148 A 
ATOM     28  N   UNL     1       9.164   1.145   1.702  1.00  0.00    -0.158 NA
ATOM     29  H   UNL     1       8.962  -0.784   2.428  1.00  0.00     0.192 HD
ATOM     30  C   UNL     1       8.675   3.571   1.647  1.00  0.00     0.092 C 
ENDBRANCH  23  24
ENDBRANCH  22  23
ENDBRANCH  20  22
ENDBRANCH  10  20
ENDBRANCH   4   7
ENDBRANCH   2   3
ENDBRANCH   1   2
BRANCH   1  31
ATOM     31  C   UNL     1       4.750  -8.670   3.113  1.00  0.00     0.002 C 
BRANCH  31  32
ATOM     32  C   UNL     1       6.077  -9.350   2.739  1.00  0.00     0.002 C 
BRANCH  32  33
ATOM     33  C   UNL     1       7.239  -9.179   3.730  1.00  0.00     0.021 C 
BRANCH  33  34
ATOM     34  C   UNL     1       6.999  -9.848   5.071  1.00  0.00     0.116 C 
BRANCH  34  35
ATOM     35  N   UNL     1       6.911 -11.307   4.962  1.00  0.00    -0.352 N 
ATOM     36  C   UNL     1       6.648 -12.246   5.948  1.00  0.00     0.251 C 
ATOM     37  H   UNL     1       7.059 -11.673   4.060  1.00  0.00     0.163 HD
ATOM     38  O   UNL     1       6.949 -13.416   5.808  1.00  0.00    -0.269 OA
BRANCH  36  39
ATOM     39  C   UNL     1       5.963 -11.792   7.171  1.00  0.00     0.039 A 
ATOM     40  C   UNL     1       6.234 -12.314   8.441  1.00  0.00     0.014 A 
ATOM     41  C   UNL     1       5.023 -10.787   7.005  1.00  0.00     0.014 A 
ATOM     42  C   UNL     1       5.556 -11.782   9.537  1.00  0.00     0.010 A 
ATOM     43  C   UNL     1       4.602 -10.081   8.086  1.00  0.00     0.010 A 
ATOM     44  C   UNL     1       4.734 -10.670   9.334  1.00  0.00    -0.014 A 
BRANCH  44  45
ATOM     45  C   UNL     1       3.965 -10.022  10.380  1.00  0.00     0.031 A 
ATOM     46  C   UNL     1       4.779  -9.224  11.327  1.00  0.00     0.074 A 
ATOM     47  C   UNL     1       2.631  -9.856  10.221  1.00  0.00     0.049 A 
ATOM     48  N   UNL     1       4.935  -9.409  12.595  1.00  0.00    -0.248 NA
ATOM     49  C   UNL     1       5.658  -8.181  10.767  1.00  0.00     0.031 C 
ATOM     50  C   UNL     1       1.792 -10.266   9.083  1.00  0.00     0.029 A 
ATOM     51  N   UNL     1       1.767  -9.123  10.971  1.00  0.00    -0.354 N 
ATOM     52  C   UNL     1       5.758  -8.371  13.025  1.00  0.00     0.074 A 
ATOM     53  C   UNL     1       6.365  -7.830  11.842  1.00  0.00     0.031 C 
ATOM     54  C   UNL     1       0.628  -9.580   9.104  1.00  0.00     0.029 A 
ATOM     55  C   UNL     1       0.575  -8.799  10.323  1.00  0.00     0.049 A 
ATOM     56  H   UNL     1       1.965  -8.844  11.894  1.00  0.00     0.167 HD
ATOM     57  C   UNL     1       5.629  -7.847  14.277  1.00  0.00     0.037 A 
ATOM     58  C   UNL     1      -0.324  -7.876  10.753  1.00  0.00     0.037 A 
ATOM     59  C   UNL     1       4.864  -8.735  15.123  1.00  0.00     0.049 A 
ATOM     60  C   UNL     1      -0.024  -7.626  12.194  1.00  0.00     0.074 A 
ATOM     61  C   UNL     1       4.983 -10.066  15.480  1.00  0.00     0.029 A 
ATOM     62  N   UNL     1       3.557  -8.402  15.399  1.00  0.00    -0.354 N 
ATOM     63  N   UNL     1      -0.179  -8.525  13.130  1.00  0.00    -0.248 NA
ATOM     64  C   UNL     1       0.931  -6.568  12.496  1.00  0.00     0.031 C 
ATOM     65  C   UNL     1       3.652 -10.579  15.424  1.00  0.00     0.029 A 
ATOM     66  C   UNL     1       2.797  -9.514  15.141  1.00  0.00     0.049 A 
ATOM     67  H   UNL     1       3.231  -7.531  15.721  1.00  0.00     0.167 HD
ATOM     68  C   UNL     1       0.941  -8.393  13.939  1.00  0.00     0.074 A 
ATOM     69  C   UNL     1       1.565  -7.136  13.527  1.00  0.00     0.031 C 
ATOM     70  C   UNL     1       1.442  -9.449  14.647  1.00  0.00     0.037 A 
BRANCH  57  71
ATOM     71  C   UNL     1       5.829  -6.384  14.622  1.00  0.00     0.064 A 
ATOM     72  C   UNL     1       5.709  -5.993  15.972  1.00  0.00     0.173 A 
ATOM     73  C   UNL     1       5.835  -5.321  13.690  1.00  0.00     0.173 A 
ATOM     74  F   UNL     1       5.699  -6.909  16.951  1.00  0.00    -0.203 F 
ATOM     75  C   UNL     1       5.492  -4.663  16.343  1.00  0.00     0.198 A 
ATOM     76  C   UNL     1       5.676  -3.989  14.070  1.00  0.00     0.198 A 
ATOM     77  F   UNL     1       5.886  -5.511  12.369  1.00  0.00    -0.203 F 
ATOM     78  F   UNL     1       5.238  -4.366  17.624  1.00  0.00    -0.200 F 
ATOM     79  C   UNL     1       5.463  -3.663  15.390  1.00  0.00     0.200 A 
ATOM     80  F   UNL     1       5.644  -3.038  13.126  1.00  0.00    -0.200 F 
ATOM     81  F   UNL     1       5.185  -2.400  15.733  1.00  0.00    -0.200 F 
ENDBRANCH  57  71
BRANCH  58  82
ATOM     82  C   UNL     1      -1.161  -6.961   9.934  1.00  0.00     0.064 A 
ATOM     83  C   UNL     1      -2.247  -6.268  10.493  1.00  0.00     0.173 A 
ATOM     84  C   UNL     1      -0.758  -6.547   8.647  1.00  0.00     0.173 A 
ATOM     85  F   UNL     1      -2.666  -6.561  11.732  1.00  0.00    -0.203 F 
ATOM     86  C   UNL     1      -2.880  -5.218   9.814  1.00  0.00     0.198 A 
ATOM     87  C   UNL     1      -1.395  -5.506   7.967  1.00  0.00     0.198 A 
ATOM     88  F   UNL     1       0.323  -7.079   8.058  1.00  0.00    -0.203 F 
ATOM     89  F   UNL     1      -3.877  -4.543  10.404  1.00  0.00    -0.200 F 
ATOM     90  C   UNL     1      -2.448  -4.833   8.555  1.00  0.00     0.200 A 
ATOM     91  F   UNL     1      -0.939  -5.122   6.766  1.00  0.00    -0.200 F 
ATOM     92  F   UNL     1      -3.015  -3.793   7.928  1.00  0.00    -0.200 F 
ENDBRANCH  58  82
BRANCH  70  93
ATOM     93  C   UNL     1       0.639 -10.718  14.723  1.00  0.00     0.064 A 
ATOM     94  C   UNL     1       0.283 -11.496  13.607  1.00  0.00     0.173 A 
ATOM     95  C   UNL     1       0.380 -11.261  15.989  1.00  0.00     0.173 A 
ATOM     96  F   UNL     1       0.590 -11.103  12.366  1.00  0.00    -0.203 F 
ATOM     97  C   UNL     1      -0.336 -12.738  13.754  1.00  0.00     0.198 A 
ATOM     98  C   UNL     1      -0.202 -12.517  16.135  1.00  0.00     0.198 A 
ATOM     99  F   UNL     1       0.750 -10.592  17.093  1.00  0.00    -0.203 F 
ATOM    100  F   UNL     1      -0.667 -13.456  12.671  1.00  0.00    -0.200 F 
ATOM    101  C   UNL     1      -0.569 -13.250  15.019  1.00  0.00     0.200 A 
ATOM    102  F   UNL     1      -0.376 -13.030  17.360  1.00  0.00    -0.200 F 
ATOM    103  F   UNL     1      -1.120 -14.464  15.162  1.00  0.00    -0.200 F 
ENDBRANCH  70  93
ENDBRANCH  44  45
ENDBRANCH  36  39
ENDBRANCH  34  35
ENDBRANCH  33  34
ENDBRANCH  32  33
ENDBRANCH  31  32
ENDBRANCH   1  31
TORSDOF 19
