REMARK SMILES COc1ccc2cc([C@@H](O)[C@H](F)C(=O)NCCCCCCNC(=O)c3ccc(-c4c5nc(c(-c6c(F)c(F)c(F)c(F)c6F)c6ccc([nH]6)c(-c6c(F)c(F)c(F)c(F)c6F)c6nc(c(-c7c(F)c(F)c(F)c(F)c7F)c7ccc4[nH]7)C=C6)C=C5)cc3)ccc2c1
REMARK SMILES IDX 18 1 17 2 16 3 15 4 13 5 14 6 11 8 12 9 9 10 8 11 3 12 4 13
REMARK SMILES IDX 91 14 5 15 90 16 6 17 89 18 7 19 88 20 2 21 1 22 10 23 19 25
REMARK SMILES IDX 20 26 21 27 22 28 23 29 24 31 25 32 26 33 87 34 27 35 86 36
REMARK SMILES IDX 28 37 29 38 30 39 80 40 31 41 85 42 79 43 81 44 32 45 84 46
REMARK SMILES IDX 78 47 77 48 33 50 65 51 45 52 64 53 46 54 49 55 63 56 82 57
REMARK SMILES IDX 47 58 48 59 62 61 83 62 50 63 34 64 35 65 43 66 36 67 37 68
REMARK SMILES IDX 41 69 44 70 38 71 39 72 42 73 40 74 66 75 67 76 75 77 68 78
REMARK SMILES IDX 69 79 73 80 76 81 70 82 71 83 74 84 72 85 51 86 52 87 60 88
REMARK SMILES IDX 53 89 54 90 58 91 61 92 55 93 56 94 59 95 57 96
REMARK H PARENT 15 7 10 24 22 30 81 49 49 60
REMARK Flexibility Score: inf
ROOT
ATOM      1  C   UNL     1       0.284 -12.067   6.355  1.00  0.00     0.002 C 
ENDROOT
BRANCH   1   2
ATOM      2  C   UNL     1       0.138 -10.729   5.629  1.00  0.00     0.021 C 
BRANCH   2   3
ATOM      3  C   UNL     1       0.853  -9.566   6.303  1.00  0.00     0.116 C 
BRANCH   3   4
ATOM      4  N   UNL     1       2.299  -9.680   6.271  1.00  0.00    -0.353 N 
ATOM      5  C   UNL     1       3.201  -8.693   5.958  1.00  0.00     0.257 C 
ATOM      6  O   UNL     1       4.399  -8.894   6.178  1.00  0.00    -0.272 OA
ATOM      7  H   UNL     1       2.674 -10.561   6.500  1.00  0.00     0.163 HD
BRANCH   5   8
ATOM      8  C   UNL     1       2.713  -7.387   5.339  1.00  0.00     0.288 C 
ATOM      9  F   UNL     1       1.796  -7.638   4.356  1.00  0.00    -0.234 F 
BRANCH   8  10
ATOM     10  C   UNL     1       2.181  -6.379   6.394  1.00  0.00     0.188 C 
BRANCH  10  11
ATOM     11  C   UNL     1       1.214  -5.336   5.860  1.00  0.00    -0.015 A 
ATOM     12  C   UNL     1      -2.757  -2.919   3.799  1.00  0.00     0.119 A 
ATOM     13  C   UNL     1      -2.961  -4.275   3.558  1.00  0.00     0.047 A 
ATOM     14  C   UNL     1      -1.611  -2.495   4.479  1.00  0.00     0.055 A 
ATOM     15  C   UNL     1      -2.037  -5.208   4.027  1.00  0.00     0.012 A 
ATOM     16  C   UNL     1      -0.670  -3.422   4.957  1.00  0.00    -0.015 A 
ATOM     17  C   UNL     1      -0.894  -4.792   4.726  1.00  0.00    -0.018 A 
ATOM     18  C   UNL     1       0.485  -3.029   5.655  1.00  0.00     0.009 A 
ATOM     19  C   UNL     1       0.039  -5.724   5.194  1.00  0.00     0.015 A 
ATOM     20  C   UNL     1       1.417  -3.974   6.101  1.00  0.00     0.007 A 
BRANCH  12  21
ATOM     21  O   UNL     1      -3.590  -1.928   3.356  1.00  0.00    -0.497 OA
ATOM     22  C   UNL     1      -4.976  -2.241   3.452  1.00  0.00     0.278 C 
ENDBRANCH  12  21
ENDBRANCH  10  11
BRANCH  10  23
ATOM     23  O   UNL     1       1.532  -6.996   7.515  1.00  0.00    -0.385 OA
ATOM     24  H   UNL     1       0.712  -7.422   7.220  1.00  0.00     0.211 HD
ENDBRANCH  10  23
ENDBRANCH   8  10
ENDBRANCH   5   8
ENDBRANCH   3   4
ENDBRANCH   2   3
ENDBRANCH   1   2
BRANCH   1  25
ATOM     25  C   UNL     1      -0.133 -12.062   7.830  1.00  0.00     0.002 C 
BRANCH  25  26
ATOM     26  C   UNL     1      -1.552 -11.562   8.114  1.00  0.00     0.021 C 
BRANCH  26  27
ATOM     27  C   UNL     1      -2.659 -12.303   7.372  1.00  0.00     0.116 C 
BRANCH  27  28
ATOM     28  N   UNL     1      -2.689 -13.721   7.693  1.00  0.00    -0.352 N 
ATOM     29  C   UNL     1      -3.740 -14.502   8.100  1.00  0.00     0.251 C 
ATOM     30  H   UNL     1      -1.828 -14.189   7.606  1.00  0.00     0.163 HD
ATOM     31  O   UNL     1      -3.539 -15.651   8.492  1.00  0.00    -0.269 OA
BRANCH  29  32
ATOM     32  C   UNL     1      -5.115 -13.962   8.091  1.00  0.00     0.039 A 
ATOM     33  C   UNL     1      -5.941 -14.205   9.191  1.00  0.00     0.014 A 
ATOM     34  C   UNL     1      -5.597 -13.232   7.000  1.00  0.00     0.014 A 
ATOM     35  C   UNL     1      -7.229 -13.667   9.225  1.00  0.00     0.010 A 
ATOM     36  C   UNL     1      -6.855 -12.637   7.066  1.00  0.00     0.010 A 
ATOM     37  C   UNL     1      -7.685 -12.849   8.178  1.00  0.00    -0.014 A 
BRANCH  37  38
ATOM     38  C   UNL     1      -9.023 -12.206   8.233  1.00  0.00     0.031 A 
ATOM     39  C   UNL     1     -10.076 -12.561   7.219  1.00  0.00     0.074 A 
ATOM     40  C   UNL     1      -9.266 -11.255   9.157  1.00  0.00     0.049 A 
ATOM     41  N   UNL     1     -11.274 -12.055   7.059  1.00  0.00    -0.248 NA
ATOM     42  C   UNL     1      -9.732 -13.604   6.239  1.00  0.00     0.031 C 
ATOM     43  C   UNL     1      -8.310 -10.789  10.163  1.00  0.00     0.029 A 
ATOM     44  N   UNL     1     -10.387 -10.497   9.391  1.00  0.00    -0.354 N 
ATOM     45  C   UNL     1     -11.814 -12.701   5.955  1.00  0.00     0.074 A 
ATOM     46  C   UNL     1     -10.802 -13.607   5.456  1.00  0.00     0.031 C 
ATOM     47  C   UNL     1      -8.889  -9.838  10.915  1.00  0.00     0.029 A 
ATOM     48  C   UNL     1     -10.240  -9.597  10.419  1.00  0.00     0.049 A 
ATOM     49  H   UNL     1     -11.219 -10.590   8.872  1.00  0.00     0.167 HD
ATOM     50  C   UNL     1     -13.049 -12.563   5.418  1.00  0.00     0.037 A 
ATOM     51  C   UNL     1     -11.094  -8.671  10.898  1.00  0.00     0.037 A 
ATOM     52  C   UNL     1     -14.068 -11.691   5.942  1.00  0.00     0.049 A 
ATOM     53  C   UNL     1     -12.462  -8.546  10.279  1.00  0.00     0.074 A 
ATOM     54  C   UNL     1     -15.377 -11.546   5.517  1.00  0.00     0.029 A 
ATOM     55  N   UNL     1     -13.891 -10.816   7.003  1.00  0.00    -0.354 N 
ATOM     56  N   UNL     1     -12.990  -9.226   9.290  1.00  0.00    -0.248 NA
ATOM     57  C   UNL     1     -13.358  -7.529  10.850  1.00  0.00     0.031 C 
ATOM     58  C   UNL     1     -15.976 -10.542   6.283  1.00  0.00     0.029 A 
ATOM     59  C   UNL     1     -15.060 -10.106   7.226  1.00  0.00     0.049 A 
ATOM     60  H   UNL     1     -13.060 -10.715   7.520  1.00  0.00     0.167 HD
ATOM     61  C   UNL     1     -14.285  -8.746   9.146  1.00  0.00     0.074 A 
ATOM     62  C   UNL     1     -14.470  -7.730  10.159  1.00  0.00     0.031 C 
ATOM     63  C   UNL     1     -15.236  -9.112   8.252  1.00  0.00     0.037 A 
BRANCH  50  64
ATOM     64  C   UNL     1     -13.387 -13.373   4.201  1.00  0.00     0.064 A 
ATOM     65  C   UNL     1     -13.597 -14.758   4.271  1.00  0.00     0.173 A 
ATOM     66  C   UNL     1     -13.596 -12.739   2.966  1.00  0.00     0.173 A 
ATOM     67  F   UNL     1     -13.402 -15.412   5.426  1.00  0.00    -0.203 F 
ATOM     68  C   UNL     1     -13.993 -15.480   3.148  1.00  0.00     0.198 A 
ATOM     69  C   UNL     1     -14.020 -13.460   1.852  1.00  0.00     0.198 A 
ATOM     70  F   UNL     1     -13.415 -11.415   2.846  1.00  0.00    -0.203 F 
ATOM     71  F   UNL     1     -14.161 -16.807   3.232  1.00  0.00    -0.200 F 
ATOM     72  C   UNL     1     -14.216 -14.829   1.944  1.00  0.00     0.200 A 
ATOM     73  F   UNL     1     -14.249 -12.826   0.694  1.00  0.00    -0.200 F 
ATOM     74  F   UNL     1     -14.620 -15.522   0.871  1.00  0.00    -0.200 F 
ENDBRANCH  50  64
BRANCH  51  75
ATOM     75  C   UNL     1     -10.691  -7.781  12.021  1.00  0.00     0.064 A 
ATOM     76  C   UNL     1     -11.329  -7.856  13.268  1.00  0.00     0.173 A 
ATOM     77  C   UNL     1      -9.700  -6.803  11.856  1.00  0.00     0.173 A 
ATOM     78  F   UNL     1     -12.298  -8.761  13.470  1.00  0.00    -0.203 F 
ATOM     79  C   UNL     1     -11.020  -6.962  14.291  1.00  0.00     0.198 A 
ATOM     80  C   UNL     1      -9.367  -5.932  12.891  1.00  0.00     0.198 A 
ATOM     81  F   UNL     1      -9.054  -6.690  10.686  1.00  0.00    -0.203 F 
ATOM     82  F   UNL     1     -11.697  -7.010  15.446  1.00  0.00    -0.200 F 
ATOM     83  C   UNL     1     -10.038  -6.002  14.102  1.00  0.00     0.200 A 
ATOM     84  F   UNL     1      -8.406  -5.016  12.710  1.00  0.00    -0.200 F 
ATOM     85  F   UNL     1      -9.748  -5.135  15.082  1.00  0.00    -0.200 F 
ENDBRANCH  51  75
BRANCH  63  86
ATOM     86  C   UNL     1     -16.578  -8.449   8.360  1.00  0.00     0.064 A 
ATOM     87  C   UNL     1     -16.768  -7.103   8.015  1.00  0.00     0.173 A 
ATOM     88  C   UNL     1     -17.699  -9.185   8.776  1.00  0.00     0.173 A 
ATOM     89  F   UNL     1     -15.727  -6.353   7.625  1.00  0.00    -0.203 F 
ATOM     90  C   UNL     1     -18.025  -6.511   8.111  1.00  0.00     0.198 A 
ATOM     91  C   UNL     1     -18.960  -8.599   8.837  1.00  0.00     0.198 A 
ATOM     92  F   UNL     1     -17.574 -10.479   9.109  1.00  0.00    -0.203 F 
ATOM     93  F   UNL     1     -18.172  -5.210   7.827  1.00  0.00    -0.200 F 
ATOM     94  C   UNL     1     -19.120  -7.261   8.513  1.00  0.00     0.200 A 
ATOM     95  F   UNL     1     -20.020  -9.330   9.209  1.00  0.00    -0.200 F 
ATOM     96  F   UNL     1     -20.330  -6.691   8.595  1.00  0.00    -0.200 F 
ENDBRANCH  63  86
ENDBRANCH  37  38
ENDBRANCH  29  32
ENDBRANCH  27  28
ENDBRANCH  26  27
ENDBRANCH  25  26
ENDBRANCH   1  25
TORSDOF 17
