REMARK SMILES C#CCN(CC(=O)NCCCCCCNC(=O)c1ccc(-c2c3nc(c(-c4c(F)c(F)c(F)c(F)c4F)c4ccc([nH]4)c(-c4c(F)c(F)c(F)c(F)c4F)c4nc(c(-c5c(F)c(F)c(F)c(F)c5F)c5ccc2[nH]5)C=C4)C=C3)cc1)C(=O)Nc1cccc(C#N)c1
REMARK SMILES IDX 10 1 9 2 8 3 6 4 7 5 5 7 4 8 3 9 2 10 1 11 81 12 82 13 83 14
REMARK SMILES IDX 84 16 85 17 91 18 86 19 88 20 87 21 89 22 90 23 11 24 12 25
REMARK SMILES IDX 13 26 14 27 15 28 16 29 17 31 18 32 19 33 80 34 20 35 79 36
REMARK SMILES IDX 21 37 22 38 23 39 73 40 24 41 78 42 72 43 74 44 25 45 77 46
REMARK SMILES IDX 71 47 70 48 26 50 58 51 38 52 57 53 39 54 42 55 56 56 75 57
REMARK SMILES IDX 40 58 41 59 55 61 76 62 43 63 27 64 28 65 36 66 29 67 30 68
REMARK SMILES IDX 34 69 37 70 31 71 32 72 35 73 33 74 59 75 60 76 68 77 61 78
REMARK SMILES IDX 62 79 66 80 69 81 63 82 64 83 67 84 65 85 44 86 45 87 53 88
REMARK SMILES IDX 46 89 47 90 51 91 54 92 48 93 49 94 52 95 50 96
REMARK H PARENT 8 6 83 15 15 30 74 49 42 60
REMARK Flexibility Score: inf
ROOT
ATOM      1  C   UNL     1      -4.819   0.585  -1.722  1.00  0.00     0.021 C 
ENDROOT
BRANCH   1   2
ATOM      2  C   UNL     1      -4.778   1.193  -0.320  1.00  0.00     0.116 C 
BRANCH   2   3
ATOM      3  N   UNL     1      -5.336   0.294   0.649  1.00  0.00    -0.355 N 
ATOM      4  C   UNL     1      -4.877  -0.861   1.173  1.00  0.00     0.239 C 
ATOM      5  O   UNL     1      -5.774  -1.613   1.562  1.00  0.00    -0.273 OA
ATOM      6  H   UNL     1      -6.216   0.571   0.994  1.00  0.00     0.163 HD
BRANCH   4   7
ATOM      7  C   UNL     1      -3.392  -1.169   1.476  1.00  0.00     0.222 C 
BRANCH   7   8
ATOM      8  N   UNL     1      -2.425  -1.224   0.379  1.00  0.00    -0.304 N 
BRANCH   8   9
ATOM      9  C   UNL     1      -1.784   0.058   0.071  1.00  0.00     0.211 C 
BRANCH   9  10
ATOM     10  C   UNL     1      -0.264   0.058   0.071  1.00  0.00    -0.085 C 
ATOM     11  C   UNL     1       1.040   0.058   0.071  1.00  0.00     0.006 C 
ENDBRANCH   9  10
ENDBRANCH   8   9
BRANCH   8  12
ATOM     12  C   UNL     1      -2.078  -2.301  -0.408  1.00  0.00     0.323 C 
ATOM     13  O   UNL     1      -1.425  -2.133  -1.447  1.00  0.00    -0.248 OA
ATOM     14  N   UNL     1      -2.221  -3.601  -0.037  1.00  0.00    -0.308 N 
ATOM     15  H   UNL     1      -1.548  -4.171  -0.475  1.00  0.00     0.171 HD
BRANCH  14  16
ATOM     16  C   UNL     1      -3.058  -4.356   0.794  1.00  0.00     0.044 A 
ATOM     17  C   UNL     1      -2.520  -5.479   1.435  1.00  0.00     0.026 A 
ATOM     18  C   UNL     1      -4.410  -4.084   0.959  1.00  0.00     0.045 A 
ATOM     19  C   UNL     1      -3.276  -6.195   2.369  1.00  0.00     0.004 A 
ATOM     20  C   UNL     1      -5.153  -4.740   1.951  1.00  0.00     0.054 A 
ATOM     21  C   UNL     1      -4.577  -5.792   2.664  1.00  0.00     0.019 A 
BRANCH  20  22
ATOM     22  C   UNL     1      -6.480  -4.303   2.304  1.00  0.00     0.099 C 
ATOM     23  N   UNL     1      -7.531  -3.975   2.656  1.00  0.00    -0.192 NA
ENDBRANCH  20  22
ENDBRANCH  14  16
ENDBRANCH   8  12
ENDBRANCH   7   8
ENDBRANCH   4   7
ENDBRANCH   2   3
ENDBRANCH   1   2
BRANCH   1  24
ATOM     24  C   UNL     1      -6.185   0.046  -2.177  1.00  0.00     0.002 C 
BRANCH  24  25
ATOM     25  C   UNL     1      -7.402   0.943  -1.929  1.00  0.00     0.002 C 
BRANCH  25  26
ATOM     26  C   UNL     1      -7.239   2.401  -2.343  1.00  0.00     0.021 C 
BRANCH  26  27
ATOM     27  C   UNL     1      -6.865   2.587  -3.800  1.00  0.00     0.116 C 
BRANCH  27  28
ATOM     28  N   UNL     1      -8.006   2.369  -4.669  1.00  0.00    -0.352 N 
ATOM     29  C   UNL     1      -8.650   3.282  -5.466  1.00  0.00     0.251 C 
ATOM     30  H   UNL     1      -8.364   1.452  -4.689  1.00  0.00     0.163 HD
ATOM     31  O   UNL     1      -9.753   3.034  -5.939  1.00  0.00    -0.269 OA
BRANCH  29  32
ATOM     32  C   UNL     1      -8.003   4.586  -5.729  1.00  0.00     0.039 A 
ATOM     33  C   UNL     1      -8.765   5.752  -5.647  1.00  0.00     0.014 A 
ATOM     34  C   UNL     1      -6.640   4.654  -6.035  1.00  0.00     0.014 A 
ATOM     35  C   UNL     1      -8.147   6.991  -5.825  1.00  0.00     0.010 A 
ATOM     36  C   UNL     1      -6.009   5.889  -6.110  1.00  0.00     0.010 A 
ATOM     37  C   UNL     1      -6.759   7.072  -6.027  1.00  0.00    -0.014 A 
BRANCH  37  38
ATOM     38  C   UNL     1      -6.078   8.381  -6.192  1.00  0.00     0.031 A 
ATOM     39  C   UNL     1      -5.369   8.695  -7.483  1.00  0.00     0.074 A 
ATOM     40  C   UNL     1      -6.057   9.263  -5.174  1.00  0.00     0.049 A 
ATOM     41  N   UNL     1      -4.661   9.749  -7.804  1.00  0.00    -0.248 NA
ATOM     42  C   UNL     1      -5.444   7.680  -8.546  1.00  0.00     0.031 C 
ATOM     43  C   UNL     1      -6.673   9.057  -3.862  1.00  0.00     0.029 A 
ATOM     44  N   UNL     1      -5.489  10.509  -5.080  1.00  0.00    -0.354 N 
ATOM     45  C   UNL     1      -4.204   9.517  -9.095  1.00  0.00     0.074 A 
ATOM     46  C   UNL     1      -4.655   8.197  -9.476  1.00  0.00     0.031 C 
ATOM     47  C   UNL     1      -6.473  10.148  -3.106  1.00  0.00     0.029 A 
ATOM     48  C   UNL     1      -5.675  11.110  -3.859  1.00  0.00     0.049 A 
ATOM     49  H   UNL     1      -4.994  10.932  -5.819  1.00  0.00     0.167 HD
ATOM     50  C   UNL     1      -3.499  10.343  -9.903  1.00  0.00     0.037 A 
ATOM     51  C   UNL     1      -5.240  12.299  -3.397  1.00  0.00     0.037 A 
ATOM     52  C   UNL     1      -3.070  11.664  -9.528  1.00  0.00     0.049 A 
ATOM     53  C   UNL     1      -4.427  13.182  -4.309  1.00  0.00     0.074 A 
ATOM     54  C   UNL     1      -2.385  12.595 -10.288  1.00  0.00     0.029 A 
ATOM     55  N   UNL     1      -3.285  12.240  -8.285  1.00  0.00    -0.354 N 
ATOM     56  N   UNL     1      -4.056  12.978  -5.549  1.00  0.00    -0.248 NA
ATOM     57  C   UNL     1      -3.977  14.468  -3.755  1.00  0.00     0.031 C 
ATOM     58  C   UNL     1      -2.135  13.713  -9.487  1.00  0.00     0.029 A 
ATOM     59  C   UNL     1      -2.725  13.507  -8.250  1.00  0.00     0.049 A 
ATOM     60  H   UNL     1      -3.764  11.813  -7.539  1.00  0.00     0.167 HD
ATOM     61  C   UNL     1      -3.368  14.120  -5.936  1.00  0.00     0.074 A 
ATOM     62  C   UNL     1      -3.386  15.021  -4.803  1.00  0.00     0.031 C 
ATOM     63  C   UNL     1      -2.772  14.400  -7.121  1.00  0.00     0.037 A 
BRANCH  50  64
ATOM     64  C   UNL     1      -3.154   9.850 -11.279  1.00  0.00     0.064 A 
ATOM     65  C   UNL     1      -4.138   9.673 -12.265  1.00  0.00     0.173 A 
ATOM     66  C   UNL     1      -1.819   9.608 -11.636  1.00  0.00     0.173 A 
ATOM     67  F   UNL     1      -5.431   9.879 -11.973  1.00  0.00    -0.203 F 
ATOM     68  C   UNL     1      -3.800   9.252 -13.548  1.00  0.00     0.198 A 
ATOM     69  C   UNL     1      -1.481   9.220 -12.930  1.00  0.00     0.198 A 
ATOM     70  F   UNL     1      -0.838   9.765 -10.734  1.00  0.00    -0.203 F 
ATOM     71  F   UNL     1      -4.761   9.048 -14.459  1.00  0.00    -0.200 F 
ATOM     72  C   UNL     1      -2.472   9.037 -13.883  1.00  0.00     0.200 A 
ATOM     73  F   UNL     1      -0.196   9.028 -13.255  1.00  0.00    -0.200 F 
ATOM     74  F   UNL     1      -2.146   8.649 -15.123  1.00  0.00    -0.200 F 
ENDBRANCH  50  64
BRANCH  51  75
ATOM     75  C   UNL     1      -5.560  12.733  -2.010  1.00  0.00     0.064 A 
ATOM     76  C   UNL     1      -6.374  13.850  -1.772  1.00  0.00     0.173 A 
ATOM     77  C   UNL     1      -5.024  12.070  -0.896  1.00  0.00     0.173 A 
ATOM     78  F   UNL     1      -6.896  14.530  -2.803  1.00  0.00    -0.203 F 
ATOM     79  C   UNL     1      -6.605  14.311  -0.477  1.00  0.00     0.198 A 
ATOM     80  C   UNL     1      -5.287  12.510   0.400  1.00  0.00     0.198 A 
ATOM     81  F   UNL     1      -4.245  10.992  -1.064  1.00  0.00    -0.203 F 
ATOM     82  F   UNL     1      -7.328  15.423  -0.284  1.00  0.00    -0.200 F 
ATOM     83  C   UNL     1      -6.064  13.639   0.608  1.00  0.00     0.200 A 
ATOM     84  F   UNL     1      -4.776  11.847   1.446  1.00  0.00    -0.200 F 
ATOM     85  F   UNL     1      -6.280  14.087   1.852  1.00  0.00    -0.200 F 
ENDBRANCH  51  75
BRANCH  63  86
ATOM     86  C   UNL     1      -2.142  15.754  -7.278  1.00  0.00     0.064 A 
ATOM     87  C   UNL     1      -0.974  16.114  -6.589  1.00  0.00     0.173 A 
ATOM     88  C   UNL     1      -2.694  16.691  -8.166  1.00  0.00     0.173 A 
ATOM     89  F   UNL     1      -0.413  15.261  -5.719  1.00  0.00    -0.203 F 
ATOM     90  C   UNL     1      -0.402  17.372  -6.760  1.00  0.00     0.198 A 
ATOM     91  C   UNL     1      -2.098  17.933  -8.363  1.00  0.00     0.198 A 
ATOM     92  F   UNL     1      -3.805  16.395  -8.858  1.00  0.00    -0.203 F 
ATOM     93  F   UNL     1       0.682  17.714  -6.049  1.00  0.00    -0.200 F 
ATOM     94  C   UNL     1      -0.958  18.276  -7.653  1.00  0.00     0.200 A 
ATOM     95  F   UNL     1      -2.626  18.797  -9.240  1.00  0.00    -0.200 F 
ATOM     96  F   UNL     1      -0.399  19.481  -7.823  1.00  0.00    -0.200 F 
ENDBRANCH  63  86
ENDBRANCH  37  38
ENDBRANCH  29  32
ENDBRANCH  27  28
ENDBRANCH  26  27
ENDBRANCH  25  26
ENDBRANCH  24  25
ENDBRANCH   1  24
TORSDOF 19
