REMARK SMILES CC(C)n1cncc1C[NH2+][C@H]1[C@@H]2CC[C@@H](C2)[C@@H]1C(=O)NCCCCCCNC(=O)c1ccc(-c2c3nc(c(-c4c(F)c(F)c(F)c(F)c4F)c4ccc([nH]4)c(-c4c(F)c(F)c(F)c(F)c4F)c4nc(c(-c5c(F)c(F)c(F)c(F)c5F)c5ccc2[nH]5)C=C4)C=C3)cc1
REMARK SMILES IDX 22 1 21 2 20 3 18 4 19 5 17 7 11 8 12 9 13 10 16 11 15 12
REMARK SMILES IDX 14 13 10 14 9 17 8 18 4 19 5 20 6 21 7 22 2 23 1 24 3 25
REMARK SMILES IDX 23 26 24 27 25 28 26 29 27 30 28 31 29 33 30 34 31 35 92 36
REMARK SMILES IDX 32 37 91 38 33 39 34 40 35 41 85 42 36 43 90 44 84 45 86 46
REMARK SMILES IDX 37 47 89 48 83 49 82 50 38 52 70 53 50 54 69 55 51 56 54 57
REMARK SMILES IDX 68 58 87 59 52 60 53 61 67 63 88 64 55 65 39 66 40 67 48 68
REMARK SMILES IDX 41 69 42 70 46 71 49 72 43 73 44 74 47 75 45 76 71 77 72 78
REMARK SMILES IDX 80 79 73 80 74 81 78 82 81 83 75 84 76 85 79 86 77 87 56 88
REMARK SMILES IDX 57 89 65 90 58 91 59 92 63 93 66 94 60 95 61 96 64 97 62 98
REMARK H PARENT 20 6 10 15 10 16 27 32 86 51 54 62
REMARK Flexibility Score: inf
ROOT
ATOM      1  C   UNL     1       1.156   9.573   0.762  1.00  0.00     0.021 C 
ENDROOT
BRANCH   1   2
ATOM      2  C   UNL     1       0.787   8.091   0.806  1.00  0.00     0.116 C 
BRANCH   2   3
ATOM      3  N   UNL     1      -0.353   7.861   1.657  1.00  0.00    -0.356 N 
ATOM      4  C   UNL     1      -1.614   7.445   1.403  1.00  0.00     0.229 C 
ATOM      5  O   UNL     1      -2.381   7.465   2.374  1.00  0.00    -0.275 OA
ATOM      6  H   UNL     1      -0.179   8.042   2.609  1.00  0.00     0.163 HD
BRANCH   4   7
ATOM      7  C   UNL     1      -2.134   6.958   0.055  1.00  0.00     0.140 C 
ATOM      8  C   UNL     1      -1.310   5.932  -0.759  1.00  0.00     0.198 C 
ATOM      9  C   UNL     1      -1.569   6.423  -2.220  1.00  0.00     0.048 C 
ATOM     10  C   UNL     1      -0.731   7.681  -2.504  1.00  0.00     0.010 C 
ATOM     11  C   UNL     1      -2.975   7.036  -2.142  1.00  0.00     0.014 C 
ATOM     12  C   UNL     1      -2.592   7.993  -1.002  1.00  0.00     0.008 C 
ATOM     13  C   UNL     1      -1.448   8.759  -1.679  1.00  0.00     0.005 C 
BRANCH   8  14
ATOM     14  N   UNL     1      -1.807   4.558  -0.626  1.00  0.00    -0.338 N 
ATOM     15  H   UNL     1      -2.809   4.558  -0.814  1.00  0.00     0.346 HD
ATOM     16  H   UNL     1      -1.287   3.986  -1.293  1.00  0.00     0.346 HD
BRANCH  14  17
ATOM     17  C   UNL     1      -1.584   3.980   0.698  1.00  0.00     0.317 C 
BRANCH  17  18
ATOM     18  C   UNL     1      -1.923   2.534   0.641  1.00  0.00     0.093 A 
ATOM     19  N   UNL     1      -1.064   1.452   0.539  1.00  0.00    -0.327 N 
ATOM     20  C   UNL     1      -1.863   0.330   0.564  1.00  0.00     0.200 A 
ATOM     21  N   UNL     1      -3.140   0.618   0.627  1.00  0.00    -0.245 NA
ATOM     22  C   UNL     1      -3.189   1.977   0.672  1.00  0.00     0.140 A 
BRANCH  19  23
ATOM     23  C   UNL     1       0.404   1.426   0.521  1.00  0.00     0.082 C 
ATOM     24  C   UNL     1       0.990   0.046   0.159  1.00  0.00     0.031 C 
ATOM     25  C   UNL     1       1.050   2.446  -0.427  1.00  0.00     0.031 C 
ENDBRANCH  19  23
ENDBRANCH  17  18
ENDBRANCH  14  17
ENDBRANCH   8  14
ENDBRANCH   4   7
ENDBRANCH   2   3
ENDBRANCH   1   2
BRANCH   1  26
ATOM     26  C   UNL     1       2.130  10.004   1.858  1.00  0.00     0.002 C 
BRANCH  26  27
ATOM     27  C   UNL     1       3.463   9.243   1.886  1.00  0.00     0.002 C 
BRANCH  27  28
ATOM     28  C   UNL     1       4.214   9.140   0.550  1.00  0.00     0.021 C 
BRANCH  28  29
ATOM     29  C   UNL     1       4.657  10.486  -0.004  1.00  0.00     0.116 C 
BRANCH  29  30
ATOM     30  N   UNL     1       5.608  11.149   0.881  1.00  0.00    -0.352 N 
ATOM     31  C   UNL     1       6.213  12.380   0.742  1.00  0.00     0.251 C 
ATOM     32  H   UNL     1       5.852  10.648   1.693  1.00  0.00     0.163 HD
ATOM     33  O   UNL     1       7.229  12.650   1.360  1.00  0.00    -0.269 OA
BRANCH  31  34
ATOM     34  C   UNL     1       5.614  13.371  -0.169  1.00  0.00     0.039 A 
ATOM     35  C   UNL     1       6.427  14.191  -0.956  1.00  0.00     0.014 A 
ATOM     36  C   UNL     1       4.226  13.483  -0.219  1.00  0.00     0.014 A 
ATOM     37  C   UNL     1       5.828  15.076  -1.845  1.00  0.00     0.010 A 
ATOM     38  C   UNL     1       3.636  14.256  -1.187  1.00  0.00     0.010 A 
ATOM     39  C   UNL     1       4.430  15.090  -1.967  1.00  0.00    -0.014 A 
BRANCH  39  40
ATOM     40  C   UNL     1       3.787  15.877  -3.011  1.00  0.00     0.031 A 
ATOM     41  C   UNL     1       4.239  15.534  -4.387  1.00  0.00     0.074 A 
ATOM     42  C   UNL     1       2.723  16.674  -2.773  1.00  0.00     0.049 A 
ATOM     43  N   UNL     1       4.867  16.290  -5.224  1.00  0.00    -0.248 NA
ATOM     44  C   UNL     1       4.104  14.137  -4.836  1.00  0.00     0.031 C 
ATOM     45  C   UNL     1       1.988  16.846  -1.515  1.00  0.00     0.029 A 
ATOM     46  N   UNL     1       1.997  17.429  -3.644  1.00  0.00    -0.354 N 
ATOM     47  C   UNL     1       5.035  15.530  -6.380  1.00  0.00     0.074 A 
ATOM     48  C   UNL     1       4.721  14.175  -6.019  1.00  0.00     0.031 C 
ATOM     49  C   UNL     1       0.807  17.456  -1.757  1.00  0.00     0.029 A 
ATOM     50  C   UNL     1       0.773  17.865  -3.148  1.00  0.00     0.049 A 
ATOM     51  H   UNL     1       2.313  17.648  -4.551  1.00  0.00     0.167 HD
ATOM     52  C   UNL     1       5.167  16.137  -7.593  1.00  0.00     0.037 A 
ATOM     53  C   UNL     1      -0.209  18.494  -3.840  1.00  0.00     0.037 A 
ATOM     54  C   UNL     1       5.512  17.528  -7.425  1.00  0.00     0.049 A 
ATOM     55  C   UNL     1       0.408  19.048  -5.069  1.00  0.00     0.074 A 
ATOM     56  C   UNL     1       6.575  18.211  -6.867  1.00  0.00     0.029 A 
ATOM     57  N   UNL     1       4.494  18.441  -7.535  1.00  0.00    -0.354 N 
ATOM     58  N   UNL     1       1.276  20.020  -5.070  1.00  0.00    -0.248 NA
ATOM     59  C   UNL     1       0.393  18.222  -6.265  1.00  0.00     0.031 C 
ATOM     60  C   UNL     1       5.996  19.362  -6.255  1.00  0.00     0.029 A 
ATOM     61  C   UNL     1       4.628  19.363  -6.533  1.00  0.00     0.049 A 
ATOM     62  H   UNL     1       3.786  18.434  -8.220  1.00  0.00     0.167 HD
ATOM     63  C   UNL     1       2.203  19.658  -6.035  1.00  0.00     0.074 A 
ATOM     64  C   UNL     1       1.550  18.607  -6.811  1.00  0.00     0.031 C 
ATOM     65  C   UNL     1       3.509  20.039  -5.918  1.00  0.00     0.037 A 
BRANCH  52  66
ATOM     66  C   UNL     1       4.578  15.616  -8.890  1.00  0.00     0.064 A 
ATOM     67  C   UNL     1       4.789  16.359 -10.073  1.00  0.00     0.173 A 
ATOM     68  C   UNL     1       3.572  14.630  -8.975  1.00  0.00     0.173 A 
ATOM     69  F   UNL     1       5.720  17.324 -10.119  1.00  0.00    -0.203 F 
ATOM     70  C   UNL     1       3.980  16.203 -11.203  1.00  0.00     0.198 A 
ATOM     71  C   UNL     1       2.801  14.443 -10.122  1.00  0.00     0.198 A 
ATOM     72  F   UNL     1       3.211  13.877  -7.931  1.00  0.00    -0.203 F 
ATOM     73  F   UNL     1       4.128  17.033 -12.245  1.00  0.00    -0.200 F 
ATOM     74  C   UNL     1       2.978  15.254 -11.221  1.00  0.00     0.200 A 
ATOM     75  F   UNL     1       1.825  13.523 -10.114  1.00  0.00    -0.200 F 
ATOM     76  F   UNL     1       2.155  15.150 -12.272  1.00  0.00    -0.200 F 
ENDBRANCH  52  66
BRANCH  53  77
ATOM     77  C   UNL     1      -1.679  18.414  -3.663  1.00  0.00     0.064 A 
ATOM     78  C   UNL     1      -2.535  19.361  -4.249  1.00  0.00     0.173 A 
ATOM     79  C   UNL     1      -2.289  17.248  -3.159  1.00  0.00     0.173 A 
ATOM     80  F   UNL     1      -2.032  20.478  -4.794  1.00  0.00    -0.203 F 
ATOM     81  C   UNL     1      -3.914  19.142  -4.353  1.00  0.00     0.198 A 
ATOM     82  C   UNL     1      -3.665  17.033  -3.258  1.00  0.00     0.198 A 
ATOM     83  F   UNL     1      -1.550  16.251  -2.653  1.00  0.00    -0.203 F 
ATOM     84  F   UNL     1      -4.688  20.039  -4.979  1.00  0.00    -0.200 F 
ATOM     85  C   UNL     1      -4.475  17.973  -3.868  1.00  0.00     0.200 A 
ATOM     86  F   UNL     1      -4.190  15.880  -2.821  1.00  0.00    -0.200 F 
ATOM     87  F   UNL     1      -5.784  17.733  -4.026  1.00  0.00    -0.200 F 
ENDBRANCH  53  77
BRANCH  65  88
ATOM     88  C   UNL     1       3.837  21.110  -4.913  1.00  0.00     0.064 A 
ATOM     89  C   UNL     1       3.660  20.982  -3.524  1.00  0.00     0.173 A 
ATOM     90  C   UNL     1       4.484  22.265  -5.374  1.00  0.00     0.173 A 
ATOM     91  F   UNL     1       3.137  19.871  -2.992  1.00  0.00    -0.203 F 
ATOM     92  C   UNL     1       4.074  21.983  -2.646  1.00  0.00     0.198 A 
ATOM     93  C   UNL     1       4.933  23.244  -4.493  1.00  0.00     0.198 A 
ATOM     94  F   UNL     1       4.726  22.420  -6.685  1.00  0.00    -0.203 F 
ATOM     95  F   UNL     1       3.881  21.844  -1.326  1.00  0.00    -0.200 F 
ATOM     96  C   UNL     1       4.719  23.109  -3.131  1.00  0.00     0.200 A 
ATOM     97  F   UNL     1       5.600  24.306  -4.965  1.00  0.00    -0.200 F 
ATOM     98  F   UNL     1       5.157  24.052  -2.286  1.00  0.00    -0.200 F 
ENDBRANCH  65  88
ENDBRANCH  39  40
ENDBRANCH  31  34
ENDBRANCH  29  30
ENDBRANCH  28  29
ENDBRANCH  27  28
ENDBRANCH  26  27
ENDBRANCH   1  26
TORSDOF 17
