REMARK SMILES O=C(NCCCCCCNC(=O)c1[nH]nc2c1CCC2)c1ccc(-c2c3nc(c(-c4c(F)c(F)c(F)c(F)c4F)c4ccc([nH]4)c(-c4c(F)c(F)c(F)c(F)c4F)c4nc(c(-c5c(F)c(F)c(F)c(F)c5F)c5ccc2[nH]5)C=C4)C=C3)cc1
REMARK SMILES IDX 5 1 4 2 3 3 1 4 2 5 21 7 22 8 83 9 23 10 82 11 24 12 25 13
REMARK SMILES IDX 26 14 76 15 27 16 81 17 75 18 77 19 28 20 80 21 74 22 73 23
REMARK SMILES IDX 29 25 61 26 41 27 60 28 42 29 45 30 59 31 78 32 43 33 44 34
REMARK SMILES IDX 58 36 79 37 46 38 30 39 31 40 39 41 32 42 33 43 37 44 40 45
REMARK SMILES IDX 34 46 35 47 38 48 36 49 62 50 63 51 71 52 64 53 65 54 69 55
REMARK SMILES IDX 72 56 66 57 67 58 70 59 68 60 47 61 48 62 56 63 49 64 50 65
REMARK SMILES IDX 54 66 57 67 51 68 52 69 55 70 53 71 6 72 7 73 8 74 9 75
REMARK SMILES IDX 10 76 11 77 12 79 13 80 14 81 17 82 15 83 16 85 18 86 20 87
REMARK SMILES IDX 19 88
REMARK H PARENT 3 6 77 24 45 35 10 78 14 84
REMARK Flexibility Score: inf
ROOT
ATOM      1  C   UNL     1       4.734  -2.212   0.362  1.00  0.00     0.021 C 
ENDROOT
BRANCH   1   2
ATOM      2  C   UNL     1       4.564  -0.926  -0.446  1.00  0.00     0.116 C 
BRANCH   2   3
ATOM      3  N   UNL     1       3.194  -0.606  -0.780  1.00  0.00    -0.352 N 
ATOM      4  O   UNL     1       1.160   0.257  -0.794  1.00  0.00    -0.269 OA
ATOM      5  C   UNL     1       2.166   0.008  -0.125  1.00  0.00     0.251 C 
ATOM      6  H   UNL     1       2.946  -0.897  -1.688  1.00  0.00     0.163 HD
BRANCH   5   7
ATOM      7  C   UNL     1       2.146   0.312   1.330  1.00  0.00     0.039 A 
ATOM      8  C   UNL     1       3.249   0.312   2.185  1.00  0.00     0.014 A 
ATOM      9  C   UNL     1       0.875   0.590   1.869  1.00  0.00     0.014 A 
ATOM     10  C   UNL     1       3.078   0.484   3.555  1.00  0.00     0.010 A 
ATOM     11  C   UNL     1       0.698   0.775   3.232  1.00  0.00     0.010 A 
ATOM     12  C   UNL     1       1.799   0.687   4.078  1.00  0.00    -0.014 A 
BRANCH  12  13
ATOM     13  C   UNL     1       1.671   1.029   5.492  1.00  0.00     0.031 A 
ATOM     14  C   UNL     1       2.245   2.363   5.823  1.00  0.00     0.074 A 
ATOM     15  C   UNL     1       0.955   0.294   6.367  1.00  0.00     0.049 A 
ATOM     16  N   UNL     1       3.201   2.637   6.650  1.00  0.00    -0.248 NA
ATOM     17  C   UNL     1       1.798   3.523   5.030  1.00  0.00     0.031 C 
ATOM     18  C   UNL     1       0.126  -0.875   6.063  1.00  0.00     0.029 A 
ATOM     19  N   UNL     1       0.717   0.495   7.698  1.00  0.00    -0.354 N 
ATOM     20  C   UNL     1       3.335   4.026   6.630  1.00  0.00     0.074 A 
ATOM     21  C   UNL     1       2.591   4.489   5.493  1.00  0.00     0.031 C 
ATOM     22  C   UNL     1      -0.694  -1.127   7.108  1.00  0.00     0.029 A 
ATOM     23  C   UNL     1      -0.373  -0.216   8.193  1.00  0.00     0.049 A 
ATOM     24  H   UNL     1       1.268   1.091   8.256  1.00  0.00     0.167 HD
ATOM     25  C   UNL     1       3.793   4.689   7.728  1.00  0.00     0.037 A 
ATOM     26  C   UNL     1      -1.009  -0.022   9.378  1.00  0.00     0.037 A 
ATOM     27  C   UNL     1       4.518   3.789   8.593  1.00  0.00     0.049 A 
ATOM     28  C   UNL     1      -0.093   0.743  10.253  1.00  0.00     0.074 A 
ATOM     29  C   UNL     1       5.661   3.022   8.508  1.00  0.00     0.029 A 
ATOM     30  N   UNL     1       3.828   3.324   9.680  1.00  0.00    -0.354 N 
ATOM     31  N   UNL     1       1.008   0.263  10.756  1.00  0.00    -0.248 NA
ATOM     32  C   UNL     1      -0.204   2.193  10.263  1.00  0.00     0.031 C 
ATOM     33  C   UNL     1       5.410   1.874   9.321  1.00  0.00     0.029 A 
ATOM     34  C   UNL     1       4.151   2.019   9.903  1.00  0.00     0.049 A 
ATOM     35  H   UNL     1       3.195   3.851  10.219  1.00  0.00     0.167 HD
ATOM     36  C   UNL     1       1.898   1.323  10.711  1.00  0.00     0.074 A 
ATOM     37  C   UNL     1       1.062   2.508  10.541  1.00  0.00     0.031 C 
ATOM     38  C   UNL     1       3.229   1.089  10.512  1.00  0.00     0.037 A 
BRANCH  25  39
ATOM     39  C   UNL     1       3.133   5.950   8.285  1.00  0.00     0.064 A 
ATOM     40  C   UNL     1       3.619   6.465   9.509  1.00  0.00     0.173 A 
ATOM     41  C   UNL     1       1.860   6.429   7.904  1.00  0.00     0.173 A 
ATOM     42  F   UNL     1       4.828   6.108   9.970  1.00  0.00    -0.203 F 
ATOM     43  C   UNL     1       2.826   7.248  10.353  1.00  0.00     0.198 A 
ATOM     44  C   UNL     1       1.090   7.248   8.729  1.00  0.00     0.198 A 
ATOM     45  F   UNL     1       1.253   6.057   6.774  1.00  0.00    -0.203 F 
ATOM     46  F   UNL     1       3.269   7.562  11.578  1.00  0.00    -0.200 F 
ATOM     47  C   UNL     1       1.552   7.620   9.972  1.00  0.00     0.200 A 
ATOM     48  F   UNL     1      -0.146   7.595   8.341  1.00  0.00    -0.200 F 
ATOM     49  F   UNL     1       0.756   8.292  10.812  1.00  0.00    -0.200 F 
ENDBRANCH  25  39
BRANCH  26  50
ATOM     50  C   UNL     1      -2.448  -0.187   9.712  1.00  0.00     0.064 A 
ATOM     51  C   UNL     1      -2.890  -0.189  11.048  1.00  0.00     0.173 A 
ATOM     52  C   UNL     1      -3.448  -0.056   8.729  1.00  0.00     0.173 A 
ATOM     53  F   UNL     1      -2.005  -0.260  12.053  1.00  0.00    -0.203 F 
ATOM     54  C   UNL     1      -4.243  -0.041  11.378  1.00  0.00     0.198 A 
ATOM     55  C   UNL     1      -4.798   0.083   9.059  1.00  0.00     0.198 A 
ATOM     56  F   UNL     1      -3.129   0.042   7.431  1.00  0.00    -0.203 F 
ATOM     57  F   UNL     1      -4.616   0.022  12.664  1.00  0.00    -0.200 F 
ATOM     58  C   UNL     1      -5.194   0.105  10.383  1.00  0.00     0.200 A 
ATOM     59  F   UNL     1      -5.703   0.262   8.086  1.00  0.00    -0.200 F 
ATOM     60  F   UNL     1      -6.481   0.312  10.697  1.00  0.00    -0.200 F 
ENDBRANCH  26  50
BRANCH  38  61
ATOM     61  C   UNL     1       3.730  -0.302  10.765  1.00  0.00     0.064 A 
ATOM     62  C   UNL     1       3.329  -1.438  10.043  1.00  0.00     0.173 A 
ATOM     63  C   UNL     1       4.736  -0.466  11.727  1.00  0.00     0.173 A 
ATOM     64  F   UNL     1       2.445  -1.346   9.041  1.00  0.00    -0.203 F 
ATOM     65  C   UNL     1       3.877  -2.691  10.313  1.00  0.00     0.198 A 
ATOM     66  C   UNL     1       5.311  -1.708  11.965  1.00  0.00     0.198 A 
ATOM     67  F   UNL     1       5.192   0.596  12.410  1.00  0.00    -0.203 F 
ATOM     68  F   UNL     1       3.464  -3.767   9.629  1.00  0.00    -0.200 F 
ATOM     69  C   UNL     1       4.871  -2.823  11.270  1.00  0.00     0.200 A 
ATOM     70  F   UNL     1       6.306  -1.821  12.855  1.00  0.00    -0.200 F 
ATOM     71  F   UNL     1       5.425  -4.021  11.504  1.00  0.00    -0.200 F 
ENDBRANCH  38  61
ENDBRANCH  12  13
ENDBRANCH   5   7
ENDBRANCH   2   3
ENDBRANCH   1   2
BRANCH   1  72
ATOM     72  C   UNL     1       4.182  -3.474  -0.311  1.00  0.00     0.002 C 
BRANCH  72  73
ATOM     73  C   UNL     1       4.677  -3.738  -1.736  1.00  0.00     0.002 C 
BRANCH  73  74
ATOM     74  C   UNL     1       6.197  -3.760  -1.911  1.00  0.00     0.021 C 
BRANCH  74  75
ATOM     75  C   UNL     1       6.922  -4.800  -1.062  1.00  0.00     0.116 C 
BRANCH  75  76
ATOM     76  N   UNL     1       6.636  -6.154  -1.495  1.00  0.00    -0.351 N 
ATOM     77  C   UNL     1       7.523  -7.131  -1.874  1.00  0.00     0.269 C 
ATOM     78  H   UNL     1       5.685  -6.406  -1.520  1.00  0.00     0.163 HD
ATOM     79  O   UNL     1       7.100  -8.108  -2.482  1.00  0.00    -0.268 OA
BRANCH  77  80
ATOM     80  C   UNL     1       8.916  -6.938  -1.596  1.00  0.00     0.126 A 
ATOM     81  N   UNL     1       9.902  -7.222  -2.521  1.00  0.00    -0.272 N 
ATOM     82  C   UNL     1       9.611  -6.516  -0.492  1.00  0.00     0.006 A 
ATOM     83  N   UNL     1      11.152  -6.847  -2.136  1.00  0.00    -0.180 NA
ATOM     84  H   UNL     1       9.717  -7.657  -3.385  1.00  0.00     0.190 HD
ATOM     85  C   UNL     1      10.943  -6.439  -0.894  1.00  0.00     0.066 A 
ATOM     86  C   UNL     1       9.442  -6.078   0.906  1.00  0.00     0.040 C 
ATOM     87  C   UNL     1      11.827  -5.875   0.143  1.00  0.00     0.059 C 
ATOM     88  C   UNL     1      10.775  -5.296   1.149  1.00  0.00     0.011 C 
ENDBRANCH  77  80
ENDBRANCH  75  76
ENDBRANCH  74  75
ENDBRANCH  73  74
ENDBRANCH  72  73
ENDBRANCH   1  72
TORSDOF 13
