REMARK SMILES O=C(NCCCCCCNC(=O)[C@@H]1CSc2ccccc21)c1ccc(-c2c3nc(c(-c4c(F)c(F)c(F)c(F)c4F)c4ccc([nH]4)c(-c4c(F)c(F)c(F)c(F)c4F)c4nc(c(-c5c(F)c(F)c(F)c(F)c5F)c5ccc2[nH]5)C=C4)C=C3)cc1
REMARK SMILES IDX 5 1 4 2 3 3 1 4 2 5 22 7 23 8 84 9 24 10 83 11 25 12 26 13
REMARK SMILES IDX 27 14 77 15 28 16 82 17 76 18 78 19 29 20 81 21 75 22 74 23
REMARK SMILES IDX 30 25 62 26 42 27 61 28 43 29 46 30 60 31 79 32 44 33 45 34
REMARK SMILES IDX 59 36 80 37 47 38 31 39 32 40 40 41 33 42 34 43 38 44 41 45
REMARK SMILES IDX 35 46 36 47 39 48 37 49 63 50 64 51 72 52 65 53 66 54 70 55
REMARK SMILES IDX 73 56 67 57 68 58 71 59 69 60 48 61 49 62 57 63 50 64 51 65
REMARK SMILES IDX 55 66 58 67 52 68 53 69 56 70 54 71 6 72 7 73 8 74 9 75
REMARK SMILES IDX 10 76 11 77 12 79 13 80 14 81 21 82 15 83 16 84 20 85 17 86
REMARK SMILES IDX 19 87 18 88
REMARK H PARENT 3 6 78 24 46 35 10 78
REMARK Flexibility Score: inf
ROOT
ATOM      1  C   UNL     1      10.736  12.528  -5.052  1.00  0.00     0.021 C 
ENDROOT
BRANCH   1   2
ATOM      2  C   UNL     1      11.844  13.216  -4.263  1.00  0.00     0.116 C 
BRANCH   2   3
ATOM      3  N   UNL     1      12.845  13.806  -5.134  1.00  0.00    -0.352 N 
ATOM      4  O   UNL     1      14.028  15.464  -6.094  1.00  0.00    -0.269 OA
ATOM      5  C   UNL     1      13.329  15.086  -5.155  1.00  0.00     0.251 C 
ATOM      6  H   UNL     1      13.232  13.198  -5.805  1.00  0.00     0.163 HD
BRANCH   5   7
ATOM      7  C   UNL     1      13.011  16.026  -4.058  1.00  0.00     0.039 A 
ATOM      8  C   UNL     1      12.714  17.353  -4.380  1.00  0.00     0.014 A 
ATOM      9  C   UNL     1      13.059  15.624  -2.719  1.00  0.00     0.014 A 
ATOM     10  C   UNL     1      12.452  18.272  -3.362  1.00  0.00     0.010 A 
ATOM     11  C   UNL     1      12.728  16.524  -1.708  1.00  0.00     0.010 A 
ATOM     12  C   UNL     1      12.451  17.863  -2.018  1.00  0.00    -0.014 A 
BRANCH  12  13
ATOM     13  C   UNL     1      12.230  18.850  -0.931  1.00  0.00     0.031 A 
ATOM     14  C   UNL     1      13.354  19.189   0.011  1.00  0.00     0.074 A 
ATOM     15  C   UNL     1      11.028  19.441  -0.793  1.00  0.00     0.049 A 
ATOM     16  N   UNL     1      13.365  20.030   1.015  1.00  0.00    -0.248 NA
ATOM     17  C   UNL     1      14.628  18.478  -0.185  1.00  0.00     0.031 C 
ATOM     18  C   UNL     1       9.854  19.169  -1.623  1.00  0.00     0.029 A 
ATOM     19  N   UNL     1      10.596  20.400   0.090  1.00  0.00    -0.354 N 
ATOM     20  C   UNL     1      14.636  19.941   1.567  1.00  0.00     0.074 A 
ATOM     21  C   UNL     1      15.353  18.926   0.829  1.00  0.00     0.031 C 
ATOM     22  C   UNL     1       8.848  19.971  -1.236  1.00  0.00     0.029 A 
ATOM     23  C   UNL     1       9.296  20.793  -0.115  1.00  0.00     0.049 A 
ATOM     24  H   UNL     1      11.165  20.771   0.803  1.00  0.00     0.167 HD
ATOM     25  C   UNL     1      15.169  20.666   2.578  1.00  0.00     0.037 A 
ATOM     26  C   UNL     1       8.555  21.720   0.523  1.00  0.00     0.037 A 
ATOM     27  C   UNL     1      14.470  21.708   3.280  1.00  0.00     0.049 A 
ATOM     28  C   UNL     1       9.174  22.514   1.642  1.00  0.00     0.074 A 
ATOM     29  C   UNL     1      14.942  22.532   4.286  1.00  0.00     0.029 A 
ATOM     30  N   UNL     1      13.156  22.076   3.039  1.00  0.00    -0.354 N 
ATOM     31  N   UNL     1      10.393  22.457   2.118  1.00  0.00    -0.248 NA
ATOM     32  C   UNL     1       8.317  23.505   2.310  1.00  0.00     0.031 C 
ATOM     33  C   UNL     1      13.902  23.378   4.678  1.00  0.00     0.029 A 
ATOM     34  C   UNL     1      12.796  23.108   3.888  1.00  0.00     0.049 A 
ATOM     35  H   UNL     1      12.567  21.665   2.366  1.00  0.00     0.167 HD
ATOM     36  C   UNL     1      10.460  23.419   3.115  1.00  0.00     0.074 A 
ATOM     37  C   UNL     1       9.161  24.054   3.174  1.00  0.00     0.031 C 
ATOM     38  C   UNL     1      11.506  23.745   3.912  1.00  0.00     0.037 A 
BRANCH  25  39
ATOM     39  C   UNL     1      16.589  20.390   2.973  1.00  0.00     0.064 A 
ATOM     40  C   UNL     1      17.660  20.794   2.163  1.00  0.00     0.173 A 
ATOM     41  C   UNL     1      16.884  19.802   4.211  1.00  0.00     0.173 A 
ATOM     42  F   UNL     1      17.428  21.351   0.965  1.00  0.00    -0.203 F 
ATOM     43  C   UNL     1      18.977  20.611   2.575  1.00  0.00     0.198 A 
ATOM     44  C   UNL     1      18.202  19.644   4.632  1.00  0.00     0.198 A 
ATOM     45  F   UNL     1      15.895  19.404   5.025  1.00  0.00    -0.203 F 
ATOM     46  F   UNL     1      19.986  20.983   1.775  1.00  0.00    -0.200 F 
ATOM     47  C   UNL     1      19.247  20.048   3.813  1.00  0.00     0.200 A 
ATOM     48  F   UNL     1      18.462  19.113   5.834  1.00  0.00    -0.200 F 
ATOM     49  F   UNL     1      20.515  19.894   4.219  1.00  0.00    -0.200 F 
ENDBRANCH  25  39
BRANCH  26  50
ATOM     50  C   UNL     1       7.159  21.981   0.085  1.00  0.00     0.064 A 
ATOM     51  C   UNL     1       6.820  23.180  -0.557  1.00  0.00     0.173 A 
ATOM     52  C   UNL     1       6.139  21.040   0.290  1.00  0.00     0.173 A 
ATOM     53  F   UNL     1       7.757  24.118  -0.759  1.00  0.00    -0.203 F 
ATOM     54  C   UNL     1       5.512  23.434  -0.965  1.00  0.00     0.198 A 
ATOM     55  C   UNL     1       4.837  21.285  -0.141  1.00  0.00     0.198 A 
ATOM     56  F   UNL     1       6.411  19.875   0.897  1.00  0.00    -0.203 F 
ATOM     57  F   UNL     1       5.209  24.605  -1.543  1.00  0.00    -0.200 F 
ATOM     58  C   UNL     1       4.523  22.484  -0.762  1.00  0.00     0.200 A 
ATOM     59  F   UNL     1       3.886  20.359   0.045  1.00  0.00    -0.200 F 
ATOM     60  F   UNL     1       3.267  22.727  -1.161  1.00  0.00    -0.200 F 
ENDBRANCH  26  50
BRANCH  38  61
ATOM     61  C   UNL     1      11.316  24.856   4.901  1.00  0.00     0.064 A 
ATOM     62  C   UNL     1      10.592  24.662   6.084  1.00  0.00     0.173 A 
ATOM     63  C   UNL     1      11.965  26.086   4.715  1.00  0.00     0.173 A 
ATOM     64  F   UNL     1       9.948  23.505   6.300  1.00  0.00    -0.203 F 
ATOM     65  C   UNL     1      10.523  25.663   7.049  1.00  0.00     0.198 A 
ATOM     66  C   UNL     1      11.914  27.075   5.692  1.00  0.00     0.198 A 
ATOM     67  F   UNL     1      12.680  26.313   3.602  1.00  0.00    -0.203 F 
ATOM     68  F   UNL     1       9.812  25.464   8.167  1.00  0.00    -0.200 F 
ATOM     69  C   UNL     1      11.193  26.863   6.858  1.00  0.00     0.200 A 
ATOM     70  F   UNL     1      12.575  28.227   5.514  1.00  0.00    -0.200 F 
ATOM     71  F   UNL     1      11.147  27.814   7.800  1.00  0.00    -0.200 F 
ENDBRANCH  38  61
ENDBRANCH  12  13
ENDBRANCH   5   7
ENDBRANCH   2   3
ENDBRANCH   1   2
BRANCH   1  72
ATOM     72  C   UNL     1      11.189  11.312  -5.862  1.00  0.00     0.002 C 
BRANCH  72  73
ATOM     73  C   UNL     1      11.867  10.209  -5.044  1.00  0.00     0.002 C 
BRANCH  73  74
ATOM     74  C   UNL     1      11.068   9.713  -3.830  1.00  0.00     0.021 C 
BRANCH  74  75
ATOM     75  C   UNL     1       9.692   9.132  -4.173  1.00  0.00     0.116 C 
BRANCH  75  76
ATOM     76  N   UNL     1       9.837   7.937  -4.976  1.00  0.00    -0.356 N 
ATOM     77  C   UNL     1       9.789   6.615  -4.657  1.00  0.00     0.228 C 
ATOM     78  H   UNL     1      10.001   8.114  -5.931  1.00  0.00     0.163 HD
ATOM     79  O   UNL     1      10.158   5.850  -5.553  1.00  0.00    -0.274 OA
BRANCH  77  80
ATOM     80  C   UNL     1       9.190   6.120  -3.329  1.00  0.00     0.120 C 
ATOM     81  C   UNL     1       9.832   6.748  -2.079  1.00  0.00     0.093 C 
ATOM     82  C   UNL     1       9.287   4.613  -3.167  1.00  0.00    -0.021 A 
ATOM     83  S   UNL     1      10.450   5.471  -0.952  1.00  0.00    -0.125 SA
ATOM     84  C   UNL     1       9.945   4.170  -2.020  1.00  0.00     0.011 A 
ATOM     85  C   UNL     1       8.796   3.677  -4.079  1.00  0.00     0.006 A 
ATOM     86  C   UNL     1      10.163   2.820  -1.785  1.00  0.00     0.015 A 
ATOM     87  C   UNL     1       9.016   2.316  -3.855  1.00  0.00     0.000 A 
ATOM     88  C   UNL     1       9.704   1.889  -2.716  1.00  0.00     0.001 A 
ENDBRANCH  77  80
ENDBRANCH  75  76
ENDBRANCH  74  75
ENDBRANCH  73  74
ENDBRANCH  72  73
ENDBRANCH   1  72
TORSDOF 13
