REMARK SMILES O=C(NCCCCCCNC(=O)[C@@H]1C[N@@H+](C2CCN(C(=O)c3ccccc3)CC2)C[C@H]1C1CC1)c1ccc(-c2c3nc(c(-c4c(F)c(F)c(F)c(F)c4F)c4ccc([nH]4)c(-c4c(F)c(F)c(F)c(F)c4F)c4nc(c(-c5c(F)c(F)c(F)c(F)c5F)c5ccc2[nH]5)C=C4)C=C3)cc1
REMARK SMILES IDX 6 1 5 2 4 3 3 4 1 5 2 6 35 8 36 9 97 10 37 11 96 12 38 13
REMARK SMILES IDX 39 14 40 15 90 16 41 17 95 18 89 19 91 20 42 21 94 22 88 23
REMARK SMILES IDX 87 24 43 26 75 27 55 28 74 29 56 30 59 31 73 32 92 33 57 34
REMARK SMILES IDX 58 35 72 37 93 38 60 39 44 40 45 41 53 42 46 43 47 44 51 45
REMARK SMILES IDX 54 46 48 47 49 48 52 49 50 50 76 51 77 52 85 53 78 54 79 55
REMARK SMILES IDX 83 56 86 57 80 58 81 59 84 60 82 61 61 62 62 63 70 64 63 65
REMARK SMILES IDX 64 66 68 67 71 68 65 69 66 70 69 71 67 72 7 73 8 74 9 75
REMARK SMILES IDX 10 76 11 77 12 79 13 80 14 81 31 82 15 83 30 84 32 86 33 87
REMARK SMILES IDX 34 88 16 89 17 90 29 91 18 92 28 93 19 94 20 95 21 96 22 97
REMARK SMILES IDX 23 98 27 99 24 100 26 101 25 102
REMARK H PARENT 3 7 91 25 59 36 10 78 15 85
REMARK Flexibility Score: inf
ROOT
ATOM      1  C   UNL     1       3.880  -3.063  -2.370  1.00  0.00     0.002 C 
ENDROOT
BRANCH   1   2
ATOM      2  C   UNL     1       4.484  -2.497  -1.083  1.00  0.00     0.021 C 
BRANCH   2   3
ATOM      3  C   UNL     1       4.407  -0.980  -0.968  1.00  0.00     0.116 C 
BRANCH   3   4
ATOM      4  N   UNL     1       3.029  -0.505  -0.942  1.00  0.00    -0.352 N 
ATOM      5  O   UNL     1       1.133   0.296  -0.022  1.00  0.00    -0.269 OA
ATOM      6  C   UNL     1       2.349   0.171   0.042  1.00  0.00     0.251 C 
ATOM      7  H   UNL     1       2.506  -0.699  -1.753  1.00  0.00     0.163 HD
BRANCH   6   8
ATOM      8  C   UNL     1       3.090   0.740   1.187  1.00  0.00     0.039 A 
ATOM      9  C   UNL     1       4.301   1.403   0.988  1.00  0.00     0.014 A 
ATOM     10  C   UNL     1       2.556   0.624   2.474  1.00  0.00     0.014 A 
ATOM     11  C   UNL     1       5.052   1.810   2.082  1.00  0.00     0.010 A 
ATOM     12  C   UNL     1       3.270   1.119   3.569  1.00  0.00     0.010 A 
ATOM     13  C   UNL     1       4.541   1.685   3.384  1.00  0.00    -0.014 A 
BRANCH  13  14
ATOM     14  C   UNL     1       5.345   2.195   4.523  1.00  0.00     0.031 A 
ATOM     15  C   UNL     1       5.885   1.266   5.573  1.00  0.00     0.074 A 
ATOM     16  C   UNL     1       5.622   3.512   4.575  1.00  0.00     0.049 A 
ATOM     17  N   UNL     1       6.653   1.540   6.600  1.00  0.00    -0.248 NA
ATOM     18  C   UNL     1       5.510  -0.151   5.468  1.00  0.00     0.031 C 
ATOM     19  C   UNL     1       5.138   4.511   3.620  1.00  0.00     0.029 A 
ATOM     20  N   UNL     1       6.396   4.234   5.446  1.00  0.00    -0.354 N 
ATOM     21  C   UNL     1       6.832   0.338   7.272  1.00  0.00     0.074 A 
ATOM     22  C   UNL     1       6.073  -0.663   6.554  1.00  0.00     0.031 C 
ATOM     23  C   UNL     1       5.673   5.702   3.920  1.00  0.00     0.029 A 
ATOM     24  C   UNL     1       6.488   5.565   5.121  1.00  0.00     0.049 A 
ATOM     25  H   UNL     1       6.843   3.838   6.228  1.00  0.00     0.167 HD
ATOM     26  C   UNL     1       7.572   0.094   8.382  1.00  0.00     0.037 A 
ATOM     27  C   UNL     1       7.152   6.567   5.726  1.00  0.00     0.037 A 
ATOM     28  C   UNL     1       8.347   1.092   9.075  1.00  0.00     0.049 A 
ATOM     29  C   UNL     1       7.955   6.267   6.959  1.00  0.00     0.074 A 
ATOM     30  C   UNL     1       9.170   0.935  10.177  1.00  0.00     0.029 A 
ATOM     31  N   UNL     1       8.389   2.438   8.736  1.00  0.00    -0.354 N 
ATOM     32  N   UNL     1       8.157   5.118   7.556  1.00  0.00    -0.248 NA
ATOM     33  C   UNL     1       8.622   7.406   7.602  1.00  0.00     0.031 C 
ATOM     34  C   UNL     1       9.670   2.192  10.535  1.00  0.00     0.029 A 
ATOM     35  C   UNL     1       9.203   3.125   9.623  1.00  0.00     0.049 A 
ATOM     36  H   UNL     1       7.911   2.844   7.977  1.00  0.00     0.167 HD
ATOM     37  C   UNL     1       8.992   5.389   8.630  1.00  0.00     0.074 A 
ATOM     38  C   UNL     1       9.274   6.810   8.589  1.00  0.00     0.031 C 
ATOM     39  C   UNL     1       9.479   4.539   9.566  1.00  0.00     0.037 A 
BRANCH  26  40
ATOM     40  C   UNL     1       7.563  -1.303   8.934  1.00  0.00     0.064 A 
ATOM     41  C   UNL     1       8.204  -2.365   8.278  1.00  0.00     0.173 A 
ATOM     42  C   UNL     1       6.939  -1.574  10.162  1.00  0.00     0.173 A 
ATOM     43  F   UNL     1       8.808  -2.163   7.098  1.00  0.00    -0.203 F 
ATOM     44  C   UNL     1       8.196  -3.650   8.817  1.00  0.00     0.198 A 
ATOM     45  C   UNL     1       6.960  -2.853  10.712  1.00  0.00     0.198 A 
ATOM     46  F   UNL     1       6.319  -0.594  10.837  1.00  0.00    -0.203 F 
ATOM     47  F   UNL     1       8.776  -4.658   8.150  1.00  0.00    -0.200 F 
ATOM     48  C   UNL     1       7.581  -3.892  10.036  1.00  0.00     0.200 A 
ATOM     49  F   UNL     1       6.377  -3.081  11.898  1.00  0.00    -0.200 F 
ATOM     50  F   UNL     1       7.582  -5.127  10.556  1.00  0.00    -0.200 F 
ENDBRANCH  26  40
BRANCH  27  51
ATOM     51  C   UNL     1       7.094   7.939   5.161  1.00  0.00     0.064 A 
ATOM     52  C   UNL     1       8.228   8.528   4.586  1.00  0.00     0.173 A 
ATOM     53  C   UNL     1       5.906   8.684   5.173  1.00  0.00     0.173 A 
ATOM     54  F   UNL     1       9.392   7.861   4.565  1.00  0.00    -0.203 F 
ATOM     55  C   UNL     1       8.180   9.816   4.059  1.00  0.00     0.198 A 
ATOM     56  C   UNL     1       5.851   9.960   4.618  1.00  0.00     0.198 A 
ATOM     57  F   UNL     1       4.791   8.162   5.706  1.00  0.00    -0.203 F 
ATOM     58  F   UNL     1       9.288  10.372   3.551  1.00  0.00    -0.200 F 
ATOM     59  C   UNL     1       6.989  10.528   4.068  1.00  0.00     0.200 A 
ATOM     60  F   UNL     1       4.694  10.636   4.613  1.00  0.00    -0.200 F 
ATOM     61  F   UNL     1       6.941  11.764   3.553  1.00  0.00    -0.200 F 
ENDBRANCH  27  51
BRANCH  39  62
ATOM     62  C   UNL     1      10.400   5.120  10.600  1.00  0.00     0.064 A 
ATOM     63  C   UNL     1       9.931   5.974  11.609  1.00  0.00     0.173 A 
ATOM     64  C   UNL     1      11.767   4.805  10.586  1.00  0.00     0.173 A 
ATOM     65  F   UNL     1       8.636   6.319  11.654  1.00  0.00    -0.203 F 
ATOM     66  C   UNL     1      10.805   6.519  12.546  1.00  0.00     0.198 A 
ATOM     67  C   UNL     1      12.632   5.327  11.544  1.00  0.00     0.198 A 
ATOM     68  F   UNL     1      12.265   3.989   9.645  1.00  0.00    -0.203 F 
ATOM     69  F   UNL     1      10.346   7.380  13.465  1.00  0.00    -0.200 F 
ATOM     70  C   UNL     1      12.152   6.191  12.517  1.00  0.00     0.200 A 
ATOM     71  F   UNL     1      13.931   4.999  11.522  1.00  0.00    -0.200 F 
ATOM     72  F   UNL     1      12.991   6.717  13.420  1.00  0.00    -0.200 F 
ENDBRANCH  39  62
ENDBRANCH  13  14
ENDBRANCH   6   8
ENDBRANCH   3   4
ENDBRANCH   2   3
ENDBRANCH   1   2
BRANCH   1  73
ATOM     73  C   UNL     1       4.527  -2.565  -3.670  1.00  0.00     0.002 C 
BRANCH  73  74
ATOM     74  C   UNL     1       6.034  -2.817  -3.774  1.00  0.00     0.021 C 
BRANCH  74  75
ATOM     75  C   UNL     1       6.392  -4.300  -3.785  1.00  0.00     0.116 C 
BRANCH  75  76
ATOM     76  N   UNL     1       6.324  -4.863  -5.123  1.00  0.00    -0.356 N 
ATOM     77  C   UNL     1       7.324  -5.343  -5.922  1.00  0.00     0.229 C 
ATOM     78  H   UNL     1       5.421  -4.904  -5.513  1.00  0.00     0.163 HD
ATOM     79  O   UNL     1       7.018  -5.830  -7.010  1.00  0.00    -0.275 OA
BRANCH  77  80
ATOM     80  C   UNL     1       8.762  -5.211  -5.463  1.00  0.00     0.142 C 
ATOM     81  C   UNL     1       9.359  -3.921  -5.997  1.00  0.00     0.276 C 
ATOM     82  C   UNL     1       9.714  -6.290  -5.963  1.00  0.00     0.065 C 
ATOM     83  N   UNL     1      10.806  -4.094  -5.949  1.00  0.00    -0.331 N 
ATOM     84  C   UNL     1      11.053  -5.539  -6.140  1.00  0.00     0.267 C 
ATOM     85  H   UNL     1      11.178  -3.509  -6.697  1.00  0.00     0.348 HD
BRANCH  82  86
ATOM     86  C   UNL     1       9.869  -7.506  -5.069  1.00  0.00    -0.001 C 
ATOM     87  C   UNL     1       9.550  -7.554  -3.588  1.00  0.00     0.004 C 
ATOM     88  C   UNL     1       8.661  -8.263  -4.570  1.00  0.00     0.004 C 
ENDBRANCH  82  86
BRANCH  83  89
ATOM     89  C   UNL     1      11.605  -3.486  -4.870  1.00  0.00     0.187 C 
ATOM     90  C   UNL     1      11.418  -3.998  -3.439  1.00  0.00     0.086 C 
ATOM     91  C   UNL     1      11.605  -1.946  -4.839  1.00  0.00     0.086 C 
ATOM     92  C   UNL     1      10.230  -3.397  -2.717  1.00  0.00     0.126 C 
ATOM     93  C   UNL     1      10.470  -1.291  -4.056  1.00  0.00     0.126 C 
ATOM     94  N   UNL     1      10.106  -1.953  -2.802  1.00  0.00    -0.338 N 
ATOM     95  C   UNL     1       9.293  -1.368  -1.822  1.00  0.00     0.253 C 
ATOM     96  O   UNL     1       8.763  -2.003  -0.911  1.00  0.00    -0.269 OA
BRANCH  95  97
ATOM     97  C   UNL     1       9.040   0.083  -1.841  1.00  0.00     0.040 A 
ATOM     98  C   UNL     1       9.551   0.846  -0.787  1.00  0.00     0.014 A 
ATOM     99  C   UNL     1       8.215   0.664  -2.808  1.00  0.00     0.014 A 
ATOM    100  C   UNL     1       9.269   2.209  -0.722  1.00  0.00     0.001 A 
ATOM    101  C   UNL     1       7.941   2.031  -2.740  1.00  0.00     0.001 A 
ATOM    102  C   UNL     1       8.470   2.801  -1.701  1.00  0.00     0.000 A 
ENDBRANCH  95  97
ENDBRANCH  83  89
ENDBRANCH  77  80
ENDBRANCH  75  76
ENDBRANCH  74  75
ENDBRANCH  73  74
ENDBRANCH   1  73
TORSDOF 16
