REMARK SMILES CC1=NN(c2ccc(Cl)cc2)C(=O)/C1=C/c1ccccc1OCC(=O)NCCCCCCNC(=O)c1ccc(-c2c3nc(c(-c4c(F)c(F)c(F)c(F)c4F)c4ccc([nH]4)c(-c4c(F)c(F)c(F)c(F)c4F)c4nc(c(-c5c(F)c(F)c(F)c(F)c5F)c5ccc2[nH]5)C=C4)C=C3)cc1
REMARK SMILES IDX 28 1 27 2 26 3 24 4 25 5 23 7 22 8 21 9 16 10 17 11 18 12
REMARK SMILES IDX 20 13 19 14 15 15 1 16 2 17 3 18 14 19 4 20 12 21 13 22 5 23
REMARK SMILES IDX 6 24 11 25 7 26 10 27 8 28 9 29 29 30 30 31 31 32 32 33
REMARK SMILES IDX 33 34 34 35 35 37 36 38 37 39 98 40 38 41 97 42 39 43 40 44
REMARK SMILES IDX 41 45 91 46 42 47 96 48 90 49 92 50 43 51 95 52 89 53 88 54
REMARK SMILES IDX 44 56 76 57 56 58 75 59 57 60 60 61 74 62 93 63 58 64 59 65
REMARK SMILES IDX 73 67 94 68 61 69 45 70 46 71 54 72 47 73 48 74 52 75 55 76
REMARK SMILES IDX 49 77 50 78 53 79 51 80 77 81 78 82 86 83 79 84 80 85 84 86
REMARK SMILES IDX 87 87 81 88 82 89 85 90 83 91 62 92 63 93 71 94 64 95 65 96
REMARK SMILES IDX 69 97 72 98 66 99 67 100 70 101 68 102
REMARK H PARENT 26 6 33 36 92 55 60 66
REMARK Flexibility Score: inf
ROOT
ATOM      1  C   UNL     1      -4.550  -0.080  -0.927  1.00  0.00     0.021 C 
ENDROOT
BRANCH   1   2
ATOM      2  C   UNL     1      -3.617   0.418  -2.027  1.00  0.00     0.116 C 
BRANCH   2   3
ATOM      3  N   UNL     1      -2.274   0.724  -1.584  1.00  0.00    -0.353 N 
ATOM      4  C   UNL     1      -1.112   0.162  -2.029  1.00  0.00     0.257 C 
ATOM      5  O   UNL     1      -0.079   0.830  -1.959  1.00  0.00    -0.271 OA
ATOM      6  H   UNL     1      -2.189   1.413  -0.886  1.00  0.00     0.163 HD
BRANCH   4   7
ATOM      7  C   UNL     1      -1.095  -1.246  -2.631  1.00  0.00     0.329 C 
BRANCH   7   8
ATOM      8  O   UNL     1      -2.060  -2.156  -2.152  1.00  0.00    -0.483 OA
BRANCH   8   9
ATOM      9  C   UNL     1      -1.845  -3.019  -1.117  1.00  0.00     0.127 A 
ATOM     10  C   UNL     1      -0.825  -3.062  -0.150  1.00  0.00     0.017 A 
ATOM     11  C   UNL     1      -0.875  -4.054   0.851  1.00  0.00     0.012 A 
ATOM     12  C   UNL     1      -1.911  -4.988   0.897  1.00  0.00     0.001 A 
ATOM     13  C   UNL     1      -2.876  -3.974  -1.054  1.00  0.00     0.047 A 
ATOM     14  C   UNL     1      -2.912  -4.951  -0.062  1.00  0.00     0.004 A 
BRANCH  10  15
ATOM     15  C   UNL     1       0.324  -2.160  -0.089  1.00  0.00     0.027 C 
ATOM     16  C   UNL     1      -1.827  -0.778   1.929  1.00  0.00     0.069 C 
ATOM     17  C   UNL     1      -0.565  -0.219   1.368  1.00  0.00     0.071 C 
ATOM     18  N   UNL     1      -0.177   1.017   1.551  1.00  0.00    -0.169 NA
ATOM     19  C   UNL     1       0.384  -0.984   0.547  1.00  0.00     0.066 C 
ATOM     20  N   UNL     1       1.036   1.143   0.867  1.00  0.00    -0.196 N 
ATOM     21  C   UNL     1       1.517  -0.057   0.317  1.00  0.00     0.280 C 
ATOM     22  O   UNL     1       2.556  -0.342  -0.244  1.00  0.00    -0.267 OA
BRANCH  20  23
ATOM     23  C   UNL     1       1.563   2.438   0.646  1.00  0.00     0.069 A 
ATOM     24  C   UNL     1       2.468   2.680  -0.400  1.00  0.00     0.030 A 
ATOM     25  C   UNL     1       1.139   3.525   1.424  1.00  0.00     0.030 A 
ATOM     26  C   UNL     1       2.939   3.970  -0.662  1.00  0.00     0.023 A 
ATOM     27  C   UNL     1       1.628   4.814   1.180  1.00  0.00     0.023 A 
ATOM     28  C   UNL     1       2.523   5.031   0.135  1.00  0.00     0.041 A 
ATOM     29  Cl  UNL     1       3.110   6.617  -0.179  1.00  0.00    -0.084 Cl
ENDBRANCH  20  23
ENDBRANCH  10  15
ENDBRANCH   8   9
ENDBRANCH   7   8
ENDBRANCH   4   7
ENDBRANCH   2   3
ENDBRANCH   1   2
BRANCH   1  30
ATOM     30  C   UNL     1      -4.731   0.836   0.289  1.00  0.00     0.002 C 
BRANCH  30  31
ATOM     31  C   UNL     1      -5.077   2.300   0.017  1.00  0.00     0.002 C 
BRANCH  31  32
ATOM     32  C   UNL     1      -6.276   2.547  -0.893  1.00  0.00     0.021 C 
BRANCH  32  33
ATOM     33  C   UNL     1      -7.574   1.890  -0.449  1.00  0.00     0.116 C 
BRANCH  33  34
ATOM     34  N   UNL     1      -8.101   2.446   0.787  1.00  0.00    -0.352 N 
ATOM     35  C   UNL     1      -9.367   2.918   1.046  1.00  0.00     0.251 C 
ATOM     36  H   UNL     1      -7.468   2.491   1.539  1.00  0.00     0.163 HD
ATOM     37  O   UNL     1      -9.623   3.481   2.105  1.00  0.00    -0.269 OA
BRANCH  35  38
ATOM     38  C   UNL     1     -10.417   2.773   0.015  1.00  0.00     0.039 A 
ATOM     39  C   UNL     1     -11.177   3.889  -0.341  1.00  0.00     0.014 A 
ATOM     40  C   UNL     1     -10.617   1.548  -0.627  1.00  0.00     0.014 A 
ATOM     41  C   UNL     1     -12.089   3.794  -1.394  1.00  0.00     0.010 A 
ATOM     42  C   UNL     1     -11.465   1.477  -1.727  1.00  0.00     0.010 A 
ATOM     43  C   UNL     1     -12.211   2.598  -2.121  1.00  0.00    -0.014 A 
BRANCH  43  44
ATOM     44  C   UNL     1     -13.113   2.500  -3.297  1.00  0.00     0.031 A 
ATOM     45  C   UNL     1     -14.273   1.545  -3.280  1.00  0.00     0.074 A 
ATOM     46  C   UNL     1     -12.840   3.209  -4.410  1.00  0.00     0.049 A 
ATOM     47  N   UNL     1     -15.130   1.263  -4.229  1.00  0.00    -0.248 NA
ATOM     48  C   UNL     1     -14.477   0.778  -2.041  1.00  0.00     0.031 C 
ATOM     49  C   UNL     1     -11.706   4.119  -4.574  1.00  0.00     0.029 A 
ATOM     50  N   UNL     1     -13.487   3.262  -5.620  1.00  0.00    -0.354 N 
ATOM     51  C   UNL     1     -15.956   0.275  -3.711  1.00  0.00     0.074 A 
ATOM     52  C   UNL     1     -15.464  -0.034  -2.386  1.00  0.00     0.031 C 
ATOM     53  C   UNL     1     -11.745   4.652  -5.806  1.00  0.00     0.029 A 
ATOM     54  C   UNL     1     -12.884   4.094  -6.530  1.00  0.00     0.049 A 
ATOM     55  H   UNL     1     -14.306   2.752  -5.816  1.00  0.00     0.167 HD
ATOM     56  C   UNL     1     -17.039  -0.306  -4.280  1.00  0.00     0.037 A 
ATOM     57  C   UNL     1     -13.205   4.370  -7.809  1.00  0.00     0.037 A 
ATOM     58  C   UNL     1     -17.540   0.028  -5.587  1.00  0.00     0.049 A 
ATOM     59  C   UNL     1     -14.425   3.729  -8.414  1.00  0.00     0.074 A 
ATOM     60  C   UNL     1     -18.681  -0.434  -6.218  1.00  0.00     0.029 A 
ATOM     61  N   UNL     1     -16.922   0.904  -6.469  1.00  0.00    -0.354 N 
ATOM     62  N   UNL     1     -15.254   2.865  -7.881  1.00  0.00    -0.248 NA
ATOM     63  C   UNL     1     -14.759   4.109  -9.793  1.00  0.00     0.031 C 
ATOM     64  C   UNL     1     -18.722   0.114  -7.504  1.00  0.00     0.029 A 
ATOM     65  C   UNL     1     -17.641   0.968  -7.653  1.00  0.00     0.049 A 
ATOM     66  H   UNL     1     -16.096   1.405  -6.282  1.00  0.00     0.167 HD
ATOM     67  C   UNL     1     -16.219   2.614  -8.848  1.00  0.00     0.074 A 
ATOM     68  C   UNL     1     -15.880   3.430  -9.995  1.00  0.00     0.031 C 
ATOM     69  C   UNL     1     -17.289   1.783  -8.789  1.00  0.00     0.037 A 
BRANCH  56  70
ATOM     70  C   UNL     1     -17.749  -1.370  -3.492  1.00  0.00     0.064 A 
ATOM     71  C   UNL     1     -18.457  -1.076  -2.316  1.00  0.00     0.173 A 
ATOM     72  C   UNL     1     -17.735  -2.704  -3.929  1.00  0.00     0.173 A 
ATOM     73  F   UNL     1     -18.495   0.181  -1.847  1.00  0.00    -0.203 F 
ATOM     74  C   UNL     1     -19.087  -2.081  -1.586  1.00  0.00     0.198 A 
ATOM     75  C   UNL     1     -18.395  -3.701  -3.216  1.00  0.00     0.198 A 
ATOM     76  F   UNL     1     -17.079  -3.042  -5.049  1.00  0.00    -0.203 F 
ATOM     77  F   UNL     1     -19.701  -1.784  -0.432  1.00  0.00    -0.200 F 
ATOM     78  C   UNL     1     -19.061  -3.391  -2.039  1.00  0.00     0.200 A 
ATOM     79  F   UNL     1     -18.381  -4.964  -3.663  1.00  0.00    -0.200 F 
ATOM     80  F   UNL     1     -19.669  -4.357  -1.337  1.00  0.00    -0.200 F 
ENDBRANCH  56  70
BRANCH  57  81
ATOM     81  C   UNL     1     -12.365   5.314  -8.591  1.00  0.00     0.064 A 
ATOM     82  C   UNL     1     -12.838   6.587  -8.937  1.00  0.00     0.173 A 
ATOM     83  C   UNL     1     -11.064   4.971  -8.988  1.00  0.00     0.173 A 
ATOM     84  F   UNL     1     -14.082   6.954  -8.597  1.00  0.00    -0.203 F 
ATOM     85  C   UNL     1     -12.046   7.477  -9.660  1.00  0.00     0.198 A 
ATOM     86  C   UNL     1     -10.263   5.872  -9.687  1.00  0.00     0.198 A 
ATOM     87  F   UNL     1     -10.562   3.767  -8.676  1.00  0.00    -0.203 F 
ATOM     88  F   UNL     1     -12.536   8.674 -10.009  1.00  0.00    -0.200 F 
ATOM     89  C   UNL     1     -10.757   7.122 -10.028  1.00  0.00     0.200 A 
ATOM     90  F   UNL     1      -9.012   5.531 -10.025  1.00  0.00    -0.200 F 
ATOM     91  F   UNL     1      -9.992   7.982 -10.713  1.00  0.00    -0.200 F 
ENDBRANCH  57  81
BRANCH  69  92
ATOM     92  C   UNL     1     -18.188   1.729  -9.991  1.00  0.00     0.064 A 
ATOM     93  C   UNL     1     -17.783   1.122 -11.188  1.00  0.00     0.173 A 
ATOM     94  C   UNL     1     -19.489   2.252  -9.927  1.00  0.00     0.173 A 
ATOM     95  F   UNL     1     -16.545   0.620 -11.306  1.00  0.00    -0.203 F 
ATOM     96  C   UNL     1     -18.639   1.061 -12.285  1.00  0.00     0.198 A 
ATOM     97  C   UNL     1     -20.353   2.160 -11.015  1.00  0.00     0.198 A 
ATOM     98  F   UNL     1     -19.929   2.837  -8.803  1.00  0.00    -0.203 F 
ATOM     99  F   UNL     1     -18.215   0.517 -13.434  1.00  0.00    -0.200 F 
ATOM    100  C   UNL     1     -19.925   1.572 -12.195  1.00  0.00     0.200 A 
ATOM    101  F   UNL     1     -21.601   2.640 -10.919  1.00  0.00    -0.200 F 
ATOM    102  F   UNL     1     -20.751   1.502 -13.248  1.00  0.00    -0.200 F 
ENDBRANCH  69  92
ENDBRANCH  43  44
ENDBRANCH  35  38
ENDBRANCH  33  34
ENDBRANCH  32  33
ENDBRANCH  31  32
ENDBRANCH  30  31
ENDBRANCH   1  30
TORSDOF 17
