REMARK SMILES O=C(Cc1cccc(NS(=O)(=O)c2cccc(Cl)c2)c1)NCCCCCCNC(=O)c1ccc(-c2c3nc(c(-c4c(F)c(F)c(F)c(F)c4F)c4ccc([nH]4)c(-c4c(F)c(F)c(F)c(F)c4F)c4nc(c(-c5c(F)c(F)c(F)c(F)c5F)c5ccc2[nH]5)C=C4)C=C3)cc1
REMARK SMILES IDX 23 1 22 2 21 3 1 4 2 5 3 7 4 8 5 9 20 10 6 11 8 12 7 13 9 14
REMARK SMILES IDX 10 16 11 17 12 18 13 19 14 20 19 21 15 22 17 23 16 24 18 25
REMARK SMILES IDX 24 26 25 27 26 28 27 29 28 30 29 31 30 33 31 34 32 35 93 36
REMARK SMILES IDX 33 37 92 38 34 39 35 40 36 41 86 42 37 43 91 44 85 45 87 46
REMARK SMILES IDX 38 47 90 48 84 49 83 50 39 52 71 53 51 54 70 55 52 56 55 57
REMARK SMILES IDX 69 58 88 59 53 60 54 61 68 63 89 64 56 65 40 66 41 67 49 68
REMARK SMILES IDX 42 69 43 70 47 71 50 72 44 73 45 74 48 75 46 76 72 77 73 78
REMARK SMILES IDX 81 79 74 80 75 81 79 82 82 83 76 84 77 85 80 86 78 87 57 88
REMARK SMILES IDX 58 89 66 90 59 91 60 92 64 93 67 94 61 95 62 96 65 97 63 98
REMARK H PARENT 21 6 9 15 28 32 87 51 55 62
REMARK Flexibility Score: inf
ROOT
ATOM      1  C   UNL     1       2.696  -2.649   2.135  1.00  0.00     0.021 C 
ENDROOT
BRANCH   1   2
ATOM      2  C   UNL     1       2.167  -1.220   1.996  1.00  0.00     0.116 C 
BRANCH   2   3
ATOM      3  N   UNL     1       2.793  -0.536   0.884  1.00  0.00    -0.356 N 
ATOM      4  O   UNL     1       0.851   0.104  -0.162  1.00  0.00    -0.275 OA
ATOM      5  C   UNL     1       2.077   0.037  -0.143  1.00  0.00     0.224 C 
ATOM      6  H   UNL     1       3.776  -0.477   0.861  1.00  0.00     0.163 HD
BRANCH   5   7
ATOM      7  C   UNL     1       2.926   0.500  -1.312  1.00  0.00     0.135 C 
BRANCH   7   8
ATOM      8  C   UNL     1       3.908   1.597  -0.981  1.00  0.00    -0.037 A 
ATOM      9  C   UNL     1       5.277   1.324  -0.883  1.00  0.00     0.004 A 
ATOM     10  C   UNL     1       3.460   2.911  -0.779  1.00  0.00     0.031 A 
ATOM     11  C   UNL     1       6.182   2.358  -0.654  1.00  0.00     0.002 A 
ATOM     12  C   UNL     1       4.361   3.951  -0.522  1.00  0.00     0.049 A 
ATOM     13  C   UNL     1       5.728   3.670  -0.502  1.00  0.00     0.027 A 
BRANCH  12  14
ATOM     14  N   UNL     1       3.801   5.203  -0.142  1.00  0.00    -0.280 N 
ATOM     15  H   UNL     1       2.824   5.232  -0.021  1.00  0.00     0.180 HD
BRANCH  14  16
ATOM     16  S   UNL     1       4.633   6.625   0.119  1.00  0.00     0.261 S 
ATOM     17  O   UNL     1       5.503   6.865  -1.011  1.00  0.00    -0.201 OA
ATOM     18  O   UNL     1       3.637   7.595   0.526  1.00  0.00    -0.201 OA
BRANCH  16  19
ATOM     19  C   UNL     1       5.673   6.355   1.537  1.00  0.00     0.089 A 
ATOM     20  C   UNL     1       5.541   5.224   2.350  1.00  0.00     0.022 A 
ATOM     21  C   UNL     1       6.725   7.256   1.736  1.00  0.00     0.042 A 
ATOM     22  C   UNL     1       6.510   4.955   3.317  1.00  0.00     0.003 A 
ATOM     23  C   UNL     1       7.666   6.994   2.727  1.00  0.00     0.042 A 
ATOM     24  C   UNL     1       7.576   5.838   3.502  1.00  0.00     0.020 A 
ATOM     25  Cl  UNL     1       8.968   8.089   2.978  1.00  0.00    -0.084 Cl
ENDBRANCH  16  19
ENDBRANCH  14  16
ENDBRANCH  12  14
ENDBRANCH   7   8
ENDBRANCH   5   7
ENDBRANCH   2   3
ENDBRANCH   1   2
BRANCH   1  26
ATOM     26  C   UNL     1       4.204  -2.755   2.396  1.00  0.00     0.002 C 
BRANCH  26  27
ATOM     27  C   UNL     1       4.709  -2.025   3.644  1.00  0.00     0.002 C 
BRANCH  27  28
ATOM     28  C   UNL     1       4.047  -2.439   4.960  1.00  0.00     0.021 C 
BRANCH  28  29
ATOM     29  C   UNL     1       4.152  -3.922   5.303  1.00  0.00     0.116 C 
BRANCH  29  30
ATOM     30  N   UNL     1       5.524  -4.356   5.508  1.00  0.00    -0.352 N 
ATOM     31  C   UNL     1       6.053  -5.137   6.505  1.00  0.00     0.251 C 
ATOM     32  H   UNL     1       6.168  -4.044   4.832  1.00  0.00     0.163 HD
ATOM     33  O   UNL     1       7.269  -5.283   6.587  1.00  0.00    -0.269 OA
BRANCH  31  34
ATOM     34  C   UNL     1       5.169  -5.787   7.500  1.00  0.00     0.039 A 
ATOM     35  C   UNL     1       5.551  -5.773   8.845  1.00  0.00     0.014 A 
ATOM     36  C   UNL     1       3.990  -6.433   7.117  1.00  0.00     0.014 A 
ATOM     37  C   UNL     1       4.727  -6.358   9.810  1.00  0.00     0.010 A 
ATOM     38  C   UNL     1       3.138  -6.960   8.086  1.00  0.00     0.010 A 
ATOM     39  C   UNL     1       3.501  -6.934   9.442  1.00  0.00    -0.014 A 
BRANCH  39  40
ATOM     40  C   UNL     1       2.599  -7.534  10.459  1.00  0.00     0.031 A 
ATOM     41  C   UNL     1       2.331  -9.014  10.451  1.00  0.00     0.074 A 
ATOM     42  C   UNL     1       1.984  -6.744  11.359  1.00  0.00     0.049 A 
ATOM     43  N   UNL     1       1.525  -9.715  11.208  1.00  0.00    -0.248 NA
ATOM     44  C   UNL     1       3.048  -9.809   9.441  1.00  0.00     0.031 C 
ATOM     45  C   UNL     1       2.125  -5.290  11.445  1.00  0.00     0.029 A 
ATOM     46  N   UNL     1       1.104  -7.052  12.367  1.00  0.00    -0.354 N 
ATOM     47  C   UNL     1       1.632 -11.026  10.763  1.00  0.00     0.074 A 
ATOM     48  C   UNL     1       2.538 -11.016   9.634  1.00  0.00     0.031 C 
ATOM     49  C   UNL     1       1.370  -4.834  12.459  1.00  0.00     0.029 A 
ATOM     50  C   UNL     1       0.670  -5.957  13.075  1.00  0.00     0.049 A 
ATOM     51  H   UNL     1       0.812  -7.971  12.565  1.00  0.00     0.167 HD
ATOM     52  C   UNL     1       1.050 -12.142  11.264  1.00  0.00     0.037 A 
ATOM     53  C   UNL     1      -0.197  -5.871  14.101  1.00  0.00     0.037 A 
ATOM     54  C   UNL     1       0.162 -12.156  12.397  1.00  0.00     0.049 A 
ATOM     55  C   UNL     1      -0.821  -7.128  14.646  1.00  0.00     0.074 A 
ATOM     56  C   UNL     1      -0.470 -13.237  12.988  1.00  0.00     0.029 A 
ATOM     57  N   UNL     1      -0.213 -11.032  13.117  1.00  0.00    -0.354 N 
ATOM     58  N   UNL     1      -0.678  -8.366  14.242  1.00  0.00    -0.248 NA
ATOM     59  C   UNL     1      -1.716  -6.974  15.802  1.00  0.00     0.031 C 
ATOM     60  C   UNL     1      -1.246 -12.764  14.052  1.00  0.00     0.029 A 
ATOM     61  C   UNL     1      -1.066 -11.394  14.148  1.00  0.00     0.049 A 
ATOM     62  H   UNL     1       0.082 -10.113  12.925  1.00  0.00     0.167 HD
ATOM     63  C   UNL     1      -1.434  -9.141  15.111  1.00  0.00     0.074 A 
ATOM     64  C   UNL     1      -2.025  -8.234  16.073  1.00  0.00     0.031 C 
ATOM     65  C   UNL     1      -1.625 -10.482  15.111  1.00  0.00     0.037 A 
BRANCH  52  66
ATOM     66  C   UNL     1       1.370 -13.447  10.597  1.00  0.00     0.064 A 
ATOM     67  C   UNL     1       2.637 -14.039  10.724  1.00  0.00     0.173 A 
ATOM     68  C   UNL     1       0.397 -14.133   9.855  1.00  0.00     0.173 A 
ATOM     69  F   UNL     1       3.606 -13.416  11.412  1.00  0.00    -0.203 F 
ATOM     70  C   UNL     1       2.924 -15.255  10.112  1.00  0.00     0.198 A 
ATOM     71  C   UNL     1       0.680 -15.363   9.268  1.00  0.00     0.198 A 
ATOM     72  F   UNL     1      -0.831 -13.614   9.707  1.00  0.00    -0.203 F 
ATOM     73  F   UNL     1       4.155 -15.778  10.209  1.00  0.00    -0.200 F 
ATOM     74  C   UNL     1       1.944 -15.920   9.390  1.00  0.00     0.200 A 
ATOM     75  F   UNL     1      -0.271 -16.011   8.580  1.00  0.00    -0.200 F 
ATOM     76  F   UNL     1       2.221 -17.095   8.807  1.00  0.00    -0.200 F 
ENDBRANCH  52  66
BRANCH  53  77
ATOM     77  C   UNL     1      -0.511  -4.549  14.702  1.00  0.00     0.064 A 
ATOM     78  C   UNL     1      -0.069  -4.221  15.992  1.00  0.00     0.173 A 
ATOM     79  C   UNL     1      -1.276  -3.598  14.012  1.00  0.00     0.173 A 
ATOM     80  F   UNL     1       0.648  -5.106  16.698  1.00  0.00    -0.203 F 
ATOM     81  C   UNL     1      -0.406  -3.003  16.580  1.00  0.00     0.198 A 
ATOM     82  C   UNL     1      -1.588  -2.369  14.590  1.00  0.00     0.198 A 
ATOM     83  F   UNL     1      -1.717  -3.861  12.773  1.00  0.00    -0.203 F 
ATOM     84  F   UNL     1      -0.016  -2.738  17.834  1.00  0.00    -0.200 F 
ATOM     85  C   UNL     1      -1.162  -2.077  15.877  1.00  0.00     0.200 A 
ATOM     86  F   UNL     1      -2.308  -1.472  13.904  1.00  0.00    -0.200 F 
ATOM     87  F   UNL     1      -1.488  -0.908  16.444  1.00  0.00    -0.200 F 
ENDBRANCH  53  77
BRANCH  65  88
ATOM     88  C   UNL     1      -2.462 -11.057  16.216  1.00  0.00     0.064 A 
ATOM     89  C   UNL     1      -3.853 -10.884  16.253  1.00  0.00     0.173 A 
ATOM     90  C   UNL     1      -1.864 -11.813  17.235  1.00  0.00     0.173 A 
ATOM     91  F   UNL     1      -4.469 -10.156  15.309  1.00  0.00    -0.203 F 
ATOM     92  C   UNL     1      -4.612 -11.423  17.289  1.00  0.00     0.198 A 
ATOM     93  C   UNL     1      -2.630 -12.374  18.253  1.00  0.00     0.198 A 
ATOM     94  F   UNL     1      -0.538 -12.012  17.241  1.00  0.00    -0.203 F 
ATOM     95  F   UNL     1      -5.934 -11.204  17.332  1.00  0.00    -0.200 F 
ATOM     96  C   UNL     1      -4.001 -12.172  18.284  1.00  0.00     0.200 A 
ATOM     97  F   UNL     1      -2.039 -13.106  19.208  1.00  0.00    -0.200 F 
ATOM     98  F   UNL     1      -4.734 -12.692  19.278  1.00  0.00    -0.200 F 
ENDBRANCH  65  88
ENDBRANCH  39  40
ENDBRANCH  31  34
ENDBRANCH  29  30
ENDBRANCH  28  29
ENDBRANCH  27  28
ENDBRANCH  26  27
ENDBRANCH   1  26
TORSDOF 17
