REMARK SMILES O=C(NCCCCCCNC(=O)[C@@H](Cc1ccccc1)N1C(=O)/C(=C/c2ccncc2)SC1=S)c1ccc(-c2c3nc(c(-c4c(F)c(F)c(F)c(F)c4F)c4ccc([nH]4)c(-c4c(F)c(F)c(F)c(F)c4F)c4nc(c(-c5c(F)c(F)c(F)c(F)c5F)c5ccc2[nH]5)C=C4)C=C3)cc1
REMARK SMILES IDX 6 1 5 2 4 3 3 4 1 5 2 6 35 8 36 9 97 10 37 11 96 12 38 13
REMARK SMILES IDX 39 14 40 15 90 16 41 17 95 18 89 19 91 20 42 21 94 22 88 23
REMARK SMILES IDX 87 24 43 26 75 27 55 28 74 29 56 30 59 31 73 32 92 33 57 34
REMARK SMILES IDX 58 35 72 37 93 38 60 39 44 40 45 41 53 42 46 43 47 44 51 45
REMARK SMILES IDX 54 46 48 47 49 48 52 49 50 50 76 51 77 52 85 53 78 54 79 55
REMARK SMILES IDX 83 56 86 57 80 58 81 59 84 60 82 61 61 62 62 63 70 64 63 65
REMARK SMILES IDX 64 66 68 67 71 68 65 69 66 70 69 71 67 72 7 73 8 74 9 75
REMARK SMILES IDX 10 76 11 77 12 79 13 80 14 81 15 82 16 83 20 84 17 85 19 86
REMARK SMILES IDX 18 87 21 88 22 89 33 90 23 91 24 92 32 93 34 94 25 95 26 96
REMARK SMILES IDX 27 97 31 98 28 99 30 100 29 101
REMARK H PARENT 3 7 91 25 59 36 10 78
REMARK Flexibility Score: inf
ROOT
ATOM      1  C   UNL     1       3.667  -1.422   3.536  1.00  0.00     0.002 C 
ENDROOT
BRANCH   1   2
ATOM      2  C   UNL     1       4.432  -0.526   2.555  1.00  0.00     0.021 C 
BRANCH   2   3
ATOM      3  C   UNL     1       4.306  -0.904   1.081  1.00  0.00     0.116 C 
BRANCH   3   4
ATOM      4  N   UNL     1       2.923  -0.959   0.644  1.00  0.00    -0.352 N 
ATOM      5  O   UNL     1       1.019  -0.279  -0.334  1.00  0.00    -0.269 OA
ATOM      6  C   UNL     1       2.242  -0.189  -0.259  1.00  0.00     0.251 C 
ATOM      7  H   UNL     1       2.387  -1.668   1.067  1.00  0.00     0.163 HD
BRANCH   6   8
ATOM      8  C   UNL     1       2.954   0.757  -1.144  1.00  0.00     0.039 A 
ATOM      9  C   UNL     1       4.114   0.386  -1.832  1.00  0.00     0.014 A 
ATOM     10  C   UNL     1       2.385   2.016  -1.359  1.00  0.00     0.014 A 
ATOM     11  C   UNL     1       4.747   1.301  -2.674  1.00  0.00     0.010 A 
ATOM     12  C   UNL     1       2.990   2.912  -2.241  1.00  0.00     0.010 A 
ATOM     13  C   UNL     1       4.182   2.566  -2.895  1.00  0.00    -0.014 A 
BRANCH  13  14
ATOM     14  C   UNL     1       4.795   3.514  -3.857  1.00  0.00     0.031 A 
ATOM     15  C   UNL     1       5.406   4.796  -3.379  1.00  0.00     0.074 A 
ATOM     16  C   UNL     1       4.737   3.241  -5.174  1.00  0.00     0.049 A 
ATOM     17  N   UNL     1       5.889   5.793  -4.076  1.00  0.00    -0.248 NA
ATOM     18  C   UNL     1       5.472   4.990  -1.923  1.00  0.00     0.031 C 
ATOM     19  C   UNL     1       4.150   2.034  -5.757  1.00  0.00     0.029 A 
ATOM     20  N   UNL     1       5.153   3.970  -6.259  1.00  0.00    -0.354 N 
ATOM     21  C   UNL     1       6.296   6.742  -3.147  1.00  0.00     0.074 A 
ATOM     22  C   UNL     1       5.986   6.209  -1.837  1.00  0.00     0.031 C 
ATOM     23  C   UNL     1       4.237   2.107  -7.094  1.00  0.00     0.029 A 
ATOM     24  C   UNL     1       4.841   3.385  -7.461  1.00  0.00     0.049 A 
ATOM     25  H   UNL     1       5.629   4.828  -6.183  1.00  0.00     0.167 HD
ATOM     26  C   UNL     1       6.877   7.944  -3.372  1.00  0.00     0.037 A 
ATOM     27  C   UNL     1       4.992   3.840  -8.718  1.00  0.00     0.037 A 
ATOM     28  C   UNL     1       7.191   8.463  -4.679  1.00  0.00     0.049 A 
ATOM     29  C   UNL     1       5.618   5.186  -8.945  1.00  0.00     0.074 A 
ATOM     30  C   UNL     1       7.832   9.644  -5.008  1.00  0.00     0.029 A 
ATOM     31  N   UNL     1       6.874   7.833  -5.874  1.00  0.00    -0.354 N 
ATOM     32  N   UNL     1       6.047   6.053  -8.061  1.00  0.00    -0.248 NA
ATOM     33  C   UNL     1       5.783   5.617 -10.339  1.00  0.00     0.031 C 
ATOM     34  C   UNL     1       7.863   9.751  -6.403  1.00  0.00     0.029 A 
ATOM     35  C   UNL     1       7.283   8.614  -6.943  1.00  0.00     0.049 A 
ATOM     36  H   UNL     1       6.424   6.960  -5.951  1.00  0.00     0.167 HD
ATOM     37  C   UNL     1       6.550   7.122  -8.788  1.00  0.00     0.074 A 
ATOM     38  C   UNL     1       6.378   6.793 -10.188  1.00  0.00     0.031 C 
ATOM     39  C   UNL     1       7.109   8.270  -8.332  1.00  0.00     0.037 A 
BRANCH  26  40
ATOM     40  C   UNL     1       7.189   8.794  -2.176  1.00  0.00     0.064 A 
ATOM     41  C   UNL     1       8.226   8.468  -1.289  1.00  0.00     0.173 A 
ATOM     42  C   UNL     1       6.454   9.963  -1.926  1.00  0.00     0.173 A 
ATOM     43  F   UNL     1       8.951   7.355  -1.478  1.00  0.00    -0.203 F 
ATOM     44  C   UNL     1       8.495   9.264  -0.178  1.00  0.00     0.198 A 
ATOM     45  C   UNL     1       6.743  10.770  -0.828  1.00  0.00     0.198 A 
ATOM     46  F   UNL     1       5.457  10.324  -2.747  1.00  0.00    -0.203 F 
ATOM     47  F   UNL     1       9.458   8.906   0.682  1.00  0.00    -0.200 F 
ATOM     48  C   UNL     1       7.756  10.416   0.049  1.00  0.00     0.200 A 
ATOM     49  F   UNL     1       6.035  11.888  -0.616  1.00  0.00    -0.200 F 
ATOM     50  F   UNL     1       8.016  11.180   1.119  1.00  0.00    -0.200 F 
ENDBRANCH  26  40
BRANCH  27  51
ATOM     51  C   UNL     1       4.528   3.001  -9.850  1.00  0.00     0.064 A 
ATOM     52  C   UNL     1       5.442   2.329 -10.671  1.00  0.00     0.173 A 
ATOM     53  C   UNL     1       3.160   2.805 -10.093  1.00  0.00     0.173 A 
ATOM     54  F   UNL     1       6.759   2.500 -10.485  1.00  0.00    -0.203 F 
ATOM     55  C   UNL     1       5.005   1.492 -11.695  1.00  0.00     0.198 A 
ATOM     56  C   UNL     1       2.724   1.950 -11.102  1.00  0.00     0.198 A 
ATOM     57  F   UNL     1       2.247   3.422  -9.328  1.00  0.00    -0.203 F 
ATOM     58  F   UNL     1       5.899   0.874 -12.479  1.00  0.00    -0.200 F 
ATOM     59  C   UNL     1       3.647   1.294 -11.903  1.00  0.00     0.200 A 
ATOM     60  F   UNL     1       1.413   1.749 -11.289  1.00  0.00    -0.200 F 
ATOM     61  F   UNL     1       3.229   0.472 -12.875  1.00  0.00    -0.200 F 
ENDBRANCH  27  51
BRANCH  39  62
ATOM     62  C   UNL     1       7.608   9.247  -9.354  1.00  0.00     0.064 A 
ATOM     63  C   UNL     1       6.729  10.063 -10.079  1.00  0.00     0.173 A 
ATOM     64  C   UNL     1       8.985   9.415  -9.558  1.00  0.00     0.173 A 
ATOM     65  F   UNL     1       5.402   9.928  -9.929  1.00  0.00    -0.203 F 
ATOM     66  C   UNL     1       7.212  11.009 -10.979  1.00  0.00     0.198 A 
ATOM     67  C   UNL     1       9.466  10.376 -10.442  1.00  0.00     0.198 A 
ATOM     68  F   UNL     1       9.865   8.658  -8.885  1.00  0.00    -0.203 F 
ATOM     69  F   UNL     1       6.355  11.762 -11.682  1.00  0.00    -0.200 F 
ATOM     70  C   UNL     1       8.579  11.171 -11.153  1.00  0.00     0.200 A 
ATOM     71  F   UNL     1      10.786  10.538 -10.602  1.00  0.00    -0.200 F 
ATOM     72  F   UNL     1       9.043  12.091 -12.010  1.00  0.00    -0.200 F 
ENDBRANCH  39  62
ENDBRANCH  13  14
ENDBRANCH   6   8
ENDBRANCH   3   4
ENDBRANCH   2   3
ENDBRANCH   1   2
BRANCH   1  73
ATOM     73  C   UNL     1       3.933  -2.932   3.438  1.00  0.00     0.002 C 
BRANCH  73  74
ATOM     74  C   UNL     1       5.405  -3.354   3.425  1.00  0.00     0.021 C 
BRANCH  74  75
ATOM     75  C   UNL     1       6.184  -2.928   4.663  1.00  0.00     0.116 C 
BRANCH  75  76
ATOM     76  N   UNL     1       6.478  -4.027   5.566  1.00  0.00    -0.354 N 
ATOM     77  C   UNL     1       7.590  -4.256   6.321  1.00  0.00     0.243 C 
ATOM     78  H   UNL     1       5.770  -4.706   5.644  1.00  0.00     0.163 HD
ATOM     79  O   UNL     1       7.430  -4.939   7.341  1.00  0.00    -0.273 OA
BRANCH  77  80
ATOM     80  C   UNL     1       9.009  -3.726   5.969  1.00  0.00     0.185 C 
BRANCH  80  81
ATOM     81  C   UNL     1       9.532  -4.154   4.568  1.00  0.00     0.071 C 
BRANCH  81  82
ATOM     82  C   UNL     1       9.219  -3.340   3.337  1.00  0.00    -0.045 A 
ATOM     83  C   UNL     1       9.605  -2.000   3.209  1.00  0.00     0.004 A 
ATOM     84  C   UNL     1       8.583  -3.956   2.247  1.00  0.00     0.004 A 
ATOM     85  C   UNL     1       9.284  -1.272   2.060  1.00  0.00     0.000 A 
ATOM     86  C   UNL     1       8.281  -3.234   1.090  1.00  0.00     0.000 A 
ATOM     87  C   UNL     1       8.615  -1.886   1.005  1.00  0.00     0.000 A 
ENDBRANCH  81  82
ENDBRANCH  80  81
BRANCH  80  88
ATOM     88  N   UNL     1       9.455  -2.404   6.472  1.00  0.00    -0.280 N 
ATOM     89  C   UNL     1       8.585  -1.338   6.542  1.00  0.00     0.266 C 
ATOM     90  C   UNL     1      10.757  -2.112   6.851  1.00  0.00     0.149 C 
ATOM     91  O   UNL     1       7.367  -1.372   6.542  1.00  0.00    -0.268 OA
ATOM     92  C   UNL     1       9.318  -0.060   6.707  1.00  0.00     0.081 C 
ATOM     93  S   UNL     1      10.944  -0.374   7.110  1.00  0.00    -0.054 SA
ATOM     94  S   UNL     1      12.058  -3.144   7.024  1.00  0.00    -0.052 S 
ATOM     95  C   UNL     1       8.678   1.102   6.523  1.00  0.00     0.029 C 
BRANCH  95  96
ATOM     96  C   UNL     1       9.203   2.466   6.627  1.00  0.00    -0.021 A 
ATOM     97  C   UNL     1      10.359   2.887   5.972  1.00  0.00     0.028 A 
ATOM     98  C   UNL     1       8.459   3.403   7.346  1.00  0.00     0.028 A 
ATOM     99  C   UNL     1      10.737   4.214   6.093  1.00  0.00     0.111 A 
ATOM    100  C   UNL     1       8.918   4.708   7.407  1.00  0.00     0.111 A 
ATOM    101  N   UNL     1      10.042   5.133   6.797  1.00  0.00    -0.265 NA
ENDBRANCH  95  96
ENDBRANCH  80  88
ENDBRANCH  77  80
ENDBRANCH  75  76
ENDBRANCH  74  75
ENDBRANCH  73  74
ENDBRANCH   1  73
TORSDOF 17
