REMARK SMILES COC(=O)c1c(NC(=O)[C@@H]2C[C@@H]2C(=O)NCCCCCCNC(=O)c2ccc(-c3c4nc(c(-c5c(F)c(F)c(F)c(F)c5F)c5ccc([nH]5)c(-c5c(F)c(F)c(F)c(F)c5F)c5nc(c(-c6c(F)c(F)c(F)c(F)c6F)c6ccc3[nH]6)C=C5)C=C4)cc2)sc2c1CC[N@@H+](Cc1ccccc1)C2
REMARK SMILES IDX 17 1 16 2 15 3 13 4 14 5 12 7 10 8 11 9 8 10 7 11 9 13 6 14
REMARK SMILES IDX 5 15 90 16 88 17 89 18 91 19 101 20 92 21 93 22 3 24 4 25
REMARK SMILES IDX 2 26 1 27 94 28 95 29 96 30 100 31 97 32 99 33 98 34 18 35
REMARK SMILES IDX 19 36 20 37 21 38 22 39 23 40 24 42 25 43 26 44 87 45 27 46
REMARK SMILES IDX 86 47 28 48 29 49 30 50 80 51 31 52 85 53 79 54 81 55 32 56
REMARK SMILES IDX 84 57 78 58 77 59 33 61 65 62 45 63 64 64 46 65 49 66 63 67
REMARK SMILES IDX 82 68 47 69 48 70 62 72 83 73 50 74 34 75 35 76 43 77 36 78
REMARK SMILES IDX 37 79 41 80 44 81 38 82 39 83 42 84 40 85 66 86 67 87 75 88
REMARK SMILES IDX 68 89 69 90 73 91 76 92 70 93 71 94 74 95 72 96 51 97 52 98
REMARK SMILES IDX 60 99 53 100 54 101 58 102 61 103 55 104 56 105 59 106
REMARK SMILES IDX 57 107
REMARK H PARENT 15 6 7 12 93 23 22 41 81 60 49 71
REMARK Flexibility Score: inf
ROOT
ATOM      1  C   UNL     1      -1.479   1.209  -5.461  1.00  0.00     0.021 C 
ENDROOT
BRANCH   1   2
ATOM      2  C   UNL     1      -2.268   0.420  -4.416  1.00  0.00     0.116 C 
BRANCH   2   3
ATOM      3  N   UNL     1      -1.419  -0.550  -3.764  1.00  0.00    -0.356 N 
ATOM      4  C   UNL     1      -0.929  -0.620  -2.488  1.00  0.00     0.223 C 
ATOM      5  O   UNL     1      -0.006  -1.406  -2.276  1.00  0.00    -0.275 OA
ATOM      6  H   UNL     1      -1.144  -1.298  -4.342  1.00  0.00     0.163 HD
BRANCH   4   7
ATOM      7  C   UNL     1      -1.635  -0.051  -1.317  1.00  0.00     0.091 C 
ATOM      8  C   UNL     1      -2.244   1.270  -0.967  1.00  0.00     0.092 C 
ATOM      9  C   UNL     1      -0.953   0.910  -0.356  1.00  0.00     0.028 C 
BRANCH   8  10
ATOM     10  C   UNL     1      -2.510   2.456  -1.796  1.00  0.00     0.228 C 
ATOM     11  N   UNL     1      -1.692   3.265  -2.532  1.00  0.00    -0.317 N 
ATOM     12  H   UNL     1      -2.218   4.033  -2.854  1.00  0.00     0.170 HD
ATOM     13  O   UNL     1      -3.708   2.746  -1.901  1.00  0.00    -0.274 OA
BRANCH  11  14
ATOM     14  C   UNL     1      -0.401   3.398  -2.987  1.00  0.00     0.110 A 
ATOM     15  C   UNL     1       0.932   3.083  -2.766  1.00  0.00     0.098 A 
ATOM     16  C   UNL     1       1.745   3.452  -3.904  1.00  0.00    -0.006 A 
ATOM     17  S   UNL     1      -0.514   4.379  -4.431  1.00  0.00    -0.116 S 
ATOM     18  C   UNL     1       0.966   3.768  -4.984  1.00  0.00     0.065 A 
ATOM     19  C   UNL     1       3.233   3.399  -4.053  1.00  0.00     0.099 C 
ATOM     20  C   UNL     1       1.426   3.805  -6.397  1.00  0.00     0.310 C 
ATOM     21  C   UNL     1       3.680   3.890  -5.458  1.00  0.00     0.267 C 
ATOM     22  N   UNL     1       2.838   3.470  -6.586  1.00  0.00    -0.326 N 
ATOM     23  H   UNL     1       3.145   4.065  -7.356  1.00  0.00     0.348 HD
BRANCH  15  24
ATOM     24  C   UNL     1       1.557   2.514  -1.594  1.00  0.00     0.341 C 
ATOM     25  O   UNL     1       1.829   3.163  -0.599  1.00  0.00    -0.246 OA
BRANCH  24  26
ATOM     26  O   UNL     1       1.816   1.188  -1.774  1.00  0.00    -0.465 OA
ATOM     27  C   UNL     1       2.300   0.485  -0.627  1.00  0.00     0.282 C 
ENDBRANCH  24  26
ENDBRANCH  15  24
BRANCH  22  28
ATOM     28  C   UNL     1       3.131   2.169  -7.195  1.00  0.00     0.299 C 
BRANCH  28  29
ATOM     29  C   UNL     1       3.107   0.963  -6.289  1.00  0.00     0.006 A 
ATOM     30  C   UNL     1       4.240   0.597  -5.546  1.00  0.00     0.009 A 
ATOM     31  C   UNL     1       1.947   0.199  -6.147  1.00  0.00     0.009 A 
ATOM     32  C   UNL     1       4.168  -0.415  -4.587  1.00  0.00     0.001 A 
ATOM     33  C   UNL     1       1.880  -0.820  -5.198  1.00  0.00     0.001 A 
ATOM     34  C   UNL     1       2.976  -1.102  -4.390  1.00  0.00     0.000 A 
ENDBRANCH  28  29
ENDBRANCH  22  28
ENDBRANCH  11  14
ENDBRANCH   8  10
ENDBRANCH   4   7
ENDBRANCH   2   3
ENDBRANCH   1   2
BRANCH   1  35
ATOM     35  C   UNL     1      -1.722   0.854  -6.927  1.00  0.00     0.002 C 
BRANCH  35  36
ATOM     36  C   UNL     1      -3.108   1.255  -7.455  1.00  0.00     0.002 C 
BRANCH  36  37
ATOM     37  C   UNL     1      -3.534   2.722  -7.261  1.00  0.00     0.021 C 
BRANCH  37  38
ATOM     38  C   UNL     1      -2.613   3.755  -7.903  1.00  0.00     0.116 C 
BRANCH  38  39
ATOM     39  N   UNL     1      -2.639   3.740  -9.361  1.00  0.00    -0.352 N 
ATOM     40  C   UNL     1      -2.219   4.693 -10.268  1.00  0.00     0.251 C 
ATOM     41  H   UNL     1      -3.014   2.922  -9.761  1.00  0.00     0.163 HD
ATOM     42  O   UNL     1      -2.582   4.612 -11.439  1.00  0.00    -0.269 OA
BRANCH  40  43
ATOM     43  C   UNL     1      -1.307   5.796  -9.871  1.00  0.00     0.039 A 
ATOM     44  C   UNL     1      -1.269   7.000 -10.588  1.00  0.00     0.014 A 
ATOM     45  C   UNL     1      -0.406   5.608  -8.833  1.00  0.00     0.014 A 
ATOM     46  C   UNL     1      -0.338   7.987 -10.242  1.00  0.00     0.010 A 
ATOM     47  C   UNL     1       0.434   6.617  -8.424  1.00  0.00     0.010 A 
ATOM     48  C   UNL     1       0.527   7.777  -9.163  1.00  0.00    -0.014 A 
BRANCH  48  49
ATOM     49  C   UNL     1       1.404   8.817  -8.635  1.00  0.00     0.031 A 
ATOM     50  C   UNL     1       0.641   9.990  -8.143  1.00  0.00     0.074 A 
ATOM     51  C   UNL     1       2.720   8.653  -8.362  1.00  0.00     0.049 A 
ATOM     52  N   UNL     1       0.615  11.170  -8.663  1.00  0.00    -0.248 NA
ATOM     53  C   UNL     1      -0.343   9.791  -7.064  1.00  0.00     0.031 C 
ATOM     54  C   UNL     1       3.525   7.429  -8.455  1.00  0.00     0.029 A 
ATOM     55  N   UNL     1       3.616   9.551  -7.854  1.00  0.00    -0.354 N 
ATOM     56  C   UNL     1      -0.226  11.924  -7.852  1.00  0.00     0.074 A 
ATOM     57  C   UNL     1      -0.939  10.985  -7.029  1.00  0.00     0.031 C 
ATOM     58  C   UNL     1       4.715   7.613  -7.836  1.00  0.00     0.029 A 
ATOM     59  C   UNL     1       4.825   9.001  -7.424  1.00  0.00     0.049 A 
ATOM     60  H   UNL     1       3.423  10.514  -7.794  1.00  0.00     0.167 HD
ATOM     61  C   UNL     1      -0.045  13.269  -7.750  1.00  0.00     0.037 A 
ATOM     62  C   UNL     1       5.824   9.644  -6.760  1.00  0.00     0.037 A 
ATOM     63  C   UNL     1       0.783  13.746  -8.835  1.00  0.00     0.049 A 
ATOM     64  C   UNL     1       5.622  11.098  -6.973  1.00  0.00     0.074 A 
ATOM     65  C   UNL     1       0.685  13.746 -10.213  1.00  0.00     0.029 A 
ATOM     66  N   UNL     1       2.107  13.975  -8.555  1.00  0.00    -0.354 N 
ATOM     67  N   UNL     1       5.782  11.695  -8.118  1.00  0.00    -0.248 NA
ATOM     68  C   UNL     1       4.809  11.810  -6.001  1.00  0.00     0.031 C 
ATOM     69  C   UNL     1       2.013  13.513 -10.681  1.00  0.00     0.029 A 
ATOM     70  C   UNL     1       2.862  13.464  -9.575  1.00  0.00     0.049 A 
ATOM     71  H   UNL     1       2.455  14.431  -7.755  1.00  0.00     0.167 HD
ATOM     72  C   UNL     1       4.736  12.600  -8.184  1.00  0.00     0.074 A 
ATOM     73  C   UNL     1       4.231  12.697  -6.815  1.00  0.00     0.031 C 
ATOM     74  C   UNL     1       4.197  12.946  -9.389  1.00  0.00     0.037 A 
BRANCH  61  75
ATOM     75  C   UNL     1      -0.219  14.063  -6.471  1.00  0.00     0.064 A 
ATOM     76  C   UNL     1       0.027  15.453  -6.509  1.00  0.00     0.173 A 
ATOM     77  C   UNL     1      -0.295  13.504  -5.176  1.00  0.00     0.173 A 
ATOM     78  F   UNL     1       0.118  16.100  -7.681  1.00  0.00    -0.203 F 
ATOM     79  C   UNL     1       0.296  16.191  -5.354  1.00  0.00     0.198 A 
ATOM     80  C   UNL     1      -0.076  14.255  -4.022  1.00  0.00     0.198 A 
ATOM     81  F   UNL     1      -0.472  12.197  -4.961  1.00  0.00    -0.203 F 
ATOM     82  F   UNL     1       0.672  17.472  -5.458  1.00  0.00    -0.200 F 
ATOM     83  C   UNL     1       0.257  15.589  -4.112  1.00  0.00     0.200 A 
ATOM     84  F   UNL     1      -0.106  13.648  -2.828  1.00  0.00    -0.200 F 
ATOM     85  F   UNL     1       0.585  16.274  -3.010  1.00  0.00    -0.200 F 
ENDBRANCH  61  75
BRANCH  62  86
ATOM     86  C   UNL     1       6.783   9.151  -5.735  1.00  0.00     0.064 A 
ATOM     87  C   UNL     1       7.885   9.936  -5.338  1.00  0.00     0.173 A 
ATOM     88  C   UNL     1       6.469   8.062  -4.902  1.00  0.00     0.173 A 
ATOM     89  F   UNL     1       8.240  11.015  -6.052  1.00  0.00    -0.203 F 
ATOM     90  C   UNL     1       8.592   9.677  -4.157  1.00  0.00     0.198 A 
ATOM     91  C   UNL     1       7.178   7.802  -3.726  1.00  0.00     0.198 A 
ATOM     92  F   UNL     1       5.405   7.288  -5.156  1.00  0.00    -0.203 F 
ATOM     93  F   UNL     1       9.584  10.495  -3.777  1.00  0.00    -0.200 F 
ATOM     94  C   UNL     1       8.226   8.620  -3.344  1.00  0.00     0.200 A 
ATOM     95  F   UNL     1       6.795   6.793  -2.930  1.00  0.00    -0.200 F 
ATOM     96  F   UNL     1       8.852   8.414  -2.176  1.00  0.00    -0.200 F 
ENDBRANCH  62  86
BRANCH  74  97
ATOM     97  C   UNL     1       4.967  12.580 -10.629  1.00  0.00     0.064 A 
ATOM     98  C   UNL     1       5.277  11.266 -11.022  1.00  0.00     0.173 A 
ATOM     99  C   UNL     1       5.304  13.612 -11.516  1.00  0.00     0.173 A 
ATOM    100  F   UNL     1       4.907  10.215 -10.279  1.00  0.00    -0.203 F 
ATOM    101  C   UNL     1       5.935  11.007 -12.224  1.00  0.00     0.198 A 
ATOM    102  C   UNL     1       5.923  13.347 -12.733  1.00  0.00     0.198 A 
ATOM    103  F   UNL     1       4.992  14.883 -11.217  1.00  0.00    -0.203 F 
ATOM    104  F   UNL     1       6.239   9.746 -12.567  1.00  0.00    -0.200 F 
ATOM    105  C   UNL     1       6.250  12.047 -13.082  1.00  0.00     0.200 A 
ATOM    106  F   UNL     1       6.182  14.354 -13.579  1.00  0.00    -0.200 F 
ATOM    107  F   UNL     1       6.848  11.797 -14.255  1.00  0.00    -0.200 F 
ENDBRANCH  74  97
ENDBRANCH  48  49
ENDBRANCH  40  43
ENDBRANCH  38  39
ENDBRANCH  37  38
ENDBRANCH  36  37
ENDBRANCH  35  36
ENDBRANCH   1  35
TORSDOF 19
