REMARK SMILES CC(C)[C@@H](NC(=O)/C(=C\c1ccccc1F)NC(=O)c1ccccc1)C(=O)NCCCCCCNC(=O)c1ccc(-c2c3nc(c(-c4c(F)c(F)c(F)c(F)c4F)c4ccc([nH]4)c(-c4c(F)c(F)c(F)c(F)c4F)c4nc(c(-c5c(F)c(F)c(F)c(F)c5F)c5ccc2[nH]5)C=C4)C=C3)cc1
REMARK SMILES IDX 30 1 29 2 28 3 26 4 27 5 4 7 2 8 1 9 3 10 5 11 6 12 7 14
REMARK SMILES IDX 8 15 9 16 17 17 18 18 19 20 20 21 21 22 25 23 22 24 24 25
REMARK SMILES IDX 23 26 10 27 11 28 15 29 12 30 14 31 16 32 13 33 31 34 32 35
REMARK SMILES IDX 33 36 34 37 35 38 36 39 37 41 38 42 39 43 100 44 40 45 99 46
REMARK SMILES IDX 41 47 42 48 43 49 93 50 44 51 98 52 92 53 94 54 45 55 97 56
REMARK SMILES IDX 91 57 90 58 46 60 78 61 58 62 77 63 59 64 62 65 76 66 95 67
REMARK SMILES IDX 60 68 61 69 75 71 96 72 63 73 47 74 48 75 56 76 49 77 50 78
REMARK SMILES IDX 54 79 57 80 51 81 52 82 55 83 53 84 79 85 80 86 88 87 81 88
REMARK SMILES IDX 82 89 86 90 89 91 83 92 84 93 87 94 85 95 64 96 65 97 73 98
REMARK SMILES IDX 66 99 67 100 71 101 74 102 68 103 69 104 72 105 70 106
REMARK H PARENT 28 6 5 13 17 19 35 40 94 59 62 70
REMARK Flexibility Score: inf
ROOT
ATOM      1  C   UNL     1       1.404   1.919  -4.769  1.00  0.00     0.021 C 
ENDROOT
BRANCH   1   2
ATOM      2  C   UNL     1       0.348   1.832  -3.678  1.00  0.00     0.116 C 
BRANCH   2   3
ATOM      3  N   UNL     1      -0.050   0.452  -3.570  1.00  0.00    -0.354 N 
ATOM      4  C   UNL     1       0.033  -0.319  -2.458  1.00  0.00     0.242 C 
ATOM      5  O   UNL     1       0.435  -1.475  -2.599  1.00  0.00    -0.273 OA
ATOM      6  H   UNL     1      -0.415   0.029  -4.380  1.00  0.00     0.163 HD
BRANCH   4   7
ATOM      7  C   UNL     1      -0.171   0.289  -1.072  1.00  0.00     0.174 C 
BRANCH   7   8
ATOM      8  C   UNL     1       1.221   0.758  -0.512  1.00  0.00     0.015 C 
ATOM      9  C   UNL     1       1.272   0.694   1.018  1.00  0.00     0.010 C 
ATOM     10  C   UNL     1       2.415  -0.057  -1.049  1.00  0.00     0.010 C 
ENDBRANCH   7   8
BRANCH   7  11
ATOM     11  N   UNL     1      -1.200   1.361  -1.037  1.00  0.00    -0.339 N 
ATOM     12  C   UNL     1      -2.550   1.202  -1.288  1.00  0.00     0.268 C 
ATOM     13  H   UNL     1      -0.891   2.268  -0.814  1.00  0.00     0.164 HD
ATOM     14  O   UNL     1      -3.346   1.490  -0.394  1.00  0.00    -0.268 OA
BRANCH  12  15
ATOM     15  C   UNL     1      -3.063   0.987  -2.698  1.00  0.00     0.107 C 
ATOM     16  C   UNL     1      -3.179  -0.221  -3.297  1.00  0.00     0.043 C 
BRANCH  15  17
ATOM     17  N   UNL     1      -3.551   2.052  -3.449  1.00  0.00    -0.317 N 
ATOM     18  C   UNL     1      -3.756   3.393  -3.255  1.00  0.00     0.255 C 
ATOM     19  H   UNL     1      -3.819   1.769  -4.353  1.00  0.00     0.170 HD
ATOM     20  O   UNL     1      -4.263   4.050  -4.167  1.00  0.00    -0.269 OA
BRANCH  18  21
ATOM     21  C   UNL     1      -3.412   4.097  -2.021  1.00  0.00     0.040 A 
ATOM     22  C   UNL     1      -4.448   4.590  -1.223  1.00  0.00     0.014 A 
ATOM     23  C   UNL     1      -2.081   4.398  -1.730  1.00  0.00     0.014 A 
ATOM     24  C   UNL     1      -4.142   5.327  -0.081  1.00  0.00     0.001 A 
ATOM     25  C   UNL     1      -1.779   5.127  -0.581  1.00  0.00     0.001 A 
ATOM     26  C   UNL     1      -2.809   5.583   0.245  1.00  0.00     0.000 A 
ENDBRANCH  18  21
ENDBRANCH  15  17
BRANCH  16  27
ATOM     27  C   UNL     1      -2.758  -1.566  -2.889  1.00  0.00     0.012 A 
ATOM     28  C   UNL     1      -2.063  -2.334  -3.842  1.00  0.00     0.011 A 
ATOM     29  C   UNL     1      -2.962  -2.108  -1.622  1.00  0.00     0.130 A 
ATOM     30  C   UNL     1      -1.465  -3.544  -3.482  1.00  0.00     0.001 A 
ATOM     31  C   UNL     1      -2.381  -3.322  -1.261  1.00  0.00     0.040 A 
ATOM     32  F   UNL     1      -3.696  -1.454  -0.713  1.00  0.00    -0.206 F 
ATOM     33  C   UNL     1      -1.602  -4.024  -2.181  1.00  0.00     0.003 A 
ENDBRANCH  16  27
ENDBRANCH  12  15
ENDBRANCH   7  11
ENDBRANCH   4   7
ENDBRANCH   2   3
ENDBRANCH   1   2
BRANCH   1  34
ATOM     34  C   UNL     1       0.791   1.835  -6.171  1.00  0.00     0.002 C 
BRANCH  34  35
ATOM     35  C   UNL     1      -0.183   2.971  -6.502  1.00  0.00     0.002 C 
BRANCH  35  36
ATOM     36  C   UNL     1       0.350   4.370  -6.192  1.00  0.00     0.021 C 
BRANCH  36  37
ATOM     37  C   UNL     1       1.718   4.660  -6.790  1.00  0.00     0.116 C 
BRANCH  37  38
ATOM     38  N   UNL     1       1.708   4.618  -8.239  1.00  0.00    -0.352 N 
ATOM     39  C   UNL     1       2.359   5.453  -9.111  1.00  0.00     0.251 C 
ATOM     40  H   UNL     1       1.167   3.904  -8.647  1.00  0.00     0.163 HD
ATOM     41  O   UNL     1       2.148   5.394 -10.313  1.00  0.00    -0.269 OA
BRANCH  39  42
ATOM     42  C   UNL     1       3.305   6.449  -8.567  1.00  0.00     0.039 A 
ATOM     43  C   UNL     1       3.194   7.775  -8.987  1.00  0.00     0.014 A 
ATOM     44  C   UNL     1       4.280   6.077  -7.635  1.00  0.00     0.014 A 
ATOM     45  C   UNL     1       4.048   8.738  -8.450  1.00  0.00     0.010 A 
ATOM     46  C   UNL     1       5.077   7.050  -7.045  1.00  0.00     0.010 A 
ATOM     47  C   UNL     1       4.984   8.386  -7.463  1.00  0.00    -0.014 A 
BRANCH  47  48
ATOM     48  C   UNL     1       5.912   9.396  -6.898  1.00  0.00     0.031 A 
ATOM     49  C   UNL     1       7.390   9.265  -7.143  1.00  0.00     0.074 A 
ATOM     50  C   UNL     1       5.433  10.407  -6.150  1.00  0.00     0.049 A 
ATOM     51  N   UNL     1       8.371  10.009  -6.699  1.00  0.00    -0.248 NA
ATOM     52  C   UNL     1       7.829   8.134  -7.978  1.00  0.00     0.031 C 
ATOM     53  C   UNL     1       4.023  10.622  -5.823  1.00  0.00     0.029 A 
ATOM     54  N   UNL     1       6.080  11.447  -5.532  1.00  0.00    -0.354 N 
ATOM     55  C   UNL     1       9.534   9.434  -7.194  1.00  0.00     0.074 A 
ATOM     56  C   UNL     1       9.147   8.243  -7.917  1.00  0.00     0.031 C 
ATOM     57  C   UNL     1       3.908  11.745  -5.096  1.00  0.00     0.029 A 
ATOM     58  C   UNL     1       5.236  12.307  -4.872  1.00  0.00     0.049 A 
ATOM     59  H   UNL     1       7.057  11.566  -5.558  1.00  0.00     0.167 HD
ATOM     60  C   UNL     1      10.807   9.877  -7.083  1.00  0.00     0.037 A 
ATOM     61  C   UNL     1       5.507  13.423  -4.167  1.00  0.00     0.037 A 
ATOM     62  C   UNL     1      11.184  11.080  -6.391  1.00  0.00     0.049 A 
ATOM     63  C   UNL     1       6.934  13.884  -4.043  1.00  0.00     0.074 A 
ATOM     64  C   UNL     1      12.445  11.631  -6.247  1.00  0.00     0.029 A 
ATOM     65  N   UNL     1      10.299  11.923  -5.735  1.00  0.00    -0.354 N 
ATOM     66  N   UNL     1       8.022  13.350  -4.543  1.00  0.00    -0.248 NA
ATOM     67  C   UNL     1       7.173  15.106  -3.262  1.00  0.00     0.031 C 
ATOM     68  C   UNL     1      12.329  12.785  -5.468  1.00  0.00     0.029 A 
ATOM     69  C   UNL     1      10.990  12.985  -5.175  1.00  0.00     0.049 A 
ATOM     70  H   UNL     1       9.326  11.787  -5.676  1.00  0.00     0.167 HD
ATOM     71  C   UNL     1       9.066  14.186  -4.170  1.00  0.00     0.074 A 
ATOM     72  C   UNL     1       8.481  15.268  -3.405  1.00  0.00     0.031 C 
ATOM     73  C   UNL     1      10.389  14.067  -4.438  1.00  0.00     0.037 A 
BRANCH  60  74
ATOM     74  C   UNL     1      11.890   9.076  -7.744  1.00  0.00     0.064 A 
ATOM     75  C   UNL     1      12.854   8.406  -6.975  1.00  0.00     0.173 A 
ATOM     76  C   UNL     1      12.017   9.031  -9.141  1.00  0.00     0.173 A 
ATOM     77  F   UNL     1      12.780   8.420  -5.636  1.00  0.00    -0.203 F 
ATOM     78  C   UNL     1      13.914   7.736  -7.581  1.00  0.00     0.198 A 
ATOM     79  C   UNL     1      13.061   8.334  -9.743  1.00  0.00     0.198 A 
ATOM     80  F   UNL     1      11.113   9.643  -9.921  1.00  0.00    -0.203 F 
ATOM     81  F   UNL     1      14.843   7.135  -6.825  1.00  0.00    -0.200 F 
ATOM     82  C   UNL     1      14.014   7.698  -8.963  1.00  0.00     0.200 A 
ATOM     83  F   UNL     1      13.141   8.276 -11.080  1.00  0.00    -0.200 F 
ATOM     84  F   UNL     1      15.030   7.045  -9.544  1.00  0.00    -0.200 F 
ENDBRANCH  60  74
BRANCH  61  85
ATOM     85  C   UNL     1       4.395  14.205  -3.566  1.00  0.00     0.064 A 
ATOM     86  C   UNL     1       3.643  13.705  -2.492  1.00  0.00     0.173 A 
ATOM     87  C   UNL     1       4.053  15.468  -4.068  1.00  0.00     0.173 A 
ATOM     88  F   UNL     1       3.926  12.499  -1.978  1.00  0.00    -0.203 F 
ATOM     89  C   UNL     1       2.583  14.433  -1.955  1.00  0.00     0.198 A 
ATOM     90  C   UNL     1       3.011  16.207  -3.512  1.00  0.00     0.198 A 
ATOM     91  F   UNL     1       4.755  15.998  -5.081  1.00  0.00    -0.203 F 
ATOM     92  F   UNL     1       1.862  13.918  -0.950  1.00  0.00    -0.200 F 
ATOM     93  C   UNL     1       2.272  15.686  -2.461  1.00  0.00     0.200 A 
ATOM     94  F   UNL     1       2.731  17.429  -3.986  1.00  0.00    -0.200 F 
ATOM     95  F   UNL     1       1.264  16.393  -1.932  1.00  0.00    -0.200 F 
ENDBRANCH  61  85
BRANCH  73  96
ATOM     96  C   UNL     1      11.304  15.151  -3.948  1.00  0.00     0.064 A 
ATOM     97  C   UNL     1      11.932  16.010  -4.863  1.00  0.00     0.173 A 
ATOM     98  C   UNL     1      11.632  15.280  -2.591  1.00  0.00     0.173 A 
ATOM     99  F   UNL     1      11.659  15.919  -6.173  1.00  0.00    -0.203 F 
ATOM    100  C   UNL     1      12.870  16.946  -4.438  1.00  0.00     0.198 A 
ATOM    101  C   UNL     1      12.549  16.238  -2.167  1.00  0.00     0.198 A 
ATOM    102  F   UNL     1      11.051  14.488  -1.677  1.00  0.00    -0.203 F 
ATOM    103  F   UNL     1      13.489  17.727  -5.335  1.00  0.00    -0.200 F 
ATOM    104  C   UNL     1      13.175  17.061  -3.091  1.00  0.00     0.200 A 
ATOM    105  F   UNL     1      12.826  16.364  -0.862  1.00  0.00    -0.200 F 
ATOM    106  F   UNL     1      14.075  17.967  -2.682  1.00  0.00    -0.200 F 
ENDBRANCH  73  96
ENDBRANCH  47  48
ENDBRANCH  39  42
ENDBRANCH  37  38
ENDBRANCH  36  37
ENDBRANCH  35  36
ENDBRANCH  34  35
ENDBRANCH   1  34
TORSDOF 19
