REMARK SMILES COCC[C@H](NC(=O)N1CC[C@H](C(=O)OC)C1)C(=O)NCCCCCCNC(=O)c1ccc(-c2c3nc(c(-c4c(F)c(F)c(F)c(F)c4F)c4ccc([nH]4)c(-c4c(F)c(F)c(F)c(F)c4F)c4nc(c(-c5c(F)c(F)c(F)c(F)c5F)c5ccc2[nH]5)C=C4)C=C3)cc1
REMARK SMILES IDX 22 1 21 2 20 3 18 4 19 5 5 7 4 8 3 9 2 10 1 11 6 12 7 13
REMARK SMILES IDX 8 15 9 16 10 17 17 18 11 19 12 20 13 21 14 22 15 23 16 24
REMARK SMILES IDX 23 25 24 26 25 27 26 28 27 29 28 30 29 32 30 33 31 34 92 35
REMARK SMILES IDX 32 36 91 37 33 38 34 39 35 40 85 41 36 42 90 43 84 44 86 45
REMARK SMILES IDX 37 46 89 47 83 48 82 49 38 51 70 52 50 53 69 54 51 55 54 56
REMARK SMILES IDX 68 57 87 58 52 59 53 60 67 62 88 63 55 64 39 65 40 66 48 67
REMARK SMILES IDX 41 68 42 69 46 70 49 71 43 72 44 73 47 74 45 75 71 76 72 77
REMARK SMILES IDX 80 78 73 79 74 80 78 81 81 82 75 83 76 84 79 85 77 86 56 87
REMARK SMILES IDX 57 88 65 89 58 90 59 91 63 92 66 93 60 94 61 95 64 96 62 97
REMARK H PARENT 20 6 6 14 27 31 86 50 54 61
REMARK Flexibility Score: inf
ROOT
ATOM      1  C   UNL     1       0.280  -6.298   2.011  1.00  0.00     0.021 C 
ENDROOT
BRANCH   1   2
ATOM      2  C   UNL     1       0.921  -5.147   1.252  1.00  0.00     0.116 C 
BRANCH   2   3
ATOM      3  N   UNL     1       0.125  -4.658   0.148  1.00  0.00    -0.354 N 
ATOM      4  C   UNL     1       0.237  -3.504  -0.573  1.00  0.00     0.242 C 
ATOM      5  O   UNL     1      -0.290  -3.495  -1.691  1.00  0.00    -0.273 OA
ATOM      6  H   UNL     1      -0.612  -5.250  -0.127  1.00  0.00     0.163 HD
BRANCH   4   7
ATOM      7  C   UNL     1       1.020  -2.272  -0.076  1.00  0.00     0.175 C 
BRANCH   7   8
ATOM      8  C   UNL     1       2.545  -2.157  -0.267  1.00  0.00     0.063 C 
BRANCH   8   9
ATOM      9  C   UNL     1       3.462  -3.347  -0.032  1.00  0.00     0.162 C 
BRANCH   9  10
ATOM     10  O   UNL     1       3.853  -4.084  -1.187  1.00  0.00    -0.385 OA
ATOM     11  C   UNL     1       2.831  -4.547  -2.051  1.00  0.00     0.194 C 
ENDBRANCH   9  10
ENDBRANCH   8   9
ENDBRANCH   7   8
BRANCH   7  12
ATOM     12  N   UNL     1       0.555  -1.906   1.262  1.00  0.00    -0.326 N 
ATOM     13  C   UNL     1      -0.174  -0.865   1.711  1.00  0.00     0.318 C 
ATOM     14  H   UNL     1       0.825  -2.539   1.966  1.00  0.00     0.166 HD
ATOM     15  O   UNL     1      -0.204  -0.707   2.933  1.00  0.00    -0.249 OA
BRANCH  13  16
ATOM     16  N   UNL     1      -0.742   0.027   0.865  1.00  0.00    -0.324 N 
ATOM     17  C   UNL     1      -1.349  -0.120  -0.448  1.00  0.00     0.122 C 
ATOM     18  C   UNL     1      -0.862   1.416   1.280  1.00  0.00     0.136 C 
ATOM     19  C   UNL     1      -0.903   1.156  -1.139  1.00  0.00     0.039 C 
ATOM     20  C   UNL     1      -1.064   2.197  -0.021  1.00  0.00     0.120 C 
BRANCH  20  21
ATOM     21  C   UNL     1      -0.110   3.358  -0.134  1.00  0.00     0.310 C 
ATOM     22  O   UNL     1      -0.480   4.515  -0.291  1.00  0.00    -0.252 OA
BRANCH  21  23
ATOM     23  O   UNL     1       1.189   2.966  -0.037  1.00  0.00    -0.469 OA
ATOM     24  C   UNL     1       2.128   4.042  -0.082  1.00  0.00     0.282 C 
ENDBRANCH  21  23
ENDBRANCH  20  21
ENDBRANCH  13  16
ENDBRANCH   7  12
ENDBRANCH   4   7
ENDBRANCH   2   3
ENDBRANCH   1   2
BRANCH   1  25
ATOM     25  C   UNL     1       0.236  -7.614   1.226  1.00  0.00     0.002 C 
BRANCH  25  26
ATOM     26  C   UNL     1       1.588  -8.148   0.731  1.00  0.00     0.002 C 
BRANCH  26  27
ATOM     27  C   UNL     1       2.679  -8.299   1.793  1.00  0.00     0.021 C 
BRANCH  27  28
ATOM     28  C   UNL     1       2.272  -9.080   3.036  1.00  0.00     0.116 C 
BRANCH  28  29
ATOM     29  N   UNL     1       1.800 -10.420   2.735  1.00  0.00    -0.352 N 
ATOM     30  C   UNL     1       2.059 -11.598   3.391  1.00  0.00     0.251 C 
ATOM     31  H   UNL     1       1.211 -10.494   1.949  1.00  0.00     0.163 HD
ATOM     32  O   UNL     1       1.674 -12.663   2.932  1.00  0.00    -0.269 OA
BRANCH  30  33
ATOM     33  C   UNL     1       2.843 -11.572   4.645  1.00  0.00     0.039 A 
ATOM     34  C   UNL     1       3.888 -12.486   4.798  1.00  0.00     0.014 A 
ATOM     35  C   UNL     1       2.560 -10.647   5.654  1.00  0.00     0.014 A 
ATOM     36  C   UNL     1       4.688 -12.433   5.940  1.00  0.00     0.010 A 
ATOM     37  C   UNL     1       3.406 -10.544   6.753  1.00  0.00     0.010 A 
ATOM     38  C   UNL     1       4.475 -11.439   6.910  1.00  0.00    -0.014 A 
BRANCH  38  39
ATOM     39  C   UNL     1       5.362 -11.325   8.095  1.00  0.00     0.031 A 
ATOM     40  C   UNL     1       4.809 -11.537   9.476  1.00  0.00     0.074 A 
ATOM     41  C   UNL     1       6.652 -10.976   7.928  1.00  0.00     0.049 A 
ATOM     42  N   UNL     1       5.411 -11.433  10.634  1.00  0.00    -0.248 NA
ATOM     43  C   UNL     1       3.383 -11.885   9.571  1.00  0.00     0.031 C 
ATOM     44  C   UNL     1       7.292 -10.697   6.641  1.00  0.00     0.029 A 
ATOM     45  N   UNL     1       7.656 -10.788   8.845  1.00  0.00    -0.354 N 
ATOM     46  C   UNL     1       4.438 -11.691  11.590  1.00  0.00     0.074 A 
ATOM     47  C   UNL     1       3.193 -11.896  10.882  1.00  0.00     0.031 C 
ATOM     48  C   UNL     1       8.585 -10.399   6.849  1.00  0.00     0.029 A 
ATOM     49  C   UNL     1       8.855 -10.425   8.283  1.00  0.00     0.049 A 
ATOM     50  H   UNL     1       7.528 -10.903   9.815  1.00  0.00     0.167 HD
ATOM     51  C   UNL     1       4.575 -11.774  12.935  1.00  0.00     0.037 A 
ATOM     52  C   UNL     1      10.037 -10.137   8.860  1.00  0.00     0.037 A 
ATOM     53  C   UNL     1       5.821 -11.586  13.632  1.00  0.00     0.049 A 
ATOM     54  C   UNL     1      10.160 -10.221  10.358  1.00  0.00     0.074 A 
ATOM     55  C   UNL     1       6.079 -11.707  14.986  1.00  0.00     0.029 A 
ATOM     56  N   UNL     1       7.018 -11.227  13.028  1.00  0.00    -0.354 N 
ATOM     57  N   UNL     1       9.251 -10.540  11.247  1.00  0.00    -0.248 NA
ATOM     58  C   UNL     1      11.476  -9.911  10.932  1.00  0.00     0.031 C 
ATOM     59  C   UNL     1       7.416 -11.363  15.209  1.00  0.00     0.029 A 
ATOM     60  C   UNL     1       8.010 -11.093  13.986  1.00  0.00     0.049 A 
ATOM     61  H   UNL     1       7.143 -11.089  12.061  1.00  0.00     0.167 HD
ATOM     62  C   UNL     1       9.890 -10.500  12.479  1.00  0.00     0.074 A 
ATOM     63  C   UNL     1      11.269 -10.141  12.220  1.00  0.00     0.031 C 
ATOM     64  C   UNL     1       9.381 -10.740  13.713  1.00  0.00     0.037 A 
BRANCH  51  65
ATOM     65  C   UNL     1       3.345 -12.079  13.742  1.00  0.00     0.064 A 
ATOM     66  C   UNL     1       2.709 -13.328  13.678  1.00  0.00     0.173 A 
ATOM     67  C   UNL     1       2.810 -11.118  14.615  1.00  0.00     0.173 A 
ATOM     68  F   UNL     1       3.171 -14.280  12.852  1.00  0.00    -0.203 F 
ATOM     69  C   UNL     1       1.566 -13.592  14.429  1.00  0.00     0.198 A 
ATOM     70  C   UNL     1       1.688 -11.398  15.391  1.00  0.00     0.198 A 
ATOM     71  F   UNL     1       3.381  -9.909  14.722  1.00  0.00    -0.203 F 
ATOM     72  F   UNL     1       0.944 -14.773  14.306  1.00  0.00    -0.200 F 
ATOM     73  C   UNL     1       1.061 -12.630  15.290  1.00  0.00     0.200 A 
ATOM     74  F   UNL     1       1.212 -10.472  16.235  1.00  0.00    -0.200 F 
ATOM     75  F   UNL     1      -0.034 -12.888  16.017  1.00  0.00    -0.200 F 
ENDBRANCH  51  65
BRANCH  52  76
ATOM     76  C   UNL     1      11.204  -9.763   8.017  1.00  0.00     0.064 A 
ATOM     77  C   UNL     1      12.314 -10.611   7.905  1.00  0.00     0.173 A 
ATOM     78  C   UNL     1      11.236  -8.552   7.310  1.00  0.00     0.173 A 
ATOM     79  F   UNL     1      12.341 -11.772   8.576  1.00  0.00    -0.203 F 
ATOM     80  C   UNL     1      13.421 -10.253   7.137  1.00  0.00     0.198 A 
ATOM     81  C   UNL     1      12.329  -8.209   6.517  1.00  0.00     0.198 A 
ATOM     82  F   UNL     1      10.197  -7.706   7.378  1.00  0.00    -0.203 F 
ATOM     83  F   UNL     1      14.489 -11.060   7.087  1.00  0.00    -0.200 F 
ATOM     84  C   UNL     1      13.424  -9.055   6.439  1.00  0.00     0.200 A 
ATOM     85  F   UNL     1      12.320  -7.058   5.831  1.00  0.00    -0.200 F 
ATOM     86  F   UNL     1      14.486  -8.712   5.697  1.00  0.00    -0.200 F 
ENDBRANCH  52  76
BRANCH  64  87
ATOM     87  C   UNL     1      10.327 -10.659  14.877  1.00  0.00     0.064 A 
ATOM     88  C   UNL     1      10.857  -9.438  15.317  1.00  0.00     0.173 A 
ATOM     89  C   UNL     1      10.677 -11.820  15.585  1.00  0.00     0.173 A 
ATOM     90  F   UNL     1      10.565  -8.301  14.666  1.00  0.00    -0.203 F 
ATOM     91  C   UNL     1      11.724  -9.384  16.405  1.00  0.00     0.198 A 
ATOM     92  C   UNL     1      11.516 -11.758  16.694  1.00  0.00     0.198 A 
ATOM     93  F   UNL     1      10.193 -13.013  15.211  1.00  0.00    -0.203 F 
ATOM     94  F   UNL     1      12.260  -8.213  16.775  1.00  0.00    -0.200 F 
ATOM     95  C   UNL     1      12.046 -10.542  17.098  1.00  0.00     0.200 A 
ATOM     96  F   UNL     1      11.812 -12.875  17.372  1.00  0.00    -0.200 F 
ATOM     97  F   UNL     1      12.874 -10.487  18.150  1.00  0.00    -0.200 F 
ENDBRANCH  64  87
ENDBRANCH  38  39
ENDBRANCH  30  33
ENDBRANCH  28  29
ENDBRANCH  27  28
ENDBRANCH  26  27
ENDBRANCH  25  26
ENDBRANCH   1  25
TORSDOF 20
