REMARK SMILES O=C(NCCCCCCNC(=O)[C@@H]1C=C[C@@H](NS(=O)(=O)c2ccc(F)c(F)c2F)C1)c1ccc(-c2c3nc(c(-c4c(F)c(F)c(F)c(F)c4F)c4ccc([nH]4)c(-c4c(F)c(F)c(F)c(F)c4F)c4nc(c(-c5c(F)c(F)c(F)c(F)c5F)c5ccc2[nH]5)C=C4)C=C3)cc1
REMARK SMILES IDX 7 1 6 2 5 3 4 4 3 5 1 6 2 7 31 9 32 10 93 11 33 12 92 13
REMARK SMILES IDX 34 14 35 15 36 16 86 17 37 18 91 19 85 20 87 21 38 22 90 23
REMARK SMILES IDX 84 24 83 25 39 27 71 28 51 29 70 30 52 31 55 32 69 33 88 34
REMARK SMILES IDX 53 35 54 36 68 38 89 39 56 40 40 41 41 42 49 43 42 44 43 45
REMARK SMILES IDX 47 46 50 47 44 48 45 49 48 50 46 51 72 52 73 53 81 54 74 55
REMARK SMILES IDX 75 56 79 57 82 58 76 59 77 60 80 61 78 62 57 63 58 64 66 65
REMARK SMILES IDX 59 66 60 67 64 68 67 69 61 70 62 71 65 72 63 73 8 74 9 75
REMARK SMILES IDX 10 76 11 77 12 79 13 80 14 81 30 82 15 83 16 84 17 85 18 87
REMARK SMILES IDX 19 88 20 89 21 90 22 91 28 92 23 93 26 94 29 95 24 96 27 97
REMARK SMILES IDX 25 98
REMARK H PARENT 3 8 87 26 55 37 10 78 17 86
REMARK Flexibility Score: inf
ROOT
ATOM      1  C   UNL     1       5.735   1.951   3.348  1.00  0.00     0.002 C 
ENDROOT
BRANCH   1   2
ATOM      2  C   UNL     1       5.048   0.672   2.858  1.00  0.00     0.002 C 
BRANCH   2   3
ATOM      3  C   UNL     1       3.685   0.388   3.488  1.00  0.00     0.021 C 
BRANCH   3   4
ATOM      4  C   UNL     1       2.669   1.508   3.316  1.00  0.00     0.116 C 
BRANCH   4   5
ATOM      5  N   UNL     1       2.292   1.702   1.926  1.00  0.00    -0.352 N 
ATOM      6  O   UNL     1       0.914   1.662   0.136  1.00  0.00    -0.269 OA
ATOM      7  C   UNL     1       1.043   1.658   1.355  1.00  0.00     0.251 C 
ATOM      8  H   UNL     1       3.034   1.891   1.308  1.00  0.00     0.163 HD
BRANCH   7   9
ATOM      9  C   UNL     1      -0.149   1.586   2.225  1.00  0.00     0.039 A 
ATOM     10  C   UNL     1      -0.254   2.407   3.350  1.00  0.00     0.014 A 
ATOM     11  C   UNL     1      -1.173   0.689   1.910  1.00  0.00     0.014 A 
ATOM     12  C   UNL     1      -1.311   2.234   4.234  1.00  0.00     0.010 A 
ATOM     13  C   UNL     1      -2.284   0.584   2.750  1.00  0.00     0.010 A 
ATOM     14  C   UNL     1      -2.351   1.339   3.931  1.00  0.00    -0.014 A 
BRANCH  14  15
ATOM     15  C   UNL     1      -3.537   1.281   4.821  1.00  0.00     0.031 A 
ATOM     16  C   UNL     1      -3.885   0.034   5.581  1.00  0.00     0.074 A 
ATOM     17  C   UNL     1      -4.291   2.390   4.952  1.00  0.00     0.049 A 
ATOM     18  N   UNL     1      -4.884  -0.175   6.402  1.00  0.00    -0.248 NA
ATOM     19  C   UNL     1      -3.008  -1.132   5.396  1.00  0.00     0.031 C 
ATOM     20  C   UNL     1      -4.046   3.655   4.255  1.00  0.00     0.029 A 
ATOM     21  N   UNL     1      -5.396   2.644   5.722  1.00  0.00    -0.354 N 
ATOM     22  C   UNL     1      -4.764  -1.493   6.820  1.00  0.00     0.074 A 
ATOM     23  C   UNL     1      -3.612  -2.048   6.143  1.00  0.00     0.031 C 
ATOM     24  C   UNL     1      -4.940   4.564   4.666  1.00  0.00     0.029 A 
ATOM     25  C   UNL     1      -5.865   3.929   5.598  1.00  0.00     0.049 A 
ATOM     26  H   UNL     1      -5.813   1.971   6.307  1.00  0.00     0.167 HD
ATOM     27  C   UNL     1      -5.544  -2.169   7.697  1.00  0.00     0.037 A 
ATOM     28  C   UNL     1      -6.934   4.529   6.153  1.00  0.00     0.037 A 
ATOM     29  C   UNL     1      -6.682  -1.599   8.376  1.00  0.00     0.049 A 
ATOM     30  C   UNL     1      -7.803   3.743   7.090  1.00  0.00     0.074 A 
ATOM     31  C   UNL     1      -7.512  -2.194   9.310  1.00  0.00     0.029 A 
ATOM     32  N   UNL     1      -7.153  -0.307   8.189  1.00  0.00    -0.354 N 
ATOM     33  N   UNL     1      -7.662   2.506   7.500  1.00  0.00    -0.248 NA
ATOM     34  C   UNL     1      -8.980   4.429   7.637  1.00  0.00     0.031 C 
ATOM     35  C   UNL     1      -8.518  -1.284   9.644  1.00  0.00     0.029 A 
ATOM     36  C   UNL     1      -8.280  -0.098   8.969  1.00  0.00     0.049 A 
ATOM     37  H   UNL     1      -6.747   0.362   7.592  1.00  0.00     0.167 HD
ATOM     38  C   UNL     1      -8.722   2.267   8.362  1.00  0.00     0.074 A 
ATOM     39  C   UNL     1      -9.487   3.496   8.432  1.00  0.00     0.031 C 
ATOM     40  C   UNL     1      -9.033   1.130   9.030  1.00  0.00     0.037 A 
BRANCH  27  41
ATOM     41  C   UNL     1      -5.212  -3.606   7.984  1.00  0.00     0.064 A 
ATOM     42  C   UNL     1      -6.084  -4.630   7.579  1.00  0.00     0.173 A 
ATOM     43  C   UNL     1      -4.089  -3.964   8.743  1.00  0.00     0.173 A 
ATOM     44  F   UNL     1      -7.178  -4.341   6.858  1.00  0.00    -0.203 F 
ATOM     45  C   UNL     1      -5.853  -5.954   7.942  1.00  0.00     0.198 A 
ATOM     46  C   UNL     1      -3.846  -5.295   9.079  1.00  0.00     0.198 A 
ATOM     47  F   UNL     1      -3.219  -3.026   9.148  1.00  0.00    -0.203 F 
ATOM     48  F   UNL     1      -6.722  -6.908   7.578  1.00  0.00    -0.200 F 
ATOM     49  C   UNL     1      -4.734  -6.286   8.689  1.00  0.00     0.200 A 
ATOM     50  F   UNL     1      -2.752  -5.616   9.784  1.00  0.00    -0.200 F 
ATOM     51  F   UNL     1      -4.511  -7.561   9.035  1.00  0.00    -0.200 F 
ENDBRANCH  27  41
BRANCH  28  52
ATOM     52  C   UNL     1      -7.219   5.950   5.829  1.00  0.00     0.064 A 
ATOM     53  C   UNL     1      -7.599   6.340   4.535  1.00  0.00     0.173 A 
ATOM     54  C   UNL     1      -7.055   6.955   6.792  1.00  0.00     0.173 A 
ATOM     55  F   UNL     1      -7.760   5.417   3.576  1.00  0.00    -0.203 F 
ATOM     56  C   UNL     1      -7.772   7.683   4.209  1.00  0.00     0.198 A 
ATOM     57  C   UNL     1      -7.260   8.295   6.472  1.00  0.00     0.198 A 
ATOM     58  F   UNL     1      -6.709   6.630   8.046  1.00  0.00    -0.203 F 
ATOM     59  F   UNL     1      -8.082   8.030   2.953  1.00  0.00    -0.200 F 
ATOM     60  C   UNL     1      -7.606   8.659   5.179  1.00  0.00     0.200 A 
ATOM     61  F   UNL     1      -7.120   9.235   7.417  1.00  0.00    -0.200 F 
ATOM     62  F   UNL     1      -7.777   9.951   4.867  1.00  0.00    -0.200 F 
ENDBRANCH  28  52
BRANCH  40  63
ATOM     63  C   UNL     1     -10.246   1.153   9.914  1.00  0.00     0.064 A 
ATOM     64  C   UNL     1     -10.110   1.077  11.308  1.00  0.00     0.173 A 
ATOM     65  C   UNL     1     -11.542   1.166   9.379  1.00  0.00     0.173 A 
ATOM     66  F   UNL     1      -8.891   1.055  11.869  1.00  0.00    -0.203 F 
ATOM     67  C   UNL     1     -11.227   0.991  12.133  1.00  0.00     0.198 A 
ATOM     68  C   UNL     1     -12.658   1.112  10.209  1.00  0.00     0.198 A 
ATOM     69  F   UNL     1     -11.724   1.253   8.053  1.00  0.00    -0.203 F 
ATOM     70  F   UNL     1     -11.072   0.877  13.460  1.00  0.00    -0.200 F 
ATOM     71  C   UNL     1     -12.500   1.012  11.584  1.00  0.00     0.200 A 
ATOM     72  F   UNL     1     -13.888   1.158   9.679  1.00  0.00    -0.200 F 
ATOM     73  F   UNL     1     -13.576   0.937  12.379  1.00  0.00    -0.200 F 
ENDBRANCH  40  63
ENDBRANCH  14  15
ENDBRANCH   7   9
ENDBRANCH   4   5
ENDBRANCH   3   4
ENDBRANCH   2   3
ENDBRANCH   1   2
BRANCH   1  74
ATOM     74  C   UNL     1       5.864   2.082   4.870  1.00  0.00     0.021 C 
BRANCH  74  75
ATOM     75  C   UNL     1       6.582   0.914   5.540  1.00  0.00     0.116 C 
BRANCH  75  76
ATOM     76  N   UNL     1       7.973   0.852   5.135  1.00  0.00    -0.356 N 
ATOM     77  C   UNL     1       9.110   0.938   5.878  1.00  0.00     0.226 C 
ATOM     78  H   UNL     1       8.118   0.727   4.169  1.00  0.00     0.163 HD
ATOM     79  O   UNL     1      10.194   0.905   5.293  1.00  0.00    -0.274 OA
BRANCH  77  80
ATOM     80  C   UNL     1       9.014   1.050   7.397  1.00  0.00     0.103 C 
ATOM     81  C   UNL     1       9.572   2.349   7.881  1.00  0.00    -0.016 C 
ATOM     82  C   UNL     1       9.918   0.002   8.059  1.00  0.00     0.042 C 
ATOM     83  C   UNL     1      10.719   2.180   8.546  1.00  0.00    -0.011 C 
ATOM     84  C   UNL     1      11.152   0.757   8.575  1.00  0.00     0.093 C 
BRANCH  84  85
ATOM     85  N   UNL     1      11.455   0.307   9.920  1.00  0.00    -0.204 NA
ATOM     86  H   UNL     1      11.522  -0.710   9.866  1.00  0.00     0.142 HD
BRANCH  85  87
ATOM     87  S   UNL     1      12.794   0.808  10.770  1.00  0.00     0.244 S 
ATOM     88  O   UNL     1      12.743   2.246  10.879  1.00  0.00    -0.207 OA
ATOM     89  O   UNL     1      12.869  -0.016  11.959  1.00  0.00    -0.207 OA
BRANCH  87  90
ATOM     90  C   UNL     1      14.149   0.389   9.731  1.00  0.00     0.121 A 
ATOM     91  C   UNL     1      14.955   1.411   9.207  1.00  0.00     0.028 A 
ATOM     92  C   UNL     1      14.405  -0.942   9.428  1.00  0.00     0.181 A 
ATOM     93  C   UNL     1      16.025   1.085   8.374  1.00  0.00     0.044 A 
ATOM     94  C   UNL     1      15.474  -1.259   8.598  1.00  0.00     0.195 A 
ATOM     95  F   UNL     1      13.623  -1.924   9.896  1.00  0.00    -0.202 F 
ATOM     96  C   UNL     1      16.278  -0.251   8.077  1.00  0.00     0.161 A 
ATOM     97  F   UNL     1      15.725  -2.540   8.290  1.00  0.00    -0.200 F 
ATOM     98  F   UNL     1      17.307  -0.555   7.275  1.00  0.00    -0.204 F 
ENDBRANCH  87  90
ENDBRANCH  85  87
ENDBRANCH  84  85
ENDBRANCH  77  80
ENDBRANCH  75  76
ENDBRANCH  74  75
ENDBRANCH   1  74
TORSDOF 16
