REMARK SMILES CS(=O)(=O)c1ccc(/C=C(/C(=O)NCCCCCCNC(=O)c2ccc(-c3c4nc(c(-c5c(F)c(F)c(F)c(F)c5F)c5ccc([nH]5)c(-c5c(F)c(F)c(F)c(F)c5F)c5nc(c(-c6c(F)c(F)c(F)c(F)c6F)c6ccc3[nH]6)C=C5)C=C4)cc2)c2ccccc2)cc1
REMARK SMILES IDX 16 1 15 2 14 3 13 4 11 5 12 6 10 8 9 9 8 10 5 11 6 12 93 13
REMARK SMILES IDX 7 14 92 15 2 16 1 17 3 18 4 19 86 20 87 21 91 22 88 23 90 24
REMARK SMILES IDX 89 25 17 26 18 27 19 28 20 29 21 30 22 32 23 33 24 34 85 35
REMARK SMILES IDX 25 36 84 37 26 38 27 39 28 40 78 41 29 42 83 43 77 44 79 45
REMARK SMILES IDX 30 46 82 47 76 48 75 49 31 51 63 52 43 53 62 54 44 55 47 56
REMARK SMILES IDX 61 57 80 58 45 59 46 60 60 62 81 63 48 64 32 65 33 66 41 67
REMARK SMILES IDX 34 68 35 69 39 70 42 71 36 72 37 73 40 74 38 75 64 76 65 77
REMARK SMILES IDX 73 78 66 79 67 80 71 81 74 82 68 83 69 84 72 85 70 86 49 87
REMARK SMILES IDX 50 88 58 89 51 90 52 91 56 92 59 93 53 94 54 95 57 96 55 97
REMARK H PARENT 13 7 20 31 79 50 47 61
REMARK Flexibility Score: inf
ROOT
ATOM      1  C   UNL     1       2.016  -4.560  10.635  1.00  0.00     0.002 C 
ENDROOT
BRANCH   1   2
ATOM      2  C   UNL     1       1.854  -3.715   9.360  1.00  0.00     0.021 C 
BRANCH   2   3
ATOM      3  C   UNL     1       2.798  -4.125   8.225  1.00  0.00     0.116 C 
BRANCH   3   4
ATOM      4  N   UNL     1       2.376  -5.396   7.671  1.00  0.00    -0.352 N 
ATOM      5  C   UNL     1       1.711  -5.774   6.549  1.00  0.00     0.251 C 
ATOM      6  O   UNL     1       1.450  -6.976   6.461  1.00  0.00    -0.269 OA
ATOM      7  H   UNL     1       2.630  -6.160   8.238  1.00  0.00     0.163 HD
BRANCH   5   8
ATOM      8  C   UNL     1       1.374  -4.836   5.412  1.00  0.00     0.047 C 
ATOM      9  C   UNL     1       1.047  -3.538   5.605  1.00  0.00     0.022 C 
BRANCH   9  10
ATOM     10  C   UNL     1       0.800  -2.484   4.595  1.00  0.00    -0.025 A 
ATOM     11  C   UNL     1       0.503  -0.426   2.708  1.00  0.00     0.067 A 
ATOM     12  C   UNL     1      -0.192  -1.624   2.544  1.00  0.00     0.021 A 
ATOM     13  C   UNL     1       1.306  -0.222   3.830  1.00  0.00     0.021 A 
ATOM     14  C   UNL     1      -0.052  -2.641   3.495  1.00  0.00     0.009 A 
ATOM     15  C   UNL     1       1.453  -1.251   4.766  1.00  0.00     0.009 A 
BRANCH  11  16
ATOM     16  S   UNL     1       0.324   0.859   1.493  1.00  0.00     0.175 S 
ATOM     17  C   UNL     1       1.121   0.200   0.052  1.00  0.00     0.163 C 
ATOM     18  O   UNL     1       1.096   2.000   1.938  1.00  0.00    -0.224 OA
ATOM     19  O   UNL     1      -1.097   0.981   1.214  1.00  0.00    -0.224 OA
ENDBRANCH  11  16
ENDBRANCH   9  10
BRANCH   8  20
ATOM     20  C   UNL     1       1.248  -5.452   4.066  1.00  0.00    -0.013 A 
ATOM     21  C   UNL     1       0.160  -6.307   3.818  1.00  0.00     0.009 A 
ATOM     22  C   UNL     1       2.134  -5.160   3.023  1.00  0.00     0.009 A 
ATOM     23  C   UNL     1      -0.054  -6.840   2.548  1.00  0.00     0.001 A 
ATOM     24  C   UNL     1       1.914  -5.691   1.748  1.00  0.00     0.001 A 
ATOM     25  C   UNL     1       0.819  -6.524   1.511  1.00  0.00     0.000 A 
ENDBRANCH   8  20
ENDBRANCH   5   8
ENDBRANCH   3   4
ENDBRANCH   2   3
ENDBRANCH   1   2
BRANCH   1  26
ATOM     26  C   UNL     1       3.385  -4.459  11.319  1.00  0.00     0.002 C 
BRANCH  26  27
ATOM     27  C   UNL     1       3.844  -3.037  11.649  1.00  0.00     0.021 C 
BRANCH  27  28
ATOM     28  C   UNL     1       2.917  -2.275  12.591  1.00  0.00     0.116 C 
BRANCH  28  29
ATOM     29  N   UNL     1       2.928  -2.828  13.937  1.00  0.00    -0.352 N 
ATOM     30  C   UNL     1       3.141  -2.185  15.132  1.00  0.00     0.251 C 
ATOM     31  H   UNL     1       2.759  -3.795  13.999  1.00  0.00     0.163 HD
ATOM     32  O   UNL     1       3.300  -2.827  16.165  1.00  0.00    -0.269 OA
BRANCH  30  33
ATOM     33  C   UNL     1       3.201  -0.709  15.167  1.00  0.00     0.039 A 
ATOM     34  C   UNL     1       4.250  -0.089  15.851  1.00  0.00     0.014 A 
ATOM     35  C   UNL     1       2.223   0.059  14.528  1.00  0.00     0.014 A 
ATOM     36  C   UNL     1       4.354   1.304  15.843  1.00  0.00     0.010 A 
ATOM     37  C   UNL     1       2.359   1.444  14.472  1.00  0.00     0.010 A 
ATOM     38  C   UNL     1       3.425   2.079  15.129  1.00  0.00    -0.014 A 
BRANCH  38  39
ATOM     39  C   UNL     1       3.547   3.556  15.057  1.00  0.00     0.031 A 
ATOM     40  C   UNL     1       2.503   4.428  15.694  1.00  0.00     0.074 A 
ATOM     41  C   UNL     1       4.554   4.109  14.354  1.00  0.00     0.049 A 
ATOM     42  N   UNL     1       2.378   5.731  15.659  1.00  0.00    -0.248 NA
ATOM     43  C   UNL     1       1.443   3.743  16.449  1.00  0.00     0.031 C 
ATOM     44  C   UNL     1       5.603   3.367  13.654  1.00  0.00     0.029 A 
ATOM     45  N   UNL     1       4.849   5.424  14.099  1.00  0.00    -0.354 N 
ATOM     46  C   UNL     1       1.219   6.018  16.366  1.00  0.00     0.074 A 
ATOM     47  C   UNL     1       0.654   4.752  16.784  1.00  0.00     0.031 C 
ATOM     48  C   UNL     1       6.434   4.238  13.060  1.00  0.00     0.029 A 
ATOM     49  C   UNL     1       5.958   5.596  13.309  1.00  0.00     0.049 A 
ATOM     50  H   UNL     1       4.316   6.174  14.450  1.00  0.00     0.167 HD
ATOM     51  C   UNL     1       0.685   7.228  16.658  1.00  0.00     0.037 A 
ATOM     52  C   UNL     1       6.522   6.722  12.831  1.00  0.00     0.037 A 
ATOM     53  C   UNL     1       1.267   8.486  16.271  1.00  0.00     0.049 A 
ATOM     54  C   UNL     1       5.913   8.053  13.176  1.00  0.00     0.074 A 
ATOM     55  C   UNL     1       0.840   9.765  16.579  1.00  0.00     0.029 A 
ATOM     56  N   UNL     1       2.405   8.620  15.491  1.00  0.00    -0.354 N 
ATOM     57  N   UNL     1       4.851   8.315  13.898  1.00  0.00    -0.248 NA
ATOM     58  C   UNL     1       6.585   9.246  12.641  1.00  0.00     0.031 C 
ATOM     59  C   UNL     1       1.701  10.675  15.955  1.00  0.00     0.029 A 
ATOM     60  C   UNL     1       2.686   9.962  15.290  1.00  0.00     0.049 A 
ATOM     61  H   UNL     1       2.936   7.872  15.132  1.00  0.00     0.167 HD
ATOM     62  C   UNL     1       4.738   9.698  13.923  1.00  0.00     0.074 A 
ATOM     63  C   UNL     1       5.849  10.222  13.156  1.00  0.00     0.031 C 
ATOM     64  C   UNL     1       3.797  10.465  14.526  1.00  0.00     0.037 A 
BRANCH  51  65
ATOM     65  C   UNL     1      -0.595   7.248  17.439  1.00  0.00     0.064 A 
ATOM     66  C   UNL     1      -0.630   6.908  18.800  1.00  0.00     0.173 A 
ATOM     67  C   UNL     1      -1.796   7.642  16.830  1.00  0.00     0.173 A 
ATOM     68  F   UNL     1       0.489   6.513  19.425  1.00  0.00    -0.203 F 
ATOM     69  C   UNL     1      -1.824   6.935  19.515  1.00  0.00     0.198 A 
ATOM     70  C   UNL     1      -2.984   7.694  17.554  1.00  0.00     0.198 A 
ATOM     71  F   UNL     1      -1.816   7.982  15.532  1.00  0.00    -0.203 F 
ATOM     72  F   UNL     1      -1.841   6.561  20.802  1.00  0.00    -0.200 F 
ATOM     73  C   UNL     1      -2.998   7.333  18.893  1.00  0.00     0.200 A 
ATOM     74  F   UNL     1      -4.116   8.088  16.956  1.00  0.00    -0.200 F 
ATOM     75  F   UNL     1      -4.147   7.362  19.584  1.00  0.00    -0.200 F 
ENDBRANCH  51  65
BRANCH  52  76
ATOM     76  C   UNL     1       7.744   6.639  11.992  1.00  0.00     0.064 A 
ATOM     77  C   UNL     1       8.986   7.052  12.494  1.00  0.00     0.173 A 
ATOM     78  C   UNL     1       7.698   6.150  10.679  1.00  0.00     0.173 A 
ATOM     79  F   UNL     1       9.075   7.546  13.737  1.00  0.00    -0.203 F 
ATOM     80  C   UNL     1      10.135   6.992  11.708  1.00  0.00     0.198 A 
ATOM     81  C   UNL     1       8.852   6.069   9.902  1.00  0.00     0.198 A 
ATOM     82  F   UNL     1       6.534   5.739  10.156  1.00  0.00    -0.203 F 
ATOM     83  F   UNL     1      11.303   7.429  12.198  1.00  0.00    -0.200 F 
ATOM     84  C   UNL     1      10.068   6.496  10.414  1.00  0.00     0.200 A 
ATOM     85  F   UNL     1       8.785   5.577   8.657  1.00  0.00    -0.200 F 
ATOM     86  F   UNL     1      11.173   6.436   9.660  1.00  0.00    -0.200 F 
ENDBRANCH  52  76
BRANCH  64  87
ATOM     87  C   UNL     1       3.942  11.952  14.398  1.00  0.00     0.064 A 
ATOM     88  C   UNL     1       3.651  12.615  13.198  1.00  0.00     0.173 A 
ATOM     89  C   UNL     1       4.338  12.725  15.500  1.00  0.00     0.173 A 
ATOM     90  F   UNL     1       3.285  11.916  12.112  1.00  0.00    -0.203 F 
ATOM     91  C   UNL     1       3.771  13.998  13.099  1.00  0.00     0.198 A 
ATOM     92  C   UNL     1       4.433  14.110  15.404  1.00  0.00     0.198 A 
ATOM     93  F   UNL     1       4.623  12.137  16.671  1.00  0.00    -0.203 F 
ATOM     94  F   UNL     1       3.528  14.608  11.930  1.00  0.00    -0.200 F 
ATOM     95  C   UNL     1       4.155  14.745  14.203  1.00  0.00     0.200 A 
ATOM     96  F   UNL     1       4.794  14.831  16.475  1.00  0.00    -0.200 F 
ATOM     97  F   UNL     1       4.264  16.077  14.107  1.00  0.00    -0.200 F 
ENDBRANCH  64  87
ENDBRANCH  38  39
ENDBRANCH  30  33
ENDBRANCH  28  29
ENDBRANCH  27  28
ENDBRANCH  26  27
ENDBRANCH   1  26
TORSDOF 16
