REMARK SMILES Cc1noc(C)c1CNc1cnc(C(=O)NCCCCCCNC(=O)c2ccc(-c3c4nc(c(-c5c(F)c(F)c(F)c(F)c5F)c5ccc([nH]5)c(-c5c(F)c(F)c(F)c(F)c5F)c5nc(c(-c6c(F)c(F)c(F)c(F)c6F)c6ccc3[nH]6)C=C5)C=C4)cc2)cn1
REMARK SMILES IDX 19 1 18 2 17 3 16 4 14 5 15 6 13 8 10 9 11 10 90 11 12 12
REMARK SMILES IDX 89 13 9 14 8 16 7 17 1 18 2 19 3 20 4 21 5 22 6 23 20 24
REMARK SMILES IDX 21 25 22 26 23 27 24 28 25 30 26 31 27 32 88 33 28 34 87 35
REMARK SMILES IDX 29 36 30 37 31 38 81 39 32 40 86 41 80 42 82 43 33 44 85 45
REMARK SMILES IDX 79 46 78 47 34 49 66 50 46 51 65 52 47 53 50 54 64 55 83 56
REMARK SMILES IDX 48 57 49 58 63 60 84 61 51 62 35 63 36 64 44 65 37 66 38 67
REMARK SMILES IDX 42 68 45 69 39 70 40 71 43 72 41 73 67 74 68 75 76 76 69 77
REMARK SMILES IDX 70 78 74 79 77 80 71 81 72 82 75 83 73 84 52 85 53 86 61 87
REMARK SMILES IDX 54 88 55 89 59 90 62 91 56 92 57 93 60 94 58 95
REMARK H PARENT 16 7 9 15 23 29 82 48 50 59
REMARK Flexibility Score: inf
ROOT
ATOM      1  C   UNL     1      -4.987  10.238   1.202  1.00  0.00     0.002 C 
ENDROOT
BRANCH   1   2
ATOM      2  C   UNL     1      -3.893   9.212   0.885  1.00  0.00     0.021 C 
BRANCH   2   3
ATOM      3  C   UNL     1      -4.258   7.780   1.275  1.00  0.00     0.116 C 
BRANCH   3   4
ATOM      4  N   UNL     1      -5.225   7.215   0.351  1.00  0.00    -0.351 N 
ATOM      5  C   UNL     1      -5.109   6.237  -0.611  1.00  0.00     0.271 C 
ATOM      6  O   UNL     1      -6.106   5.986  -1.292  1.00  0.00    -0.267 OA
ATOM      7  H   UNL     1      -6.128   7.600   0.426  1.00  0.00     0.163 HD
BRANCH   5   8
ATOM      8  C   UNL     1      -3.859   5.458  -0.844  1.00  0.00     0.146 A 
ATOM      9  C   UNL     1      -1.719   3.824  -1.223  1.00  0.00     0.144 A 
ATOM     10  C   UNL     1      -1.710   4.873  -0.307  1.00  0.00     0.158 A 
ATOM     11  N   UNL     1      -2.797   3.624  -2.006  1.00  0.00    -0.235 NA
ATOM     12  N   UNL     1      -2.760   5.700  -0.094  1.00  0.00    -0.246 NA
ATOM     13  C   UNL     1      -3.862   4.448  -1.796  1.00  0.00     0.147 A 
BRANCH   9  14
ATOM     14  N   UNL     1      -0.694   2.921  -1.371  1.00  0.00    -0.365 N 
ATOM     15  H   UNL     1      -0.450   2.611  -2.272  1.00  0.00     0.162 HD
BRANCH  14  16
ATOM     16  C   UNL     1       0.033   2.419  -0.221  1.00  0.00     0.156 C 
BRANCH  16  17
ATOM     17  C   UNL     1       0.067   0.938  -0.097  1.00  0.00     0.037 A 
ATOM     18  C   UNL     1      -2.484   0.357  -0.009  1.00  0.00     0.071 C 
ATOM     19  C   UNL     1      -1.035   0.042   0.002  1.00  0.00     0.086 A 
ATOM     20  N   UNL     1      -0.623  -1.225   0.118  1.00  0.00    -0.085 NA
ATOM     21  O   UNL     1       0.757  -1.178   0.101  1.00  0.00    -0.361 OA
ATOM     22  C   UNL     1       1.166   0.111  -0.024  1.00  0.00     0.138 A 
ATOM     23  C   UNL     1       2.623   0.340  -0.042  1.00  0.00     0.091 C 
ENDBRANCH  16  17
ENDBRANCH  14  16
ENDBRANCH   9  14
ENDBRANCH   5   8
ENDBRANCH   3   4
ENDBRANCH   2   3
ENDBRANCH   1   2
BRANCH   1  24
ATOM     24  C   UNL     1      -5.427  10.293   2.671  1.00  0.00     0.002 C 
BRANCH  24  25
ATOM     25  C   UNL     1      -4.294  10.453   3.689  1.00  0.00     0.021 C 
BRANCH  25  26
ATOM     26  C   UNL     1      -3.447  11.708   3.510  1.00  0.00     0.116 C 
BRANCH  26  27
ATOM     27  N   UNL     1      -4.221  12.923   3.703  1.00  0.00    -0.352 N 
ATOM     28  C   UNL     1      -3.984  13.988   4.532  1.00  0.00     0.251 C 
ATOM     29  H   UNL     1      -5.038  12.991   3.157  1.00  0.00     0.163 HD
ATOM     30  O   UNL     1      -4.852  14.843   4.700  1.00  0.00    -0.269 OA
BRANCH  28  31
ATOM     31  C   UNL     1      -2.693  14.108   5.243  1.00  0.00     0.039 A 
ATOM     32  C   UNL     1      -2.699  14.485   6.589  1.00  0.00     0.014 A 
ATOM     33  C   UNL     1      -1.482  13.882   4.584  1.00  0.00     0.014 A 
ATOM     34  C   UNL     1      -1.494  14.581   7.289  1.00  0.00     0.010 A 
ATOM     35  C   UNL     1      -0.286  13.916   5.298  1.00  0.00     0.010 A 
ATOM     36  C   UNL     1      -0.279  14.269   6.657  1.00  0.00    -0.014 A 
BRANCH  36  37
ATOM     37  C   UNL     1       1.006  14.305   7.401  1.00  0.00     0.031 A 
ATOM     38  C   UNL     1       2.070  15.300   7.026  1.00  0.00     0.074 A 
ATOM     39  C   UNL     1       1.241  13.395   8.366  1.00  0.00     0.049 A 
ATOM     40  N   UNL     1       3.283  15.432   7.502  1.00  0.00    -0.248 NA
ATOM     41  C   UNL     1       1.739  16.255   5.957  1.00  0.00     0.031 C 
ATOM     42  C   UNL     1       0.309  12.347   8.785  1.00  0.00     0.029 A 
ATOM     43  N   UNL     1       2.344  13.192   9.158  1.00  0.00    -0.354 N 
ATOM     44  C   UNL     1       3.865  16.462   6.775  1.00  0.00     0.074 A 
ATOM     45  C   UNL     1       2.887  16.901   5.803  1.00  0.00     0.031 C 
ATOM     46  C   UNL     1       0.875  11.618   9.761  1.00  0.00     0.029 A 
ATOM     47  C   UNL     1       2.221  12.123  10.013  1.00  0.00     0.049 A 
ATOM     48  H   UNL     1       3.148  13.759   9.117  1.00  0.00     0.167 HD
ATOM     49  C   UNL     1       5.098  17.003   6.919  1.00  0.00     0.037 A 
ATOM     50  C   UNL     1       3.100  11.603  10.890  1.00  0.00     0.037 A 
ATOM     51  C   UNL     1       6.049  16.600   7.921  1.00  0.00     0.049 A 
ATOM     52  C   UNL     1       4.454  12.244  11.044  1.00  0.00     0.074 A 
ATOM     53  C   UNL     1       7.283  17.156   8.209  1.00  0.00     0.029 A 
ATOM     54  N   UNL     1       5.872  15.541   8.798  1.00  0.00    -0.354 N 
ATOM     55  N   UNL     1       4.956  13.277  10.413  1.00  0.00    -0.248 NA
ATOM     56  C   UNL     1       5.360  11.651  12.038  1.00  0.00     0.031 C 
ATOM     57  C   UNL     1       7.875  16.403   9.229  1.00  0.00     0.029 A 
ATOM     58  C   UNL     1       6.987  15.410   9.609  1.00  0.00     0.049 A 
ATOM     59  H   UNL     1       5.072  14.968   8.838  1.00  0.00     0.167 HD
ATOM     60  C   UNL     1       6.219  13.476  10.954  1.00  0.00     0.074 A 
ATOM     61  C   UNL     1       6.402  12.467  11.975  1.00  0.00     0.031 C 
ATOM     62  C   UNL     1       7.146  14.411  10.633  1.00  0.00     0.037 A 
BRANCH  49  63
ATOM     63  C   UNL     1       5.502  18.100   5.978  1.00  0.00     0.064 A 
ATOM     64  C   UNL     1       4.962  19.390   6.075  1.00  0.00     0.173 A 
ATOM     65  C   UNL     1       6.503  17.876   5.021  1.00  0.00     0.173 A 
ATOM     66  F   UNL     1       3.995  19.652   6.968  1.00  0.00    -0.203 F 
ATOM     67  C   UNL     1       5.401  20.414   5.240  1.00  0.00     0.198 A 
ATOM     68  C   UNL     1       6.959  18.909   4.206  1.00  0.00     0.198 A 
ATOM     69  F   UNL     1       7.057  16.661   4.893  1.00  0.00    -0.203 F 
ATOM     70  F   UNL     1       4.851  21.633   5.330  1.00  0.00    -0.200 F 
ATOM     71  C   UNL     1       6.405  20.175   4.314  1.00  0.00     0.200 A 
ATOM     72  F   UNL     1       7.939  18.679   3.321  1.00  0.00    -0.200 F 
ATOM     73  F   UNL     1       6.840  21.167   3.523  1.00  0.00    -0.200 F 
ENDBRANCH  49  63
BRANCH  50  74
ATOM     74  C   UNL     1       2.734  10.412  11.701  1.00  0.00     0.064 A 
ATOM     75  C   UNL     1       2.562  10.508  13.089  1.00  0.00     0.173 A 
ATOM     76  C   UNL     1       2.585   9.147  11.112  1.00  0.00     0.173 A 
ATOM     77  F   UNL     1       2.715  11.692  13.701  1.00  0.00    -0.203 F 
ATOM     78  C   UNL     1       2.290   9.381  13.862  1.00  0.00     0.198 A 
ATOM     79  C   UNL     1       2.282   8.026  11.882  1.00  0.00     0.198 A 
ATOM     80  F   UNL     1       2.734   9.001   9.788  1.00  0.00    -0.203 F 
ATOM     81  F   UNL     1       2.192   9.492  15.194  1.00  0.00    -0.200 F 
ATOM     82  C   UNL     1       2.147   8.141  13.257  1.00  0.00     0.200 A 
ATOM     83  F   UNL     1       2.132   6.832  11.292  1.00  0.00    -0.200 F 
ATOM     84  F   UNL     1       1.892   7.056  14.001  1.00  0.00    -0.200 F 
ENDBRANCH  50  74
BRANCH  62  85
ATOM     85  C   UNL     1       8.424  14.414  11.419  1.00  0.00     0.064 A 
ATOM     86  C   UNL     1       9.396  13.417  11.247  1.00  0.00     0.173 A 
ATOM     87  C   UNL     1       8.696  15.449  12.326  1.00  0.00     0.173 A 
ATOM     88  F   UNL     1       9.176  12.398  10.403  1.00  0.00    -0.203 F 
ATOM     89  C   UNL     1      10.583  13.445  11.974  1.00  0.00     0.198 A 
ATOM     90  C   UNL     1       9.896  15.489  13.028  1.00  0.00     0.198 A 
ATOM     91  F   UNL     1       7.801  16.430  12.521  1.00  0.00    -0.203 F 
ATOM     92  F   UNL     1      11.477  12.457  11.829  1.00  0.00    -0.200 F 
ATOM     93  C   UNL     1      10.836  14.484  12.857  1.00  0.00     0.200 A 
ATOM     94  F   UNL     1      10.145  16.501  13.871  1.00  0.00    -0.200 F 
ATOM     95  F   UNL     1      11.983  14.512  13.550  1.00  0.00    -0.200 F 
ENDBRANCH  62  85
ENDBRANCH  36  37
ENDBRANCH  28  31
ENDBRANCH  26  27
ENDBRANCH  25  26
ENDBRANCH  24  25
ENDBRANCH   1  24
TORSDOF 16
