REMARK SMILES O=C1CC[C@@H](CC(=O)N2CCC(Oc3ccccc3)(C(=O)NCCCCCCNC(=O)c3ccc(-c4c5nc(c(-c6c(F)c(F)c(F)c(F)c6F)c6ccc([nH]6)c(-c6c(F)c(F)c(F)c(F)c6F)c6nc(c(-c7c(F)c(F)c(F)c(F)c7F)c7ccc4[nH]7)C=C6)C=C5)cc3)CC2)N1
REMARK SMILES IDX 25 1 24 2 23 3 22 4 20 5 21 6 12 8 7 9 8 10 9 11 10 12 96 13
REMARK SMILES IDX 11 14 95 15 6 16 5 17 1 18 2 19 3 20 97 21 4 22 13 24 14 25
REMARK SMILES IDX 15 26 19 27 16 28 18 29 17 30 26 31 27 32 28 33 29 34 30 35
REMARK SMILES IDX 31 37 32 38 33 39 94 40 34 41 93 42 35 43 36 44 37 45 87 46
REMARK SMILES IDX 38 47 92 48 86 49 88 50 39 51 91 52 85 53 84 54 40 56 72 57
REMARK SMILES IDX 52 58 71 59 53 60 56 61 70 62 89 63 54 64 55 65 69 67 90 68
REMARK SMILES IDX 57 69 41 70 42 71 50 72 43 73 44 74 48 75 51 76 45 77 46 78
REMARK SMILES IDX 49 79 47 80 73 81 74 82 82 83 75 84 76 85 80 86 83 87 77 88
REMARK SMILES IDX 78 89 81 90 79 91 58 92 59 93 67 94 60 95 61 96 65 97 68 98
REMARK SMILES IDX 62 99 63 100 66 101 64 102
REMARK H PARENT 22 7 97 23 29 36 88 55 56 66
REMARK Flexibility Score: inf
ROOT
ATOM      1  C   UNL     1       0.052   3.145  -8.236  1.00  0.00     0.002 C 
ENDROOT
BRANCH   1   2
ATOM      2  C   UNL     1       0.495   1.729  -7.845  1.00  0.00     0.021 C 
BRANCH   2   3
ATOM      3  C   UNL     1       1.717   1.708  -6.934  1.00  0.00     0.116 C 
BRANCH   3   4
ATOM      4  N   UNL     1       1.396   2.351  -5.686  1.00  0.00    -0.353 N 
ATOM      5  C   UNL     1       1.289   1.832  -4.439  1.00  0.00     0.264 C 
ATOM      6  O   UNL     1       0.994   2.646  -3.557  1.00  0.00    -0.270 OA
ATOM      7  H   UNL     1       1.228   3.319  -5.749  1.00  0.00     0.163 HD
BRANCH   5   8
ATOM      8  C   UNL     1       1.558   0.326  -4.150  1.00  0.00     0.190 C 
ATOM      9  C   UNL     1      -1.583  -1.647  -2.246  1.00  0.00     0.224 C 
ATOM     10  O   UNL     1      -1.863  -2.671  -2.884  1.00  0.00    -0.275 OA
ATOM     11  N   UNL     1      -0.897  -0.623  -2.869  1.00  0.00    -0.342 N 
ATOM     12  C   UNL     1      -0.852  -0.542  -4.327  1.00  0.00     0.124 C 
ATOM     13  C   UNL     1      -0.022   0.310  -2.204  1.00  0.00     0.124 C 
ATOM     14  C   UNL     1       0.577  -0.641  -4.853  1.00  0.00     0.080 C 
ATOM     15  C   UNL     1       1.430   0.133  -2.635  1.00  0.00     0.080 C 
BRANCH   9  16
ATOM     16  C   UNL     1      -2.236  -1.487  -0.859  1.00  0.00     0.125 C 
BRANCH  16  17
ATOM     17  C   UNL     1      -1.650  -0.870   0.413  1.00  0.00     0.091 C 
ATOM     18  O   UNL     1       1.607  -0.166   1.529  1.00  0.00    -0.275 OA
ATOM     19  C   UNL     1       0.437  -0.118   1.181  1.00  0.00     0.220 C 
ATOM     20  C   UNL     1      -0.424   1.120   1.127  1.00  0.00     0.102 C 
ATOM     21  N   UNL     1      -0.289  -1.193   0.720  1.00  0.00    -0.353 N 
ATOM     22  C   UNL     1      -1.753   0.653   0.526  1.00  0.00     0.035 C 
ATOM     23  H   UNL     1       0.089  -2.095   0.612  1.00  0.00     0.163 HD
ENDBRANCH  16  17
ENDBRANCH   9  16
BRANCH   8  24
ATOM     24  O   UNL     1       2.933   0.219  -4.606  1.00  0.00    -0.477 OA
BRANCH  24  25
ATOM     25  C   UNL     1       3.592  -0.952  -4.397  1.00  0.00     0.120 A 
ATOM     26  C   UNL     1       4.573  -0.992  -3.409  1.00  0.00     0.046 A 
ATOM     27  C   UNL     1       3.418  -2.036  -5.255  1.00  0.00     0.046 A 
ATOM     28  C   UNL     1       5.327  -2.151  -3.226  1.00  0.00     0.004 A 
ATOM     29  C   UNL     1       4.157  -3.203  -5.060  1.00  0.00     0.004 A 
ATOM     30  C   UNL     1       5.108  -3.261  -4.042  1.00  0.00     0.000 A 
ENDBRANCH  24  25
ENDBRANCH   8  24
ENDBRANCH   5   8
ENDBRANCH   3   4
ENDBRANCH   2   3
ENDBRANCH   1   2
BRANCH   1  31
ATOM     31  C   UNL     1       1.160   4.017  -8.837  1.00  0.00     0.002 C 
BRANCH  31  32
ATOM     32  C   UNL     1       1.923   3.366  -9.992  1.00  0.00     0.021 C 
BRANCH  32  33
ATOM     33  C   UNL     1       1.034   2.916 -11.142  1.00  0.00     0.116 C 
BRANCH  33  34
ATOM     34  N   UNL     1       0.374   4.040 -11.781  1.00  0.00    -0.352 N 
ATOM     35  C   UNL     1       0.378   4.396 -13.105  1.00  0.00     0.251 C 
ATOM     36  H   UNL     1      -0.147   4.625 -11.185  1.00  0.00     0.163 HD
ATOM     37  O   UNL     1      -0.042   5.492 -13.458  1.00  0.00    -0.269 OA
BRANCH  35  38
ATOM     38  C   UNL     1       0.914   3.449 -14.104  1.00  0.00     0.039 A 
ATOM     39  C   UNL     1       1.783   3.925 -15.086  1.00  0.00     0.014 A 
ATOM     40  C   UNL     1       0.567   2.095 -14.059  1.00  0.00     0.014 A 
ATOM     41  C   UNL     1       2.345   3.031 -15.998  1.00  0.00     0.010 A 
ATOM     42  C   UNL     1       1.191   1.195 -14.914  1.00  0.00     0.010 A 
ATOM     43  C   UNL     1       2.078   1.655 -15.899  1.00  0.00    -0.014 A 
BRANCH  43  44
ATOM     44  C   UNL     1       2.712   0.683 -16.823  1.00  0.00     0.031 A 
ATOM     45  C   UNL     1       1.865  -0.127 -17.764  1.00  0.00     0.074 A 
ATOM     46  C   UNL     1       4.044   0.490 -16.774  1.00  0.00     0.049 A 
ATOM     47  N   UNL     1       2.225  -1.060 -18.609  1.00  0.00    -0.248 NA
ATOM     48  C   UNL     1       0.416   0.124 -17.731  1.00  0.00     0.031 C 
ATOM     49  C   UNL     1       4.965   1.183 -15.871  1.00  0.00     0.029 A 
ATOM     50  N   UNL     1       4.854  -0.351 -17.494  1.00  0.00    -0.354 N 
ATOM     51  C   UNL     1       1.051  -1.512 -19.195  1.00  0.00     0.074 A 
ATOM     52  C   UNL     1      -0.038  -0.797 -18.567  1.00  0.00     0.031 C 
ATOM     53  C   UNL     1       6.216   0.761 -16.112  1.00  0.00     0.029 A 
ATOM     54  C   UNL     1       6.181  -0.262 -17.153  1.00  0.00     0.049 A 
ATOM     55  H   UNL     1       4.516  -0.961 -18.189  1.00  0.00     0.167 HD
ATOM     56  C   UNL     1       0.897  -2.424 -20.184  1.00  0.00     0.037 A 
ATOM     57  C   UNL     1       7.248  -0.935 -17.623  1.00  0.00     0.037 A 
ATOM     58  C   UNL     1       1.988  -3.119 -20.817  1.00  0.00     0.049 A 
ATOM     59  C   UNL     1       7.049  -1.958 -18.708  1.00  0.00     0.074 A 
ATOM     60  C   UNL     1       1.945  -4.016 -21.869  1.00  0.00     0.029 A 
ATOM     61  N   UNL     1       3.320  -3.002 -20.446  1.00  0.00    -0.354 N 
ATOM     62  N   UNL     1       5.942  -2.325 -19.308  1.00  0.00    -0.248 NA
ATOM     63  C   UNL     1       8.249  -2.657 -19.185  1.00  0.00     0.031 C 
ATOM     64  C   UNL     1       3.242  -4.487 -22.095  1.00  0.00     0.029 A 
ATOM     65  C   UNL     1       4.104  -3.835 -21.229  1.00  0.00     0.049 A 
ATOM     66  H   UNL     1       3.658  -2.413 -19.733  1.00  0.00     0.167 HD
ATOM     67  C   UNL     1       6.315  -3.272 -20.253  1.00  0.00     0.074 A 
ATOM     68  C   UNL     1       7.753  -3.412 -20.155  1.00  0.00     0.031 C 
ATOM     69  C   UNL     1       5.537  -3.961 -21.123  1.00  0.00     0.037 A 
BRANCH  56  70
ATOM     70  C   UNL     1      -0.504  -2.726 -20.638  1.00  0.00     0.064 A 
ATOM     71  C   UNL     1      -1.284  -1.776 -21.314  1.00  0.00     0.173 A 
ATOM     72  C   UNL     1      -1.066  -3.992 -20.413  1.00  0.00     0.173 A 
ATOM     73  F   UNL     1      -0.801  -0.546 -21.546  1.00  0.00    -0.203 F 
ATOM     74  C   UNL     1      -2.586  -2.068 -21.714  1.00  0.00     0.198 A 
ATOM     75  C   UNL     1      -2.355  -4.293 -20.846  1.00  0.00     0.198 A 
ATOM     76  F   UNL     1      -0.364  -4.942 -19.777  1.00  0.00    -0.203 F 
ATOM     77  F   UNL     1      -3.332  -1.123 -22.303  1.00  0.00    -0.200 F 
ATOM     78  C   UNL     1      -3.118  -3.328 -21.486  1.00  0.00     0.200 A 
ATOM     79  F   UNL     1      -2.861  -5.516 -20.639  1.00  0.00    -0.200 F 
ATOM     80  F   UNL     1      -4.369  -3.610 -21.875  1.00  0.00    -0.200 F 
ENDBRANCH  56  70
BRANCH  57  81
ATOM     81  C   UNL     1       8.604  -0.641 -17.088  1.00  0.00     0.064 A 
ATOM     82  C   UNL     1       9.572  -0.016 -17.886  1.00  0.00     0.173 A 
ATOM     83  C   UNL     1       8.959  -0.974 -15.772  1.00  0.00     0.173 A 
ATOM     84  F   UNL     1       9.287   0.304 -19.156  1.00  0.00    -0.203 F 
ATOM     85  C   UNL     1      10.849   0.247 -17.395  1.00  0.00     0.198 A 
ATOM     86  C   UNL     1      10.226  -0.682 -15.273  1.00  0.00     0.198 A 
ATOM     87  F   UNL     1       8.067  -1.568 -14.965  1.00  0.00    -0.203 F 
ATOM     88  F   UNL     1      11.770   0.804 -18.194  1.00  0.00    -0.200 F 
ATOM     89  C   UNL     1      11.173  -0.080 -16.087  1.00  0.00     0.200 A 
ATOM     90  F   UNL     1      10.530  -0.985 -14.003  1.00  0.00    -0.200 F 
ATOM     91  F   UNL     1      12.399   0.179 -15.614  1.00  0.00    -0.200 F 
ENDBRANCH  57  81
BRANCH  69  92
ATOM     92  C   UNL     1       6.227  -4.904 -22.068  1.00  0.00     0.064 A 
ATOM     93  C   UNL     1       6.812  -6.099 -21.625  1.00  0.00     0.173 A 
ATOM     94  C   UNL     1       6.267  -4.624 -23.443  1.00  0.00     0.173 A 
ATOM     95  F   UNL     1       6.814  -6.407 -20.319  1.00  0.00    -0.203 F 
ATOM     96  C   UNL     1       7.438  -6.964 -22.519  1.00  0.00     0.198 A 
ATOM     97  C   UNL     1       6.861  -5.509 -24.338  1.00  0.00     0.198 A 
ATOM     98  F   UNL     1       5.715  -3.499 -23.921  1.00  0.00    -0.203 F 
ATOM     99  F   UNL     1       8.037  -8.074 -22.066  1.00  0.00    -0.200 F 
ATOM    100  C   UNL     1       7.454  -6.673 -23.875  1.00  0.00     0.200 A 
ATOM    101  F   UNL     1       6.861  -5.234 -25.650  1.00  0.00    -0.200 F 
ATOM    102  F   UNL     1       8.048  -7.512 -24.735  1.00  0.00    -0.200 F 
ENDBRANCH  69  92
ENDBRANCH  43  44
ENDBRANCH  35  38
ENDBRANCH  33  34
ENDBRANCH  32  33
ENDBRANCH  31  32
ENDBRANCH   1  31
TORSDOF 17
