REMARK SMILES Cc1c(-c2nn(-c3ccccc3)cc2/C=N/O)nnn1-c1ccc(C(=O)NCCCCCCNC(=O)c2ccc(-c3c4nc(c(-c5c(F)c(F)c(F)c(F)c5F)c5ccc([nH]5)c(-c5c(F)c(F)c(F)c(F)c5F)c5nc(c(-c6c(F)c(F)c(F)c(F)c6F)c6ccc3[nH]6)C=C5)C=C4)cc2)cc1
REMARK SMILES IDX 29 1 28 2 27 3 25 4 26 5 24 7 21 8 22 9 101 10 23 11 100 12
REMARK SMILES IDX 20 13 1 14 2 15 3 16 18 17 19 18 4 19 5 20 14 21 6 22 13 23
REMARK SMILES IDX 15 24 16 25 17 26 7 28 8 29 12 30 9 31 11 32 10 33 30 34
REMARK SMILES IDX 31 35 32 36 33 37 34 38 35 39 36 41 37 42 38 43 99 44 39 45
REMARK SMILES IDX 98 46 40 47 41 48 42 49 92 50 43 51 97 52 91 53 93 54 44 55
REMARK SMILES IDX 96 56 90 57 89 58 45 60 77 61 57 62 76 63 58 64 61 65 75 66
REMARK SMILES IDX 94 67 59 68 60 69 74 71 95 72 62 73 46 74 47 75 55 76 48 77
REMARK SMILES IDX 49 78 53 79 56 80 50 81 51 82 54 83 52 84 78 85 79 86 87 87
REMARK SMILES IDX 80 88 81 89 85 90 88 91 82 92 83 93 86 94 84 95 63 96 64 97
REMARK SMILES IDX 72 98 65 99 66 100 70 101 73 102 67 103 68 104 71 105 69 106
REMARK H PARENT 27 6 17 27 34 40 93 59 61 70
REMARK Flexibility Score: inf
ROOT
ATOM      1  C   UNL     1       7.686   1.994   2.152  1.00  0.00     0.021 C 
ENDROOT
BRANCH   1   2
ATOM      2  C   UNL     1       6.469   1.504   2.940  1.00  0.00     0.116 C 
BRANCH   2   3
ATOM      3  N   UNL     1       5.923   2.586   3.736  1.00  0.00    -0.352 N 
ATOM      4  C   UNL     1       4.814   3.381   3.618  1.00  0.00     0.251 C 
ATOM      5  O   UNL     1       4.652   4.243   4.483  1.00  0.00    -0.269 OA
ATOM      6  H   UNL     1       6.465   2.792   4.531  1.00  0.00     0.163 HD
BRANCH   4   7
ATOM      7  C   UNL     1       3.775   3.216   2.560  1.00  0.00     0.039 A 
ATOM      8  C   UNL     1       1.636   2.822   0.785  1.00  0.00     0.067 A 
ATOM      9  C   UNL     1       1.431   3.551   1.956  1.00  0.00     0.029 A 
ATOM     10  C   UNL     1       2.915   2.370   0.450  1.00  0.00     0.029 A 
ATOM     11  C   UNL     1       2.491   3.711   2.853  1.00  0.00     0.016 A 
ATOM     12  C   UNL     1       3.988   2.624   1.312  1.00  0.00     0.016 A 
BRANCH   8  13
ATOM     13  N   UNL     1       0.551   2.574  -0.078  1.00  0.00    -0.217 N 
ATOM     14  C   UNL     1       0.684   0.046  -0.283  1.00  0.00     0.069 C 
ATOM     15  C   UNL     1       0.176   1.383  -0.670  1.00  0.00     0.071 A 
ATOM     16  C   UNL     1      -0.842   1.767  -1.521  1.00  0.00     0.137 A 
ATOM     17  N   UNL     1      -1.116   3.094  -1.364  1.00  0.00    -0.128 NA
ATOM     18  N   UNL     1      -0.306   3.563  -0.422  1.00  0.00    -0.061 NA
BRANCH  16  19
ATOM     19  C   UNL     1      -1.660   0.920  -2.378  1.00  0.00     0.124 A 
ATOM     20  N   UNL     1      -2.671   0.196  -1.884  1.00  0.00    -0.165 NA
ATOM     21  C   UNL     1      -1.465   0.706  -3.763  1.00  0.00     0.044 A 
ATOM     22  N   UNL     1      -3.065  -0.577  -2.916  1.00  0.00    -0.240 N 
ATOM     23  C   UNL     1      -2.354  -0.310  -4.062  1.00  0.00     0.125 A 
BRANCH  21  24
ATOM     24  C   UNL     1      -0.585   1.335  -4.714  1.00  0.00     0.166 C 
ATOM     25  N   UNL     1       0.286   2.203  -4.318  1.00  0.00    -0.097 NA
BRANCH  25  26
ATOM     26  O   UNL     1       0.982   2.696  -5.429  1.00  0.00    -0.411 OA
ATOM     27  H   UNL     1       1.654   3.339  -5.314  1.00  0.00     0.330 HD
ENDBRANCH  25  26
ENDBRANCH  21  24
BRANCH  22  28
ATOM     28  C   UNL     1      -4.072  -1.551  -2.738  1.00  0.00     0.065 A 
ATOM     29  C   UNL     1      -5.152  -1.266  -1.893  1.00  0.00     0.028 A 
ATOM     30  C   UNL     1      -3.977  -2.792  -3.377  1.00  0.00     0.028 A 
ATOM     31  C   UNL     1      -6.156  -2.217  -1.713  1.00  0.00     0.002 A 
ATOM     32  C   UNL     1      -4.957  -3.758  -3.143  1.00  0.00     0.002 A 
ATOM     33  C   UNL     1      -6.051  -3.466  -2.325  1.00  0.00     0.000 A 
ENDBRANCH  22  28
ENDBRANCH  16  19
ENDBRANCH   8  13
ENDBRANCH   4   7
ENDBRANCH   2   3
ENDBRANCH   1   2
BRANCH   1  34
ATOM     34  C   UNL     1       8.972   2.046   2.991  1.00  0.00     0.002 C 
BRANCH  34  35
ATOM     35  C   UNL     1       9.402   0.715   3.629  1.00  0.00     0.002 C 
BRANCH  35  36
ATOM     36  C   UNL     1       9.468  -0.498   2.689  1.00  0.00     0.021 C 
BRANCH  36  37
ATOM     37  C   UNL     1      10.568  -0.399   1.643  1.00  0.00     0.116 C 
BRANCH  37  38
ATOM     38  N   UNL     1      11.901  -0.447   2.242  1.00  0.00    -0.352 N 
ATOM     39  C   UNL     1      13.130  -0.274   1.635  1.00  0.00     0.251 C 
ATOM     40  H   UNL     1      11.926  -0.628   3.209  1.00  0.00     0.163 HD
ATOM     41  O   UNL     1      14.152  -0.696   2.148  1.00  0.00    -0.269 OA
BRANCH  39  42
ATOM     42  C   UNL     1      13.184   0.438   0.347  1.00  0.00     0.039 A 
ATOM     43  C   UNL     1      14.040   0.021  -0.674  1.00  0.00     0.014 A 
ATOM     44  C   UNL     1      12.339   1.530   0.168  1.00  0.00     0.014 A 
ATOM     45  C   UNL     1      13.977   0.670  -1.904  1.00  0.00     0.010 A 
ATOM     46  C   UNL     1      12.154   2.050  -1.086  1.00  0.00     0.010 A 
ATOM     47  C   UNL     1      13.013   1.672  -2.108  1.00  0.00    -0.014 A 
BRANCH  47  48
ATOM     48  C   UNL     1      12.842   2.285  -3.418  1.00  0.00     0.031 A 
ATOM     49  C   UNL     1      12.627   1.326  -4.533  1.00  0.00     0.074 A 
ATOM     50  C   UNL     1      12.702   3.615  -3.603  1.00  0.00     0.049 A 
ATOM     51  N   UNL     1      13.433   1.064  -5.507  1.00  0.00    -0.248 NA
ATOM     52  C   UNL     1      11.435   0.466  -4.497  1.00  0.00     0.031 C 
ATOM     53  C   UNL     1      12.570   4.678  -2.600  1.00  0.00     0.029 A 
ATOM     54  N   UNL     1      12.564   4.293  -4.774  1.00  0.00    -0.354 N 
ATOM     55  C   UNL     1      12.781   0.136  -6.314  1.00  0.00     0.074 A 
ATOM     56  C   UNL     1      11.638  -0.313  -5.563  1.00  0.00     0.031 C 
ATOM     57  C   UNL     1      12.152   5.817  -3.196  1.00  0.00     0.029 A 
ATOM     58  C   UNL     1      12.169   5.616  -4.632  1.00  0.00     0.049 A 
ATOM     59  H   UNL     1      12.730   3.879  -5.651  1.00  0.00     0.167 HD
ATOM     60  C   UNL     1      13.125  -0.007  -7.625  1.00  0.00     0.037 A 
ATOM     61  C   UNL     1      11.869   6.481  -5.630  1.00  0.00     0.037 A 
ATOM     62  C   UNL     1      14.415   0.587  -7.883  1.00  0.00     0.049 A 
ATOM     63  C   UNL     1      12.498   5.957  -6.867  1.00  0.00     0.074 A 
ATOM     64  C   UNL     1      15.695   0.370  -7.411  1.00  0.00     0.029 A 
ATOM     65  N   UNL     1      14.445   1.830  -8.467  1.00  0.00    -0.354 N 
ATOM     66  N   UNL     1      13.787   5.905  -7.058  1.00  0.00    -0.248 NA
ATOM     67  C   UNL     1      11.706   5.069  -7.704  1.00  0.00     0.031 C 
ATOM     68  C   UNL     1      16.268   1.672  -7.290  1.00  0.00     0.029 A 
ATOM     69  C   UNL     1      15.334   2.596  -7.760  1.00  0.00     0.049 A 
ATOM     70  H   UNL     1      13.922   2.118  -9.250  1.00  0.00     0.167 HD
ATOM     71  C   UNL     1      13.998   4.694  -7.698  1.00  0.00     0.074 A 
ATOM     72  C   UNL     1      12.677   4.271  -8.156  1.00  0.00     0.031 C 
ATOM     73  C   UNL     1      15.174   4.016  -7.546  1.00  0.00     0.037 A 
BRANCH  60  74
ATOM     74  C   UNL     1      12.159  -0.330  -8.743  1.00  0.00     0.064 A 
ATOM     75  C   UNL     1      12.665  -0.496 -10.051  1.00  0.00     0.173 A 
ATOM     76  C   UNL     1      10.759  -0.173  -8.655  1.00  0.00     0.173 A 
ATOM     77  F   UNL     1      13.980  -0.657 -10.261  1.00  0.00    -0.203 F 
ATOM     78  C   UNL     1      11.847  -0.398 -11.180  1.00  0.00     0.198 A 
ATOM     79  C   UNL     1       9.940  -0.129  -9.782  1.00  0.00     0.198 A 
ATOM     80  F   UNL     1      10.135   0.056  -7.495  1.00  0.00    -0.203 F 
ATOM     81  F   UNL     1      12.396  -0.419 -12.402  1.00  0.00    -0.200 F 
ATOM     82  C   UNL     1      10.487  -0.202 -11.045  1.00  0.00     0.200 A 
ATOM     83  F   UNL     1       8.623   0.074  -9.629  1.00  0.00    -0.200 F 
ATOM     84  F   UNL     1       9.711  -0.035 -12.123  1.00  0.00    -0.200 F 
ENDBRANCH  60  74
BRANCH  61  85
ATOM     85  C   UNL     1      10.851   7.555  -5.649  1.00  0.00     0.064 A 
ATOM     86  C   UNL     1      10.877   8.557  -6.632  1.00  0.00     0.173 A 
ATOM     87  C   UNL     1       9.670   7.449  -4.891  1.00  0.00     0.173 A 
ATOM     88  F   UNL     1      11.950   8.696  -7.424  1.00  0.00    -0.203 F 
ATOM     89  C   UNL     1       9.772   9.380  -6.868  1.00  0.00     0.198 A 
ATOM     90  C   UNL     1       8.569   8.274  -5.124  1.00  0.00     0.198 A 
ATOM     91  F   UNL     1       9.524   6.477  -3.979  1.00  0.00    -0.203 F 
ATOM     92  F   UNL     1       9.807  10.278  -7.863  1.00  0.00    -0.200 F 
ATOM     93  C   UNL     1       8.614   9.229  -6.124  1.00  0.00     0.200 A 
ATOM     94  F   UNL     1       7.440   8.090  -4.424  1.00  0.00    -0.200 F 
ATOM     95  F   UNL     1       7.530   9.968  -6.398  1.00  0.00    -0.200 F 
ENDBRANCH  61  85
BRANCH  73  96
ATOM     96  C   UNL     1      16.322   4.740  -6.898  1.00  0.00     0.064 A 
ATOM     97  C   UNL     1      16.314   5.217  -5.575  1.00  0.00     0.173 A 
ATOM     98  C   UNL     1      17.528   4.832  -7.605  1.00  0.00     0.173 A 
ATOM     99  F   UNL     1      15.234   5.079  -4.797  1.00  0.00    -0.203 F 
ATOM    100  C   UNL     1      17.447   5.798  -5.007  1.00  0.00     0.198 A 
ATOM    101  C   UNL     1      18.669   5.378  -7.023  1.00  0.00     0.198 A 
ATOM    102  F   UNL     1      17.613   4.345  -8.853  1.00  0.00    -0.203 F 
ATOM    103  F   UNL     1      17.408   6.259  -3.748  1.00  0.00    -0.200 F 
ATOM    104  C   UNL     1      18.626   5.871  -5.730  1.00  0.00     0.200 A 
ATOM    105  F   UNL     1      19.819   5.402  -7.710  1.00  0.00    -0.200 F 
ATOM    106  F   UNL     1      19.727   6.394  -5.172  1.00  0.00    -0.200 F 
ENDBRANCH  73  96
ENDBRANCH  47  48
ENDBRANCH  39  42
ENDBRANCH  37  38
ENDBRANCH  36  37
ENDBRANCH  35  36
ENDBRANCH  34  35
ENDBRANCH   1  34
TORSDOF 18
