REMARK SMILES CCN1C(=O)[C@@H](CC(=O)Nc2cccc(C(=O)NCCCCCCNC(=O)c3ccc(-c4c5nc(c(-c6c(F)c(F)c(F)c(F)c6F)c6ccc([nH]6)c(-c6c(F)c(F)c(F)c(F)c6F)c6nc(c(-c7c(F)c(F)c(F)c(F)c7F)c7ccc4[nH]7)C=C6)C=C5)cc3)c2)S/C1=[NH+]\c1cc(Cl)c(O)c(Cl)c1
REMARK SMILES IDX 20 1 19 2 18 3 16 4 17 5 15 7 11 8 12 9 91 10 13 11 14 12
REMARK SMILES IDX 10 13 8 14 9 15 7 17 6 18 3 19 4 20 93 21 5 22 92 23 94 24
REMARK SMILES IDX 2 26 1 27 95 28 96 29 103 30 97 31 101 32 98 33 99 34 102 35
REMARK SMILES IDX 100 36 21 38 22 39 23 40 24 41 25 42 26 43 27 45 28 46 29 47
REMARK SMILES IDX 90 48 30 49 89 50 31 51 32 52 33 53 83 54 34 55 88 56 82 57
REMARK SMILES IDX 84 58 35 59 87 60 81 61 80 62 36 64 68 65 48 66 67 67 49 68
REMARK SMILES IDX 52 69 66 70 85 71 50 72 51 73 65 75 86 76 53 77 37 78 38 79
REMARK SMILES IDX 46 80 39 81 40 82 44 83 47 84 41 85 42 86 45 87 43 88 69 89
REMARK SMILES IDX 70 90 78 91 71 92 72 93 76 94 79 95 73 96 74 97 77 98 75 99
REMARK SMILES IDX 54 100 55 101 63 102 56 103 57 104 61 105 64 106 58 107
REMARK SMILES IDX 59 108 62 109 60 110
REMARK H PARENT 18 6 10 16 94 25 100 37 25 44 84 63 52 74
REMARK Flexibility Score: inf
ROOT
ATOM      1  C   UNL     1      -1.815  -1.922   1.920  1.00  0.00     0.021 C 
ENDROOT
BRANCH   1   2
ATOM      2  C   UNL     1      -1.190  -3.036   2.764  1.00  0.00     0.116 C 
BRANCH   2   3
ATOM      3  N   UNL     1      -2.182  -3.934   3.321  1.00  0.00    -0.352 N 
ATOM      4  C   UNL     1      -2.543  -5.251   3.193  1.00  0.00     0.251 C 
ATOM      5  O   UNL     1      -3.503  -5.584   3.898  1.00  0.00    -0.269 OA
ATOM      6  H   UNL     1      -2.756  -3.470   3.973  1.00  0.00     0.163 HD
BRANCH   4   7
ATOM      7  C   UNL     1      -1.908  -6.316   2.340  1.00  0.00     0.041 A 
ATOM      8  C   UNL     1      -0.285  -7.268   0.762  1.00  0.00     0.041 A 
ATOM      9  C   UNL     1      -0.942  -8.496   0.810  1.00  0.00     0.026 A 
ATOM     10  C   UNL     1      -0.820  -6.178   1.471  1.00  0.00     0.040 A 
ATOM     11  C   UNL     1      -2.037  -8.665   1.649  1.00  0.00     0.003 A 
ATOM     12  C   UNL     1      -2.494  -7.595   2.420  1.00  0.00     0.014 A 
BRANCH   8  13
ATOM     13  N   UNL     1       0.824  -7.182  -0.097  1.00  0.00    -0.326 N 
ATOM     14  C   UNL     1       2.024  -6.538  -0.002  1.00  0.00     0.226 C 
ATOM     15  O   UNL     1       2.766  -6.527  -0.990  1.00  0.00    -0.275 OA
ATOM     16  H   UNL     1       0.713  -7.687  -0.935  1.00  0.00     0.169 HD
BRANCH  14  17
ATOM     17  C   UNL     1       2.532  -5.961   1.309  1.00  0.00     0.128 C 
BRANCH  17  18
ATOM     18  C   UNL     1       2.072  -4.553   1.633  1.00  0.00     0.183 C 
ATOM     19  N   UNL     1       2.226  -2.441   0.472  1.00  0.00    -0.190 N 
ATOM     20  C   UNL     1       1.698  -3.717   0.433  1.00  0.00     0.324 C 
ATOM     21  C   UNL     1       2.894  -2.098   1.621  1.00  0.00     0.319 C 
ATOM     22  O   UNL     1       0.911  -4.098  -0.427  1.00  0.00    -0.245 OA
ATOM     23  S   UNL     1       3.218  -3.530   2.584  1.00  0.00    -0.022 SA
ATOM     24  N   UNL     1       3.200  -0.883   1.944  1.00  0.00    -0.235 N 
ATOM     25  H   UNL     1       3.012  -0.167   1.296  1.00  0.00     0.313 HD
BRANCH  19  26
ATOM     26  C   UNL     1       2.065  -1.690  -0.773  1.00  0.00     0.243 C 
ATOM     27  C   UNL     1       2.245  -0.197  -0.821  1.00  0.00     0.054 C 
ENDBRANCH  19  26
BRANCH  24  28
ATOM     28  C   UNL     1       3.789  -0.534   3.178  1.00  0.00     0.128 A 
ATOM     29  C   UNL     1       3.097   0.317   4.054  1.00  0.00     0.076 A 
ATOM     30  C   UNL     1       5.087  -0.915   3.525  1.00  0.00     0.076 A 
ATOM     31  C   UNL     1       3.668   0.762   5.250  1.00  0.00     0.088 A 
ATOM     32  C   UNL     1       5.654  -0.487   4.731  1.00  0.00     0.088 A 
ATOM     33  Cl  UNL     1       2.749   1.823   6.256  1.00  0.00    -0.080 Cl
ATOM     34  C   UNL     1       4.952   0.357   5.595  1.00  0.00     0.153 A 
ATOM     35  Cl  UNL     1       7.247  -1.010   5.138  1.00  0.00    -0.080 Cl
BRANCH  34  36
ATOM     36  O   UNL     1       5.511   0.798   6.766  1.00  0.00    -0.505 OA
ATOM     37  H   UNL     1       5.025   1.364   7.333  1.00  0.00     0.293 HD
ENDBRANCH  34  36
ENDBRANCH  24  28
ENDBRANCH  17  18
ENDBRANCH  14  17
ENDBRANCH   8  13
ENDBRANCH   4   7
ENDBRANCH   2   3
ENDBRANCH   1   2
BRANCH   1  38
ATOM     38  C   UNL     1      -2.004  -0.580   2.653  1.00  0.00     0.002 C 
BRANCH  38  39
ATOM     39  C   UNL     1      -0.712   0.183   3.006  1.00  0.00     0.002 C 
BRANCH  39  40
ATOM     40  C   UNL     1       0.082   0.661   1.782  1.00  0.00     0.021 C 
BRANCH  40  41
ATOM     41  C   UNL     1      -0.298   2.038   1.241  1.00  0.00     0.116 C 
BRANCH  41  42
ATOM     42  N   UNL     1       0.388   3.123   1.929  1.00  0.00    -0.352 N 
ATOM     43  C   UNL     1       1.571   3.806   1.788  1.00  0.00     0.251 C 
ATOM     44  H   UNL     1      -0.134   3.453   2.697  1.00  0.00     0.163 HD
ATOM     45  O   UNL     1       1.799   4.654   2.658  1.00  0.00    -0.269 OA
BRANCH  43  46
ATOM     46  C   UNL     1       2.599   3.631   0.711  1.00  0.00     0.039 A 
ATOM     47  C   UNL     1       3.874   4.180   0.953  1.00  0.00     0.014 A 
ATOM     48  C   UNL     1       2.389   3.061  -0.541  1.00  0.00     0.014 A 
ATOM     49  C   UNL     1       4.891   4.162  -0.018  1.00  0.00     0.010 A 
ATOM     50  C   UNL     1       3.432   2.970  -1.488  1.00  0.00     0.010 A 
ATOM     51  C   UNL     1       4.692   3.542  -1.257  1.00  0.00    -0.014 A 
BRANCH  51  52
ATOM     52  C   UNL     1       5.754   3.551  -2.317  1.00  0.00     0.031 A 
ATOM     53  C   UNL     1       5.500   4.205  -3.659  1.00  0.00     0.074 A 
ATOM     54  C   UNL     1       6.956   2.974  -2.102  1.00  0.00     0.049 A 
ATOM     55  N   UNL     1       6.285   4.292  -4.707  1.00  0.00    -0.248 NA
ATOM     56  C   UNL     1       4.180   4.822  -3.857  1.00  0.00     0.031 C 
ATOM     57  C   UNL     1       7.354   2.272  -0.882  1.00  0.00     0.029 A 
ATOM     58  N   UNL     1       8.070   2.887  -2.909  1.00  0.00    -0.354 N 
ATOM     59  C   UNL     1       5.549   4.951  -5.686  1.00  0.00     0.074 A 
ATOM     60  C   UNL     1       4.236   5.191  -5.128  1.00  0.00     0.031 C 
ATOM     61  C   UNL     1       8.626   1.857  -1.006  1.00  0.00     0.029 A 
ATOM     62  C   UNL     1       9.129   2.229  -2.327  1.00  0.00     0.049 A 
ATOM     63  H   UNL     1       8.105   3.262  -3.819  1.00  0.00     0.167 HD
ATOM     64  C   UNL     1       5.930   5.352  -6.925  1.00  0.00     0.037 A 
ATOM     65  C   UNL     1      10.363   1.953  -2.797  1.00  0.00     0.037 A 
ATOM     66  C   UNL     1       7.246   5.168  -7.481  1.00  0.00     0.049 A 
ATOM     67  C   UNL     1      10.764   2.410  -4.177  1.00  0.00     0.074 A 
ATOM     68  C   UNL     1       7.732   5.596  -8.706  1.00  0.00     0.029 A 
ATOM     69  N   UNL     1       8.287   4.507  -6.850  1.00  0.00    -0.354 N 
ATOM     70  N   UNL     1      10.072   3.084  -5.062  1.00  0.00    -0.248 NA
ATOM     71  C   UNL     1      12.127   2.072  -4.619  1.00  0.00     0.031 C 
ATOM     72  C   UNL     1       9.054   5.159  -8.833  1.00  0.00     0.029 A 
ATOM     73  C   UNL     1       9.407   4.501  -7.668  1.00  0.00     0.049 A 
ATOM     74  H   UNL     1       8.239   4.101  -5.955  1.00  0.00     0.167 HD
ATOM     75  C   UNL     1      10.921   3.278  -6.144  1.00  0.00     0.074 A 
ATOM     76  C   UNL     1      12.186   2.666  -5.802  1.00  0.00     0.031 C 
ATOM     77  C   UNL     1      10.671   3.907  -7.319  1.00  0.00     0.037 A 
BRANCH  64  78
ATOM     78  C   UNL     1       4.909   6.056  -7.775  1.00  0.00     0.064 A 
ATOM     79  C   UNL     1       4.477   7.357  -7.478  1.00  0.00     0.173 A 
ATOM     80  C   UNL     1       4.399   5.444  -8.930  1.00  0.00     0.173 A 
ATOM     81  F   UNL     1       4.929   7.984  -6.381  1.00  0.00    -0.203 F 
ATOM     82  C   UNL     1       3.551   8.008  -8.289  1.00  0.00     0.198 A 
ATOM     83  C   UNL     1       3.496   6.110  -9.756  1.00  0.00     0.198 A 
ATOM     84  F   UNL     1       4.787   4.205  -9.268  1.00  0.00    -0.203 F 
ATOM     85  F   UNL     1       3.118   9.233  -7.958  1.00  0.00    -0.200 F 
ATOM     86  C   UNL     1       3.067   7.388  -9.431  1.00  0.00     0.200 A 
ATOM     87  F   UNL     1       3.042   5.515 -10.868  1.00  0.00    -0.200 F 
ATOM     88  F   UNL     1       2.183   8.020 -10.215  1.00  0.00    -0.200 F 
ENDBRANCH  64  78
BRANCH  65  89
ATOM     89  C   UNL     1      11.339   1.216  -1.948  1.00  0.00     0.064 A 
ATOM     90  C   UNL     1      12.487   1.851  -1.452  1.00  0.00     0.173 A 
ATOM     91  C   UNL     1      11.166  -0.143  -1.649  1.00  0.00     0.173 A 
ATOM     92  F   UNL     1      12.713   3.142  -1.735  1.00  0.00    -0.203 F 
ATOM     93  C   UNL     1      13.437   1.149  -0.712  1.00  0.00     0.198 A 
ATOM     94  C   UNL     1      12.101  -0.837  -0.883  1.00  0.00     0.198 A 
ATOM     95  F   UNL     1      10.087  -0.798  -2.101  1.00  0.00    -0.203 F 
ATOM     96  F   UNL     1      14.553   1.766  -0.300  1.00  0.00    -0.200 F 
ATOM     97  C   UNL     1      13.241  -0.193  -0.424  1.00  0.00     0.200 A 
ATOM     98  F   UNL     1      11.903  -2.131  -0.598  1.00  0.00    -0.200 F 
ATOM     99  F   UNL     1      14.155  -0.869   0.285  1.00  0.00    -0.200 F 
ENDBRANCH  65  89
BRANCH  77 100
ATOM    100  C   UNL     1      11.797   4.008  -8.309  1.00  0.00     0.064 A 
ATOM    101  C   UNL     1      12.261   2.889  -9.016  1.00  0.00     0.173 A 
ATOM    102  C   UNL     1      12.396   5.248  -8.579  1.00  0.00     0.173 A 
ATOM    103  F   UNL     1      11.732   1.678  -8.786  1.00  0.00    -0.203 F 
ATOM    104  C   UNL     1      13.301   3.003  -9.936  1.00  0.00     0.198 A 
ATOM    105  C   UNL     1      13.415   5.364  -9.520  1.00  0.00     0.198 A 
ATOM    106  F   UNL     1      11.985   6.352  -7.936  1.00  0.00    -0.203 F 
ATOM    107  F   UNL     1      13.761   1.912 -10.563  1.00  0.00    -0.200 F 
ATOM    108  C   UNL     1      13.873   4.240 -10.192  1.00  0.00     0.200 A 
ATOM    109  F   UNL     1      13.957   6.563  -9.776  1.00  0.00    -0.200 F 
ATOM    110  F   UNL     1      14.870   4.349 -11.081  1.00  0.00    -0.200 F 
ENDBRANCH  77 100
ENDBRANCH  51  52
ENDBRANCH  43  46
ENDBRANCH  41  42
ENDBRANCH  40  41
ENDBRANCH  39  40
ENDBRANCH  38  39
ENDBRANCH   1  38
TORSDOF 19
