REMARK SMILES C[C@@H]1CN(C(=O)[C@@H]2CCCCC[C@@H]2[NH3+])C[C@H]1C(=O)NCCCCCCNC(=O)c1ccc(-c2c3nc(c(-c4c(F)c(F)c(F)c(F)c4F)c4ccc([nH]4)c(-c4c(F)c(F)c(F)c(F)c4F)c4nc(c(-c5c(F)c(F)c(F)c(F)c5F)c5ccc2[nH]5)C=C4)C=C3)cc1
REMARK SMILES IDX 21 1 20 2 19 3 17 4 18 5 16 7 1 8 2 9 3 10 4 11 15 12 5 13
REMARK SMILES IDX 6 14 7 15 8 16 9 17 10 18 13 20 12 21 11 22 14 24 22 28
REMARK SMILES IDX 23 29 24 30 25 31 26 32 27 33 28 35 29 36 30 37 91 38 31 39
REMARK SMILES IDX 90 40 32 41 33 42 34 43 84 44 35 45 89 46 83 47 85 48 36 49
REMARK SMILES IDX 88 50 82 51 81 52 37 54 69 55 49 56 68 57 50 58 53 59 67 60
REMARK SMILES IDX 86 61 51 62 52 63 66 65 87 66 54 67 38 68 39 69 47 70 40 71
REMARK SMILES IDX 41 72 45 73 48 74 42 75 43 76 46 77 44 78 70 79 71 80 79 81
REMARK SMILES IDX 72 82 73 83 77 84 80 85 74 86 75 87 78 88 76 89 55 90 56 91
REMARK SMILES IDX 64 92 57 93 58 94 62 95 65 96 59 97 60 98 63 99 61 100
REMARK H PARENT 19 6 14 25 14 26 14 27 26 34 85 53 53 64
REMARK Flexibility Score: 90.00
ROOT
ATOM      1  C   UNL     1       0.823  -0.672  -4.318  1.00  0.00     0.021 C 
ENDROOT
BRANCH   1   2
ATOM      2  C   UNL     1       1.218   0.011  -3.009  1.00  0.00     0.116 C 
BRANCH   2   3
ATOM      3  N   UNL     1       0.657   1.329  -2.816  1.00  0.00    -0.356 N 
ATOM      4  C   UNL     1       0.209   1.923  -1.671  1.00  0.00     0.225 C 
ATOM      5  O   UNL     1      -0.144   3.103  -1.753  1.00  0.00    -0.275 OA
ATOM      6  H   UNL     1       0.586   1.879  -3.629  1.00  0.00     0.163 HD
BRANCH   4   7
ATOM      7  C   UNL     1       0.113   1.202  -0.320  1.00  0.00     0.102 C 
ATOM      8  C   UNL     1      -2.121   0.245   0.474  1.00  0.00     0.010 C 
ATOM      9  C   UNL     1      -0.837  -0.015  -0.308  1.00  0.00     0.020 C 
ATOM     10  C   UNL     1      -0.017  -1.154   0.311  1.00  0.00     0.123 C 
ATOM     11  N   UNL     1       1.371  -0.755   0.156  1.00  0.00    -0.341 N 
ATOM     12  C   UNL     1       1.459   0.697   0.196  1.00  0.00     0.133 C 
BRANCH  11  13
ATOM     13  C   UNL     1       2.517  -1.515   0.063  1.00  0.00     0.231 C 
ATOM     14  O   UNL     1       3.623  -0.981   0.222  1.00  0.00    -0.274 OA
BRANCH  13  15
ATOM     15  C   UNL     1       2.482  -3.004  -0.337  1.00  0.00     0.136 C 
BRANCH  15  16
ATOM     16  C   UNL     1       1.712  -3.237  -1.643  1.00  0.00     0.020 C 
BRANCH  16  17
ATOM     17  C   UNL     1       2.133  -4.477  -2.422  1.00  0.00     0.001 C 
BRANCH  17  18
ATOM     18  C   UNL     1       1.422  -5.754  -2.011  1.00  0.00     0.000 CG0
ATOM     19  G   UNL     1       1.215  -5.962  -0.516  1.00  0.00     0.000 G0
ENDBRANCH  17  18
ENDBRANCH  16  17
ENDBRANCH  15  16
BRANCH  15  20
ATOM     20  C   UNL     1       2.249  -3.988   0.821  1.00  0.00     0.193 C 
BRANCH  20  21
ATOM     21  C   UNL     1       2.357  -5.466   0.376  1.00  0.00     0.066 C 
BRANCH  21  22
ATOM     22  C   UNL     1       1.215  -5.962  -0.516  1.00  0.00     0.006 CG0
ATOM     23  G   UNL     1       1.422  -5.754  -2.011  1.00  0.00     0.000 G0
ENDBRANCH  21  22
ENDBRANCH  20  21
BRANCH  20  24
ATOM     24  N   UNL     1       0.994  -3.789   1.551  1.00  0.00    -0.354 N 
ATOM     25  H   UNL     1       0.206  -3.993   0.935  1.00  0.00     0.344 HD
ATOM     26  H   UNL     1       0.935  -2.821   1.869  1.00  0.00     0.344 HD
ATOM     27  H   UNL     1       0.966  -4.413   2.357  1.00  0.00     0.344 HD
ENDBRANCH  20  24
ENDBRANCH  15  20
ENDBRANCH  13  15
ENDBRANCH  11  13
ENDBRANCH   4   7
ENDBRANCH   2   3
ENDBRANCH   1   2
BRANCH   1  28
ATOM     28  C   UNL     1       1.667  -0.351  -5.553  1.00  0.00     0.002 C 
BRANCH  28  29
ATOM     29  C   UNL     1       3.184  -0.555  -5.459  1.00  0.00     0.002 C 
BRANCH  29  30
ATOM     30  C   UNL     1       3.711  -1.898  -4.939  1.00  0.00     0.021 C 
BRANCH  30  31
ATOM     31  C   UNL     1       3.220  -3.171  -5.628  1.00  0.00     0.116 C 
BRANCH  31  32
ATOM     32  N   UNL     1       3.639  -3.292  -7.009  1.00  0.00    -0.352 N 
ATOM     33  C   UNL     1       4.166  -4.360  -7.695  1.00  0.00     0.251 C 
ATOM     34  H   UNL     1       3.529  -2.473  -7.545  1.00  0.00     0.163 HD
ATOM     35  O   UNL     1       4.522  -4.194  -8.860  1.00  0.00    -0.269 OA
BRANCH  33  36
ATOM     36  C   UNL     1       4.348  -5.704  -7.077  1.00  0.00     0.039 A 
ATOM     37  C   UNL     1       5.493  -6.429  -7.434  1.00  0.00     0.014 A 
ATOM     38  C   UNL     1       3.402  -6.305  -6.241  1.00  0.00     0.014 A 
ATOM     39  C   UNL     1       5.705  -7.721  -6.937  1.00  0.00     0.010 A 
ATOM     40  C   UNL     1       3.638  -7.581  -5.702  1.00  0.00     0.010 A 
ATOM     41  C   UNL     1       4.788  -8.307  -6.050  1.00  0.00    -0.014 A 
BRANCH  41  42
ATOM     42  C   UNL     1       5.050  -9.669  -5.500  1.00  0.00     0.031 A 
ATOM     43  C   UNL     1       4.201 -10.848  -5.895  1.00  0.00     0.074 A 
ATOM     44  C   UNL     1       6.070  -9.855  -4.638  1.00  0.00     0.049 A 
ATOM     45  N   UNL     1       4.325 -12.110  -5.556  1.00  0.00    -0.248 NA
ATOM     46  C   UNL     1       3.054 -10.576  -6.773  1.00  0.00     0.031 C 
ATOM     47  C   UNL     1       6.949  -8.800  -4.133  1.00  0.00     0.029 A 
ATOM     48  N   UNL     1       6.544 -10.998  -4.037  1.00  0.00    -0.354 N 
ATOM     49  C   UNL     1       3.275 -12.777  -6.175  1.00  0.00     0.074 A 
ATOM     50  C   UNL     1       2.497 -11.775  -6.873  1.00  0.00     0.031 C 
ATOM     51  C   UNL     1       7.869  -9.346  -3.321  1.00  0.00     0.029 A 
ATOM     52  C   UNL     1       7.634 -10.785  -3.229  1.00  0.00     0.049 A 
ATOM     53  H   UNL     1       6.139 -11.885  -4.173  1.00  0.00     0.167 HD
ATOM     54  C   UNL     1       2.996 -14.104  -6.179  1.00  0.00     0.037 A 
ATOM     55  C   UNL     1       8.369 -11.648  -2.500  1.00  0.00     0.037 A 
ATOM     56  C   UNL     1       3.776 -15.112  -5.506  1.00  0.00     0.049 A 
ATOM     57  C   UNL     1       8.044 -13.117  -2.533  1.00  0.00     0.074 A 
ATOM     58  C   UNL     1       3.600 -16.486  -5.510  1.00  0.00     0.029 A 
ATOM     59  N   UNL     1       4.878 -14.856  -4.705  1.00  0.00    -0.354 N 
ATOM     60  N   UNL     1       7.098 -13.742  -3.188  1.00  0.00    -0.248 NA
ATOM     61  C   UNL     1       8.904 -14.003  -1.733  1.00  0.00     0.031 C 
ATOM     62  C   UNL     1       4.568 -17.058  -4.676  1.00  0.00     0.029 A 
ATOM     63  C   UNL     1       5.377 -16.044  -4.191  1.00  0.00     0.049 A 
ATOM     64  H   UNL     1       5.252 -13.963  -4.527  1.00  0.00     0.167 HD
ATOM     65  C   UNL     1       7.262 -15.091  -2.902  1.00  0.00     0.074 A 
ATOM     66  C   UNL     1       8.411 -15.197  -2.029  1.00  0.00     0.031 C 
ATOM     67  C   UNL     1       6.523 -16.146  -3.324  1.00  0.00     0.037 A 
BRANCH  54  68
ATOM     68  C   UNL     1       1.787 -14.560  -6.947  1.00  0.00     0.064 A 
ATOM     69  C   UNL     1       1.768 -14.566  -8.349  1.00  0.00     0.173 A 
ATOM     70  C   UNL     1       0.660 -15.055  -6.273  1.00  0.00     0.173 A 
ATOM     71  F   UNL     1       2.819 -14.099  -9.040  1.00  0.00    -0.203 F 
ATOM     72  C   UNL     1       0.657 -15.030  -9.049  1.00  0.00     0.198 A 
ATOM     73  C   UNL     1      -0.439 -15.543  -6.976  1.00  0.00     0.198 A 
ATOM     74  F   UNL     1       0.630 -15.081  -4.932  1.00  0.00    -0.203 F 
ATOM     75  F   UNL     1       0.647 -14.992 -10.389  1.00  0.00    -0.200 F 
ATOM     76  C   UNL     1      -0.442 -15.525  -8.362  1.00  0.00     0.200 A 
ATOM     77  F   UNL     1      -1.494 -16.034  -6.311  1.00  0.00    -0.200 F 
ATOM     78  F   UNL     1      -1.506 -15.981  -9.037  1.00  0.00    -0.200 F 
ENDBRANCH  54  68
BRANCH  55  79
ATOM     79  C   UNL     1       9.512 -11.148  -1.693  1.00  0.00     0.064 A 
ATOM     80  C   UNL     1      10.835 -11.445  -2.052  1.00  0.00     0.173 A 
ATOM     81  C   UNL     1       9.305 -10.380  -0.538  1.00  0.00     0.173 A 
ATOM     82  F   UNL     1      11.081 -12.198  -3.133  1.00  0.00    -0.203 F 
ATOM     83  C   UNL     1      11.906 -11.010  -1.274  1.00  0.00     0.198 A 
ATOM     84  C   UNL     1      10.378  -9.922   0.223  1.00  0.00     0.198 A 
ATOM     85  F   UNL     1       8.059 -10.068  -0.153  1.00  0.00    -0.203 F 
ATOM     86  F   UNL     1      13.157 -11.350  -1.612  1.00  0.00    -0.200 F 
ATOM     87  C   UNL     1      11.677 -10.245  -0.141  1.00  0.00     0.200 A 
ATOM     88  F   UNL     1      10.154  -9.173   1.311  1.00  0.00    -0.200 F 
ATOM     89  F   UNL     1      12.708  -9.826   0.607  1.00  0.00    -0.200 F 
ENDBRANCH  55  79
BRANCH  67  90
ATOM     90  C   UNL     1       6.950 -17.512  -2.870  1.00  0.00     0.064 A 
ATOM     91  C   UNL     1       6.786 -17.930  -1.540  1.00  0.00     0.173 A 
ATOM     92  C   UNL     1       7.514 -18.421  -3.778  1.00  0.00     0.173 A 
ATOM     93  F   UNL     1       6.266 -17.094  -0.629  1.00  0.00    -0.203 F 
ATOM     94  C   UNL     1       7.198 -19.196  -1.131  1.00  0.00     0.198 A 
ATOM     95  C   UNL     1       7.899 -19.696  -3.372  1.00  0.00     0.198 A 
ATOM     96  F   UNL     1       7.687 -18.074  -5.062  1.00  0.00    -0.203 F 
ATOM     97  F   UNL     1       7.080 -19.554   0.155  1.00  0.00    -0.200 F 
ATOM     98  C   UNL     1       7.749 -20.079  -2.047  1.00  0.00     0.200 A 
ATOM     99  F   UNL     1       8.420 -20.553  -4.261  1.00  0.00    -0.200 F 
ATOM    100  F   UNL     1       8.146 -21.297  -1.652  1.00  0.00    -0.200 F 
ENDBRANCH  67  90
ENDBRANCH  41  42
ENDBRANCH  33  36
ENDBRANCH  31  32
ENDBRANCH  30  31
ENDBRANCH  29  30
ENDBRANCH  28  29
ENDBRANCH   1  28
TORSDOF 16
