REMARK SMILES C[C@H]1c2ccc(O)cc2OC(=O)[C@@H]1CC(=O)N[C@@H](CC1=c2ccccc2=NC1)C(=O)NCCCCCCNC(=O)c1ccc(-c2c3nc(c(-c4c(F)c(F)c(F)c(F)c4F)c4ccc([nH]4)c(-c4c(F)c(F)c(F)c(F)c4F)c4nc(c(-c5c(F)c(F)c(F)c(F)c5F)c5ccc2[nH]5)C=C4)C=C3)cc1
REMARK SMILES IDX 33 1 32 2 31 3 29 4 30 5 18 7 17 8 15 9 16 10 14 12 13 13
REMARK SMILES IDX 1 14 2 15 3 16 4 17 9 18 11 19 5 20 8 21 10 22 12 23 6 24
REMARK SMILES IDX 7 25 19 27 20 28 21 29 28 30 22 31 26 32 27 33 23 34 25 35
REMARK SMILES IDX 24 36 34 37 35 38 36 39 37 40 38 41 39 42 40 44 41 45 42 46
REMARK SMILES IDX 103 47 43 48 102 49 44 50 45 51 46 52 96 53 47 54 101 55
REMARK SMILES IDX 95 56 97 57 48 58 100 59 94 60 93 61 49 63 81 64 61 65 80 66
REMARK SMILES IDX 62 67 65 68 79 69 98 70 63 71 64 72 78 74 99 75 66 76 50 77
REMARK SMILES IDX 51 78 59 79 52 80 53 81 57 82 60 83 54 84 55 85 58 86 56 87
REMARK SMILES IDX 82 88 83 89 91 90 84 91 85 92 89 93 92 94 86 95 87 96 90 97
REMARK SMILES IDX 88 98 67 99 68 100 76 101 69 102 70 103 74 104 77 105 71 106
REMARK SMILES IDX 72 107 75 108 73 109
REMARK H PARENT 31 6 17 11 7 26 38 43 97 62 65 73
REMARK Flexibility Score: inf
ROOT
ATOM      1  C   UNL     1       3.631   7.307  -6.196  1.00  0.00     0.021 C 
ENDROOT
BRANCH   1   2
ATOM      2  C   UNL     1       3.845   6.228  -5.144  1.00  0.00     0.116 C 
BRANCH   2   3
ATOM      3  N   UNL     1       3.306   6.339  -3.820  1.00  0.00    -0.354 N 
ATOM      4  C   UNL     1       3.537   5.378  -2.856  1.00  0.00     0.242 C 
ATOM      5  O   UNL     1       3.843   5.788  -1.730  1.00  0.00    -0.273 OA
ATOM      6  H   UNL     1       2.756   7.123  -3.591  1.00  0.00     0.163 HD
BRANCH   4   7
ATOM      7  C   UNL     1       3.475   3.824  -3.122  1.00  0.00     0.175 C 
BRANCH   7   8
ATOM      8  N   UNL     1       2.538   3.293  -4.118  1.00  0.00    -0.344 N 
ATOM      9  C   UNL     1       1.407   2.549  -3.929  1.00  0.00     0.221 C 
ATOM     10  O   UNL     1       0.904   1.998  -4.909  1.00  0.00    -0.275 OA
ATOM     11  H   UNL     1       2.755   3.501  -5.055  1.00  0.00     0.164 HD
BRANCH   9  12
ATOM     12  C   UNL     1       0.739   2.454  -2.561  1.00  0.00     0.116 C 
BRANCH  12  13
ATOM     13  C   UNL     1       1.172   1.264  -1.670  1.00  0.00     0.116 C 
ATOM     14  C   UNL     1       0.501  -0.367   0.187  1.00  0.00     0.014 C 
ATOM     15  C   UNL     1       0.141   0.922  -0.566  1.00  0.00     0.034 C 
ATOM     16  C   UNL     1       0.056   2.089   0.391  1.00  0.00    -0.001 A 
ATOM     17  C   UNL     1      -1.112   2.386   1.098  1.00  0.00     0.011 A 
ATOM     18  C   UNL     1       1.161   2.933   0.540  1.00  0.00     0.138 A 
ATOM     19  C   UNL     1       2.454   1.542  -0.923  1.00  0.00     0.315 C 
ATOM     20  C   UNL     1      -1.183   3.545   1.878  1.00  0.00     0.047 A 
ATOM     21  C   UNL     1       1.094   4.108   1.280  1.00  0.00     0.093 A 
ATOM     22  O   UNL     1       2.400   2.604  -0.034  1.00  0.00    -0.426 OA
ATOM     23  O   UNL     1       3.481   0.896  -1.096  1.00  0.00    -0.251 OA
ATOM     24  C   UNL     1      -0.090   4.409   1.938  1.00  0.00     0.119 A 
BRANCH  24  25
ATOM     25  O   UNL     1      -0.142   5.571   2.649  1.00  0.00    -0.508 OA
ATOM     26  H   UNL     1      -0.926   5.805   3.106  1.00  0.00     0.293 HD
ENDBRANCH  24  25
ENDBRANCH  12  13
ENDBRANCH   9  12
ENDBRANCH   7   8
BRANCH   7  27
ATOM     27  C   UNL     1       4.784   2.946  -3.028  1.00  0.00     0.068 C 
BRANCH  27  28
ATOM     28  C   UNL     1       5.830   2.866  -4.142  1.00  0.00    -0.037 C 
ATOM     29  C   UNL     1       5.668   2.093  -5.240  1.00  0.00     0.001 A 
ATOM     30  C   UNL     1       6.382   4.186  -4.543  1.00  0.00     0.174 C 
ATOM     31  C   UNL     1       6.727   1.433  -6.030  1.00  0.00     0.010 A 
ATOM     32  C   UNL     1       5.249   3.223  -6.120  1.00  0.00     0.065 A 
ATOM     33  N   UNL     1       5.695   4.399  -5.828  1.00  0.00    -0.280 NA
ATOM     34  C   UNL     1       6.579   1.368  -7.375  1.00  0.00     0.001 A 
ATOM     35  C   UNL     1       4.628   2.824  -7.387  1.00  0.00     0.028 A 
ATOM     36  C   UNL     1       5.362   1.885  -8.007  1.00  0.00     0.002 A 
ENDBRANCH  27  28
ENDBRANCH   7  27
ENDBRANCH   4   7
ENDBRANCH   2   3
ENDBRANCH   1   2
BRANCH   1  37
ATOM     37  C   UNL     1       4.643   8.468  -6.233  1.00  0.00     0.002 C 
BRANCH  37  38
ATOM     38  C   UNL     1       6.150   8.206  -6.048  1.00  0.00     0.002 C 
BRANCH  38  39
ATOM     39  C   UNL     1       6.875   7.220  -6.964  1.00  0.00     0.021 C 
BRANCH  39  40
ATOM     40  C   UNL     1       6.616   7.300  -8.457  1.00  0.00     0.116 C 
BRANCH  40  41
ATOM     41  N   UNL     1       7.021   8.569  -9.031  1.00  0.00    -0.352 N 
ATOM     42  C   UNL     1       7.936   8.851 -10.024  1.00  0.00     0.251 C 
ATOM     43  H   UNL     1       6.571   9.357  -8.649  1.00  0.00     0.163 HD
ATOM     44  O   UNL     1       8.231  10.003 -10.273  1.00  0.00    -0.269 OA
BRANCH  42  45
ATOM     45  C   UNL     1       8.592   7.745 -10.765  1.00  0.00     0.039 A 
ATOM     46  C   UNL     1       7.864   6.655 -11.242  1.00  0.00     0.014 A 
ATOM     47  C   UNL     1       9.971   7.813 -10.987  1.00  0.00     0.014 A 
ATOM     48  C   UNL     1       8.532   5.560 -11.785  1.00  0.00     0.010 A 
ATOM     49  C   UNL     1      10.632   6.747 -11.606  1.00  0.00     0.010 A 
ATOM     50  C   UNL     1       9.925   5.589 -11.964  1.00  0.00    -0.014 A 
BRANCH  50  51
ATOM     51  C   UNL     1      10.624   4.399 -12.518  1.00  0.00     0.031 A 
ATOM     52  C   UNL     1      11.603   3.624 -11.676  1.00  0.00     0.074 A 
ATOM     53  C   UNL     1      10.340   3.987 -13.768  1.00  0.00     0.049 A 
ATOM     54  N   UNL     1      12.306   2.564 -11.991  1.00  0.00    -0.248 NA
ATOM     55  C   UNL     1      11.822   4.098 -10.300  1.00  0.00     0.031 C 
ATOM     56  C   UNL     1       9.396   4.644 -14.674  1.00  0.00     0.029 A 
ATOM     57  N   UNL     1      10.798   2.912 -14.487  1.00  0.00    -0.354 N 
ATOM     58  C   UNL     1      13.057   2.255 -10.864  1.00  0.00     0.074 A 
ATOM     59  C   UNL     1      12.749   3.255  -9.865  1.00  0.00     0.031 C 
ATOM     60  C   UNL     1       9.310   3.933 -15.808  1.00  0.00     0.029 A 
ATOM     61  C   UNL     1      10.238   2.809 -15.737  1.00  0.00     0.049 A 
ATOM     62  H   UNL     1      11.463   2.275 -14.140  1.00  0.00     0.167 HD
ATOM     63  C   UNL     1      13.914   1.222 -10.677  1.00  0.00     0.037 A 
ATOM     64  C   UNL     1      10.458   1.920 -16.724  1.00  0.00     0.037 A 
ATOM     65  C   UNL     1      14.206   0.219 -11.669  1.00  0.00     0.049 A 
ATOM     66  C   UNL     1      11.453   0.815 -16.508  1.00  0.00     0.074 A 
ATOM     67  C   UNL     1      15.056  -0.869 -11.570  1.00  0.00     0.029 A 
ATOM     68  N   UNL     1      13.655   0.179 -12.942  1.00  0.00    -0.354 N 
ATOM     69  N   UNL     1      12.158   0.536 -15.438  1.00  0.00    -0.248 NA
ATOM     70  C   UNL     1      11.687  -0.096 -17.636  1.00  0.00     0.031 C 
ATOM     71  C   UNL     1      15.054  -1.541 -12.796  1.00  0.00     0.029 A 
ATOM     72  C   UNL     1      14.159  -0.906 -13.641  1.00  0.00     0.049 A 
ATOM     73  H   UNL     1      13.002   0.826 -13.295  1.00  0.00     0.167 HD
ATOM     74  C   UNL     1      12.900  -0.593 -15.755  1.00  0.00     0.074 A 
ATOM     75  C   UNL     1      12.548  -0.957 -17.111  1.00  0.00     0.031 C 
ATOM     76  C   UNL     1      13.793  -1.265 -14.988  1.00  0.00     0.037 A 
BRANCH  63  77
ATOM     77  C   UNL     1      14.610   1.114  -9.350  1.00  0.00     0.064 A 
ATOM     78  C   UNL     1      13.925   0.719  -8.191  1.00  0.00     0.173 A 
ATOM     79  C   UNL     1      15.995   1.322  -9.254  1.00  0.00     0.173 A 
ATOM     80  F   UNL     1      12.599   0.517  -8.226  1.00  0.00    -0.203 F 
ATOM     81  C   UNL     1      14.598   0.547  -6.984  1.00  0.00     0.198 A 
ATOM     82  C   UNL     1      16.669   1.122  -8.052  1.00  0.00     0.198 A 
ATOM     83  F   UNL     1      16.700   1.693 -10.333  1.00  0.00    -0.203 F 
ATOM     84  F   UNL     1      13.918   0.196  -5.884  1.00  0.00    -0.200 F 
ATOM     85  C   UNL     1      15.971   0.737  -6.918  1.00  0.00     0.200 A 
ATOM     86  F   UNL     1      17.998   1.290  -7.994  1.00  0.00    -0.200 F 
ATOM     87  F   UNL     1      16.620   0.549  -5.760  1.00  0.00    -0.200 F 
ENDBRANCH  63  77
BRANCH  64  88
ATOM     88  C   UNL     1       9.708   2.042 -18.000  1.00  0.00     0.064 A 
ATOM     89  C   UNL     1       8.738   1.096 -18.358  1.00  0.00     0.173 A 
ATOM     90  C   UNL     1       9.920   3.122 -18.871  1.00  0.00     0.173 A 
ATOM     91  F   UNL     1       8.514   0.035 -17.569  1.00  0.00    -0.203 F 
ATOM     92  C   UNL     1       8.011   1.223 -19.541  1.00  0.00     0.198 A 
ATOM     93  C   UNL     1       9.171   3.264 -20.037  1.00  0.00     0.198 A 
ATOM     94  F   UNL     1      10.835   4.056 -18.573  1.00  0.00    -0.203 F 
ATOM     95  F   UNL     1       7.112   0.288 -19.875  1.00  0.00    -0.200 F 
ATOM     96  C   UNL     1       8.221   2.312 -20.373  1.00  0.00     0.200 A 
ATOM     97  F   UNL     1       9.365   4.328 -20.829  1.00  0.00    -0.200 F 
ATOM     98  F   UNL     1       7.510   2.443 -21.501  1.00  0.00    -0.200 F 
ENDBRANCH  64  88
BRANCH  76  99
ATOM     99  C   UNL     1      14.431  -2.488 -15.579  1.00  0.00     0.064 A 
ATOM    100  C   UNL     1      15.399  -2.399 -16.589  1.00  0.00     0.173 A 
ATOM    101  C   UNL     1      14.112  -3.762 -15.083  1.00  0.00     0.173 A 
ATOM    102  F   UNL     1      15.729  -1.205 -17.105  1.00  0.00    -0.203 F 
ATOM    103  C   UNL     1      16.010  -3.543 -17.096  1.00  0.00     0.198 A 
ATOM    104  C   UNL     1      14.747  -4.900 -15.572  1.00  0.00     0.198 A 
ATOM    105  F   UNL     1      13.199  -3.901 -14.111  1.00  0.00    -0.203 F 
ATOM    106  F   UNL     1      16.903  -3.438 -18.091  1.00  0.00    -0.200 F 
ATOM    107  C   UNL     1      15.691  -4.790 -16.581  1.00  0.00     0.200 A 
ATOM    108  F   UNL     1      14.449  -6.103 -15.062  1.00  0.00    -0.200 F 
ATOM    109  F   UNL     1      16.290  -5.888 -17.062  1.00  0.00    -0.200 F 
ENDBRANCH  76  99
ENDBRANCH  50  51
ENDBRANCH  42  45
ENDBRANCH  40  41
ENDBRANCH  39  40
ENDBRANCH  38  39
ENDBRANCH  37  38
ENDBRANCH   1  37
TORSDOF 19
