REMARK SMILES Cc1ccc(F)cc1NC(=O)c1nn(C)cc1C(=O)NCCCCCCNC(=O)c1ccc(-c2c3nc(c(-c4c(F)c(F)c(F)c(F)c4F)c4ccc([nH]4)c(-c4c(F)c(F)c(F)c(F)c4F)c4nc(c(-c5c(F)c(F)c(F)c(F)c5F)c5ccc2[nH]5)C=C4)C=C3)cc1
REMARK SMILES IDX 23 1 22 2 21 3 20 4 18 5 19 6 17 8 12 9 13 10 14 11 16 12
REMARK SMILES IDX 15 13 10 14 9 15 11 17 8 18 1 19 2 20 3 21 4 22 7 23 5 24
REMARK SMILES IDX 6 25 24 26 25 27 26 28 27 29 28 30 29 32 30 33 31 34 92 35
REMARK SMILES IDX 32 36 91 37 33 38 34 39 35 40 85 41 36 42 90 43 84 44 86 45
REMARK SMILES IDX 37 46 89 47 83 48 82 49 38 51 70 52 50 53 69 54 51 55 54 56
REMARK SMILES IDX 68 57 87 58 52 59 53 60 67 62 88 63 55 64 39 65 40 66 48 67
REMARK SMILES IDX 41 68 42 69 46 70 49 71 43 72 44 73 47 74 45 75 71 76 72 77
REMARK SMILES IDX 80 78 73 79 74 80 78 81 81 82 75 83 76 84 79 85 77 86 56 87
REMARK SMILES IDX 57 88 65 89 58 90 59 91 63 92 66 93 60 94 61 95 64 96 62 97
REMARK H PARENT 20 7 9 16 27 31 86 50 54 61
REMARK Flexibility Score: inf
ROOT
ATOM      1  C   UNL     1      -3.370   0.947  -3.465  1.00  0.00     0.002 C 
ENDROOT
BRANCH   1   2
ATOM      2  C   UNL     1      -3.681   0.154  -2.196  1.00  0.00     0.021 C 
BRANCH   2   3
ATOM      3  C   UNL     1      -3.326  -1.329  -2.209  1.00  0.00     0.116 C 
BRANCH   3   4
ATOM      4  N   UNL     1      -1.956  -1.611  -2.584  1.00  0.00    -0.352 N 
ATOM      5  C   UNL     1      -1.079  -2.557  -2.106  1.00  0.00     0.255 C 
ATOM      6  O   UNL     1       0.042  -2.611  -2.601  1.00  0.00    -0.269 OA
ATOM      7  H   UNL     1      -1.594  -1.034  -3.295  1.00  0.00     0.163 HD
BRANCH   5   8
ATOM      8  C   UNL     1      -1.469  -3.408  -0.997  1.00  0.00     0.090 A 
ATOM      9  C   UNL     1      -0.618  -3.878   0.054  1.00  0.00     0.163 A 
ATOM     10  N   UNL     1      -1.320  -4.575   0.971  1.00  0.00    -0.167 NA
ATOM     11  N   UNL     1      -2.575  -4.565   0.507  1.00  0.00    -0.274 N 
ATOM     12  C   UNL     1      -2.701  -3.967  -0.708  1.00  0.00     0.123 A 
ATOM     13  C   UNL     1      -3.639  -5.087   1.330  1.00  0.00     0.173 C 
BRANCH   9  14
ATOM     14  C   UNL     1       0.824  -3.667   0.223  1.00  0.00     0.277 C 
ATOM     15  N   UNL     1       1.365  -2.398   0.304  1.00  0.00    -0.320 N 
ATOM     16  H   UNL     1       2.349  -2.395   0.285  1.00  0.00     0.170 HD
ATOM     17  O   UNL     1       1.611  -4.618   0.265  1.00  0.00    -0.267 OA
BRANCH  15  18
ATOM     18  C   UNL     1       0.807  -1.109   0.407  1.00  0.00     0.047 A 
ATOM     19  C   UNL     1       3.087  -0.027  -0.180  1.00  0.00     0.046 C 
ATOM     20  C   UNL     1       1.607   0.019   0.106  1.00  0.00    -0.027 A 
ATOM     21  C   UNL     1       1.016   1.301   0.088  1.00  0.00     0.008 A 
ATOM     22  C   UNL     1      -0.329   1.476   0.397  1.00  0.00     0.039 A 
ATOM     23  C   UNL     1      -0.516  -0.898   0.807  1.00  0.00     0.065 A 
ATOM     24  C   UNL     1      -1.074   0.376   0.779  1.00  0.00     0.125 A 
ATOM     25  F   UNL     1      -2.361   0.536   1.118  1.00  0.00    -0.207 F 
ENDBRANCH  15  18
ENDBRANCH   9  14
ENDBRANCH   5   8
ENDBRANCH   3   4
ENDBRANCH   2   3
ENDBRANCH   1   2
BRANCH   1  26
ATOM     26  C   UNL     1      -3.808   0.319  -4.795  1.00  0.00     0.002 C 
BRANCH  26  27
ATOM     27  C   UNL     1      -5.262  -0.156  -4.888  1.00  0.00     0.021 C 
BRANCH  27  28
ATOM     28  C   UNL     1      -6.271   0.953  -4.681  1.00  0.00     0.116 C 
BRANCH  28  29
ATOM     29  N   UNL     1      -6.292   1.903  -5.788  1.00  0.00    -0.352 N 
ATOM     30  C   UNL     1      -7.277   2.822  -6.085  1.00  0.00     0.251 C 
ATOM     31  H   UNL     1      -5.515   1.885  -6.393  1.00  0.00     0.163 HD
ATOM     32  O   UNL     1      -7.362   3.330  -7.194  1.00  0.00    -0.269 OA
BRANCH  30  33
ATOM     33  C   UNL     1      -8.215   3.199  -5.013  1.00  0.00     0.039 A 
ATOM     34  C   UNL     1      -9.569   3.459  -5.261  1.00  0.00     0.014 A 
ATOM     35  C   UNL     1      -7.691   3.317  -3.731  1.00  0.00     0.014 A 
ATOM     36  C   UNL     1     -10.399   3.816  -4.196  1.00  0.00     0.010 A 
ATOM     37  C   UNL     1      -8.530   3.478  -2.671  1.00  0.00     0.010 A 
ATOM     38  C   UNL     1      -9.862   3.825  -2.908  1.00  0.00    -0.014 A 
BRANCH  38  39
ATOM     39  C   UNL     1     -10.526   4.324  -1.717  1.00  0.00     0.031 A 
ATOM     40  C   UNL     1     -11.627   3.595  -1.084  1.00  0.00     0.074 A 
ATOM     41  C   UNL     1      -9.912   5.375  -1.128  1.00  0.00     0.049 A 
ATOM     42  N   UNL     1     -12.498   4.141  -0.310  1.00  0.00    -0.248 NA
ATOM     43  C   UNL     1     -11.834   2.164  -1.271  1.00  0.00     0.031 C 
ATOM     44  C   UNL     1     -10.049   5.909   0.215  1.00  0.00     0.029 A 
ATOM     45  N   UNL     1      -9.021   6.261  -1.757  1.00  0.00    -0.354 N 
ATOM     46  C   UNL     1     -13.146   3.123   0.353  1.00  0.00     0.074 A 
ATOM     47  C   UNL     1     -12.790   1.921  -0.366  1.00  0.00     0.031 C 
ATOM     48  C   UNL     1      -9.540   7.157   0.231  1.00  0.00     0.029 A 
ATOM     49  C   UNL     1      -9.211   7.506  -1.145  1.00  0.00     0.049 A 
ATOM     50  H   UNL     1      -8.390   6.049  -2.482  1.00  0.00     0.167 HD
ATOM     51  C   UNL     1     -13.746   3.401   1.550  1.00  0.00     0.037 A 
ATOM     52  C   UNL     1      -9.784   8.509  -1.875  1.00  0.00     0.037 A 
ATOM     53  C   UNL     1     -13.566   4.814   1.889  1.00  0.00     0.049 A 
ATOM     54  C   UNL     1     -11.114   8.914  -1.299  1.00  0.00     0.074 A 
ATOM     55  C   UNL     1     -12.633   5.448   2.696  1.00  0.00     0.029 A 
ATOM     56  N   UNL     1     -14.136   5.805   1.095  1.00  0.00    -0.354 N 
ATOM     57  N   UNL     1     -11.888   8.107  -0.626  1.00  0.00    -0.248 NA
ATOM     58  C   UNL     1     -11.651  10.264  -1.403  1.00  0.00     0.031 C 
ATOM     59  C   UNL     1     -12.597   6.816   2.335  1.00  0.00     0.029 A 
ATOM     60  C   UNL     1     -13.518   7.021   1.322  1.00  0.00     0.049 A 
ATOM     61  H   UNL     1     -14.876   5.660   0.461  1.00  0.00     0.167 HD
ATOM     62  C   UNL     1     -12.973   8.803  -0.169  1.00  0.00     0.074 A 
ATOM     63  C   UNL     1     -12.785  10.146  -0.691  1.00  0.00     0.031 C 
ATOM     64  C   UNL     1     -13.928   8.227   0.618  1.00  0.00     0.037 A 
BRANCH  51  65
ATOM     65  C   UNL     1     -14.166   2.351   2.561  1.00  0.00     0.064 A 
ATOM     66  C   UNL     1     -14.138   2.628   3.948  1.00  0.00     0.173 A 
ATOM     67  C   UNL     1     -14.572   1.044   2.236  1.00  0.00     0.173 A 
ATOM     68  F   UNL     1     -13.878   3.855   4.416  1.00  0.00    -0.203 F 
ATOM     69  C   UNL     1     -14.379   1.653   4.920  1.00  0.00     0.198 A 
ATOM     70  C   UNL     1     -14.773   0.055   3.208  1.00  0.00     0.198 A 
ATOM     71  F   UNL     1     -14.838   0.694   0.971  1.00  0.00    -0.203 F 
ATOM     72  F   UNL     1     -14.320   1.980   6.219  1.00  0.00    -0.200 F 
ATOM     73  C   UNL     1     -14.665   0.357   4.551  1.00  0.00     0.200 A 
ATOM     74  F   UNL     1     -15.074  -1.196   2.832  1.00  0.00    -0.200 F 
ATOM     75  F   UNL     1     -14.860  -0.587   5.481  1.00  0.00    -0.200 F 
ENDBRANCH  51  65
BRANCH  52  76
ATOM     76  C   UNL     1      -9.469   8.395  -3.337  1.00  0.00     0.064 A 
ATOM     77  C   UNL     1      -8.111   8.452  -3.721  1.00  0.00     0.173 A 
ATOM     78  C   UNL     1     -10.366   7.810  -4.242  1.00  0.00     0.173 A 
ATOM     79  F   UNL     1      -7.205   8.997  -2.893  1.00  0.00    -0.203 F 
ATOM     80  C   UNL     1      -7.654   7.822  -4.877  1.00  0.00     0.198 A 
ATOM     81  C   UNL     1      -9.905   7.200  -5.414  1.00  0.00     0.198 A 
ATOM     82  F   UNL     1     -11.671   7.729  -3.949  1.00  0.00    -0.203 F 
ATOM     83  F   UNL     1      -6.339   7.773  -5.136  1.00  0.00    -0.200 F 
ATOM     84  C   UNL     1      -8.549   7.172  -5.709  1.00  0.00     0.200 A 
ATOM     85  F   UNL     1     -10.770   6.566  -6.221  1.00  0.00    -0.200 F 
ATOM     86  F   UNL     1      -8.102   6.495  -6.775  1.00  0.00    -0.200 F 
ENDBRANCH  52  76
BRANCH  64  87
ATOM     87  C   UNL     1     -15.286   8.812   0.909  1.00  0.00     0.064 A 
ATOM     88  C   UNL     1     -15.944   9.706   0.049  1.00  0.00     0.173 A 
ATOM     89  C   UNL     1     -16.045   8.357   2.014  1.00  0.00     0.173 A 
ATOM     90  F   UNL     1     -15.390  10.107  -1.103  1.00  0.00    -0.203 F 
ATOM     91  C   UNL     1     -17.232  10.172   0.316  1.00  0.00     0.198 A 
ATOM     92  C   UNL     1     -17.356   8.770   2.238  1.00  0.00     0.198 A 
ATOM     93  F   UNL     1     -15.553   7.471   2.892  1.00  0.00    -0.203 F 
ATOM     94  F   UNL     1     -17.794  11.068  -0.507  1.00  0.00    -0.200 F 
ATOM     95  C   UNL     1     -17.942   9.695   1.401  1.00  0.00     0.200 A 
ATOM     96  F   UNL     1     -18.052   8.247   3.257  1.00  0.00    -0.200 F 
ATOM     97  F   UNL     1     -19.195  10.109   1.625  1.00  0.00    -0.200 F 
ENDBRANCH  64  87
ENDBRANCH  38  39
ENDBRANCH  30  33
ENDBRANCH  28  29
ENDBRANCH  27  28
ENDBRANCH  26  27
ENDBRANCH   1  26
TORSDOF 15
