REMARK SMILES Cn1c(C[NH+](C)C)nnc1[C@@H]1CCC[N@@H+](Cc2ccccc2C(=O)NCCCCCCNC(=O)c2ccc(-c3c4nc(c(-c5c(F)c(F)c(F)c(F)c5F)c5ccc([nH]5)c(-c5c(F)c(F)c(F)c(F)c5F)c5nc(c(-c6c(F)c(F)c(F)c(F)c6F)c6ccc3[nH]6)C=C5)C=C4)cc2)C1
REMARK SMILES IDX 27 1 26 2 25 3 23 4 24 5 22 7 17 8 18 9 19 10 21 11 20 12
REMARK SMILES IDX 16 13 15 14 11 15 12 16 98 17 13 18 14 19 10 21 3 22 8 23
REMARK SMILES IDX 2 24 9 25 1 26 4 27 5 28 6 29 7 30 28 32 29 33 30 34 31 35
REMARK SMILES IDX 32 36 33 37 34 39 35 40 36 41 97 42 37 43 96 44 38 45 39 46
REMARK SMILES IDX 40 47 90 48 41 49 95 50 89 51 91 52 42 53 94 54 88 55 87 56
REMARK SMILES IDX 43 58 75 59 55 60 74 61 56 62 59 63 73 64 92 65 57 66 58 67
REMARK SMILES IDX 72 69 93 70 60 71 44 72 45 73 53 74 46 75 47 76 51 77 54 78
REMARK SMILES IDX 48 79 49 80 52 81 50 82 76 83 77 84 85 85 78 86 79 87 83 88
REMARK SMILES IDX 86 89 80 90 81 91 84 92 82 93 61 94 62 95 70 96 63 97 64 98
REMARK SMILES IDX 68 99 71 100 65 101 66 102 69 103 67 104
REMARK H PARENT 25 6 15 20 5 31 32 38 91 57 59 68
REMARK Flexibility Score: inf
ROOT
ATOM      1  C   UNL     1      -3.886  -2.255   1.432  1.00  0.00     0.021 C 
ENDROOT
BRANCH   1   2
ATOM      2  C   UNL     1      -2.825  -3.324   1.686  1.00  0.00     0.116 C 
BRANCH   2   3
ATOM      3  N   UNL     1      -2.746  -3.776   3.052  1.00  0.00    -0.352 N 
ATOM      4  C   UNL     1      -2.120  -4.868   3.598  1.00  0.00     0.251 C 
ATOM      5  O   UNL     1      -2.160  -4.996   4.823  1.00  0.00    -0.269 OA
ATOM      6  H   UNL     1      -3.220  -3.208   3.701  1.00  0.00     0.163 HD
BRANCH   4   7
ATOM      7  C   UNL     1      -1.458  -5.943   2.801  1.00  0.00     0.048 A 
ATOM      8  C   UNL     1      -0.396  -5.827   1.875  1.00  0.00     0.019 A 
ATOM      9  C   UNL     1       0.068  -7.016   1.255  1.00  0.00     0.010 A 
ATOM     10  C   UNL     1      -0.426  -8.275   1.594  1.00  0.00     0.001 A 
ATOM     11  C   UNL     1      -1.909  -7.233   3.164  1.00  0.00     0.014 A 
ATOM     12  C   UNL     1      -1.397  -8.387   2.574  1.00  0.00     0.001 A 
BRANCH   8  13
ATOM     13  C   UNL     1       0.338  -4.565   1.470  1.00  0.00     0.299 C 
BRANCH  13  14
ATOM     14  N   UNL     1       1.232  -3.902   2.426  1.00  0.00    -0.331 N 
ATOM     15  C   UNL     1       1.425  -2.391   4.404  1.00  0.00     0.113 C 
ATOM     16  C   UNL     1       2.783  -3.017   4.740  1.00  0.00     0.023 C 
ATOM     17  C   UNL     1       0.545  -3.326   3.581  1.00  0.00     0.274 C 
ATOM     18  C   UNL     1       3.392  -3.906   3.651  1.00  0.00     0.062 C 
ATOM     19  C   UNL     1       2.369  -4.723   2.847  1.00  0.00     0.262 C 
ATOM     20  H   UNL     1       1.613  -3.123   1.889  1.00  0.00     0.348 HD
BRANCH  15  21
ATOM     21  C   UNL     1       1.439  -0.969   3.900  1.00  0.00     0.141 A 
ATOM     22  C   UNL     1       1.833   0.920   2.830  1.00  0.00     0.187 A 
ATOM     23  N   UNL     1       1.091   1.190   3.885  1.00  0.00    -0.129 NA
ATOM     24  N   UNL     1       1.967  -0.450   2.740  1.00  0.00    -0.313 N 
ATOM     25  N   UNL     1       0.850   0.020   4.549  1.00  0.00    -0.135 NA
ATOM     26  C   UNL     1       2.496  -1.149   1.607  1.00  0.00     0.153 C 
BRANCH  22  27
ATOM     27  C   UNL     1       2.551   1.946   1.999  1.00  0.00     0.340 C 
BRANCH  27  28
ATOM     28  N   UNL     1       2.000   2.313   0.691  1.00  0.00    -0.333 N 
ATOM     29  C   UNL     1       2.166   1.360  -0.386  1.00  0.00     0.332 C 
ATOM     30  C   UNL     1       0.659   2.866   0.771  1.00  0.00     0.332 C 
ATOM     31  H   UNL     1       2.619   3.070   0.401  1.00  0.00     0.348 HD
ENDBRANCH  27  28
ENDBRANCH  22  27
ENDBRANCH  15  21
ENDBRANCH  13  14
ENDBRANCH   8  13
ENDBRANCH   4   7
ENDBRANCH   2   3
ENDBRANCH   1   2
BRANCH   1  32
ATOM     32  C   UNL     1      -3.666  -0.903   2.133  1.00  0.00     0.002 C 
BRANCH  32  33
ATOM     33  C   UNL     1      -2.282  -0.253   2.015  1.00  0.00     0.002 C 
BRANCH  33  34
ATOM     34  C   UNL     1      -1.694  -0.118   0.611  1.00  0.00     0.021 C 
BRANCH  34  35
ATOM     35  C   UNL     1      -2.501   0.692  -0.400  1.00  0.00     0.116 C 
BRANCH  35  36
ATOM     36  N   UNL     1      -2.726   2.078  -0.024  1.00  0.00    -0.352 N 
ATOM     37  C   UNL     1      -2.454   3.263  -0.667  1.00  0.00     0.251 C 
ATOM     38  H   UNL     1      -3.154   2.189   0.856  1.00  0.00     0.163 HD
ATOM     39  O   UNL     1      -2.723   4.322  -0.102  1.00  0.00    -0.269 OA
BRANCH  37  40
ATOM     40  C   UNL     1      -1.779   3.314  -1.992  1.00  0.00     0.039 A 
ATOM     41  C   UNL     1      -0.834   4.330  -2.217  1.00  0.00     0.014 A 
ATOM     42  C   UNL     1      -2.059   2.411  -3.015  1.00  0.00     0.014 A 
ATOM     43  C   UNL     1      -0.134   4.402  -3.427  1.00  0.00     0.010 A 
ATOM     44  C   UNL     1      -1.318   2.441  -4.197  1.00  0.00     0.010 A 
ATOM     45  C   UNL     1      -0.362   3.447  -4.424  1.00  0.00    -0.014 A 
BRANCH  45  46
ATOM     46  C   UNL     1       0.274   3.539  -5.764  1.00  0.00     0.031 A 
ATOM     47  C   UNL     1      -0.599   3.821  -6.957  1.00  0.00     0.074 A 
ATOM     48  C   UNL     1       1.589   3.308  -5.936  1.00  0.00     0.049 A 
ATOM     49  N   UNL     1      -0.318   3.756  -8.233  1.00  0.00    -0.248 NA
ATOM     50  C   UNL     1      -1.994   4.193  -6.667  1.00  0.00     0.031 C 
ATOM     51  C   UNL     1       2.552   3.033  -4.872  1.00  0.00     0.029 A 
ATOM     52  N   UNL     1       2.337   3.245  -7.088  1.00  0.00    -0.354 N 
ATOM     53  C   UNL     1      -1.506   4.041  -8.894  1.00  0.00     0.074 A 
ATOM     54  C   UNL     1      -2.520   4.237  -7.881  1.00  0.00     0.031 C 
ATOM     55  C   UNL     1       3.763   2.828  -5.420  1.00  0.00     0.029 A 
ATOM     56  C   UNL     1       3.654   2.916  -6.875  1.00  0.00     0.049 A 
ATOM     57  H   UNL     1       1.964   3.420  -7.983  1.00  0.00     0.167 HD
ATOM     58  C   UNL     1      -1.730   4.149 -10.225  1.00  0.00     0.037 A 
ATOM     59  C   UNL     1       4.649   2.691  -7.755  1.00  0.00     0.037 A 
ATOM     60  C   UNL     1      -0.713   4.003 -11.231  1.00  0.00     0.049 A 
ATOM     61  C   UNL     1       4.373   2.803  -9.234  1.00  0.00     0.074 A 
ATOM     62  C   UNL     1      -0.830   4.144 -12.602  1.00  0.00     0.029 A 
ATOM     63  N   UNL     1       0.614   3.694 -10.971  1.00  0.00    -0.354 N 
ATOM     64  N   UNL     1       3.252   3.092  -9.849  1.00  0.00    -0.248 NA
ATOM     65  C   UNL     1       5.504   2.555 -10.141  1.00  0.00     0.031 C 
ATOM     66  C   UNL     1       0.419   3.882 -13.176  1.00  0.00     0.029 A 
ATOM     67  C   UNL     1       1.323   3.625 -12.158  1.00  0.00     0.049 A 
ATOM     68  H   UNL     1       0.994   3.546 -10.075  1.00  0.00     0.167 HD
ATOM     69  C   UNL     1       3.550   3.096 -11.206  1.00  0.00     0.074 A 
ATOM     70  C   UNL     1       4.959   2.788 -11.326  1.00  0.00     0.031 C 
ATOM     71  C   UNL     1       2.730   3.335 -12.259  1.00  0.00     0.037 A 
BRANCH  58  72
ATOM     72  C   UNL     1      -3.135   4.435 -10.667  1.00  0.00     0.064 A 
ATOM     73  C   UNL     1      -3.739   5.681 -10.445  1.00  0.00     0.173 A 
ATOM     74  C   UNL     1      -3.879   3.454 -11.339  1.00  0.00     0.173 A 
ATOM     75  F   UNL     1      -3.075   6.647  -9.792  1.00  0.00    -0.203 F 
ATOM     76  C   UNL     1      -5.049   5.924 -10.850  1.00  0.00     0.198 A 
ATOM     77  C   UNL     1      -5.177   3.712 -11.772  1.00  0.00     0.198 A 
ATOM     78  F   UNL     1      -3.347   2.246 -11.580  1.00  0.00    -0.203 F 
ATOM     79  F   UNL     1      -5.625   7.103 -10.576  1.00  0.00    -0.200 F 
ATOM     80  C   UNL     1      -5.764   4.942 -11.519  1.00  0.00     0.200 A 
ATOM     81  F   UNL     1      -5.863   2.766 -12.428  1.00  0.00    -0.200 F 
ATOM     82  F   UNL     1      -7.023   5.179 -11.912  1.00  0.00    -0.200 F 
ENDBRANCH  58  72
BRANCH  59  83
ATOM     83  C   UNL     1       6.011   2.341  -7.271  1.00  0.00     0.064 A 
ATOM     84  C   UNL     1       7.079   3.239  -7.418  1.00  0.00     0.173 A 
ATOM     85  C   UNL     1       6.282   1.098  -6.681  1.00  0.00     0.173 A 
ATOM     86  F   UNL     1       6.876   4.428  -8.003  1.00  0.00    -0.203 F 
ATOM     87  C   UNL     1       8.368   2.898  -7.015  1.00  0.00     0.198 A 
ATOM     88  C   UNL     1       7.567   0.769  -6.252  1.00  0.00     0.198 A 
ATOM     89  F   UNL     1       5.297   0.203  -6.517  1.00  0.00    -0.203 F 
ATOM     90  F   UNL     1       9.379   3.754  -7.216  1.00  0.00    -0.200 F 
ATOM     91  C   UNL     1       8.610   1.665  -6.428  1.00  0.00     0.200 A 
ATOM     92  F   UNL     1       7.795  -0.419  -5.676  1.00  0.00    -0.200 F 
ATOM     93  F   UNL     1       9.851   1.337  -6.041  1.00  0.00    -0.200 F 
ENDBRANCH  59  83
BRANCH  71  94
ATOM     94  C   UNL     1       3.339   3.320 -13.631  1.00  0.00     0.064 A 
ATOM     95  C   UNL     1       3.731   2.126 -14.252  1.00  0.00     0.173 A 
ATOM     96  C   UNL     1       3.482   4.515 -14.355  1.00  0.00     0.173 A 
ATOM     97  F   UNL     1       3.627   0.959 -13.597  1.00  0.00    -0.203 F 
ATOM     98  C   UNL     1       4.264   2.129 -15.538  1.00  0.00     0.198 A 
ATOM     99  C   UNL     1       3.988   4.511 -15.651  1.00  0.00     0.198 A 
ATOM    100  F   UNL     1       3.114   5.684 -13.809  1.00  0.00    -0.203 F 
ATOM    101  F   UNL     1       4.670   0.981 -16.096  1.00  0.00    -0.200 F 
ATOM    102  C   UNL     1       4.384   3.320 -16.240  1.00  0.00     0.200 A 
ATOM    103  F   UNL     1       4.090   5.661 -16.333  1.00  0.00    -0.200 F 
ATOM    104  F   UNL     1       4.887   3.320 -17.482  1.00  0.00    -0.200 F 
ENDBRANCH  71  94
ENDBRANCH  45  46
ENDBRANCH  37  40
ENDBRANCH  35  36
ENDBRANCH  34  35
ENDBRANCH  33  34
ENDBRANCH  32  33
ENDBRANCH   1  32
TORSDOF 18
