REMARK SMILES CC(C)[C@H](C(=O)NCCCCCCNC(=O)c1ccc(-c2c3nc(c(-c4c(F)c(F)c(F)c(F)c4F)c4ccc([nH]4)c(-c4c(F)c(F)c(F)c(F)c4F)c4nc(c(-c5c(F)c(F)c(F)c(F)c5F)c5ccc2[nH]5)C=C4)C=C3)cc1)[NH+]1CC2(CCCCCC2)C1
REMARK SMILES IDX 9 1 8 2 7 3 5 4 6 5 4 7 2 8 1 9 3 10 80 11 81 12 89 13 82 15
REMARK SMILES IDX 83 16 84 17 88 19 87 20 86 21 85 22 10 24 11 25 12 26 13 27
REMARK SMILES IDX 14 28 15 29 16 31 17 32 18 33 79 34 19 35 78 36 20 37 21 38
REMARK SMILES IDX 22 39 72 40 23 41 77 42 71 43 73 44 24 45 76 46 70 47 69 48
REMARK SMILES IDX 25 50 57 51 37 52 56 53 38 54 41 55 55 56 74 57 39 58 40 59
REMARK SMILES IDX 54 61 75 62 42 63 26 64 27 65 35 66 28 67 29 68 33 69 36 70
REMARK SMILES IDX 30 71 31 72 34 73 32 74 58 75 59 76 67 77 60 78 61 79 65 80
REMARK SMILES IDX 68 81 62 82 63 83 66 84 64 85 43 86 44 87 52 88 45 89 46 90
REMARK SMILES IDX 50 91 53 92 47 93 48 94 51 95 49 96
REMARK H PARENT 7 6 80 14 14 30 73 49 41 60
REMARK Flexibility Score: 80.00
ROOT
ATOM      1  C   UNL     1       0.950  -3.390   1.088  1.00  0.00     0.021 C 
ENDROOT
BRANCH   1   2
ATOM      2  C   UNL     1       0.452  -1.949   1.014  1.00  0.00     0.116 C 
BRANCH   2   3
ATOM      3  N   UNL     1       1.097  -1.260  -0.087  1.00  0.00    -0.351 N 
ATOM      4  C   UNL     1       0.579  -0.669  -1.202  1.00  0.00     0.278 C 
ATOM      5  O   UNL     1       1.399  -0.277  -2.034  1.00  0.00    -0.268 OA
ATOM      6  H   UNL     1       2.077  -1.210  -0.017  1.00  0.00     0.163 HD
BRANCH   4   7
ATOM      7  C   UNL     1      -0.936  -0.379  -1.276  1.00  0.00     0.276 C 
BRANCH   7   8
ATOM      8  C   UNL     1      -1.299   0.976  -0.552  1.00  0.00     0.051 C 
ATOM      9  C   UNL     1      -2.286   0.742   0.601  1.00  0.00     0.014 C 
ATOM     10  C   UNL     1      -0.120   1.809  -0.031  1.00  0.00     0.014 C 
ENDBRANCH   7   8
BRANCH   7  11
ATOM     11  N   UNL     1      -1.599  -0.820  -2.545  1.00  0.00    -0.323 N 
ATOM     12  C   UNL     1      -0.931  -0.578  -3.850  1.00  0.00     0.275 C 
ATOM     13  C   UNL     1      -2.691   0.068  -2.983  1.00  0.00     0.275 C 
ATOM     14  H   UNL     1      -1.738  -1.786  -2.246  1.00  0.00     0.348 HD
ATOM     15  C   UNL     1      -1.719   0.758  -4.013  1.00  0.00     0.068 C 
BRANCH  15  16
ATOM     16  C   UNL     1      -0.742   1.899  -3.694  1.00  0.00     0.019 C 
BRANCH  16  17
ATOM     17  C   UNL     1      -1.417   3.231  -3.405  1.00  0.00     0.001 CG0
ATOM     18  G   UNL     1      -1.758   3.978  -4.684  1.00  0.00     0.000 G0
ENDBRANCH  16  17
ENDBRANCH  15  16
BRANCH  15  19
ATOM     19  C   UNL     1      -2.433   1.010  -5.351  1.00  0.00     0.019 C 
BRANCH  19  20
ATOM     20  C   UNL     1      -3.509   2.092  -5.196  1.00  0.00     0.001 C 
BRANCH  20  21
ATOM     21  C   UNL     1      -3.041   3.536  -5.380  1.00  0.00     0.000 C 
BRANCH  21  22
ATOM     22  C   UNL     1      -1.758   3.978  -4.684  1.00  0.00     0.000 CG0
ATOM     23  G   UNL     1      -1.417   3.231  -3.405  1.00  0.00     0.000 G0
ENDBRANCH  21  22
ENDBRANCH  20  21
ENDBRANCH  19  20
ENDBRANCH  15  19
ENDBRANCH   7  11
ENDBRANCH   4   7
ENDBRANCH   2   3
ENDBRANCH   1   2
BRANCH   1  24
ATOM     24  C   UNL     1       2.458  -3.511   1.338  1.00  0.00     0.002 C 
BRANCH  24  25
ATOM     25  C   UNL     1       2.958  -2.794   2.596  1.00  0.00     0.002 C 
BRANCH  25  26
ATOM     26  C   UNL     1       2.270  -3.227   3.892  1.00  0.00     0.021 C 
BRANCH  26  27
ATOM     27  C   UNL     1       2.348  -4.722   4.178  1.00  0.00     0.116 C 
BRANCH  27  28
ATOM     28  N   UNL     1       3.720  -5.181   4.314  1.00  0.00    -0.352 N 
ATOM     29  C   UNL     1       4.292  -5.941   5.301  1.00  0.00     0.251 C 
ATOM     30  H   UNL     1       4.328  -4.906   3.591  1.00  0.00     0.163 HD
ATOM     31  O   UNL     1       5.510  -6.069   5.350  1.00  0.00    -0.269 OA
BRANCH  29  32
ATOM     32  C   UNL     1       3.442  -6.590   6.323  1.00  0.00     0.039 A 
ATOM     33  C   UNL     1       3.868  -6.569   7.653  1.00  0.00     0.014 A 
ATOM     34  C   UNL     1       2.250  -7.234   5.977  1.00  0.00     0.014 A 
ATOM     35  C   UNL     1       3.075  -7.153   8.642  1.00  0.00     0.010 A 
ATOM     36  C   UNL     1       1.423  -7.748   6.973  1.00  0.00     0.010 A 
ATOM     37  C   UNL     1       1.831  -7.720   8.315  1.00  0.00    -0.014 A 
BRANCH  37  38
ATOM     38  C   UNL     1       0.955  -8.277   9.376  1.00  0.00     0.031 A 
ATOM     39  C   UNL     1       0.631  -9.744   9.411  1.00  0.00     0.074 A 
ATOM     40  C   UNL     1       0.424  -7.446  10.294  1.00  0.00     0.049 A 
ATOM     41  N   UNL     1      -0.106 -10.408  10.267  1.00  0.00    -0.248 NA
ATOM     42  C   UNL     1       1.186 -10.574   8.331  1.00  0.00     0.031 C 
ATOM     43  C   UNL     1       0.615  -5.994  10.329  1.00  0.00     0.029 A 
ATOM     44  N   UNL     1      -0.383  -7.700  11.374  1.00  0.00    -0.354 N 
ATOM     45  C   UNL     1      -0.107 -11.724   9.826  1.00  0.00     0.074 A 
ATOM     46  C   UNL     1       0.654 -11.758   8.596  1.00  0.00     0.031 C 
ATOM     47  C   UNL     1      -0.029  -5.492  11.394  1.00  0.00     0.029 A 
ATOM     48  C   UNL     1      -0.705  -6.577  12.097  1.00  0.00     0.049 A 
ATOM     49  H   UNL     1      -0.701  -8.601  11.609  1.00  0.00     0.167 HD
ATOM     50  C   UNL     1      -0.670 -12.810  10.408  1.00  0.00     0.037 A 
ATOM     51  C   UNL     1      -1.459  -6.439  13.204  1.00  0.00     0.037 A 
ATOM     52  C   UNL     1      -1.410 -12.775  11.643  1.00  0.00     0.049 A 
ATOM     53  C   UNL     1      -2.065  -7.664  13.834  1.00  0.00     0.074 A 
ATOM     54  C   UNL     1      -1.964 -13.830  12.348  1.00  0.00     0.029 A 
ATOM     55  N   UNL     1      -1.705 -11.621  12.355  1.00  0.00    -0.354 N 
ATOM     56  N   UNL     1      -1.987  -8.916  13.454  1.00  0.00    -0.248 NA
ATOM     57  C   UNL     1      -2.854  -7.455  15.055  1.00  0.00     0.031 C 
ATOM     58  C   UNL     1      -2.640 -13.309  13.457  1.00  0.00     0.029 A 
ATOM     59  C   UNL     1      -2.457 -11.936  13.477  1.00  0.00     0.049 A 
ATOM     60  H   UNL     1      -1.422 -10.713  12.101  1.00  0.00     0.167 HD
ATOM     61  C   UNL     1      -2.693  -9.646  14.400  1.00  0.00     0.074 A 
ATOM     62  C   UNL     1      -3.171  -8.699  15.385  1.00  0.00     0.031 C 
ATOM     63  C   UNL     1      -2.928 -10.981  14.447  1.00  0.00     0.037 A 
BRANCH  50  64
ATOM     64  C   UNL     1      -0.507 -14.135   9.718  1.00  0.00     0.064 A 
ATOM     65  C   UNL     1       0.736 -14.782   9.647  1.00  0.00     0.173 A 
ATOM     66  C   UNL     1      -1.617 -14.789   9.161  1.00  0.00     0.173 A 
ATOM     67  F   UNL     1       1.832 -14.197  10.154  1.00  0.00    -0.203 F 
ATOM     68  C   UNL     1       0.867 -16.020   9.023  1.00  0.00     0.198 A 
ATOM     69  C   UNL     1      -1.488 -16.042   8.566  1.00  0.00     0.198 A 
ATOM     70  F   UNL     1      -2.831 -14.219   9.205  1.00  0.00    -0.203 F 
ATOM     71  F   UNL     1       2.073 -16.596   8.928  1.00  0.00    -0.200 F 
ATOM     72  C   UNL     1      -0.246 -16.653   8.491  1.00  0.00     0.200 A 
ATOM     73  F   UNL     1      -2.568 -16.658   8.066  1.00  0.00    -0.200 F 
ATOM     74  F   UNL     1      -0.121 -17.849   7.901  1.00  0.00    -0.200 F 
ENDBRANCH  50  64
BRANCH  51  75
ATOM     75  C   UNL     1      -1.662  -5.093  13.802  1.00  0.00     0.064 A 
ATOM     76  C   UNL     1      -1.108  -4.764  15.047  1.00  0.00     0.173 A 
ATOM     77  C   UNL     1      -2.423  -4.113  13.148  1.00  0.00     0.173 A 
ATOM     78  F   UNL     1      -0.388  -5.674  15.721  1.00  0.00    -0.203 F 
ATOM     79  C   UNL     1      -1.329  -3.517  15.627  1.00  0.00     0.198 A 
ATOM     80  C   UNL     1      -2.616  -2.855  13.713  1.00  0.00     0.198 A 
ATOM     81  F   UNL     1      -2.969  -4.374  11.951  1.00  0.00    -0.203 F 
ATOM     82  F   UNL     1      -0.832  -3.248  16.842  1.00  0.00    -0.200 F 
ATOM     83  C   UNL     1      -2.078  -2.561  14.957  1.00  0.00     0.200 A 
ATOM     84  F   UNL     1      -3.327  -1.929  13.055  1.00  0.00    -0.200 F 
ATOM     85  F   UNL     1      -2.289  -1.361  15.514  1.00  0.00    -0.200 F 
ENDBRANCH  51  75
BRANCH  63  86
ATOM     86  C   UNL     1      -3.715 -11.495  15.619  1.00  0.00     0.064 A 
ATOM     87  C   UNL     1      -5.082 -11.216  15.770  1.00  0.00     0.173 A 
ATOM     88  C   UNL     1      -3.097 -12.289  16.598  1.00  0.00     0.173 A 
ATOM     89  F   UNL     1      -5.718 -10.450  14.870  1.00  0.00    -0.203 F 
ATOM     90  C   UNL     1      -5.790 -11.678  16.876  1.00  0.00     0.198 A 
ATOM     91  C   UNL     1      -3.817 -12.779  17.684  1.00  0.00     0.198 A 
ATOM     92  F   UNL     1      -1.794 -12.594  16.498  1.00  0.00    -0.203 F 
ATOM     93  F   UNL     1      -7.079 -11.344  17.031  1.00  0.00    -0.200 F 
ATOM     94  C   UNL     1      -5.159 -12.463  17.829  1.00  0.00     0.200 A 
ATOM     95  F   UNL     1      -3.208 -13.551  18.595  1.00  0.00    -0.200 F 
ATOM     96  F   UNL     1      -5.842 -12.908  18.892  1.00  0.00    -0.200 F 
ENDBRANCH  63  86
ENDBRANCH  37  38
ENDBRANCH  29  32
ENDBRANCH  27  28
ENDBRANCH  26  27
ENDBRANCH  25  26
ENDBRANCH  24  25
ENDBRANCH   1  24
TORSDOF 15
