REMARK SMILES Cc1sc2[nH]c(SCC(=O)NCCCCCCNC(=O)c3ccc(-c4c5nc(c(-c6c(F)c(F)c(F)c(F)c6F)c6ccc([nH]6)c(-c6c(F)c(F)c(F)c(F)c6F)c6nc(c(-c7c(F)c(F)c(F)c(F)c7F)c7ccc4[nH]7)C=C6)C=C5)cc3)nc(=O)c2c1C
REMARK SMILES IDX 14 1 13 2 12 3 11 4 9 5 10 6 8 8 7 9 6 10 1 11 2 12 3 13
REMARK SMILES IDX 88 14 4 15 87 16 89 17 5 18 85 19 84 21 86 22 15 23 16 24
REMARK SMILES IDX 17 25 18 26 19 27 20 29 21 30 22 31 83 32 23 33 82 34 24 35
REMARK SMILES IDX 25 36 26 37 76 38 27 39 81 40 75 41 77 42 28 43 80 44 74 45
REMARK SMILES IDX 73 46 29 48 61 49 41 50 60 51 42 52 45 53 59 54 78 55 43 56
REMARK SMILES IDX 44 57 58 59 79 60 46 61 30 62 31 63 39 64 32 65 33 66 37 67
REMARK SMILES IDX 40 68 34 69 35 70 38 71 36 72 62 73 63 74 71 75 64 76 65 77
REMARK SMILES IDX 69 78 72 79 66 80 67 81 70 82 68 83 47 84 48 85 56 86 49 87
REMARK SMILES IDX 50 88 54 89 57 90 51 91 52 92 55 93 53 94
REMARK H PARENT 11 7 5 20 18 28 77 47 45 58
REMARK Flexibility Score: inf
ROOT
ATOM      1  C   UNL     1       4.378   4.871  -7.136  1.00  0.00     0.002 C 
ENDROOT
BRANCH   1   2
ATOM      2  C   UNL     1       3.152   5.551  -6.507  1.00  0.00     0.021 C 
BRANCH   2   3
ATOM      3  C   UNL     1       2.026   5.889  -7.491  1.00  0.00     0.116 C 
BRANCH   3   4
ATOM      4  N   UNL     1       1.331   4.696  -7.937  1.00  0.00    -0.355 N 
ATOM      5  C   UNL     1       0.049   4.280  -7.722  1.00  0.00     0.230 C 
ATOM      6  O   UNL     1      -0.307   3.247  -8.295  1.00  0.00    -0.274 OA
ATOM      7  H   UNL     1       1.874   4.085  -8.485  1.00  0.00     0.163 HD
BRANCH   5   8
ATOM      8  C   UNL     1      -0.939   5.115  -6.927  1.00  0.00     0.178 C 
BRANCH   8   9
ATOM      9  S   UNL     1      -0.467   5.432  -5.210  1.00  0.00    -0.078 SA
BRANCH   9  10
ATOM     10  C   UNL     1      -0.380   3.829  -4.526  1.00  0.00     0.170 A 
ATOM     11  C   UNL     1       1.003  -0.083   0.041  1.00  0.00     0.057 C 
ATOM     12  C   UNL     1       0.621   0.733  -1.152  1.00  0.00     0.007 A 
ATOM     13  S   UNL     1       0.947   2.419  -1.108  1.00  0.00    -0.122 S 
ATOM     14  C   UNL     1       0.028   0.345  -2.350  1.00  0.00    -0.022 A 
ATOM     15  C   UNL     1       0.295   2.640  -2.644  1.00  0.00     0.108 A 
ATOM     16  C   UNL     1      -0.164   1.483  -3.223  1.00  0.00     0.080 A 
ATOM     17  C   UNL     1      -0.373  -1.050  -2.721  1.00  0.00     0.046 C 
ATOM     18  N   UNL     1       0.199   3.808  -3.293  1.00  0.00    -0.326 N 
ATOM     19  C   UNL     1      -0.759   1.552  -4.569  1.00  0.00     0.282 A 
ATOM     20  H   UNL     1       0.540   4.637  -2.885  1.00  0.00     0.169 HD
ATOM     21  N   UNL     1      -0.851   2.804  -5.157  1.00  0.00    -0.185 NA
ATOM     22  O   UNL     1      -1.165   0.535  -5.132  1.00  0.00    -0.267 OA
ENDBRANCH   9  10
ENDBRANCH   8   9
ENDBRANCH   5   8
ENDBRANCH   3   4
ENDBRANCH   2   3
ENDBRANCH   1   2
BRANCH   1  23
ATOM     23  C   UNL     1       5.151   5.705  -8.167  1.00  0.00     0.002 C 
BRANCH  23  24
ATOM     24  C   UNL     1       5.768   7.023  -7.659  1.00  0.00     0.021 C 
BRANCH  24  25
ATOM     25  C   UNL     1       6.963   6.887  -6.694  1.00  0.00     0.116 C 
BRANCH  25  26
ATOM     26  N   UNL     1       8.093   6.253  -7.353  1.00  0.00    -0.352 N 
ATOM     27  C   UNL     1       9.386   6.652  -7.561  1.00  0.00     0.251 C 
ATOM     28  H   UNL     1       7.889   5.364  -7.722  1.00  0.00     0.163 HD
ATOM     29  O   UNL     1      10.033   6.079  -8.438  1.00  0.00    -0.269 OA
BRANCH  27  30
ATOM     30  C   UNL     1      10.069   7.703  -6.768  1.00  0.00     0.039 A 
ATOM     31  C   UNL     1      10.972   8.543  -7.439  1.00  0.00     0.014 A 
ATOM     32  C   UNL     1      10.022   7.733  -5.374  1.00  0.00     0.014 A 
ATOM     33  C   UNL     1      11.806   9.418  -6.731  1.00  0.00     0.010 A 
ATOM     34  C   UNL     1      10.868   8.605  -4.666  1.00  0.00     0.010 A 
ATOM     35  C   UNL     1      11.765   9.462  -5.332  1.00  0.00    -0.014 A 
BRANCH  35  36
ATOM     36  C   UNL     1      12.537  10.521  -4.623  1.00  0.00     0.031 A 
ATOM     37  C   UNL     1      11.813  11.165  -3.486  1.00  0.00     0.074 A 
ATOM     38  C   UNL     1      13.886  10.643  -4.637  1.00  0.00     0.049 A 
ATOM     39  N   UNL     1      11.796  10.646  -2.291  1.00  0.00    -0.248 NA
ATOM     40  C   UNL     1      10.855  12.253  -3.672  1.00  0.00     0.031 C 
ATOM     41  C   UNL     1      14.807   9.512  -4.780  1.00  0.00     0.029 A 
ATOM     42  N   UNL     1      14.710  11.704  -4.308  1.00  0.00    -0.354 N 
ATOM     43  C   UNL     1      10.785  11.271  -1.589  1.00  0.00     0.074 A 
ATOM     44  C   UNL     1      10.246  12.281  -2.474  1.00  0.00     0.031 C 
ATOM     45  C   UNL     1      16.038   9.901  -4.387  1.00  0.00     0.029 A 
ATOM     46  C   UNL     1      16.045  11.341  -4.107  1.00  0.00     0.049 A 
ATOM     47  H   UNL     1      14.387  12.630  -4.224  1.00  0.00     0.167 HD
ATOM     48  C   UNL     1      10.435  10.904  -0.328  1.00  0.00     0.037 A 
ATOM     49  C   UNL     1      16.896  11.906  -3.202  1.00  0.00     0.037 A 
ATOM     50  C   UNL     1      11.194   9.835   0.248  1.00  0.00     0.049 A 
ATOM     51  C   UNL     1      16.221  11.594  -1.896  1.00  0.00     0.074 A 
ATOM     52  C   UNL     1      11.069   8.475   0.432  1.00  0.00     0.029 A 
ATOM     53  N   UNL     1      12.433  10.139   0.759  1.00  0.00    -0.354 N 
ATOM     54  N   UNL     1      16.278  10.461  -1.253  1.00  0.00    -0.248 NA
ATOM     55  C   UNL     1      15.171  12.508  -1.446  1.00  0.00     0.031 C 
ATOM     56  C   UNL     1      12.406   7.988   0.599  1.00  0.00     0.029 A 
ATOM     57  C   UNL     1      13.256   9.084   0.466  1.00  0.00     0.049 A 
ATOM     58  H   UNL     1      12.681  10.959   1.244  1.00  0.00     0.167 HD
ATOM     59  C   UNL     1      15.107  10.412  -0.496  1.00  0.00     0.074 A 
ATOM     60  C   UNL     1      14.486  11.713  -0.637  1.00  0.00     0.031 C 
ATOM     61  C   UNL     1      14.626   9.260   0.052  1.00  0.00     0.037 A 
BRANCH  48  62
ATOM     62  C   UNL     1       9.481  11.635   0.522  1.00  0.00     0.064 A 
ATOM     63  C   UNL     1      10.008  12.518   1.476  1.00  0.00     0.173 A 
ATOM     64  C   UNL     1       8.121  11.325   0.581  1.00  0.00     0.173 A 
ATOM     65  F   UNL     1      11.317  12.820   1.455  1.00  0.00    -0.203 F 
ATOM     66  C   UNL     1       9.212  13.039   2.486  1.00  0.00     0.198 A 
ATOM     67  C   UNL     1       7.320  11.858   1.591  1.00  0.00     0.198 A 
ATOM     68  F   UNL     1       7.580  10.473  -0.303  1.00  0.00    -0.203 F 
ATOM     69  F   UNL     1       9.755  13.836   3.416  1.00  0.00    -0.200 F 
ATOM     70  C   UNL     1       7.870  12.701   2.550  1.00  0.00     0.200 A 
ATOM     71  F   UNL     1       6.022  11.531   1.659  1.00  0.00    -0.200 F 
ATOM     72  F   UNL     1       7.109  13.175   3.546  1.00  0.00    -0.200 F 
ENDBRANCH  48  62
BRANCH  49  73
ATOM     73  C   UNL     1      17.482  13.256  -3.493  1.00  0.00     0.064 A 
ATOM     74  C   UNL     1      18.040  13.509  -4.762  1.00  0.00     0.173 A 
ATOM     75  C   UNL     1      17.582  14.309  -2.564  1.00  0.00     0.173 A 
ATOM     76  F   UNL     1      18.110  12.527  -5.674  1.00  0.00    -0.203 F 
ATOM     77  C   UNL     1      18.549  14.763  -5.113  1.00  0.00     0.198 A 
ATOM     78  C   UNL     1      18.061  15.572  -2.924  1.00  0.00     0.198 A 
ATOM     79  F   UNL     1      17.219  14.143  -1.286  1.00  0.00    -0.203 F 
ATOM     80  F   UNL     1      19.052  14.960  -6.340  1.00  0.00    -0.200 F 
ATOM     81  C   UNL     1      18.529  15.804  -4.204  1.00  0.00     0.200 A 
ATOM     82  F   UNL     1      18.053  16.567  -2.025  1.00  0.00    -0.200 F 
ATOM     83  F   UNL     1      18.969  17.021  -4.553  1.00  0.00    -0.200 F 
ENDBRANCH  49  73
BRANCH  61  84
ATOM     84  C   UNL     1      15.537   8.085  -0.043  1.00  0.00     0.064 A 
ATOM     85  C   UNL     1      16.694   8.028   0.745  1.00  0.00     0.173 A 
ATOM     86  C   UNL     1      15.263   7.004  -0.895  1.00  0.00     0.173 A 
ATOM     87  F   UNL     1      16.994   9.036   1.579  1.00  0.00    -0.203 F 
ATOM     88  C   UNL     1      17.535   6.921   0.698  1.00  0.00     0.198 A 
ATOM     89  C   UNL     1      16.093   5.888  -0.920  1.00  0.00     0.198 A 
ATOM     90  F   UNL     1      14.180   7.013  -1.688  1.00  0.00    -0.203 F 
ATOM     91  F   UNL     1      18.633   6.884   1.465  1.00  0.00    -0.200 F 
ATOM     92  C   UNL     1      17.227   5.847  -0.123  1.00  0.00     0.200 A 
ATOM     93  F   UNL     1      15.786   4.842  -1.701  1.00  0.00    -0.200 F 
ATOM     94  F   UNL     1      18.018   4.765  -0.138  1.00  0.00    -0.200 F 
ENDBRANCH  61  84
ENDBRANCH  35  36
ENDBRANCH  27  30
ENDBRANCH  25  26
ENDBRANCH  24  25
ENDBRANCH  23  24
ENDBRANCH   1  23
TORSDOF 15
