REMARK SMILES C[C@@H](C(=O)NCCCCCCNC(=O)c1ccc(-c2c3nc(c(-c4c(F)c(F)c(F)c(F)c4F)c4ccc([nH]4)c(-c4c(F)c(F)c(F)c(F)c4F)c4nc(c(-c5c(F)c(F)c(F)c(F)c5F)c5ccc2[nH]5)C=C4)C=C3)cc1)c1ccc(-c2cccc(OC(=O)NCCCc3ccccc3)c2)c(F)c1
REMARK SMILES IDX 3 1 4 2 5 3 2 5 1 6 78 7 79 8 103 9 80 10 101 11 81 12
REMARK SMILES IDX 102 13 82 14 83 15 100 16 84 17 86 18 85 19 87 20 88 21
REMARK SMILES IDX 89 22 90 23 91 25 92 26 93 27 94 28 95 29 99 30 96 31 98 32
REMARK SMILES IDX 97 33 6 34 7 35 8 36 9 37 10 38 11 39 12 40 13 41 14 43
REMARK SMILES IDX 15 44 16 45 77 46 17 47 76 48 18 49 19 50 20 51 70 52 21 53
REMARK SMILES IDX 75 54 69 55 71 56 22 57 74 58 68 59 67 60 23 62 55 63 35 64
REMARK SMILES IDX 54 65 36 66 39 67 53 68 72 69 37 70 38 71 52 73 73 74 40 75
REMARK SMILES IDX 24 76 25 77 33 78 26 79 27 80 31 81 34 82 28 83 29 84 32 85
REMARK SMILES IDX 30 86 56 87 57 88 65 89 58 90 59 91 63 92 66 93 60 94 61 95
REMARK SMILES IDX 64 96 62 97 41 98 42 99 50 100 43 101 44 102 48 103 51 104
REMARK SMILES IDX 45 105 46 106 49 107 47 108
REMARK H PARENT 5 4 90 24 12 42 71 61 39 72
REMARK Flexibility Score: inf
ROOT
ATOM      1  C   UNL     1       1.130   2.073  -1.022  1.00  0.00     0.227 C 
ATOM      2  O   UNL     1       0.475   2.487  -1.979  1.00  0.00    -0.274 OA
ATOM      3  N   UNL     1       2.418   2.510  -0.924  1.00  0.00    -0.356 N 
ATOM      4  H   UNL     1       2.635   3.312  -1.453  1.00  0.00     0.163 HD
ENDROOT
BRANCH   1   5
ATOM      5  C   UNL     1       0.549   1.161   0.075  1.00  0.00     0.105 C 
ATOM      6  C   UNL     1       1.077  -0.274  -0.062  1.00  0.00     0.023 C 
BRANCH   5   7
ATOM      7  C   UNL     1      -0.977   1.241   0.112  1.00  0.00    -0.033 A 
ATOM      8  C   UNL     1      -1.609   2.492   0.249  1.00  0.00     0.005 A 
ATOM      9  C   UNL     1      -1.788   0.105   0.013  1.00  0.00     0.044 A 
ATOM     10  C   UNL     1      -3.004   2.602   0.271  1.00  0.00     0.012 A 
ATOM     11  C   UNL     1      -3.170   0.220   0.046  1.00  0.00     0.131 A 
ATOM     12  C   UNL     1      -3.806   1.459   0.183  1.00  0.00     0.018 A 
ATOM     13  F   UNL     1      -3.893  -0.909  -0.033  1.00  0.00    -0.206 F 
BRANCH  12  14
ATOM     14  C   UNL     1      -5.258   1.527   0.339  1.00  0.00    -0.012 A 
ATOM     15  C   UNL     1      -6.087   2.229  -0.545  1.00  0.00     0.009 A 
ATOM     16  C   UNL     1      -5.843   0.838   1.412  1.00  0.00     0.056 A 
ATOM     17  C   UNL     1      -7.473   2.225  -0.365  1.00  0.00     0.004 A 
ATOM     18  C   UNL     1      -7.217   0.842   1.596  1.00  0.00     0.133 A 
ATOM     19  C   UNL     1      -8.040   1.530   0.705  1.00  0.00     0.047 A 
BRANCH  18  20
ATOM     20  O   UNL     1      -7.867   0.138   2.633  1.00  0.00    -0.410 OA
BRANCH  20  21
ATOM     21  C   UNL     1      -7.231  -0.486   3.707  1.00  0.00     0.412 C 
ATOM     22  O   UNL     1      -6.036  -0.473   3.967  1.00  0.00    -0.224 OA
ATOM     23  N   UNL     1      -8.098  -1.150   4.526  1.00  0.00    -0.321 N 
ATOM     24  H   UNL     1      -7.709  -1.701   5.242  1.00  0.00     0.167 HD
BRANCH  23  25
ATOM     25  C   UNL     1      -9.536  -1.111   4.430  1.00  0.00     0.120 C 
BRANCH  25  26
ATOM     26  C   UNL     1     -10.234  -2.360   4.962  1.00  0.00     0.026 C 
BRANCH  26  27
ATOM     27  C   UNL     1      -9.670  -3.031   6.222  1.00  0.00     0.037 C 
BRANCH  27  28
ATOM     28  C   UNL     1      -9.799  -2.367   7.573  1.00  0.00    -0.048 A 
ATOM     29  C   UNL     1     -10.006  -0.999   7.774  1.00  0.00     0.004 A 
ATOM     30  C   UNL     1      -9.638  -3.179   8.711  1.00  0.00     0.004 A 
ATOM     31  C   UNL     1     -10.049  -0.459   9.064  1.00  0.00     0.000 A 
ATOM     32  C   UNL     1      -9.691  -2.643   9.999  1.00  0.00     0.000 A 
ATOM     33  C   UNL     1      -9.893  -1.279  10.176  1.00  0.00     0.000 A 
ENDBRANCH  27  28
ENDBRANCH  26  27
ENDBRANCH  25  26
ENDBRANCH  23  25
ENDBRANCH  20  21
ENDBRANCH  18  20
ENDBRANCH  12  14
ENDBRANCH   5   7
ENDBRANCH   1   5
BRANCH   3  34
ATOM     34  C   UNL     1       3.510   1.961  -0.151  1.00  0.00     0.116 C 
BRANCH  34  35
ATOM     35  C   UNL     1       4.340   1.021  -1.032  1.00  0.00     0.021 C 
BRANCH  35  36
ATOM     36  C   UNL     1       5.086   1.740  -2.163  1.00  0.00     0.002 C 
BRANCH  36  37
ATOM     37  C   UNL     1       6.054   2.828  -1.694  1.00  0.00     0.002 C 
BRANCH  37  38
ATOM     38  C   UNL     1       7.092   2.358  -0.673  1.00  0.00     0.021 C 
BRANCH  38  39
ATOM     39  C   UNL     1       7.973   1.209  -1.153  1.00  0.00     0.116 C 
BRANCH  39  40
ATOM     40  N   UNL     1       8.759   1.582  -2.316  1.00  0.00    -0.352 N 
ATOM     41  C   UNL     1      10.112   1.505  -2.518  1.00  0.00     0.251 C 
ATOM     42  H   UNL     1       8.243   1.944  -3.072  1.00  0.00     0.163 HD
ATOM     43  O   UNL     1      10.621   2.073  -3.480  1.00  0.00    -0.269 OA
BRANCH  41  44
ATOM     44  C   UNL     1      10.966   0.755  -1.574  1.00  0.00     0.039 A 
ATOM     45  C   UNL     1      12.204   1.297  -1.220  1.00  0.00     0.014 A 
ATOM     46  C   UNL     1      10.575  -0.489  -1.066  1.00  0.00     0.014 A 
ATOM     47  C   UNL     1      13.028   0.614  -0.326  1.00  0.00     0.010 A 
ATOM     48  C   UNL     1      11.366  -1.133  -0.116  1.00  0.00     0.010 A 
ATOM     49  C   UNL     1      12.604  -0.592   0.257  1.00  0.00    -0.014 A 
BRANCH  49  50
ATOM     50  C   UNL     1      13.455  -1.281   1.260  1.00  0.00     0.031 A 
ATOM     51  C   UNL     1      14.043  -2.634   0.968  1.00  0.00     0.074 A 
ATOM     52  C   UNL     1      13.683  -0.689   2.448  1.00  0.00     0.049 A 
ATOM     53  N   UNL     1      14.820  -3.377   1.717  1.00  0.00    -0.248 NA
ATOM     54  C   UNL     1      13.697  -3.245  -0.325  1.00  0.00     0.031 C 
ATOM     55  C   UNL     1      13.118   0.594   2.872  1.00  0.00     0.029 A 
ATOM     56  N   UNL     1      14.447  -1.084   3.517  1.00  0.00    -0.354 N 
ATOM     57  C   UNL     1      15.061  -4.532   0.984  1.00  0.00     0.074 A 
ATOM     58  C   UNL     1      14.293  -4.425  -0.237  1.00  0.00     0.031 C 
ATOM     59  C   UNL     1      13.577   0.893   4.098  1.00  0.00     0.029 A 
ATOM     60  C   UNL     1      14.441  -0.189   4.559  1.00  0.00     0.049 A 
ATOM     61  H   UNL     1      14.952  -1.929   3.535  1.00  0.00     0.167 HD
ATOM     62  C   UNL     1      15.873  -5.572   1.289  1.00  0.00     0.037 A 
ATOM     63  C   UNL     1      15.062  -0.237   5.752  1.00  0.00     0.037 A 
ATOM     64  C   UNL     1      16.640  -5.675   2.504  1.00  0.00     0.049 A 
ATOM     65  C   UNL     1      15.956  -1.406   6.065  1.00  0.00     0.074 A 
ATOM     66  C   UNL     1      17.513  -6.675   2.893  1.00  0.00     0.029 A 
ATOM     67  N   UNL     1      16.623  -4.740   3.529  1.00  0.00    -0.354 N 
ATOM     68  N   UNL     1      16.229  -2.459   5.334  1.00  0.00    -0.248 NA
ATOM     69  C   UNL     1      16.642  -1.384   7.364  1.00  0.00     0.031 C 
ATOM     70  C   UNL     1      17.992  -6.367   4.171  1.00  0.00     0.029 A 
ATOM     71  C   UNL     1      17.459  -5.148   4.556  1.00  0.00     0.049 A 
ATOM     72  H   UNL     1      16.094  -3.909   3.527  1.00  0.00     0.167 HD
ATOM     73  C   UNL     1      17.132  -3.212   6.071  1.00  0.00     0.074 A 
ATOM     74  C   UNL     1      17.384  -2.480   7.295  1.00  0.00     0.031 C 
ATOM     75  C   UNL     1      17.698  -4.407   5.768  1.00  0.00     0.037 A 
BRANCH  62  76
ATOM     76  C   UNL     1      15.992  -6.680   0.280  1.00  0.00     0.064 A 
ATOM     77  C   UNL     1      16.650  -6.484  -0.944  1.00  0.00     0.173 A 
ATOM     78  C   UNL     1      15.491  -7.960   0.557  1.00  0.00     0.173 A 
ATOM     79  F   UNL     1      17.137  -5.276  -1.264  1.00  0.00    -0.203 F 
ATOM     80  C   UNL     1      16.781  -7.523  -1.863  1.00  0.00     0.198 A 
ATOM     81  C   UNL     1      15.651  -9.005  -0.351  1.00  0.00     0.198 A 
ATOM     82  F   UNL     1      14.858  -8.204   1.714  1.00  0.00    -0.203 F 
ATOM     83  F   UNL     1      17.375  -7.300  -3.043  1.00  0.00    -0.200 F 
ATOM     84  C   UNL     1      16.290  -8.784  -1.562  1.00  0.00     0.200 A 
ATOM     85  F   UNL     1      15.189 -10.227  -0.052  1.00  0.00    -0.200 F 
ATOM     86  F   UNL     1      16.428  -9.786  -2.441  1.00  0.00    -0.200 F 
ENDBRANCH  62  76
BRANCH  63  87
ATOM     87  C   UNL     1      14.873   0.863   6.735  1.00  0.00     0.064 A 
ATOM     88  C   UNL     1      15.928   1.720   7.078  1.00  0.00     0.173 A 
ATOM     89  C   UNL     1      13.637   1.067   7.366  1.00  0.00     0.173 A 
ATOM     90  F   UNL     1      17.135   1.555   6.515  1.00  0.00    -0.203 F 
ATOM     91  C   UNL     1      15.764   2.716   8.038  1.00  0.00     0.198 A 
ATOM     92  C   UNL     1      13.465   2.086   8.301  1.00  0.00     0.198 A 
ATOM     93  F   UNL     1      12.592   0.281   7.068  1.00  0.00    -0.203 F 
ATOM     94  F   UNL     1      16.806   3.482   8.389  1.00  0.00    -0.200 F 
ATOM     95  C   UNL     1      14.531   2.902   8.645  1.00  0.00     0.200 A 
ATOM     96  F   UNL     1      12.267   2.272   8.872  1.00  0.00    -0.200 F 
ATOM     97  F   UNL     1      14.374   3.860   9.568  1.00  0.00    -0.200 F 
ENDBRANCH  63  87
BRANCH  75  98
ATOM     98  C   UNL     1      18.663  -4.978   6.767  1.00  0.00     0.064 A 
ATOM     99  C   UNL     1      18.233  -5.464   8.011  1.00  0.00     0.173 A 
ATOM    100  C   UNL     1      20.032  -5.052   6.472  1.00  0.00     0.173 A 
ATOM    101  F   UNL     1      16.935  -5.404   8.348  1.00  0.00    -0.203 F 
ATOM    102  C   UNL     1      19.143  -5.966   8.938  1.00  0.00     0.198 A 
ATOM    103  C   UNL     1      20.936  -5.585   7.387  1.00  0.00     0.198 A 
ATOM    104  F   UNL     1      20.496  -4.609   5.293  1.00  0.00    -0.203 F 
ATOM    105  F   UNL     1      18.717  -6.365  10.144  1.00  0.00    -0.200 F 
ATOM    106  C   UNL     1      20.492  -6.031   8.623  1.00  0.00     0.200 A 
ATOM    107  F   UNL     1      22.237  -5.661   7.076  1.00  0.00    -0.200 F 
ATOM    108  F   UNL     1      21.367  -6.513   9.516  1.00  0.00    -0.200 F 
ENDBRANCH  75  98
ENDBRANCH  49  50
ENDBRANCH  41  44
ENDBRANCH  39  40
ENDBRANCH  38  39
ENDBRANCH  37  38
ENDBRANCH  36  37
ENDBRANCH  35  36
ENDBRANCH  34  35
ENDBRANCH   3  34
TORSDOF 21
