REMARK SMILES C[C@]12C(=O)N(c3ccc(C(=O)NCCCCCCNC(=O)c4ccc(-c5c6nc(c(-c7c(F)c(F)c(F)c(F)c7F)c7ccc([nH]7)c(-c7c(F)c(F)c(F)c(F)c7F)c7nc(c(-c8c(F)c(F)c(F)c(F)c8F)c8ccc5[nH]8)C=C7)C=C6)cc4)cc3)C(=O)[C@H]1[C@H]1c3ccccc3[C@@H]2c2ccccc21
REMARK SMILES IDX 16 1 15 2 14 3 13 4 12 5 10 6 11 7 9 9 6 10 7 11 86 12 8 13
REMARK SMILES IDX 85 14 5 15 1 16 2 17 3 18 89 19 97 20 4 21 87 22 90 23 96 24
REMARK SMILES IDX 98 25 88 26 91 27 103 28 95 29 99 30 92 31 102 32 94 33
REMARK SMILES IDX 100 34 93 35 101 36 17 37 18 38 19 39 20 40 21 42 22 43
REMARK SMILES IDX 23 44 84 45 24 46 83 47 25 48 26 49 27 50 77 51 28 52 82 53
REMARK SMILES IDX 76 54 78 55 29 56 81 57 75 58 74 59 30 61 62 62 42 63 61 64
REMARK SMILES IDX 43 65 46 66 60 67 79 68 44 69 45 70 59 72 80 73 47 74 31 75
REMARK SMILES IDX 32 76 40 77 33 78 34 79 38 80 41 81 35 82 36 83 39 84 37 85
REMARK SMILES IDX 63 86 64 87 72 88 65 89 66 90 70 91 73 92 67 93 68 94 71 95
REMARK SMILES IDX 69 96 48 97 49 98 57 99 50 100 51 101 55 102 58 103 52 104
REMARK SMILES IDX 53 105 56 106 54 107
REMARK H PARENT 12 8 19 41 78 60 46 71
REMARK Flexibility Score: inf
ROOT
ATOM      1  C   UNL     1      -2.827  12.344  -2.850  1.00  0.00     0.002 C 
ENDROOT
BRANCH   1   2
ATOM      2  C   UNL     1      -1.669  12.076  -1.885  1.00  0.00     0.002 C 
BRANCH   2   3
ATOM      3  C   UNL     1      -1.591  10.682  -1.260  1.00  0.00     0.021 C 
BRANCH   3   4
ATOM      4  C   UNL     1      -1.667   9.503  -2.221  1.00  0.00     0.116 C 
BRANCH   4   5
ATOM      5  N   UNL     1      -0.532   9.428  -3.116  1.00  0.00    -0.352 N 
ATOM      6  C   UNL     1       0.351   8.401  -3.326  1.00  0.00     0.251 C 
ATOM      7  O   UNL     1       1.313   8.573  -4.070  1.00  0.00    -0.269 OA
ATOM      8  H   UNL     1      -0.371  10.236  -3.655  1.00  0.00     0.163 HD
BRANCH   6   9
ATOM      9  C   UNL     1       0.181   7.094  -2.650  1.00  0.00     0.039 A 
ATOM     10  C   UNL     1      -0.006   4.519  -1.467  1.00  0.00     0.052 A 
ATOM     11  C   UNL     1       1.221   5.203  -1.556  1.00  0.00     0.027 A 
ATOM     12  C   UNL     1      -1.141   5.177  -1.962  1.00  0.00     0.027 A 
ATOM     13  C   UNL     1       1.317   6.470  -2.143  1.00  0.00     0.016 A 
ATOM     14  C   UNL     1      -1.045   6.433  -2.578  1.00  0.00     0.016 A 
BRANCH  10  15
ATOM     15  N   UNL     1      -0.056   3.137  -1.101  1.00  0.00    -0.250 N 
ATOM     16  C   UNL     1       1.318   0.002  -0.189  1.00  0.00     0.024 C 
ATOM     17  C   UNL     1       0.776   0.959  -1.260  1.00  0.00     0.071 C 
ATOM     18  C   UNL     1       1.063   2.378  -0.844  1.00  0.00     0.241 C 
ATOM     19  C   UNL     1      -0.775   0.904  -1.349  1.00  0.00     0.107 C 
ATOM     20  C   UNL     1       1.399   0.729  -2.686  1.00  0.00     0.066 C 
ATOM     21  O   UNL     1       2.141   2.722  -0.382  1.00  0.00    -0.273 OA
ATOM     22  C   UNL     1      -1.186   2.345  -1.114  1.00  0.00     0.238 C 
ATOM     23  C   UNL     1      -1.221   0.432  -2.774  1.00  0.00     0.063 C 
ATOM     24  C   UNL     1       0.704   1.674  -3.683  1.00  0.00    -0.036 A 
ATOM     25  C   UNL     1       0.965  -0.680  -3.076  1.00  0.00    -0.036 A 
ATOM     26  O   UNL     1      -2.359   2.673  -0.982  1.00  0.00    -0.274 OA
ATOM     27  C   UNL     1      -0.704   1.492  -3.749  1.00  0.00    -0.036 A 
ATOM     28  C   UNL     1      -0.447  -0.851  -3.091  1.00  0.00    -0.036 A 
ATOM     29  C   UNL     1       1.311   2.680  -4.420  1.00  0.00     0.005 A 
ATOM     30  C   UNL     1       1.822  -1.718  -3.411  1.00  0.00     0.005 A 
ATOM     31  C   UNL     1      -1.497   2.300  -4.553  1.00  0.00     0.004 A 
ATOM     32  C   UNL     1      -0.994  -2.073  -3.449  1.00  0.00     0.004 A 
ATOM     33  C   UNL     1       0.509   3.502  -5.220  1.00  0.00     0.000 A 
ATOM     34  C   UNL     1       1.264  -2.944  -3.766  1.00  0.00     0.000 A 
ATOM     35  C   UNL     1      -0.880   3.310  -5.290  1.00  0.00     0.000 A 
ATOM     36  C   UNL     1      -0.129  -3.120  -3.784  1.00  0.00     0.000 A 
ENDBRANCH  10  15
ENDBRANCH   6   9
ENDBRANCH   4   5
ENDBRANCH   3   4
ENDBRANCH   2   3
ENDBRANCH   1   2
BRANCH   1  37
ATOM     37  C   UNL     1      -4.222  11.917  -2.393  1.00  0.00     0.021 C 
BRANCH  37  38
ATOM     38  C   UNL     1      -4.660  12.409  -1.021  1.00  0.00     0.116 C 
BRANCH  38  39
ATOM     39  N   UNL     1      -4.858  13.846  -0.955  1.00  0.00    -0.352 N 
ATOM     40  C   UNL     1      -5.946  14.553  -0.498  1.00  0.00     0.251 C 
ATOM     41  H   UNL     1      -4.108  14.391  -1.285  1.00  0.00     0.163 HD
ATOM     42  O   UNL     1      -5.979  15.775  -0.603  1.00  0.00    -0.269 OA
BRANCH  40  43
ATOM     43  C   UNL     1      -7.108  13.834   0.074  1.00  0.00     0.039 A 
ATOM     44  C   UNL     1      -6.937  12.815   1.014  1.00  0.00     0.014 A 
ATOM     45  C   UNL     1      -8.390  14.166  -0.372  1.00  0.00     0.014 A 
ATOM     46  C   UNL     1      -8.021  12.018   1.373  1.00  0.00     0.010 A 
ATOM     47  C   UNL     1      -9.490  13.414   0.051  1.00  0.00     0.010 A 
ATOM     48  C   UNL     1      -9.307  12.299   0.883  1.00  0.00    -0.014 A 
BRANCH  48  49
ATOM     49  C   UNL     1     -10.442  11.400   1.222  1.00  0.00     0.031 A 
ATOM     50  C   UNL     1     -11.117  10.583   0.153  1.00  0.00     0.074 A 
ATOM     51  C   UNL     1     -10.834  11.277   2.505  1.00  0.00     0.049 A 
ATOM     52  N   UNL     1     -12.128   9.755   0.257  1.00  0.00    -0.248 NA
ATOM     53  C   UNL     1     -10.590  10.711  -1.215  1.00  0.00     0.031 C 
ATOM     54  C   UNL     1     -10.245  11.995   3.636  1.00  0.00     0.029 A 
ATOM     55  N   UNL     1     -11.803  10.492   3.075  1.00  0.00    -0.354 N 
ATOM     56  C   UNL     1     -12.367   9.281  -1.026  1.00  0.00     0.074 A 
ATOM     57  C   UNL     1     -11.414   9.931  -1.901  1.00  0.00     0.031 C 
ATOM     58  C   UNL     1     -10.831  11.581   4.769  1.00  0.00     0.029 A 
ATOM     59  C   UNL     1     -11.876  10.616   4.441  1.00  0.00     0.049 A 
ATOM     60  H   UNL     1     -12.390   9.896   2.556  1.00  0.00     0.167 HD
ATOM     61  C   UNL     1     -13.287   8.376  -1.436  1.00  0.00     0.037 A 
ATOM     62  C   UNL     1     -12.699  10.028   5.329  1.00  0.00     0.037 A 
ATOM     63  C   UNL     1     -14.220   7.710  -0.564  1.00  0.00     0.049 A 
ATOM     64  C   UNL     1     -13.746   9.067   4.841  1.00  0.00     0.074 A 
ATOM     65  C   UNL     1     -15.182   6.768  -0.887  1.00  0.00     0.029 A 
ATOM     66  N   UNL     1     -14.304   7.913   0.805  1.00  0.00    -0.354 N 
ATOM     67  N   UNL     1     -13.971   8.639   3.623  1.00  0.00    -0.248 NA
ATOM     68  C   UNL     1     -14.662   8.519   5.850  1.00  0.00     0.031 C 
ATOM     69  C   UNL     1     -15.872   6.427   0.281  1.00  0.00     0.029 A 
ATOM     70  C   UNL     1     -15.313   7.126   1.338  1.00  0.00     0.049 A 
ATOM     71  H   UNL     1     -13.732   8.524   1.322  1.00  0.00     0.167 HD
ATOM     72  C   UNL     1     -15.047   7.769   3.718  1.00  0.00     0.074 A 
ATOM     73  C   UNL     1     -15.416   7.711   5.117  1.00  0.00     0.031 C 
ATOM     74  C   UNL     1     -15.675   7.085   2.732  1.00  0.00     0.037 A 
BRANCH  61  75
ATOM     75  C   UNL     1     -13.341   8.049  -2.900  1.00  0.00     0.064 A 
ATOM     76  C   UNL     1     -12.358   7.257  -3.511  1.00  0.00     0.173 A 
ATOM     77  C   UNL     1     -14.420   8.481  -3.686  1.00  0.00     0.173 A 
ATOM     78  F   UNL     1     -11.301   6.829  -2.805  1.00  0.00    -0.203 F 
ATOM     79  C   UNL     1     -12.445   6.922  -4.860  1.00  0.00     0.198 A 
ATOM     80  C   UNL     1     -14.516   8.125  -5.029  1.00  0.00     0.198 A 
ATOM     81  F   UNL     1     -15.389   9.236  -3.148  1.00  0.00    -0.203 F 
ATOM     82  F   UNL     1     -11.478   6.192  -5.432  1.00  0.00    -0.200 F 
ATOM     83  C   UNL     1     -13.528   7.349  -5.616  1.00  0.00     0.200 A 
ATOM     84  F   UNL     1     -15.568   8.528  -5.755  1.00  0.00    -0.200 F 
ATOM     85  F   UNL     1     -13.615   7.017  -6.911  1.00  0.00    -0.200 F 
ENDBRANCH  61  75
BRANCH  62  86
ATOM     86  C   UNL     1     -12.557  10.338   6.773  1.00  0.00     0.064 A 
ATOM     87  C   UNL     1     -12.051   9.382   7.664  1.00  0.00     0.173 A 
ATOM     88  C   UNL     1     -12.891  11.600   7.285  1.00  0.00     0.173 A 
ATOM     89  F   UNL     1     -11.739   8.155   7.224  1.00  0.00    -0.203 F 
ATOM     90  C   UNL     1     -11.885   9.678   9.015  1.00  0.00     0.198 A 
ATOM     91  C   UNL     1     -12.701  11.902   8.631  1.00  0.00     0.198 A 
ATOM     92  F   UNL     1     -13.378  12.547   6.471  1.00  0.00    -0.203 F 
ATOM     93  F   UNL     1     -11.423   8.739   9.852  1.00  0.00    -0.200 F 
ATOM     94  C   UNL     1     -12.201  10.940   9.496  1.00  0.00     0.200 A 
ATOM     95  F   UNL     1     -12.993  13.127   9.088  1.00  0.00    -0.200 F 
ATOM     96  F   UNL     1     -12.026  11.229  10.793  1.00  0.00    -0.200 F 
ENDBRANCH  62  86
BRANCH  74  97
ATOM     97  C   UNL     1     -16.827   6.210   3.127  1.00  0.00     0.064 A 
ATOM     98  C   UNL     1     -18.071   6.756   3.476  1.00  0.00     0.173 A 
ATOM     99  C   UNL     1     -16.702   4.813   3.107  1.00  0.00     0.173 A 
ATOM    100  F   UNL     1     -18.234   8.087   3.523  1.00  0.00    -0.203 F 
ATOM    101  C   UNL     1     -19.145   5.934   3.806  1.00  0.00     0.198 A 
ATOM    102  C   UNL     1     -17.785   3.994   3.414  1.00  0.00     0.198 A 
ATOM    103  F   UNL     1     -15.534   4.243   2.775  1.00  0.00    -0.203 F 
ATOM    104  F   UNL     1     -20.314   6.477   4.170  1.00  0.00    -0.200 F 
ATOM    105  C   UNL     1     -19.003   4.555   3.767  1.00  0.00     0.200 A 
ATOM    106  F   UNL     1     -17.651   2.661   3.366  1.00  0.00    -0.200 F 
ATOM    107  F   UNL     1     -20.041   3.765   4.076  1.00  0.00    -0.200 F 
ENDBRANCH  74  97
ENDBRANCH  48  49
ENDBRANCH  40  43
ENDBRANCH  38  39
ENDBRANCH  37  38
ENDBRANCH   1  37
TORSDOF 14
