REMARK SMILES Cc1cc(CS(=O)(=O)[C@@H](C)CC(=O)NCCCCCCNC(=O)c2ccc(-c3c4nc(c(-c5c(F)c(F)c(F)c(F)c5F)c5ccc([nH]5)c(-c5c(F)c(F)c(F)c(F)c5F)c5nc(c(-c6c(F)c(F)c(F)c(F)c6F)c6ccc3[nH]6)C=C5)C=C4)cc2)c2ccccc2n1
REMARK SMILES IDX 16 1 15 2 14 3 12 4 13 5 11 7 9 8 10 9 6 10 7 11 8 12 5 13
REMARK SMILES IDX 4 14 1 15 2 16 3 17 93 18 92 19 87 20 91 21 88 22 90 23
REMARK SMILES IDX 89 24 17 25 18 26 19 27 20 28 21 29 22 30 23 32 24 33 25 34
REMARK SMILES IDX 86 35 26 36 85 37 27 38 28 39 29 40 79 41 30 42 84 43 78 44
REMARK SMILES IDX 80 45 31 46 83 47 77 48 76 49 32 51 64 52 44 53 63 54 45 55
REMARK SMILES IDX 48 56 62 57 81 58 46 59 47 60 61 62 82 63 49 64 33 65 34 66
REMARK SMILES IDX 42 67 35 68 36 69 40 70 43 71 37 72 38 73 41 74 39 75 65 76
REMARK SMILES IDX 66 77 74 78 67 79 68 80 72 81 75 82 69 83 70 84 73 85 71 86
REMARK SMILES IDX 50 87 51 88 59 89 52 90 53 91 57 92 60 93 54 94 55 95 58 96
REMARK SMILES IDX 56 97
REMARK H PARENT 14 6 21 31 80 50 48 61
REMARK Flexibility Score: inf
ROOT
ATOM      1  C   UNL     1       3.534   3.149   1.383  1.00  0.00     0.021 C 
ENDROOT
BRANCH   1   2
ATOM      2  C   UNL     1       2.538   2.021   1.648  1.00  0.00     0.116 C 
BRANCH   2   3
ATOM      3  N   UNL     1       2.220   1.875   3.051  1.00  0.00    -0.356 N 
ATOM      4  C   UNL     1       1.015   1.673   3.650  1.00  0.00     0.221 C 
ATOM      5  O   UNL     1       0.984   1.442   4.858  1.00  0.00    -0.275 OA
ATOM      6  H   UNL     1       2.989   1.931   3.664  1.00  0.00     0.163 HD
BRANCH   4   7
ATOM      7  C   UNL     1      -0.260   1.731   2.834  1.00  0.00     0.119 C 
BRANCH   7   8
ATOM      8  C   UNL     1      -0.778   3.151   2.643  1.00  0.00     0.115 C 
ATOM      9  C   UNL     1      -2.190   3.322   3.220  1.00  0.00     0.025 C 
BRANCH   8  10
ATOM     10  S   UNL     1      -0.677   3.908   0.985  1.00  0.00     0.157 S 
ATOM     11  O   UNL     1       0.583   4.639   0.976  1.00  0.00    -0.228 OA
ATOM     12  O   UNL     1      -1.901   4.674   0.796  1.00  0.00    -0.228 OA
BRANCH  10  13
ATOM     13  C   UNL     1      -0.590   2.821  -0.456  1.00  0.00     0.173 C 
BRANCH  13  14
ATOM     14  C   UNL     1      -1.032   1.396  -0.282  1.00  0.00    -0.022 A 
ATOM     15  C   UNL     1      -4.208  -0.548   0.374  1.00  0.00     0.067 C 
ATOM     16  C   UNL     1      -2.764  -0.176   0.245  1.00  0.00     0.038 A 
ATOM     17  C   UNL     1      -2.375   1.133   0.007  1.00  0.00     0.029 A 
ATOM     18  N   UNL     1      -1.884  -1.198   0.297  1.00  0.00    -0.253 NA
ATOM     19  C   UNL     1      -0.609  -0.980  -0.043  1.00  0.00     0.071 A 
ATOM     20  C   UNL     1      -0.139   0.289  -0.441  1.00  0.00     0.004 A 
ATOM     21  C   UNL     1       0.270  -2.055  -0.000  1.00  0.00     0.029 A 
ATOM     22  C   UNL     1       1.182   0.361  -0.953  1.00  0.00     0.010 A 
ATOM     23  C   UNL     1       1.589  -1.949  -0.434  1.00  0.00     0.002 A 
ATOM     24  C   UNL     1       2.031  -0.748  -0.957  1.00  0.00     0.001 A 
ENDBRANCH  13  14
ENDBRANCH  10  13
ENDBRANCH   8  10
ENDBRANCH   7   8
ENDBRANCH   4   7
ENDBRANCH   2   3
ENDBRANCH   1   2
BRANCH   1  25
ATOM     25  C   UNL     1       4.846   2.666   0.758  1.00  0.00     0.002 C 
BRANCH  25  26
ATOM     26  C   UNL     1       4.718   2.036  -0.633  1.00  0.00     0.002 C 
BRANCH  26  27
ATOM     27  C   UNL     1       4.099   2.922  -1.717  1.00  0.00     0.021 C 
BRANCH  27  28
ATOM     28  C   UNL     1       4.833   4.237  -1.955  1.00  0.00     0.116 C 
BRANCH  28  29
ATOM     29  N   UNL     1       6.231   4.022  -2.305  1.00  0.00    -0.352 N 
ATOM     30  C   UNL     1       6.887   4.220  -3.491  1.00  0.00     0.251 C 
ATOM     31  H   UNL     1       6.793   3.679  -1.573  1.00  0.00     0.163 HD
ATOM     32  O   UNL     1       8.006   3.734  -3.663  1.00  0.00    -0.269 OA
BRANCH  30  33
ATOM     33  C   UNL     1       6.258   5.006  -4.569  1.00  0.00     0.039 A 
ATOM     34  C   UNL     1       6.374   4.568  -5.892  1.00  0.00     0.014 A 
ATOM     35  C   UNL     1       5.576   6.190  -4.280  1.00  0.00     0.014 A 
ATOM     36  C   UNL     1       5.739   5.276  -6.915  1.00  0.00     0.010 A 
ATOM     37  C   UNL     1       4.879   6.849  -5.286  1.00  0.00     0.010 A 
ATOM     38  C   UNL     1       4.951   6.397  -6.612  1.00  0.00    -0.014 A 
BRANCH  38  39
ATOM     39  C   UNL     1       4.175   7.112  -7.655  1.00  0.00     0.031 A 
ATOM     40  C   UNL     1       4.473   8.553  -7.957  1.00  0.00     0.074 A 
ATOM     41  C   UNL     1       3.136   6.492  -8.247  1.00  0.00     0.049 A 
ATOM     42  N   UNL     1       3.820   9.392  -8.722  1.00  0.00    -0.248 NA
ATOM     43  C   UNL     1       5.642   9.140  -7.283  1.00  0.00     0.031 C 
ATOM     44  C   UNL     1       2.721   5.111  -7.997  1.00  0.00     0.029 A 
ATOM     45  N   UNL     1       2.222   6.952  -9.163  1.00  0.00    -0.354 N 
ATOM     46  C   UNL     1       4.484  10.605  -8.601  1.00  0.00     0.074 A 
ATOM     47  C   UNL     1       5.560  10.409  -7.655  1.00  0.00     0.031 C 
ATOM     48  C   UNL     1       1.644   4.832  -8.748  1.00  0.00     0.029 A 
ATOM     49  C   UNL     1       1.265   6.025  -9.496  1.00  0.00     0.049 A 
ATOM     50  H   UNL     1       2.251   7.859  -9.544  1.00  0.00     0.167 HD
ATOM     51  C   UNL     1       4.227  11.772  -9.239  1.00  0.00     0.037 A 
ATOM     52  C   UNL     1       0.190   6.133 -10.300  1.00  0.00     0.037 A 
ATOM     53  C   UNL     1       3.173  11.949 -10.203  1.00  0.00     0.049 A 
ATOM     54  C   UNL     1      -0.077   7.443 -10.990  1.00  0.00     0.074 A 
ATOM     55  C   UNL     1       2.881  13.064 -10.968  1.00  0.00     0.029 A 
ATOM     56  N   UNL     1       2.235  10.980 -10.531  1.00  0.00    -0.354 N 
ATOM     57  N   UNL     1       0.600   8.563 -10.926  1.00  0.00    -0.248 NA
ATOM     58  C   UNL     1      -1.257   7.503 -11.863  1.00  0.00     0.031 C 
ATOM     59  C   UNL     1       1.737  12.786 -11.724  1.00  0.00     0.029 A 
ATOM     60  C   UNL     1       1.344  11.483 -11.465  1.00  0.00     0.049 A 
ATOM     61  H   UNL     1       2.207  10.071 -10.155  1.00  0.00     0.167 HD
ATOM     62  C   UNL     1      -0.059   9.456 -11.759  1.00  0.00     0.074 A 
ATOM     63  C   UNL     1      -1.180   8.740 -12.334  1.00  0.00     0.031 C 
ATOM     64  C   UNL     1       0.233  10.753 -12.021  1.00  0.00     0.037 A 
BRANCH  51  65
ATOM     65  C   UNL     1       5.103  12.949  -8.919  1.00  0.00     0.064 A 
ATOM     66  C   UNL     1       6.446  12.998  -9.322  1.00  0.00     0.173 A 
ATOM     67  C   UNL     1       4.584  14.057  -8.233  1.00  0.00     0.173 A 
ATOM     68  F   UNL     1       6.994  11.960  -9.972  1.00  0.00    -0.203 F 
ATOM     69  C   UNL     1       7.245  14.099  -9.025  1.00  0.00     0.198 A 
ATOM     70  C   UNL     1       5.378  15.170  -7.963  1.00  0.00     0.198 A 
ATOM     71  F   UNL     1       3.305  14.066  -7.830  1.00  0.00    -0.203 F 
ATOM     72  F   UNL     1       8.538  14.102  -9.378  1.00  0.00    -0.200 F 
ATOM     73  C   UNL     1       6.709  15.187  -8.352  1.00  0.00     0.200 A 
ATOM     74  F   UNL     1       4.854  16.225  -7.324  1.00  0.00    -0.200 F 
ATOM     75  F   UNL     1       7.477  16.249  -8.073  1.00  0.00    -0.200 F 
ENDBRANCH  51  65
BRANCH  52  76
ATOM     76  C   UNL     1      -0.706   4.965 -10.501  1.00  0.00     0.064 A 
ATOM     77  C   UNL     1      -0.748   4.296 -11.732  1.00  0.00     0.173 A 
ATOM     78  C   UNL     1      -1.529   4.488  -9.470  1.00  0.00     0.173 A 
ATOM     79  F   UNL     1       0.007   4.727 -12.753  1.00  0.00    -0.203 F 
ATOM     80  C   UNL     1      -1.591   3.204 -11.930  1.00  0.00     0.198 A 
ATOM     81  C   UNL     1      -2.352   3.380  -9.661  1.00  0.00     0.198 A 
ATOM     82  F   UNL     1      -1.522   5.088  -8.271  1.00  0.00    -0.203 F 
ATOM     83  F   UNL     1      -1.639   2.608 -13.128  1.00  0.00    -0.200 F 
ATOM     84  C   UNL     1      -2.387   2.743 -10.893  1.00  0.00     0.200 A 
ATOM     85  F   UNL     1      -3.107   2.927  -8.651  1.00  0.00    -0.200 F 
ATOM     86  F   UNL     1      -3.192   1.688 -11.081  1.00  0.00    -0.200 F 
ENDBRANCH  52  76
BRANCH  64  87
ATOM     87  C   UNL     1      -0.664  11.478 -12.980  1.00  0.00     0.064 A 
ATOM     88  C   UNL     1      -1.958  11.876 -12.611  1.00  0.00     0.173 A 
ATOM     89  C   UNL     1      -0.208  11.823 -14.261  1.00  0.00     0.173 A 
ATOM     90  F   UNL     1      -2.444  11.553 -11.403  1.00  0.00    -0.203 F 
ATOM     91  C   UNL     1      -2.768  12.579 -13.498  1.00  0.00     0.198 A 
ATOM     92  C   UNL     1      -1.011  12.550 -15.134  1.00  0.00     0.198 A 
ATOM     93  F   UNL     1       1.023  11.469 -14.658  1.00  0.00    -0.203 F 
ATOM     94  F   UNL     1      -4.016  12.914 -13.140  1.00  0.00    -0.200 F 
ATOM     95  C   UNL     1      -2.292  12.923 -14.754  1.00  0.00     0.200 A 
ATOM     96  F   UNL     1      -0.545  12.893 -16.343  1.00  0.00    -0.200 F 
ATOM     97  F   UNL     1      -3.070  13.609 -15.602  1.00  0.00    -0.200 F 
ENDBRANCH  64  87
ENDBRANCH  38  39
ENDBRANCH  30  33
ENDBRANCH  28  29
ENDBRANCH  27  28
ENDBRANCH  26  27
ENDBRANCH  25  26
ENDBRANCH   1  25
TORSDOF 17
