REMARK SMILES CC1=NN(c2ccc(C(=O)NCCCCCCNC(=O)c3ccc(-c4c5nc(c(-c6c(F)c(F)c(F)c(F)c6F)c6ccc([nH]6)c(-c6c(F)c(F)c(F)c(F)c6F)c6nc(c(-c7c(F)c(F)c(F)c(F)c7F)c7ccc4[nH]7)C=C6)C=C5)cc3)cc2)C(=O)/C1=C\c1ccc(N2CCCC2)cc1
REMARK SMILES IDX 14 1 13 2 12 3 11 4 9 5 10 6 8 8 5 9 6 10 85 11 7 12 84 13
REMARK SMILES IDX 4 14 1 15 2 16 3 17 88 18 86 19 89 20 87 21 90 22 91 23
REMARK SMILES IDX 100 24 92 25 99 26 93 27 94 28 95 29 98 30 96 31 97 32 15 33
REMARK SMILES IDX 16 34 17 35 18 36 19 37 20 39 21 40 22 41 83 42 23 43 82 44
REMARK SMILES IDX 24 45 25 46 26 47 76 48 27 49 81 50 75 51 77 52 28 53 80 54
REMARK SMILES IDX 74 55 73 56 29 58 61 59 41 60 60 61 42 62 45 63 59 64 78 65
REMARK SMILES IDX 43 66 44 67 58 69 79 70 46 71 30 72 31 73 39 74 32 75 33 76
REMARK SMILES IDX 37 77 40 78 34 79 35 80 38 81 36 82 62 83 63 84 71 85 64 86
REMARK SMILES IDX 65 87 69 88 72 89 66 90 67 91 70 92 68 93 47 94 48 95 56 96
REMARK SMILES IDX 49 97 50 98 54 99 57 100 51 101 52 102 55 103 53 104
REMARK H PARENT 11 7 18 38 77 57 45 68
REMARK Flexibility Score: inf
ROOT
ATOM      1  C   UNL     1       5.090   7.719  -3.643  1.00  0.00     0.002 C 
ENDROOT
BRANCH   1   2
ATOM      2  C   UNL     1       4.322   6.445  -3.266  1.00  0.00     0.021 C 
BRANCH   2   3
ATOM      3  C   UNL     1       4.731   5.901  -1.895  1.00  0.00     0.116 C 
BRANCH   3   4
ATOM      4  N   UNL     1       4.062   6.657  -0.854  1.00  0.00    -0.352 N 
ATOM      5  C   UNL     1       2.932   6.431  -0.111  1.00  0.00     0.251 C 
ATOM      6  O   UNL     1       2.583   7.316   0.669  1.00  0.00    -0.269 OA
ATOM      7  H   UNL     1       4.511   7.506  -0.636  1.00  0.00     0.163 HD
BRANCH   5   8
ATOM      8  C   UNL     1       2.166   5.153  -0.149  1.00  0.00     0.039 A 
ATOM      9  C   UNL     1       0.914   2.650   0.069  1.00  0.00     0.069 A 
ATOM     10  C   UNL     1       0.744   3.594   1.080  1.00  0.00     0.029 A 
ATOM     11  C   UNL     1       1.619   2.992  -1.085  1.00  0.00     0.029 A 
ATOM     12  C   UNL     1       1.404   4.825   0.986  1.00  0.00     0.016 A 
ATOM     13  C   UNL     1       2.175   4.261  -1.221  1.00  0.00     0.016 A 
BRANCH   9  14
ATOM     14  N   UNL     1       0.409   1.353   0.201  1.00  0.00    -0.196 N 
ATOM     15  C   UNL     1      -2.532  -0.698   0.156  1.00  0.00     0.069 C 
ATOM     16  C   UNL     1      -1.171  -0.091   0.189  1.00  0.00     0.071 C 
ATOM     17  N   UNL     1      -0.954   1.185   0.374  1.00  0.00    -0.169 NA
ATOM     18  C   UNL     1       0.078  -0.853  -0.007  1.00  0.00     0.065 C 
ATOM     19  C   UNL     1       1.124   0.191  -0.109  1.00  0.00     0.280 C 
ATOM     20  C   UNL     1       0.230  -2.184  -0.003  1.00  0.00     0.024 C 
ATOM     21  O   UNL     1       2.291   0.049  -0.410  1.00  0.00    -0.267 OA
BRANCH  20  22
ATOM     22  C   UNL     1       1.543  -2.839   0.039  1.00  0.00    -0.025 A 
ATOM     23  C   UNL     1       2.002  -3.620  -1.020  1.00  0.00     0.010 A 
ATOM     24  C   UNL     1       2.361  -2.681   1.163  1.00  0.00     0.010 A 
ATOM     25  C   UNL     1       3.277  -4.207  -0.960  1.00  0.00     0.026 A 
ATOM     26  C   UNL     1       3.623  -3.281   1.216  1.00  0.00     0.026 A 
ATOM     27  C   UNL     1       4.109  -4.057   0.159  1.00  0.00     0.037 A 
BRANCH  27  28
ATOM     28  N   UNL     1       5.361  -4.629   0.188  1.00  0.00    -0.372 N 
ATOM     29  C   UNL     1       5.995  -5.150   1.394  1.00  0.00     0.116 C 
ATOM     30  C   UNL     1       6.348  -4.258  -0.825  1.00  0.00     0.116 C 
ATOM     31  C   UNL     1       7.447  -4.707   1.258  1.00  0.00     0.023 C 
ATOM     32  C   UNL     1       7.677  -4.745  -0.246  1.00  0.00     0.023 C 
ENDBRANCH  27  28
ENDBRANCH  20  22
ENDBRANCH   9  14
ENDBRANCH   5   8
ENDBRANCH   3   4
ENDBRANCH   2   3
ENDBRANCH   1   2
BRANCH   1  33
ATOM     33  C   UNL     1       6.605   7.523  -3.786  1.00  0.00     0.002 C 
BRANCH  33  34
ATOM     34  C   UNL     1       7.012   6.441  -4.789  1.00  0.00     0.021 C 
BRANCH  34  35
ATOM     35  C   UNL     1       6.565   6.731  -6.217  1.00  0.00     0.116 C 
BRANCH  35  36
ATOM     36  N   UNL     1       7.204   7.930  -6.739  1.00  0.00    -0.352 N 
ATOM     37  C   UNL     1       8.029   8.070  -7.825  1.00  0.00     0.251 C 
ATOM     38  H   UNL     1       7.018   8.758  -6.241  1.00  0.00     0.163 HD
ATOM     39  O   UNL     1       8.696   9.088  -7.973  1.00  0.00    -0.269 OA
BRANCH  37  40
ATOM     40  C   UNL     1       8.116   6.980  -8.816  1.00  0.00     0.039 A 
ATOM     41  C   UNL     1       9.369   6.608  -9.309  1.00  0.00     0.014 A 
ATOM     42  C   UNL     1       6.960   6.333  -9.264  1.00  0.00     0.014 A 
ATOM     43  C   UNL     1       9.467   5.546 -10.209  1.00  0.00     0.010 A 
ATOM     44  C   UNL     1       7.067   5.227 -10.099  1.00  0.00     0.010 A 
ATOM     45  C   UNL     1       8.321   4.824 -10.582  1.00  0.00    -0.014 A 
BRANCH  45  46
ATOM     46  C   UNL     1       8.412   3.643 -11.476  1.00  0.00     0.031 A 
ATOM     47  C   UNL     1       7.742   3.663 -12.821  1.00  0.00     0.074 A 
ATOM     48  C   UNL     1       9.049   2.535 -11.050  1.00  0.00     0.049 A 
ATOM     49  N   UNL     1       7.632   2.704 -13.706  1.00  0.00    -0.248 NA
ATOM     50  C   UNL     1       7.088   4.921 -13.217  1.00  0.00     0.031 C 
ATOM     51  C   UNL     1       9.711   2.385  -9.753  1.00  0.00     0.029 A 
ATOM     52  N   UNL     1       9.235   1.319 -11.658  1.00  0.00    -0.354 N 
ATOM     53  C   UNL     1       6.901   3.241 -14.757  1.00  0.00     0.074 A 
ATOM     54  C   UNL     1       6.537   4.589 -14.376  1.00  0.00     0.031 C 
ATOM     55  C   UNL     1      10.250   1.158  -9.672  1.00  0.00     0.029 A 
ATOM     56  C   UNL     1       9.929   0.417 -10.887  1.00  0.00     0.049 A 
ATOM     57  H   UNL     1       8.903   1.112 -12.562  1.00  0.00     0.167 HD
ATOM     58  C   UNL     1       6.586   2.671 -15.944  1.00  0.00     0.037 A 
ATOM     59  C   UNL     1      10.253  -0.867 -11.129  1.00  0.00     0.037 A 
ATOM     60  C   UNL     1       6.957   1.333 -16.323  1.00  0.00     0.049 A 
ATOM     61  C   UNL     1       9.838  -1.491 -12.437  1.00  0.00     0.074 A 
ATOM     62  C   UNL     1       6.708   0.672 -17.513  1.00  0.00     0.029 A 
ATOM     63  N   UNL     1       7.657   0.449 -15.514  1.00  0.00    -0.354 N 
ATOM     64  N   UNL     1       9.195  -0.955 -13.445  1.00  0.00    -0.248 NA
ATOM     65  C   UNL     1      10.198  -2.901 -12.639  1.00  0.00     0.031 C 
ATOM     66  C   UNL     1       7.211  -0.628 -17.406  1.00  0.00     0.029 A 
ATOM     67  C   UNL     1       7.828  -0.758 -16.173  1.00  0.00     0.049 A 
ATOM     68  H   UNL     1       7.983   0.650 -14.607  1.00  0.00     0.167 HD
ATOM     69  C   UNL     1       9.108  -1.946 -14.414  1.00  0.00     0.074 A 
ATOM     70  C   UNL     1       9.783  -3.110 -13.880  1.00  0.00     0.031 C 
ATOM     71  C   UNL     1       8.520  -1.901 -15.634  1.00  0.00     0.037 A 
BRANCH  58  72
ATOM     72  C   UNL     1       5.810   3.495 -16.932  1.00  0.00     0.064 A 
ATOM     73  C   UNL     1       6.390   4.594 -17.584  1.00  0.00     0.173 A 
ATOM     74  C   UNL     1       4.496   3.146 -17.279  1.00  0.00     0.173 A 
ATOM     75  F   UNL     1       7.639   4.977 -17.281  1.00  0.00    -0.203 F 
ATOM     76  C   UNL     1       5.677   5.324 -18.531  1.00  0.00     0.198 A 
ATOM     77  C   UNL     1       3.798   3.859 -18.250  1.00  0.00     0.198 A 
ATOM     78  F   UNL     1       3.895   2.101 -16.690  1.00  0.00    -0.203 F 
ATOM     79  F   UNL     1       6.238   6.395 -19.111  1.00  0.00    -0.200 F 
ATOM     80  C   UNL     1       4.386   4.950 -18.871  1.00  0.00     0.200 A 
ATOM     81  F   UNL     1       2.556   3.486 -18.589  1.00  0.00    -0.200 F 
ATOM     82  F   UNL     1       3.708   5.643 -19.796  1.00  0.00    -0.200 F 
ENDBRANCH  58  72
BRANCH  59  83
ATOM     83  C   UNL     1      11.009  -1.660 -10.121  1.00  0.00     0.064 A 
ATOM     84  C   UNL     1      12.300  -2.132 -10.398  1.00  0.00     0.173 A 
ATOM     85  C   UNL     1      10.441  -2.007  -8.887  1.00  0.00     0.173 A 
ATOM     86  F   UNL     1      12.881  -1.845 -11.573  1.00  0.00    -0.203 F 
ATOM     87  C   UNL     1      12.976  -2.954  -9.498  1.00  0.00     0.198 A 
ATOM     88  C   UNL     1      11.133  -2.798  -7.972  1.00  0.00     0.198 A 
ATOM     89  F   UNL     1       9.211  -1.578  -8.567  1.00  0.00    -0.203 F 
ATOM     90  F   UNL     1      14.177  -3.451  -9.822  1.00  0.00    -0.200 F 
ATOM     91  C   UNL     1      12.393  -3.284  -8.285  1.00  0.00     0.200 A 
ATOM     92  F   UNL     1      10.572  -3.101  -6.793  1.00  0.00    -0.200 F 
ATOM     93  F   UNL     1      13.038  -4.083  -7.424  1.00  0.00    -0.200 F 
ENDBRANCH  59  83
BRANCH  71  94
ATOM     94  C   UNL     1       8.624  -3.127 -16.496  1.00  0.00     0.064 A 
ATOM     95  C   UNL     1       7.939  -4.311 -16.185  1.00  0.00     0.173 A 
ATOM     96  C   UNL     1       9.396  -3.105 -17.668  1.00  0.00     0.173 A 
ATOM     97  F   UNL     1       7.200  -4.390 -15.068  1.00  0.00    -0.203 F 
ATOM     98  C   UNL     1       8.050  -5.437 -16.997  1.00  0.00     0.198 A 
ATOM     99  C   UNL     1       9.475  -4.220 -18.497  1.00  0.00     0.198 A 
ATOM    100  F   UNL     1      10.065  -1.996 -18.017  1.00  0.00    -0.203 F 
ATOM    101  F   UNL     1       7.434  -6.575 -16.648  1.00  0.00    -0.200 F 
ATOM    102  C   UNL     1       8.810  -5.388 -18.156  1.00  0.00     0.200 A 
ATOM    103  F   UNL     1      10.195  -4.164 -19.626  1.00  0.00    -0.200 F 
ATOM    104  F   UNL     1       8.909  -6.470 -18.941  1.00  0.00    -0.200 F 
ENDBRANCH  71  94
ENDBRANCH  45  46
ENDBRANCH  37  40
ENDBRANCH  35  36
ENDBRANCH  34  35
ENDBRANCH  33  34
ENDBRANCH   1  33
TORSDOF 16
