REMARK SMILES NS(=O)(=O)c1ccc(-n2nc(C(F)F)cc2-c2ccc(C(=O)NCCCCCCNC(=O)c3ccc(-c4c5nc(c(-c6c(F)c(F)c(F)c(F)c6F)c6ccc([nH]6)c(-c6c(F)c(F)c(F)c(F)c6F)c6nc(c(-c7c(F)c(F)c(F)c(F)c7F)c7ccc4[nH]7)C=C6)C=C5)cc3)cc2)cc1
REMARK SMILES IDX 25 1 24 2 23 3 21 4 22 5 20 7 17 8 18 9 97 10 19 11 96 12
REMARK SMILES IDX 16 13 9 14 10 15 11 16 15 17 8 18 5 19 6 20 99 21 7 22 98 23
REMARK SMILES IDX 2 24 3 25 4 26 1 27 12 30 13 31 14 32 26 33 27 34 28 35
REMARK SMILES IDX 29 36 30 37 31 38 32 40 33 41 34 42 95 43 35 44 94 45 36 46
REMARK SMILES IDX 37 47 38 48 88 49 39 50 93 51 87 52 89 53 40 54 92 55 86 56
REMARK SMILES IDX 85 57 41 59 73 60 53 61 72 62 54 63 57 64 71 65 90 66 55 67
REMARK SMILES IDX 56 68 70 70 91 71 58 72 42 73 43 74 51 75 44 76 45 77 49 78
REMARK SMILES IDX 52 79 46 80 47 81 50 82 48 83 74 84 75 85 83 86 76 87 77 88
REMARK SMILES IDX 81 89 84 90 78 91 79 92 82 93 80 94 59 95 60 96 68 97 61 98
REMARK SMILES IDX 62 99 66 100 69 101 63 102 64 103 67 104 65 105
REMARK H PARENT 23 6 1 28 1 29 30 39 89 58 57 69
REMARK Flexibility Score: inf
ROOT
ATOM      1  C   UNL     1       2.078  -7.474  -4.138  1.00  0.00     0.021 C 
ENDROOT
BRANCH   1   2
ATOM      2  C   UNL     1       3.369  -7.658  -3.339  1.00  0.00     0.116 C 
BRANCH   2   3
ATOM      3  N   UNL     1       4.074  -6.394  -3.264  1.00  0.00    -0.352 N 
ATOM      4  C   UNL     1       4.206  -5.476  -2.257  1.00  0.00     0.251 C 
ATOM      5  O   UNL     1       4.826  -4.440  -2.489  1.00  0.00    -0.269 OA
ATOM      6  H   UNL     1       4.546  -6.149  -4.093  1.00  0.00     0.163 HD
BRANCH   4   7
ATOM      7  C   UNL     1       3.702  -5.735  -0.885  1.00  0.00     0.039 A 
ATOM      8  C   UNL     1       2.998  -6.321   1.758  1.00  0.00     0.000 A 
ATOM      9  C   UNL     1       4.068  -5.459   1.495  1.00  0.00     0.011 A 
ATOM     10  C   UNL     1       2.261  -6.858   0.704  1.00  0.00     0.011 A 
ATOM     11  C   UNL     1       4.427  -5.180   0.177  1.00  0.00     0.014 A 
ATOM     12  C   UNL     1       2.569  -6.503  -0.605  1.00  0.00     0.014 A 
BRANCH   8  13
ATOM     13  C   UNL     1       2.550  -6.559   3.117  1.00  0.00     0.075 A 
ATOM     14  N   UNL     1       1.915  -5.607   3.901  1.00  0.00    -0.233 N 
ATOM     15  N   UNL     1       1.774  -6.027   5.182  1.00  0.00    -0.166 NA
ATOM     16  C   UNL     1       2.108  -7.332   5.151  1.00  0.00     0.129 A 
ATOM     17  C   UNL     1       2.651  -7.690   3.895  1.00  0.00     0.060 A 
BRANCH  14  18
ATOM     18  C   UNL     1       1.452  -4.332   3.479  1.00  0.00     0.065 A 
ATOM     19  C   UNL     1       0.786  -1.810   2.509  1.00  0.00     0.082 A 
ATOM     20  C   UNL     1       0.447  -2.939   1.763  1.00  0.00     0.024 A 
ATOM     21  C   UNL     1       1.417  -1.935   3.753  1.00  0.00     0.024 A 
ATOM     22  C   UNL     1       0.784  -4.199   2.250  1.00  0.00     0.030 A 
ATOM     23  C   UNL     1       1.729  -3.204   4.255  1.00  0.00     0.030 A 
BRANCH  19  24
ATOM     24  S   UNL     1       0.399  -0.213   1.858  1.00  0.00     0.238 S 
ATOM     25  O   UNL     1       1.108   0.797   2.623  1.00  0.00    -0.207 OA
ATOM     26  O   UNL     1      -1.013  -0.149   1.603  1.00  0.00    -0.207 OA
BRANCH  24  27
ATOM     27  N   UNL     1       1.153  -0.229   0.355  1.00  0.00    -0.225 NA
ATOM     28  H   UNL     1       0.991   0.660  -0.117  1.00  0.00     0.137 HD
ATOM     29  H   UNL     1       0.770  -0.988  -0.209  1.00  0.00     0.137 HD
ENDBRANCH  24  27
ENDBRANCH  19  24
ENDBRANCH  14  18
BRANCH  16  30
ATOM     30  C   UNL     1       1.911  -8.257   6.317  1.00  0.00     0.393 C 
ATOM     31  F   UNL     1       2.461  -7.779   7.464  1.00  0.00    -0.203 F 
ATOM     32  F   UNL     1       0.590  -8.467   6.569  1.00  0.00    -0.203 F 
ENDBRANCH  16  30
ENDBRANCH   8  13
ENDBRANCH   4   7
ENDBRANCH   2   3
ENDBRANCH   1   2
BRANCH   1  33
ATOM     33  C   UNL     1       2.329  -7.418  -5.650  1.00  0.00     0.002 C 
BRANCH  33  34
ATOM     34  C   UNL     1       3.101  -8.620  -6.222  1.00  0.00     0.002 C 
BRANCH  34  35
ATOM     35  C   UNL     1       2.550 -10.007  -5.854  1.00  0.00     0.021 C 
BRANCH  35  36
ATOM     36  C   UNL     1       1.229 -10.311  -6.537  1.00  0.00     0.116 C 
BRANCH  36  37
ATOM     37  N   UNL     1       1.376 -10.454  -7.996  1.00  0.00    -0.352 N 
ATOM     38  C   UNL     1       0.406 -10.687  -8.961  1.00  0.00     0.251 C 
ATOM     39  H   UNL     1       2.297 -10.373  -8.336  1.00  0.00     0.163 HD
ATOM     40  O   UNL     1       0.692 -11.134 -10.064  1.00  0.00    -0.269 OA
BRANCH  38  41
ATOM     41  C   UNL     1      -0.985 -10.338  -8.639  1.00  0.00     0.039 A 
ATOM     42  C   UNL     1      -2.110 -11.076  -9.023  1.00  0.00     0.014 A 
ATOM     43  C   UNL     1      -1.122  -9.242  -7.816  1.00  0.00     0.014 A 
ATOM     44  C   UNL     1      -3.357 -10.653  -8.559  1.00  0.00     0.010 A 
ATOM     45  C   UNL     1      -2.201  -9.237  -7.006  1.00  0.00     0.010 A 
ATOM     46  C   UNL     1      -3.378  -9.675  -7.563  1.00  0.00    -0.014 A 
BRANCH  46  47
ATOM     47  C   UNL     1      -4.558  -9.081  -6.961  1.00  0.00     0.031 A 
ATOM     48  C   UNL     1      -5.326 -10.034  -6.137  1.00  0.00     0.074 A 
ATOM     49  C   UNL     1      -4.711  -7.733  -6.910  1.00  0.00     0.049 A 
ATOM     50  N   UNL     1      -6.465 -10.569  -6.415  1.00  0.00    -0.248 NA
ATOM     51  C   UNL     1      -4.668 -10.614  -4.954  1.00  0.00     0.031 C 
ATOM     52  C   UNL     1      -3.800  -6.682  -7.405  1.00  0.00     0.029 A 
ATOM     53  N   UNL     1      -5.699  -6.998  -6.324  1.00  0.00    -0.354 N 
ATOM     54  C   UNL     1      -6.772 -11.374  -5.323  1.00  0.00     0.074 A 
ATOM     55  C   UNL     1      -5.545 -11.554  -4.598  1.00  0.00     0.031 C 
ATOM     56  C   UNL     1      -4.176  -5.472  -6.928  1.00  0.00     0.029 A 
ATOM     57  C   UNL     1      -5.444  -5.629  -6.243  1.00  0.00     0.049 A 
ATOM     58  H   UNL     1      -6.529  -7.404  -5.984  1.00  0.00     0.167 HD
ATOM     59  C   UNL     1      -8.066 -11.544  -4.935  1.00  0.00     0.037 A 
ATOM     60  C   UNL     1      -6.239  -4.696  -5.660  1.00  0.00     0.037 A 
ATOM     61  C   UNL     1      -8.958 -11.019  -5.938  1.00  0.00     0.049 A 
ATOM     62  C   UNL     1      -7.592  -5.291  -5.575  1.00  0.00     0.074 A 
ATOM     63  C   UNL     1      -9.362 -11.395  -7.200  1.00  0.00     0.029 A 
ATOM     64  N   UNL     1      -9.207  -9.675  -5.812  1.00  0.00    -0.354 N 
ATOM     65  N   UNL     1      -8.309  -5.582  -6.626  1.00  0.00    -0.248 NA
ATOM     66  C   UNL     1      -7.984  -5.966  -4.346  1.00  0.00     0.031 C 
ATOM     67  C   UNL     1      -9.614 -10.178  -7.905  1.00  0.00     0.029 A 
ATOM     68  C   UNL     1      -9.420  -9.103  -7.037  1.00  0.00     0.049 A 
ATOM     69  H   UNL     1      -9.229  -9.189  -4.956  1.00  0.00     0.167 HD
ATOM     70  C   UNL     1      -8.951  -6.763  -6.296  1.00  0.00     0.074 A 
ATOM     71  C   UNL     1      -8.841  -6.863  -4.844  1.00  0.00     0.031 C 
ATOM     72  C   UNL     1      -9.229  -7.687  -7.262  1.00  0.00     0.037 A 
BRANCH  59  73
ATOM     73  C   UNL     1      -8.530 -11.715  -3.505  1.00  0.00     0.064 A 
ATOM     74  C   UNL     1      -9.884 -12.028  -3.265  1.00  0.00     0.173 A 
ATOM     75  C   UNL     1      -7.799 -11.293  -2.373  1.00  0.00     0.173 A 
ATOM     76  F   UNL     1     -10.681 -12.421  -4.271  1.00  0.00    -0.203 F 
ATOM     77  C   UNL     1     -10.470 -11.866  -2.006  1.00  0.00     0.198 A 
ATOM     78  C   UNL     1      -8.373 -11.183  -1.108  1.00  0.00     0.198 A 
ATOM     79  F   UNL     1      -6.537 -10.857  -2.457  1.00  0.00    -0.203 F 
ATOM     80  F   UNL     1     -11.786 -12.064  -1.853  1.00  0.00    -0.200 F 
ATOM     81  C   UNL     1      -9.715 -11.440  -0.929  1.00  0.00     0.200 A 
ATOM     82  F   UNL     1      -7.627 -10.746  -0.083  1.00  0.00    -0.200 F 
ATOM     83  F   UNL     1     -10.284 -11.229   0.264  1.00  0.00    -0.200 F 
ENDBRANCH  59  73
BRANCH  60  84
ATOM     84  C   UNL     1      -5.866  -3.463  -4.929  1.00  0.00     0.064 A 
ATOM     85  C   UNL     1      -6.756  -2.386  -4.782  1.00  0.00     0.173 A 
ATOM     86  C   UNL     1      -4.727  -3.453  -4.102  1.00  0.00     0.173 A 
ATOM     87  F   UNL     1      -7.887  -2.345  -5.500  1.00  0.00    -0.203 F 
ATOM     88  C   UNL     1      -6.529  -1.369  -3.845  1.00  0.00     0.198 A 
ATOM     89  C   UNL     1      -4.503  -2.441  -3.165  1.00  0.00     0.198 A 
ATOM     90  F   UNL     1      -3.865  -4.480  -4.122  1.00  0.00    -0.203 F 
ATOM     91  F   UNL     1      -7.426  -0.384  -3.693  1.00  0.00    -0.200 F 
ATOM     92  C   UNL     1      -5.410  -1.405  -3.029  1.00  0.00     0.200 A 
ATOM     93  F   UNL     1      -3.440  -2.513  -2.351  1.00  0.00    -0.200 F 
ATOM     94  F   UNL     1      -5.226  -0.469  -2.087  1.00  0.00    -0.200 F 
ENDBRANCH  60  84
BRANCH  72  95
ATOM     95  C   UNL     1      -9.180  -7.212  -8.686  1.00  0.00     0.064 A 
ATOM     96  C   UNL     1      -8.001  -6.884  -9.377  1.00  0.00     0.173 A 
ATOM     97  C   UNL     1     -10.378  -7.176  -9.407  1.00  0.00     0.173 A 
ATOM     98  F   UNL     1      -6.808  -6.973  -8.782  1.00  0.00    -0.203 F 
ATOM     99  C   UNL     1      -8.028  -6.499 -10.717  1.00  0.00     0.198 A 
ATOM    100  C   UNL     1     -10.400  -6.825 -10.753  1.00  0.00     0.198 A 
ATOM    101  F   UNL     1     -11.527  -7.527  -8.811  1.00  0.00    -0.203 F 
ATOM    102  F   UNL     1      -6.889  -6.178 -11.349  1.00  0.00    -0.200 F 
ATOM    103  C   UNL     1      -9.229  -6.476 -11.405  1.00  0.00     0.200 A 
ATOM    104  F   UNL     1     -11.559  -6.847 -11.425  1.00  0.00    -0.200 F 
ATOM    105  F   UNL     1      -9.255  -6.139 -12.702  1.00  0.00    -0.200 F 
ENDBRANCH  72  95
ENDBRANCH  46  47
ENDBRANCH  38  41
ENDBRANCH  36  37
ENDBRANCH  35  36
ENDBRANCH  34  35
ENDBRANCH  33  34
ENDBRANCH   1  33
TORSDOF 18
