REMARK SMILES CC(C)Oc1ccc(-c2ccc(/C(=C\c3ccc(S(C)(=O)=O)cc3)C(=O)NCCCCCCNC(=O)c3ccc(-c4c5nc(c(-c6c(F)c(F)c(F)c(F)c6F)c6ccc([nH]6)c(-c6c(F)c(F)c(F)c(F)c6F)c6nc(c(-c7c(F)c(F)c(F)c(F)c7F)c7ccc4[nH]7)C=C6)C=C5)cc3)cc2)cc1
REMARK SMILES IDX 29 1 28 2 27 3 25 4 26 5 13 7 14 8 12 9 9 10 10 11 101 12
REMARK SMILES IDX 11 13 100 14 8 15 5 16 6 17 103 18 7 19 102 20 4 21 2 22
REMARK SMILES IDX 1 23 3 24 15 25 16 26 24 27 17 28 23 29 18 30 19 31 20 32
REMARK SMILES IDX 21 33 22 34 30 35 31 36 32 37 33 38 34 39 35 40 36 42 37 43
REMARK SMILES IDX 38 44 99 45 39 46 98 47 40 48 41 49 42 50 92 51 43 52 97 53
REMARK SMILES IDX 91 54 93 55 44 56 96 57 90 58 89 59 45 61 77 62 57 63 76 64
REMARK SMILES IDX 58 65 61 66 75 67 94 68 59 69 60 70 74 72 95 73 62 74 46 75
REMARK SMILES IDX 47 76 55 77 48 78 49 79 53 80 56 81 50 82 51 83 54 84 52 85
REMARK SMILES IDX 78 86 79 87 87 88 80 89 81 90 85 91 88 92 82 93 83 94 86 95
REMARK SMILES IDX 84 96 63 97 64 98 72 99 65 100 66 101 70 102 73 103 67 104
REMARK SMILES IDX 68 105 71 106 69 107
REMARK H PARENT 27 6 34 41 93 60 61 71
REMARK Flexibility Score: inf
ROOT
ATOM      1  C   UNL     1      -7.243  11.394   2.548  1.00  0.00     0.021 C 
ENDROOT
BRANCH   1   2
ATOM      2  C   UNL     1      -8.020  10.073   2.549  1.00  0.00     0.116 C 
BRANCH   2   3
ATOM      3  N   UNL     1      -7.609   9.267   1.421  1.00  0.00    -0.352 N 
ATOM      4  C   UNL     1      -6.776   8.212   1.237  1.00  0.00     0.251 C 
ATOM      5  O   UNL     1      -6.683   7.858   0.059  1.00  0.00    -0.269 OA
ATOM      6  H   UNL     1      -8.038   9.554   0.582  1.00  0.00     0.163 HD
BRANCH   4   7
ATOM      7  C   UNL     1      -6.069   7.456   2.359  1.00  0.00     0.047 C 
ATOM      8  C   UNL     1      -5.793   8.094   3.523  1.00  0.00     0.022 C 
BRANCH   7   9
ATOM      9  C   UNL     1      -5.530   6.074   2.080  1.00  0.00    -0.013 A 
ATOM     10  C   UNL     1      -4.061   3.638   1.627  1.00  0.00    -0.018 A 
ATOM     11  C   UNL     1      -4.715   3.892   2.840  1.00  0.00     0.009 A 
ATOM     12  C   UNL     1      -4.257   4.578   0.610  1.00  0.00     0.009 A 
ATOM     13  C   UNL     1      -5.478   5.055   3.039  1.00  0.00     0.009 A 
ATOM     14  C   UNL     1      -4.939   5.779   0.843  1.00  0.00     0.009 A 
BRANCH  10  15
ATOM     15  C   UNL     1      -3.177   2.465   1.433  1.00  0.00    -0.018 A 
ATOM     16  C   UNL     1      -1.446   0.249   1.058  1.00  0.00     0.119 A 
ATOM     17  C   UNL     1      -2.528   0.160   1.928  1.00  0.00     0.047 A 
ATOM     18  C   UNL     1      -1.239   1.423   0.347  1.00  0.00     0.047 A 
ATOM     19  C   UNL     1      -3.382   1.254   2.114  1.00  0.00     0.012 A 
ATOM     20  C   UNL     1      -2.079   2.522   0.553  1.00  0.00     0.012 A 
BRANCH  16  21
ATOM     21  O   UNL     1      -0.716  -0.885   0.858  1.00  0.00    -0.491 OA
BRANCH  21  22
ATOM     22  C   UNL     1       0.695  -0.846   1.131  1.00  0.00     0.167 C 
ATOM     23  C   UNL     1       1.512  -0.205   0.013  1.00  0.00     0.052 C 
ATOM     24  C   UNL     1       1.049  -0.294   2.511  1.00  0.00     0.052 C 
ENDBRANCH  21  22
ENDBRANCH  16  21
ENDBRANCH  10  15
ENDBRANCH   7   9
BRANCH   8  25
ATOM     25  C   UNL     1      -5.297   7.532   4.790  1.00  0.00    -0.025 A 
ATOM     26  C   UNL     1      -6.234   7.255   5.803  1.00  0.00     0.009 A 
ATOM     27  C   UNL     1      -3.957   7.183   4.976  1.00  0.00     0.009 A 
ATOM     28  C   UNL     1      -5.848   6.579   6.962  1.00  0.00     0.021 A 
ATOM     29  C   UNL     1      -3.565   6.505   6.135  1.00  0.00     0.021 A 
ATOM     30  C   UNL     1      -4.514   6.199   7.116  1.00  0.00     0.067 A 
BRANCH  30  31
ATOM     31  S   UNL     1      -4.056   5.205   8.520  1.00  0.00     0.175 S 
ATOM     32  C   UNL     1      -3.991   6.364   9.859  1.00  0.00     0.163 C 
ATOM     33  O   UNL     1      -5.151   4.287   8.767  1.00  0.00    -0.224 OA
ATOM     34  O   UNL     1      -2.710   4.714   8.291  1.00  0.00    -0.224 OA
ENDBRANCH  30  31
ENDBRANCH   8  25
ENDBRANCH   4   7
ENDBRANCH   2   3
ENDBRANCH   1   2
BRANCH   1  35
ATOM     35  C   UNL     1      -7.723  12.381   1.473  1.00  0.00     0.002 C 
BRANCH  35  36
ATOM     36  C   UNL     1      -9.207  12.755   1.564  1.00  0.00     0.002 C 
BRANCH  36  37
ATOM     37  C   UNL     1      -9.658  13.235   2.946  1.00  0.00     0.021 C 
BRANCH  37  38
ATOM     38  C   UNL     1      -8.944  14.493   3.422  1.00  0.00     0.116 C 
BRANCH  38  39
ATOM     39  N   UNL     1      -9.261  15.634   2.580  1.00  0.00    -0.352 N 
ATOM     40  C   UNL     1      -9.811  16.840   2.930  1.00  0.00     0.251 C 
ATOM     41  H   UNL     1      -9.052  15.526   1.624  1.00  0.00     0.163 HD
ATOM     42  O   UNL     1     -10.254  17.593   2.068  1.00  0.00    -0.269 OA
BRANCH  40  43
ATOM     43  C   UNL     1      -9.875  17.228   4.353  1.00  0.00     0.039 A 
ATOM     44  C   UNL     1     -11.036  17.833   4.838  1.00  0.00     0.014 A 
ATOM     45  C   UNL     1      -8.783  17.015   5.200  1.00  0.00     0.014 A 
ATOM     46  C   UNL     1     -11.117  18.187   6.185  1.00  0.00     0.010 A 
ATOM     47  C   UNL     1      -8.895  17.295   6.558  1.00  0.00     0.010 A 
ATOM     48  C   UNL     1     -10.057  17.897   7.061  1.00  0.00    -0.014 A 
BRANCH  48  49
ATOM     49  C   UNL     1     -10.144  18.233   8.504  1.00  0.00     0.031 A 
ATOM     50  C   UNL     1      -9.197  19.235   9.103  1.00  0.00     0.074 A 
ATOM     51  C   UNL     1     -11.041  17.597   9.281  1.00  0.00     0.049 A 
ATOM     52  N   UNL     1      -9.083  19.625  10.348  1.00  0.00    -0.248 NA
ATOM     53  C   UNL     1      -8.230  19.863   8.188  1.00  0.00     0.031 C 
ATOM     54  C   UNL     1     -11.980  16.572   8.822  1.00  0.00     0.029 A 
ATOM     55  N   UNL     1     -11.306  17.713  10.622  1.00  0.00    -0.354 N 
ATOM     56  C   UNL     1      -8.030  20.531  10.364  1.00  0.00     0.074 A 
ATOM     57  C   UNL     1      -7.498  20.587   9.021  1.00  0.00     0.031 C 
ATOM     58  C   UNL     1     -12.736  16.174   9.857  1.00  0.00     0.029 A 
ATOM     59  C   UNL     1     -12.309  16.883  11.059  1.00  0.00     0.049 A 
ATOM     60  H   UNL     1     -10.822  18.333  11.215  1.00  0.00     0.167 HD
ATOM     61  C   UNL     1      -7.567  21.268  11.402  1.00  0.00     0.037 A 
ATOM     62  C   UNL     1     -12.821  16.711  12.292  1.00  0.00     0.037 A 
ATOM     63  C   UNL     1      -8.114  21.221  12.733  1.00  0.00     0.049 A 
ATOM     64  C   UNL     1     -12.280  17.535  13.429  1.00  0.00     0.074 A 
ATOM     65  C   UNL     1      -7.752  21.965  13.842  1.00  0.00     0.029 A 
ATOM     66  N   UNL     1      -9.140  20.377  13.135  1.00  0.00    -0.354 N 
ATOM     67  N   UNL     1     -11.330  18.438  13.420  1.00  0.00    -0.248 NA
ATOM     68  C   UNL     1     -12.891  17.321  14.748  1.00  0.00     0.031 C 
ATOM     69  C   UNL     1      -8.519  21.532  14.928  1.00  0.00     0.029 A 
ATOM     70  C   UNL     1      -9.406  20.565  14.482  1.00  0.00     0.049 A 
ATOM     71  H   UNL     1      -9.609  19.739  12.550  1.00  0.00     0.167 HD
ATOM     72  C   UNL     1     -11.253  18.925  14.718  1.00  0.00     0.074 A 
ATOM     73  C   UNL     1     -12.263  18.226  15.485  1.00  0.00     0.031 C 
ATOM     74  C   UNL     1     -10.422  19.867  15.229  1.00  0.00     0.037 A 
BRANCH  61  75
ATOM     75  C   UNL     1      -6.409  22.190  11.139  1.00  0.00     0.064 A 
ATOM     76  C   UNL     1      -6.540  23.328  10.327  1.00  0.00     0.173 A 
ATOM     77  C   UNL     1      -5.161  21.952  11.735  1.00  0.00     0.173 A 
ATOM     78  F   UNL     1      -7.707  23.596   9.724  1.00  0.00    -0.203 F 
ATOM     79  C   UNL     1      -5.457  24.173  10.097  1.00  0.00     0.198 A 
ATOM     80  C   UNL     1      -4.091  22.819  11.530  1.00  0.00     0.198 A 
ATOM     81  F   UNL     1      -4.980  20.883  12.524  1.00  0.00    -0.203 F 
ATOM     82  F   UNL     1      -5.593  25.222   9.273  1.00  0.00    -0.200 F 
ATOM     83  C   UNL     1      -4.237  23.923  10.704  1.00  0.00     0.200 A 
ATOM     84  F   UNL     1      -2.916  22.584  12.130  1.00  0.00    -0.200 F 
ATOM     85  F   UNL     1      -3.199  24.743  10.488  1.00  0.00    -0.200 F 
ENDBRANCH  61  75
BRANCH  62  86
ATOM     86  C   UNL     1     -13.922  15.736  12.510  1.00  0.00     0.064 A 
ATOM     87  C   UNL     1     -15.211  16.168  12.853  1.00  0.00     0.173 A 
ATOM     88  C   UNL     1     -13.709  14.355  12.389  1.00  0.00     0.173 A 
ATOM     89  F   UNL     1     -15.461  17.478  12.998  1.00  0.00    -0.203 F 
ATOM     90  C   UNL     1     -16.237  15.256  13.092  1.00  0.00     0.198 A 
ATOM     91  C   UNL     1     -14.744  13.445  12.597  1.00  0.00     0.198 A 
ATOM     92  F   UNL     1     -12.496  13.888  12.056  1.00  0.00    -0.203 F 
ATOM     93  F   UNL     1     -17.446  15.695  13.470  1.00  0.00    -0.200 F 
ATOM     94  C   UNL     1     -16.004  13.896  12.959  1.00  0.00     0.200 A 
ATOM     95  F   UNL     1     -14.518  12.133  12.449  1.00  0.00    -0.200 F 
ATOM     96  F   UNL     1     -16.992  13.019  13.185  1.00  0.00    -0.200 F 
ENDBRANCH  62  86
BRANCH  74  97
ATOM     97  C   UNL     1     -10.602  20.233  16.675  1.00  0.00     0.064 A 
ATOM     98  C   UNL     1     -10.265  19.349  17.711  1.00  0.00     0.173 A 
ATOM     99  C   UNL     1     -11.090  21.501  17.027  1.00  0.00     0.173 A 
ATOM    100  F   UNL     1      -9.808  18.120  17.428  1.00  0.00    -0.203 F 
ATOM    101  C   UNL     1     -10.441  19.709  19.044  1.00  0.00     0.198 A 
ATOM    102  C   UNL     1     -11.230  21.871  18.362  1.00  0.00     0.198 A 
ATOM    103  F   UNL     1     -11.419  22.388  16.076  1.00  0.00    -0.203 F 
ATOM    104  F   UNL     1     -10.167  18.828  20.016  1.00  0.00    -0.200 F 
ATOM    105  C   UNL     1     -10.916  20.972  19.369  1.00  0.00     0.200 A 
ATOM    106  F   UNL     1     -11.672  23.098  18.673  1.00  0.00    -0.200 F 
ATOM    107  F   UNL     1     -11.078  21.319  20.653  1.00  0.00    -0.200 F 
ENDBRANCH  74  97
ENDBRANCH  48  49
ENDBRANCH  40  43
ENDBRANCH  38  39
ENDBRANCH  37  38
ENDBRANCH  36  37
ENDBRANCH  35  36
ENDBRANCH   1  35
TORSDOF 19
