REMARK SMILES CC[C@@](C)(NC(=O)c1ccncc1F)C(=O)NCCCCCCNC(=O)c1ccc(-c2c3nc(c(-c4c(F)c(F)c(F)c(F)c4F)c4ccc([nH]4)c(-c4c(F)c(F)c(F)c(F)c4F)c4nc(c(-c5c(F)c(F)c(F)c(F)c5F)c5ccc2[nH]5)C=C4)C=C3)cc1
REMARK SMILES IDX 20 1 19 2 18 3 17 4 15 5 16 6 3 8 4 9 2 10 1 11 5 12 6 13
REMARK SMILES IDX 7 15 8 16 9 17 13 18 10 19 12 20 14 21 11 22 21 23 22 24
REMARK SMILES IDX 23 25 24 26 25 27 26 29 27 30 28 31 89 32 29 33 88 34 30 35
REMARK SMILES IDX 31 36 32 37 82 38 33 39 87 40 81 41 83 42 34 43 86 44 80 45
REMARK SMILES IDX 79 46 35 48 67 49 47 50 66 51 48 52 51 53 65 54 84 55 49 56
REMARK SMILES IDX 50 57 64 59 85 60 52 61 36 62 37 63 45 64 38 65 39 66 43 67
REMARK SMILES IDX 46 68 40 69 41 70 44 71 42 72 68 73 69 74 77 75 70 76 71 77
REMARK SMILES IDX 75 78 78 79 72 80 73 81 76 82 74 83 53 84 54 85 62 86 55 87
REMARK SMILES IDX 56 88 60 89 63 90 57 91 58 92 61 93 59 94
REMARK H PARENT 17 7 5 14 24 28 83 47 51 58
REMARK Flexibility Score: inf
ROOT
ATOM      1  C   UNL     1       4.209  -3.332   5.141  1.00  0.00     0.002 C 
ENDROOT
BRANCH   1   2
ATOM      2  C   UNL     1       2.681  -3.313   5.054  1.00  0.00     0.021 C 
BRANCH   2   3
ATOM      3  C   UNL     1       2.008  -1.946   4.952  1.00  0.00     0.116 C 
BRANCH   3   4
ATOM      4  N   UNL     1       2.514  -1.069   3.917  1.00  0.00    -0.354 N 
ATOM      5  C   UNL     1       2.147  -0.838   2.621  1.00  0.00     0.245 C 
ATOM      6  O   UNL     1       2.666   0.154   2.097  1.00  0.00    -0.272 OA
ATOM      7  H   UNL     1       3.282  -0.526   4.207  1.00  0.00     0.163 HD
BRANCH   5   8
ATOM      8  C   UNL     1       1.027  -1.646   1.899  1.00  0.00     0.116 C 
ATOM      9  C   UNL     1      -0.302  -1.073   2.469  1.00  0.00     0.045 C 
BRANCH   8  10
ATOM     10  C   UNL     1       1.001  -1.456   0.355  1.00  0.00     0.035 C 
ATOM     11  C   UNL     1       0.911  -0.032  -0.185  1.00  0.00     0.007 C 
ENDBRANCH   8  10
BRANCH   8  12
ATOM     12  N   UNL     1       1.014  -3.112   2.165  1.00  0.00    -0.338 N 
ATOM     13  C   UNL     1       1.727  -4.212   1.761  1.00  0.00     0.255 C 
ATOM     14  H   UNL     1       0.303  -3.357   2.802  1.00  0.00     0.164 HD
ATOM     15  O   UNL     1       1.121  -5.282   1.901  1.00  0.00    -0.269 OA
BRANCH  13  16
ATOM     16  C   UNL     1       3.122  -4.304   1.244  1.00  0.00     0.078 A 
ATOM     17  C   UNL     1       3.479  -5.531   0.650  1.00  0.00     0.037 A 
ATOM     18  C   UNL     1       4.151  -3.400   1.446  1.00  0.00     0.154 A 
ATOM     19  C   UNL     1       4.805  -5.788   0.328  1.00  0.00     0.112 A 
ATOM     20  C   UNL     1       5.451  -3.738   1.096  1.00  0.00     0.151 A 
ATOM     21  F   UNL     1       3.984  -2.226   2.038  1.00  0.00    -0.204 F 
ATOM     22  N   UNL     1       5.806  -4.915   0.543  1.00  0.00    -0.262 NA
ENDBRANCH  13  16
ENDBRANCH   8  12
ENDBRANCH   5   8
ENDBRANCH   3   4
ENDBRANCH   2   3
ENDBRANCH   1   2
BRANCH   1  23
ATOM     23  C   UNL     1       4.831  -2.549   6.295  1.00  0.00     0.002 C 
BRANCH  23  24
ATOM     24  C   UNL     1       4.275  -2.874   7.679  1.00  0.00     0.021 C 
BRANCH  24  25
ATOM     25  C   UNL     1       4.349  -4.344   8.072  1.00  0.00     0.116 C 
BRANCH  25  26
ATOM     26  N   UNL     1       5.714  -4.800   8.276  1.00  0.00    -0.352 N 
ATOM     27  C   UNL     1       6.272  -5.378   9.394  1.00  0.00     0.251 C 
ATOM     28  H   UNL     1       6.322  -4.678   7.512  1.00  0.00     0.163 HD
ATOM     29  O   UNL     1       7.476  -5.553   9.475  1.00  0.00    -0.269 OA
BRANCH  27  30
ATOM     30  C   UNL     1       5.390  -5.765  10.518  1.00  0.00     0.039 A 
ATOM     31  C   UNL     1       5.727  -5.364  11.812  1.00  0.00     0.014 A 
ATOM     32  C   UNL     1       4.225  -6.501  10.285  1.00  0.00     0.014 A 
ATOM     33  C   UNL     1       4.860  -5.650  12.869  1.00  0.00     0.010 A 
ATOM     34  C   UNL     1       3.327  -6.719  11.326  1.00  0.00     0.010 A 
ATOM     35  C   UNL     1       3.639  -6.302  12.629  1.00  0.00    -0.014 A 
BRANCH  35  36
ATOM     36  C   UNL     1       2.683  -6.571  13.732  1.00  0.00     0.031 A 
ATOM     37  C   UNL     1       2.365  -7.988  14.121  1.00  0.00     0.074 A 
ATOM     38  C   UNL     1       2.057  -5.546  14.342  1.00  0.00     0.049 A 
ATOM     39  N   UNL     1       1.519  -8.433  15.016  1.00  0.00    -0.248 NA
ATOM     40  C   UNL     1       3.072  -9.049  13.386  1.00  0.00     0.031 C 
ATOM     41  C   UNL     1       2.240  -4.130  14.020  1.00  0.00     0.029 A 
ATOM     42  N   UNL     1       1.132  -5.538  15.357  1.00  0.00    -0.354 N 
ATOM     43  C   UNL     1       1.584  -9.818  14.940  1.00  0.00     0.074 A 
ATOM     44  C   UNL     1       2.506 -10.142  13.873  1.00  0.00     0.031 C 
ATOM     45  C   UNL     1       1.471  -3.390  14.835  1.00  0.00     0.029 A 
ATOM     46  C   UNL     1       0.717  -4.278  15.714  1.00  0.00     0.049 A 
ATOM     47  H   UNL     1       0.797  -6.358  15.787  1.00  0.00     0.167 HD
ATOM     48  C   UNL     1       0.953 -10.738  15.709  1.00  0.00     0.037 A 
ATOM     49  C   UNL     1      -0.173  -3.887  16.646  1.00  0.00     0.037 A 
ATOM     50  C   UNL     1       0.057 -10.412  16.787  1.00  0.00     0.049 A 
ATOM     51  C   UNL     1      -0.857  -4.928  17.491  1.00  0.00     0.074 A 
ATOM     52  C   UNL     1      -0.590 -11.268  17.661  1.00  0.00     0.029 A 
ATOM     53  N   UNL     1      -0.319  -9.123  17.137  1.00  0.00    -0.354 N 
ATOM     54  N   UNL     1      -0.734  -6.233  17.457  1.00  0.00    -0.248 NA
ATOM     55  C   UNL     1      -1.797  -4.441  18.510  1.00  0.00     0.031 C 
ATOM     56  C   UNL     1      -1.389 -10.499  18.514  1.00  0.00     0.029 A 
ATOM     57  C   UNL     1      -1.202  -9.162  18.204  1.00  0.00     0.049 A 
ATOM     58  H   UNL     1      -0.004  -8.303  16.693  1.00  0.00     0.167 HD
ATOM     59  C   UNL     1      -1.553  -6.720  18.467  1.00  0.00     0.074 A 
ATOM     60  C   UNL     1      -2.157  -5.569  19.105  1.00  0.00     0.031 C 
ATOM     61  C   UNL     1      -1.785  -8.005  18.833  1.00  0.00     0.037 A 
BRANCH  48  62
ATOM     62  C   UNL     1       1.218 -12.186  15.414  1.00  0.00     0.064 A 
ATOM     63  C   UNL     1       2.465 -12.773  15.678  1.00  0.00     0.173 A 
ATOM     64  C   UNL     1       0.207 -13.004  14.888  1.00  0.00     0.173 A 
ATOM     65  F   UNL     1       3.470 -12.032  16.169  1.00  0.00    -0.203 F 
ATOM     66  C   UNL     1       2.699 -14.117  15.397  1.00  0.00     0.198 A 
ATOM     67  C   UNL     1       0.435 -14.355  14.638  1.00  0.00     0.198 A 
ATOM     68  F   UNL     1      -1.006 -12.495  14.622  1.00  0.00    -0.203 F 
ATOM     69  F   UNL     1       3.914 -14.642  15.609  1.00  0.00    -0.200 F 
ATOM     70  C   UNL     1       1.682 -14.908  14.885  1.00  0.00     0.200 A 
ATOM     71  F   UNL     1      -0.553 -15.121  14.155  1.00  0.00    -0.200 F 
ATOM     72  F   UNL     1       1.907 -16.202  14.621  1.00  0.00    -0.200 F 
ENDBRANCH  48  62
BRANCH  49  73
ATOM     73  C   UNL     1      -0.445  -2.440  16.854  1.00  0.00     0.064 A 
ATOM     74  C   UNL     1      -0.028  -1.791  18.025  1.00  0.00     0.173 A 
ATOM     75  C   UNL     1      -1.135  -1.681  15.898  1.00  0.00     0.173 A 
ATOM     76  F   UNL     1       0.618  -2.480  18.978  1.00  0.00    -0.203 F 
ATOM     77  C   UNL     1      -0.309  -0.444  18.241  1.00  0.00     0.198 A 
ATOM     78  C   UNL     1      -1.391  -0.327  16.103  1.00  0.00     0.198 A 
ATOM     79  F   UNL     1      -1.552  -2.253  14.759  1.00  0.00    -0.203 F 
ATOM     80  F   UNL     1       0.059   0.139  19.390  1.00  0.00    -0.200 F 
ATOM     81  C   UNL     1      -0.986   0.289  17.278  1.00  0.00     0.200 A 
ATOM     82  F   UNL     1      -2.033   0.381  15.164  1.00  0.00    -0.200 F 
ATOM     83  F   UNL     1      -1.255   1.585  17.485  1.00  0.00    -0.200 F 
ENDBRANCH  49  73
BRANCH  61  84
ATOM     84  C   UNL     1      -2.699  -8.232  20.002  1.00  0.00     0.064 A 
ATOM     85  C   UNL     1      -4.082  -8.020  19.907  1.00  0.00     0.173 A 
ATOM     86  C   UNL     1      -2.187  -8.703  21.221  1.00  0.00     0.173 A 
ATOM     87  F   UNL     1      -4.618  -7.556  18.768  1.00  0.00    -0.203 F 
ATOM     88  C   UNL     1      -4.916  -8.245  21.000  1.00  0.00     0.198 A 
ATOM     89  C   UNL     1      -3.028  -8.956  22.301  1.00  0.00     0.198 A 
ATOM     90  F   UNL     1      -0.872  -8.928  21.360  1.00  0.00    -0.203 F 
ATOM     91  F   UNL     1      -6.228  -7.988  20.902  1.00  0.00    -0.200 F 
ATOM     92  C   UNL     1      -4.390  -8.719  22.192  1.00  0.00     0.200 A 
ATOM     93  F   UNL     1      -2.519  -9.427  23.448  1.00  0.00    -0.200 F 
ATOM     94  F   UNL     1      -5.195  -8.941  23.240  1.00  0.00    -0.200 F 
ENDBRANCH  61  84
ENDBRANCH  35  36
ENDBRANCH  27  30
ENDBRANCH  25  26
ENDBRANCH  24  25
ENDBRANCH  23  24
ENDBRANCH   1  23
TORSDOF 16
