REMARK SMILES CC[NH+](CC)C[C@H](F)C(=O)NCCCCCCNC(=O)c1ccc(-c2c3nc(c(-c4c(F)c(F)c(F)c(F)c4F)c4ccc([nH]4)c(-c4c(F)c(F)c(F)c(F)c4F)c4nc(c(-c5c(F)c(F)c(F)c(F)c5F)c5ccc2[nH]5)C=C4)C=C3)cc1
REMARK SMILES IDX 14 1 13 2 12 3 11 4 9 5 10 6 7 8 8 9 6 10 3 11 2 13 1 14
REMARK SMILES IDX 4 15 5 16 15 17 16 18 17 19 18 20 19 21 20 23 21 24 22 25
REMARK SMILES IDX 83 26 23 27 82 28 24 29 25 30 26 31 76 32 27 33 81 34 75 35
REMARK SMILES IDX 77 36 28 37 80 38 74 39 73 40 29 42 61 43 41 44 60 45 42 46
REMARK SMILES IDX 45 47 59 48 78 49 43 50 44 51 58 53 79 54 46 55 30 56 31 57
REMARK SMILES IDX 39 58 32 59 33 60 37 61 40 62 34 63 35 64 38 65 36 66 62 67
REMARK SMILES IDX 63 68 71 69 64 70 65 71 69 72 72 73 66 74 67 75 70 76 68 77
REMARK SMILES IDX 47 78 48 79 56 80 49 81 50 82 54 83 57 84 51 85 52 86 55 87
REMARK SMILES IDX 53 88
REMARK H PARENT 11 7 3 12 18 22 77 41 45 52
REMARK Flexibility Score: inf
ROOT
ATOM      1  C   UNL     1       6.840  -0.189   1.742  1.00  0.00     0.002 C 
ENDROOT
BRANCH   1   2
ATOM      2  C   UNL     1       5.462  -0.770   2.076  1.00  0.00     0.021 C 
BRANCH   2   3
ATOM      3  C   UNL     1       4.622  -1.156   0.870  1.00  0.00     0.116 C 
BRANCH   3   4
ATOM      4  N   UNL     1       5.056  -2.330   0.150  1.00  0.00    -0.353 N 
ATOM      5  C   UNL     1       4.343  -2.979  -0.830  1.00  0.00     0.260 C 
ATOM      6  O   UNL     1       4.942  -3.796  -1.537  1.00  0.00    -0.271 OA
ATOM      7  H   UNL     1       5.939  -2.699   0.381  1.00  0.00     0.163 HD
BRANCH   5   8
ATOM      8  C   UNL     1       2.852  -2.688  -1.053  1.00  0.00     0.309 C 
ATOM      9  F   UNL     1       2.165  -2.502   0.114  1.00  0.00    -0.230 F 
BRANCH   8  10
ATOM     10  C   UNL     1       2.552  -1.536  -2.038  1.00  0.00     0.310 C 
BRANCH  10  11
ATOM     11  N   UNL     1       3.051  -0.215  -1.662  1.00  0.00    -0.333 N 
ATOM     12  H   UNL     1       3.646  -0.597  -0.928  1.00  0.00     0.348 HD
BRANCH  11  13
ATOM     13  C   UNL     1       2.278   0.676  -0.797  1.00  0.00     0.258 C 
ATOM     14  C   UNL     1       0.856   0.304  -0.397  1.00  0.00     0.071 C 
ENDBRANCH  11  13
BRANCH  11  15
ATOM     15  C   UNL     1       3.964   0.446  -2.591  1.00  0.00     0.258 C 
ATOM     16  C   UNL     1       5.249  -0.342  -2.849  1.00  0.00     0.071 C 
ENDBRANCH  11  15
ENDBRANCH  10  11
ENDBRANCH   8  10
ENDBRANCH   5   8
ENDBRANCH   3   4
ENDBRANCH   2   3
ENDBRANCH   1   2
BRANCH   1  17
ATOM     17  C   UNL     1       6.873   1.056   0.844  1.00  0.00     0.002 C 
BRANCH  17  18
ATOM     18  C   UNL     1       6.039   2.259   1.289  1.00  0.00     0.021 C 
BRANCH  18  19
ATOM     19  C   UNL     1       6.251   2.729   2.724  1.00  0.00     0.116 C 
BRANCH  19  20
ATOM     20  N   UNL     1       7.639   3.024   3.033  1.00  0.00    -0.352 N 
ATOM     21  C   UNL     1       8.194   4.079   3.715  1.00  0.00     0.251 C 
ATOM     22  H   UNL     1       8.287   2.362   2.699  1.00  0.00     0.163 HD
ATOM     23  O   UNL     1       9.412   4.188   3.779  1.00  0.00    -0.269 OA
BRANCH  21  24
ATOM     24  C   UNL     1       7.334   5.110   4.343  1.00  0.00     0.039 A 
ATOM     25  C   UNL     1       7.721   6.449   4.234  1.00  0.00     0.014 A 
ATOM     26  C   UNL     1       6.172   4.778   5.043  1.00  0.00     0.014 A 
ATOM     27  C   UNL     1       6.910   7.454   4.765  1.00  0.00     0.010 A 
ATOM     28  C   UNL     1       5.324   5.784   5.503  1.00  0.00     0.010 A 
ATOM     29  C   UNL     1       5.682   7.133   5.367  1.00  0.00    -0.014 A 
BRANCH  29  30
ATOM     30  C   UNL     1       4.758   8.205   5.821  1.00  0.00     0.031 A 
ATOM     31  C   UNL     1       4.402   8.353   7.273  1.00  0.00     0.074 A 
ATOM     32  C   UNL     1       4.200   9.023   4.907  1.00  0.00     0.049 A 
ATOM     33  N   UNL     1       3.614   9.228   7.848  1.00  0.00    -0.248 NA
ATOM     34  C   UNL     1       4.987   7.374   8.201  1.00  0.00     0.031 C 
ATOM     35  C   UNL     1       4.421   8.946   3.462  1.00  0.00     0.029 A 
ATOM     36  N   UNL     1       3.334  10.078   5.054  1.00  0.00    -0.354 N 
ATOM     37  C   UNL     1       3.603   8.901   9.197  1.00  0.00     0.074 A 
ATOM     38  C   UNL     1       4.414   7.711   9.347  1.00  0.00     0.031 C 
ATOM     39  C   UNL     1       3.744   9.936   2.860  1.00  0.00     0.029 A 
ATOM     40  C   UNL     1       3.008  10.691   3.869  1.00  0.00     0.049 A 
ATOM     41  H   UNL     1       2.980  10.367   5.926  1.00  0.00     0.167 HD
ATOM     42  C   UNL     1       2.991   9.546  10.221  1.00  0.00     0.037 A 
ATOM     43  C   UNL     1       2.205  11.743   3.622  1.00  0.00     0.037 A 
ATOM     44  C   UNL     1       2.192  10.735  10.066  1.00  0.00     0.049 A 
ATOM     45  C   UNL     1       1.523  12.431   4.773  1.00  0.00     0.074 A 
ATOM     46  C   UNL     1       1.587  11.503  11.046  1.00  0.00     0.029 A 
ATOM     47  N   UNL     1       1.873  11.321   8.848  1.00  0.00    -0.354 N 
ATOM     48  N   UNL     1       1.591  12.167   6.055  1.00  0.00    -0.248 NA
ATOM     49  C   UNL     1       0.656  13.569   4.439  1.00  0.00     0.031 C 
ATOM     50  C   UNL     1       0.848  12.512  10.418  1.00  0.00     0.029 A 
ATOM     51  C   UNL     1       1.047  12.418   9.050  1.00  0.00     0.049 A 
ATOM     52  H   UNL     1       2.187  11.005   7.970  1.00  0.00     0.167 HD
ATOM     53  C   UNL     1       0.799  13.117   6.684  1.00  0.00     0.074 A 
ATOM     54  C   UNL     1       0.279  13.979   5.642  1.00  0.00     0.031 C 
ATOM     55  C   UNL     1       0.526  13.263   8.004  1.00  0.00     0.037 A 
BRANCH  42  56
ATOM     56  C   UNL     1       3.153   8.969  11.600  1.00  0.00     0.064 A 
ATOM     57  C   UNL     1       4.393   8.961  12.260  1.00  0.00     0.173 A 
ATOM     58  C   UNL     1       2.049   8.433  12.281  1.00  0.00     0.173 A 
ATOM     59  F   UNL     1       5.484   9.454  11.654  1.00  0.00    -0.203 F 
ATOM     60  C   UNL     1       4.528   8.402  13.529  1.00  0.00     0.198 A 
ATOM     61  C   UNL     1       2.181   7.908  13.565  1.00  0.00     0.198 A 
ATOM     62  F   UNL     1       0.838   8.421  11.704  1.00  0.00    -0.203 F 
ATOM     63  F   UNL     1       5.735   8.350  14.110  1.00  0.00    -0.200 F 
ATOM     64  C   UNL     1       3.422   7.882  14.182  1.00  0.00     0.200 A 
ATOM     65  F   UNL     1       1.107   7.421  14.201  1.00  0.00    -0.200 F 
ATOM     66  F   UNL     1       3.554   7.347  15.404  1.00  0.00    -0.200 F 
ENDBRANCH  42  56
BRANCH  43  67
ATOM     67  C   UNL     1       2.033  12.231   2.228  1.00  0.00     0.064 A 
ATOM     68  C   UNL     1       2.555  13.470   1.831  1.00  0.00     0.173 A 
ATOM     69  C   UNL     1       1.355  11.470   1.265  1.00  0.00     0.173 A 
ATOM     70  F   UNL     1       3.194  14.244   2.721  1.00  0.00    -0.203 F 
ATOM     71  C   UNL     1       2.392  13.936   0.528  1.00  0.00     0.198 A 
ATOM     72  C   UNL     1       1.220  11.923  -0.046  1.00  0.00     0.198 A 
ATOM     73  F   UNL     1       0.841  10.275   1.592  1.00  0.00    -0.203 F 
ATOM     74  F   UNL     1       2.863  15.143   0.187  1.00  0.00    -0.200 F 
ATOM     75  C   UNL     1       1.731  13.159  -0.411  1.00  0.00     0.200 A 
ATOM     76  F   UNL     1       0.596  11.161  -0.954  1.00  0.00    -0.200 F 
ATOM     77  F   UNL     1       1.582  13.604  -1.666  1.00  0.00    -0.200 F 
ENDBRANCH  43  67
BRANCH  55  78
ATOM     78  C   UNL     1      -0.360  14.412   8.399  1.00  0.00     0.064 A 
ATOM     79  C   UNL     1      -1.725  14.438   8.072  1.00  0.00     0.173 A 
ATOM     80  C   UNL     1       0.159  15.493   9.128  1.00  0.00     0.173 A 
ATOM     81  F   UNL     1      -2.269  13.438   7.362  1.00  0.00    -0.203 F 
ATOM     82  C   UNL     1      -2.526  15.521   8.427  1.00  0.00     0.198 A 
ATOM     83  C   UNL     1      -0.654  16.555   9.514  1.00  0.00     0.198 A 
ATOM     84  F   UNL     1       1.454  15.516   9.474  1.00  0.00    -0.203 F 
ATOM     85  F   UNL     1      -3.811  15.553   8.047  1.00  0.00    -0.200 F 
ATOM     86  C   UNL     1      -1.992  16.574   9.153  1.00  0.00     0.200 A 
ATOM     87  F   UNL     1      -0.140  17.564  10.231  1.00  0.00    -0.200 F 
ATOM     88  F   UNL     1      -2.766  17.613   9.497  1.00  0.00    -0.200 F 
ENDBRANCH  55  78
ENDBRANCH  29  30
ENDBRANCH  21  24
ENDBRANCH  19  20
ENDBRANCH  18  19
ENDBRANCH  17  18
ENDBRANCH   1  17
TORSDOF 17
