REMARK SMILES Cc1n[nH]c(CN(C)C(=O)N[C@](C)(C(=O)NCCCCCCNC(=O)c2ccc(-c3c4nc(c(-c5c(F)c(F)c(F)c(F)c5F)c5ccc([nH]5)c(-c5c(F)c(F)c(F)c(F)c5F)c5nc(c(-c6c(F)c(F)c(F)c(F)c6F)c6ccc3[nH]6)C=C5)C=C4)cc2)C(F)(F)F)n1
REMARK SMILES IDX 18 1 17 2 16 3 14 4 15 5 12 7 13 8 11 9 9 10 10 11 7 13 8 14
REMARK SMILES IDX 6 15 5 16 1 17 2 18 3 19 93 20 4 21 89 23 90 24 91 25 92 26
REMARK SMILES IDX 19 27 20 28 21 29 22 30 23 31 24 32 25 34 26 35 27 36 88 37
REMARK SMILES IDX 28 38 87 39 29 40 30 41 31 42 81 43 32 44 86 45 80 46 82 47
REMARK SMILES IDX 33 48 85 49 79 50 78 51 34 53 66 54 46 55 65 56 47 57 50 58
REMARK SMILES IDX 64 59 83 60 48 61 49 62 63 64 84 65 51 66 35 67 36 68 44 69
REMARK SMILES IDX 37 70 38 71 42 72 45 73 39 74 40 75 43 76 41 77 67 78 68 79
REMARK SMILES IDX 76 80 69 81 70 82 74 83 77 84 71 85 72 86 75 87 73 88 52 89
REMARK SMILES IDX 53 90 61 91 54 92 55 93 59 94 62 95 56 96 57 97 60 98 58 99
REMARK H PARENT 16 6 11 12 4 22 23 33 82 52 50 63
REMARK Flexibility Score: inf
ROOT
ATOM      1  C   UNL     1       5.995   2.859   5.922  1.00  0.00     0.021 C 
ENDROOT
BRANCH   1   2
ATOM      2  C   UNL     1       4.971   3.605   6.775  1.00  0.00     0.116 C 
BRANCH   2   3
ATOM      3  N   UNL     1       4.136   4.514   6.003  1.00  0.00    -0.354 N 
ATOM      4  C   UNL     1       2.803   4.457   5.677  1.00  0.00     0.255 C 
ATOM      5  O   UNL     1       2.372   5.373   4.975  1.00  0.00    -0.272 OA
ATOM      6  H   UNL     1       4.607   5.306   5.656  1.00  0.00     0.163 HD
BRANCH   4   7
ATOM      7  C   UNL     1       1.954   3.219   6.055  1.00  0.00     0.213 C 
ATOM      8  C   UNL     1       2.482   2.093   5.160  1.00  0.00     0.056 C 
BRANCH   7   9
ATOM      9  N   UNL     1       2.076   3.088   7.553  1.00  0.00    -0.316 N 
ATOM     10  C   UNL     1       2.131   2.234   8.576  1.00  0.00     0.318 C 
ATOM     11  O   UNL     1       2.141   2.780   9.687  1.00  0.00    -0.249 OA
ATOM     12  H   UNL     1       2.139   3.998   7.924  1.00  0.00     0.166 HD
BRANCH  10  13
ATOM     13  N   UNL     1       2.250   0.888   8.470  1.00  0.00    -0.320 N 
ATOM     14  C   UNL     1       1.978   0.062   7.318  1.00  0.00     0.149 C 
BRANCH  13  15
ATOM     15  C   UNL     1       2.593   0.159   9.693  1.00  0.00     0.197 C 
BRANCH  15  16
ATOM     16  C   UNL     1       3.967   0.478  10.181  1.00  0.00     0.144 A 
ATOM     17  C   UNL     1       7.475   0.920  10.284  1.00  0.00     0.092 C 
ATOM     18  C   UNL     1       6.025   0.791  10.527  1.00  0.00     0.147 A 
ATOM     19  N   UNL     1       5.489   1.021  11.730  1.00  0.00    -0.159 NA
ATOM     20  N   UNL     1       5.127   0.440   9.549  1.00  0.00    -0.215 NA
ATOM     21  N   UNL     1       4.184   0.852  11.478  1.00  0.00    -0.262 N 
ATOM     22  H   UNL     1       3.470   0.982  12.144  1.00  0.00     0.192 HD
ENDBRANCH  15  16
ENDBRANCH  13  15
ENDBRANCH  10  13
ENDBRANCH   7   9
BRANCH   7  23
ATOM     23  C   UNL     1       0.492   3.523   5.676  1.00  0.00     0.420 C 
ATOM     24  F   UNL     1       0.305   3.679   4.347  1.00  0.00    -0.168 F 
ATOM     25  F   UNL     1      -0.308   2.488   6.054  1.00  0.00    -0.168 F 
ATOM     26  F   UNL     1       0.016   4.621   6.309  1.00  0.00    -0.168 F 
ENDBRANCH   7  23
ENDBRANCH   4   7
ENDBRANCH   2   3
ENDBRANCH   1   2
BRANCH   1  27
ATOM     27  C   UNL     1       7.068   3.733   5.273  1.00  0.00     0.002 C 
BRANCH  27  28
ATOM     28  C   UNL     1       7.795   4.720   6.198  1.00  0.00     0.002 C 
BRANCH  28  29
ATOM     29  C   UNL     1       8.388   4.159   7.499  1.00  0.00     0.021 C 
BRANCH  29  30
ATOM     30  C   UNL     1       9.473   3.117   7.297  1.00  0.00     0.116 C 
BRANCH  30  31
ATOM     31  N   UNL     1      10.672   3.653   6.644  1.00  0.00    -0.352 N 
ATOM     32  C   UNL     1      11.819   2.986   6.239  1.00  0.00     0.251 C 
ATOM     33  H   UNL     1      10.661   4.622   6.469  1.00  0.00     0.163 HD
ATOM     34  O   UNL     1      12.866   3.581   6.061  1.00  0.00    -0.269 OA
BRANCH  32  35
ATOM     35  C   UNL     1      11.742   1.531   6.011  1.00  0.00     0.039 A 
ATOM     36  C   UNL     1      12.807   0.664   6.272  1.00  0.00     0.014 A 
ATOM     37  C   UNL     1      10.537   1.037   5.533  1.00  0.00     0.014 A 
ATOM     38  C   UNL     1      12.611  -0.704   6.084  1.00  0.00     0.010 A 
ATOM     39  C   UNL     1      10.264  -0.292   5.635  1.00  0.00     0.010 A 
ATOM     40  C   UNL     1      11.325  -1.166   5.765  1.00  0.00    -0.014 A 
BRANCH  40  41
ATOM     41  C   UNL     1      11.005  -2.575   5.619  1.00  0.00     0.031 A 
ATOM     42  C   UNL     1      11.283  -3.374   6.832  1.00  0.00     0.074 A 
ATOM     43  C   UNL     1      10.278  -3.045   4.578  1.00  0.00     0.049 A 
ATOM     44  N   UNL     1      12.192  -4.275   6.987  1.00  0.00    -0.248 NA
ATOM     45  C   UNL     1      10.579  -3.013   8.074  1.00  0.00     0.031 C 
ATOM     46  C   UNL     1       9.644  -2.291   3.486  1.00  0.00     0.029 A 
ATOM     47  N   UNL     1       9.861  -4.315   4.330  1.00  0.00    -0.354 N 
ATOM     48  C   UNL     1      12.028  -4.754   8.281  1.00  0.00     0.074 A 
ATOM     49  C   UNL     1      11.196  -3.797   8.959  1.00  0.00     0.031 C 
ATOM     50  C   UNL     1       8.754  -3.077   2.841  1.00  0.00     0.029 A 
ATOM     51  C   UNL     1       8.877  -4.427   3.353  1.00  0.00     0.049 A 
ATOM     52  H   UNL     1      10.228  -5.096   4.806  1.00  0.00     0.167 HD
ATOM     53  C   UNL     1      12.348  -6.044   8.579  1.00  0.00     0.037 A 
ATOM     54  C   UNL     1       8.201  -5.554   3.015  1.00  0.00     0.037 A 
ATOM     55  C   UNL     1      13.203  -6.603   7.556  1.00  0.00     0.049 A 
ATOM     56  C   UNL     1       8.994  -6.703   3.522  1.00  0.00     0.074 A 
ATOM     57  C   UNL     1      14.437  -6.266   7.030  1.00  0.00     0.029 A 
ATOM     58  N   UNL     1      12.629  -7.443   6.632  1.00  0.00    -0.354 N 
ATOM     59  N   UNL     1      10.165  -7.036   3.053  1.00  0.00    -0.248 NA
ATOM     60  C   UNL     1       8.699  -7.178   4.865  1.00  0.00     0.031 C 
ATOM     61  C   UNL     1      14.323  -6.516   5.628  1.00  0.00     0.029 A 
ATOM     62  C   UNL     1      13.064  -7.066   5.388  1.00  0.00     0.049 A 
ATOM     63  H   UNL     1      12.014  -8.186   6.829  1.00  0.00     0.167 HD
ATOM     64  C   UNL     1      10.911  -7.367   4.175  1.00  0.00     0.074 A 
ATOM     65  C   UNL     1       9.933  -7.515   5.251  1.00  0.00     0.031 C 
ATOM     66  C   UNL     1      12.265  -7.193   4.191  1.00  0.00     0.037 A 
BRANCH  53  67
ATOM     67  C   UNL     1      11.562  -6.918   9.535  1.00  0.00     0.064 A 
ATOM     68  C   UNL     1      12.014  -8.233   9.766  1.00  0.00     0.173 A 
ATOM     69  C   UNL     1      10.248  -6.649   9.980  1.00  0.00     0.173 A 
ATOM     70  F   UNL     1      13.247  -8.607   9.392  1.00  0.00    -0.203 F 
ATOM     71  C   UNL     1      11.178  -9.225  10.285  1.00  0.00     0.198 A 
ATOM     72  C   UNL     1       9.434  -7.629  10.547  1.00  0.00     0.198 A 
ATOM     73  F   UNL     1       9.645  -5.471   9.795  1.00  0.00    -0.203 F 
ATOM     74  F   UNL     1      11.610 -10.491  10.345  1.00  0.00    -0.200 F 
ATOM     75  C   UNL     1       9.884  -8.925  10.662  1.00  0.00     0.200 A 
ATOM     76  F   UNL     1       8.177  -7.317  10.895  1.00  0.00    -0.200 F 
ATOM     77  F   UNL     1       9.056  -9.886  11.089  1.00  0.00    -0.200 F 
ENDBRANCH  53  67
BRANCH  54  78
ATOM     78  C   UNL     1       6.790  -5.702   2.579  1.00  0.00     0.064 A 
ATOM     79  C   UNL     1       6.334  -6.895   1.992  1.00  0.00     0.173 A 
ATOM     80  C   UNL     1       5.799  -4.793   2.997  1.00  0.00     0.173 A 
ATOM     81  F   UNL     1       7.210  -7.834   1.606  1.00  0.00    -0.203 F 
ATOM     82  C   UNL     1       4.968  -7.176   1.863  1.00  0.00     0.198 A 
ATOM     83  C   UNL     1       4.437  -5.073   2.865  1.00  0.00     0.198 A 
ATOM     84  F   UNL     1       6.130  -3.661   3.634  1.00  0.00    -0.203 F 
ATOM     85  F   UNL     1       4.572  -8.354   1.361  1.00  0.00    -0.200 F 
ATOM     86  C   UNL     1       4.021  -6.270   2.312  1.00  0.00     0.200 A 
ATOM     87  F   UNL     1       3.531  -4.205   3.340  1.00  0.00    -0.200 F 
ATOM     88  F   UNL     1       2.716  -6.567   2.253  1.00  0.00    -0.200 F 
ENDBRANCH  54  78
BRANCH  66  89
ATOM     89  C   UNL     1      12.949  -6.897   2.882  1.00  0.00     0.064 A 
ATOM     90  C   UNL     1      12.720  -5.746   2.108  1.00  0.00     0.173 A 
ATOM     91  C   UNL     1      13.977  -7.753   2.467  1.00  0.00     0.173 A 
ATOM     92  F   UNL     1      11.823  -4.827   2.484  1.00  0.00    -0.203 F 
ATOM     93  C   UNL     1      13.457  -5.490   0.951  1.00  0.00     0.198 A 
ATOM     94  C   UNL     1      14.736  -7.478   1.334  1.00  0.00     0.198 A 
ATOM     95  F   UNL     1      14.277  -8.841   3.194  1.00  0.00    -0.203 F 
ATOM     96  F   UNL     1      13.207  -4.391   0.224  1.00  0.00    -0.200 F 
ATOM     97  C   UNL     1      14.469  -6.354   0.570  1.00  0.00     0.200 A 
ATOM     98  F   UNL     1      15.746  -8.291   0.997  1.00  0.00    -0.200 F 
ATOM     99  F   UNL     1      15.205  -6.090  -0.519  1.00  0.00    -0.200 F 
ENDBRANCH  66  89
ENDBRANCH  40  41
ENDBRANCH  32  35
ENDBRANCH  30  31
ENDBRANCH  29  30
ENDBRANCH  28  29
ENDBRANCH  27  28
ENDBRANCH   1  27
TORSDOF 18
