REMARK SMILES Cc1c(NCc2ccc(-c3ccc(Cl)cc3)o2)cccc1C(=O)NCCCCCCNC(=O)c1ccc(-c2c3nc(c(-c4c(F)c(F)c(F)c(F)c4F)c4ccc([nH]4)c(-c4c(F)c(F)c(F)c(F)c4F)c4nc(c(-c5c(F)c(F)c(F)c(F)c5F)c5ccc2[nH]5)C=C4)C=C3)cc1
REMARK SMILES IDX 26 1 25 2 24 3 22 4 23 5 21 7 1 8 2 9 3 10 18 11 20 12 19 13
REMARK SMILES IDX 4 14 5 16 6 17 7 18 17 19 8 20 9 21 10 22 11 23 16 24 12 25
REMARK SMILES IDX 15 26 13 27 14 28 27 29 28 30 29 31 30 32 31 33 32 34 33 36
REMARK SMILES IDX 34 37 35 38 96 39 36 40 95 41 37 42 38 43 39 44 89 45 40 46
REMARK SMILES IDX 94 47 88 48 90 49 41 50 93 51 87 52 86 53 42 55 74 56 54 57
REMARK SMILES IDX 73 58 55 59 58 60 72 61 91 62 56 63 57 64 71 66 92 67 59 68
REMARK SMILES IDX 43 69 44 70 52 71 45 72 46 73 50 74 53 75 47 76 48 77 51 78
REMARK SMILES IDX 49 79 75 80 76 81 84 82 77 83 78 84 82 85 85 86 79 87 80 88
REMARK SMILES IDX 83 89 81 90 60 91 61 92 69 93 62 94 63 95 67 96 70 97 64 98
REMARK SMILES IDX 65 99 68 100 66 101
REMARK H PARENT 24 6 4 15 31 35 90 54 58 65
REMARK Flexibility Score: inf
ROOT
ATOM      1  C   UNL     1       4.276   1.780  -0.642  1.00  0.00     0.021 C 
ENDROOT
BRANCH   1   2
ATOM      2  C   UNL     1       3.200   1.989   0.438  1.00  0.00     0.116 C 
BRANCH   2   3
ATOM      3  N   UNL     1       2.057   2.670  -0.136  1.00  0.00    -0.352 N 
ATOM      4  C   UNL     1       0.788   2.287  -0.486  1.00  0.00     0.251 C 
ATOM      5  O   UNL     1       0.094   3.149  -1.032  1.00  0.00    -0.269 OA
ATOM      6  H   UNL     1       2.231   3.623  -0.316  1.00  0.00     0.163 HD
BRANCH   4   7
ATOM      7  C   UNL     1       0.153   0.967  -0.170  1.00  0.00     0.044 A 
ATOM      8  C   UNL     1       2.022  -0.558  -0.999  1.00  0.00     0.047 C 
ATOM      9  C   UNL     1       0.706  -0.327  -0.310  1.00  0.00    -0.015 A 
ATOM     10  C   UNL     1      -0.039  -1.472   0.103  1.00  0.00     0.038 A 
ATOM     11  C   UNL     1      -1.388  -1.306   0.439  1.00  0.00     0.026 A 
ATOM     12  C   UNL     1      -1.201   1.077   0.200  1.00  0.00     0.014 A 
ATOM     13  C   UNL     1      -1.975  -0.046   0.467  1.00  0.00     0.003 A 
BRANCH  10  14
ATOM     14  N   UNL     1       0.559  -2.720   0.116  1.00  0.00    -0.378 N 
ATOM     15  H   UNL     1       1.520  -2.749   0.330  1.00  0.00     0.161 HD
BRANCH  14  16
ATOM     16  C   UNL     1      -0.091  -3.996  -0.154  1.00  0.00     0.188 C 
BRANCH  16  17
ATOM     17  C   UNL     1       0.287  -4.581  -1.474  1.00  0.00     0.123 A 
ATOM     18  C   UNL     1       0.768  -4.036  -2.647  1.00  0.00     0.048 A 
ATOM     19  O   UNL     1       0.152  -5.933  -1.612  1.00  0.00    -0.459 OA
ATOM     20  C   UNL     1       0.993  -5.114  -3.531  1.00  0.00     0.051 A 
ATOM     21  C   UNL     1       0.583  -6.251  -2.868  1.00  0.00     0.134 A 
BRANCH  21  22
ATOM     22  C   UNL     1       0.518  -7.653  -3.238  1.00  0.00     0.017 A 
ATOM     23  C   UNL     1       1.597  -8.262  -3.895  1.00  0.00     0.013 A 
ATOM     24  C   UNL     1      -0.641  -8.400  -2.992  1.00  0.00     0.013 A 
ATOM     25  C   UNL     1       1.514  -9.596  -4.304  1.00  0.00     0.021 A 
ATOM     26  C   UNL     1      -0.730  -9.730  -3.412  1.00  0.00     0.021 A 
ATOM     27  C   UNL     1       0.348 -10.321  -4.067  1.00  0.00     0.041 A 
ATOM     28  Cl  UNL     1       0.236 -11.954  -4.595  1.00  0.00    -0.084 Cl
ENDBRANCH  21  22
ENDBRANCH  16  17
ENDBRANCH  14  16
ENDBRANCH  10  14
ENDBRANCH   4   7
ENDBRANCH   2   3
ENDBRANCH   1   2
BRANCH   1  29
ATOM     29  C   UNL     1       5.348   2.875  -0.726  1.00  0.00     0.002 C 
BRANCH  29  30
ATOM     30  C   UNL     1       6.255   3.037   0.503  1.00  0.00     0.002 C 
BRANCH  30  31
ATOM     31  C   UNL     1       6.824   1.745   1.093  1.00  0.00     0.021 C 
BRANCH  31  32
ATOM     32  C   UNL     1       7.833   1.037   0.194  1.00  0.00     0.116 C 
BRANCH  32  33
ATOM     33  N   UNL     1       9.223   1.328   0.526  1.00  0.00    -0.352 N 
ATOM     34  C   UNL     1      10.378   0.984  -0.147  1.00  0.00     0.251 C 
ATOM     35  H   UNL     1       9.357   1.845   1.352  1.00  0.00     0.163 HD
ATOM     36  O   UNL     1      11.476   1.277   0.322  1.00  0.00    -0.269 OA
BRANCH  34  37
ATOM     37  C   UNL     1      10.293   0.371  -1.492  1.00  0.00     0.039 A 
ATOM     38  C   UNL     1      11.101   0.893  -2.511  1.00  0.00     0.014 A 
ATOM     39  C   UNL     1       9.327  -0.587  -1.789  1.00  0.00     0.014 A 
ATOM     40  C   UNL     1      10.783   0.629  -3.842  1.00  0.00     0.010 A 
ATOM     41  C   UNL     1       8.956  -0.781  -3.105  1.00  0.00     0.010 A 
ATOM     42  C   UNL     1       9.641  -0.119  -4.128  1.00  0.00    -0.014 A 
BRANCH  42  43
ATOM     43  C   UNL     1       9.031  -0.178  -5.452  1.00  0.00     0.031 A 
ATOM     44  C   UNL     1       9.191  -1.371  -6.309  1.00  0.00     0.074 A 
ATOM     45  C   UNL     1       8.242   0.843  -5.855  1.00  0.00     0.049 A 
ATOM     46  N   UNL     1       8.992  -1.382  -7.584  1.00  0.00    -0.248 NA
ATOM     47  C   UNL     1       9.628  -2.658  -5.783  1.00  0.00     0.031 C 
ATOM     48  C   UNL     1       7.343   0.875  -7.006  1.00  0.00     0.029 A 
ATOM     49  N   UNL     1       8.278   2.173  -5.405  1.00  0.00    -0.354 N 
ATOM     50  C   UNL     1       9.051  -2.687  -8.014  1.00  0.00     0.074 A 
ATOM     51  C   UNL     1       9.480  -3.441  -6.856  1.00  0.00     0.031 C 
ATOM     52  C   UNL     1       7.168   2.154  -7.376  1.00  0.00     0.029 A 
ATOM     53  C   UNL     1       8.060   2.960  -6.562  1.00  0.00     0.049 A 
ATOM     54  H   UNL     1       8.422   2.490  -4.484  1.00  0.00     0.167 HD
ATOM     55  C   UNL     1       8.638  -2.995  -9.278  1.00  0.00     0.037 A 
ATOM     56  C   UNL     1       9.040   3.782  -7.040  1.00  0.00     0.037 A 
ATOM     57  C   UNL     1       8.293  -1.798 -10.038  1.00  0.00     0.049 A 
ATOM     58  C   UNL     1       9.504   3.466  -8.446  1.00  0.00     0.074 A 
ATOM     59  C   UNL     1       7.109  -1.132 -10.312  1.00  0.00     0.029 A 
ATOM     60  N   UNL     1       9.310  -0.936 -10.404  1.00  0.00    -0.354 N 
ATOM     61  N   UNL     1       9.138   2.413  -9.123  1.00  0.00    -0.248 NA
ATOM     62  C   UNL     1      10.509   4.263  -9.154  1.00  0.00     0.031 C 
ATOM     63  C   UNL     1       7.434   0.159 -10.817  1.00  0.00     0.029 A 
ATOM     64  C   UNL     1       8.811   0.270 -10.852  1.00  0.00     0.049 A 
ATOM     65  H   UNL     1      10.269  -1.155 -10.351  1.00  0.00     0.167 HD
ATOM     66  C   UNL     1       9.852   2.359 -10.287  1.00  0.00     0.074 A 
ATOM     67  C   UNL     1      10.699   3.535 -10.266  1.00  0.00     0.031 C 
ATOM     68  C   UNL     1       9.737   1.336 -11.178  1.00  0.00     0.037 A 
BRANCH  55  69
ATOM     69  C   UNL     1       8.350  -4.395  -9.761  1.00  0.00     0.064 A 
ATOM     70  C   UNL     1       7.342  -4.632 -10.721  1.00  0.00     0.173 A 
ATOM     71  C   UNL     1       8.999  -5.550  -9.288  1.00  0.00     0.173 A 
ATOM     72  F   UNL     1       6.706  -3.624 -11.331  1.00  0.00    -0.203 F 
ATOM     73  C   UNL     1       6.941  -5.920 -11.086  1.00  0.00     0.198 A 
ATOM     74  C   UNL     1       8.557  -6.839  -9.604  1.00  0.00     0.198 A 
ATOM     75  F   UNL     1      10.113  -5.468  -8.550  1.00  0.00    -0.203 F 
ATOM     76  F   UNL     1       5.976  -6.081 -12.002  1.00  0.00    -0.200 F 
ATOM     77  C   UNL     1       7.520  -7.024 -10.496  1.00  0.00     0.200 A 
ATOM     78  F   UNL     1       9.145  -7.902  -9.037  1.00  0.00    -0.200 F 
ATOM     79  F   UNL     1       7.098  -8.258 -10.802  1.00  0.00    -0.200 F 
ENDBRANCH  55  69
BRANCH  56  80
ATOM     80  C   UNL     1       9.915   4.326  -5.966  1.00  0.00     0.064 A 
ATOM     81  C   UNL     1       9.323   5.081  -4.933  1.00  0.00     0.173 A 
ATOM     82  C   UNL     1      11.203   3.829  -5.747  1.00  0.00     0.173 A 
ATOM     83  F   UNL     1       8.087   5.583  -5.091  1.00  0.00    -0.203 F 
ATOM     84  C   UNL     1       9.941   5.219  -3.693  1.00  0.00     0.198 A 
ATOM     85  C   UNL     1      11.831   3.992  -4.511  1.00  0.00     0.198 A 
ATOM     86  F   UNL     1      11.815   3.087  -6.682  1.00  0.00    -0.203 F 
ATOM     87  F   UNL     1       9.298   5.834  -2.690  1.00  0.00    -0.200 F 
ATOM     88  C   UNL     1      11.185   4.652  -3.476  1.00  0.00     0.200 A 
ATOM     89  F   UNL     1      13.024   3.422  -4.294  1.00  0.00    -0.200 F 
ATOM     90  F   UNL     1      11.743   4.703  -2.259  1.00  0.00    -0.200 F 
ENDBRANCH  56  80
BRANCH  68  91
ATOM     91  C   UNL     1      10.511   1.288 -12.453  1.00  0.00     0.064 A 
ATOM     92  C   UNL     1      10.499   2.355 -13.363  1.00  0.00     0.173 A 
ATOM     93  C   UNL     1      11.189   0.120 -12.850  1.00  0.00     0.173 A 
ATOM     94  F   UNL     1       9.849   3.492 -13.072  1.00  0.00    -0.203 F 
ATOM     95  C   UNL     1      11.149   2.266 -14.594  1.00  0.00     0.198 A 
ATOM     96  C   UNL     1      11.799   0.018 -14.097  1.00  0.00     0.198 A 
ATOM     97  F   UNL     1      11.288  -0.935 -12.028  1.00  0.00    -0.203 F 
ATOM     98  F   UNL     1      11.151   3.318 -15.423  1.00  0.00    -0.200 F 
ATOM     99  C   UNL     1      11.786   1.093 -14.966  1.00  0.00     0.200 A 
ATOM    100  F   UNL     1      12.402  -1.126 -14.451  1.00  0.00    -0.200 F 
ATOM    101  F   UNL     1      12.390   1.001 -16.158  1.00  0.00    -0.200 F 
ENDBRANCH  68  91
ENDBRANCH  42  43
ENDBRANCH  34  37
ENDBRANCH  32  33
ENDBRANCH  31  32
ENDBRANCH  30  31
ENDBRANCH  29  30
ENDBRANCH   1  29
TORSDOF 17
