REMARK SMILES CC(C)N(c1cc2c(cc1Cl)C=C(C(=O)NCCCCCCNC(=O)c1ccc(-c3c4nc(c(-c5c(F)c(F)c(F)c(F)c5F)c5ccc([nH]5)c(-c5c(F)c(F)c(F)c(F)c5F)c5nc(c(-c6c(F)c(F)c(F)c(F)c6F)c6ccc3[nH]6)C=C5)C=C4)cc1)[C@@H](C(F)(F)F)O2)C(C)C
REMARK SMILES IDX 19 1 18 2 17 3 16 4 14 5 15 6 13 8 5 9 6 10 10 11 7 12 9 13
REMARK SMILES IDX 11 14 8 15 94 16 12 17 89 18 4 19 2 20 1 21 3 22 95 23 96 24
REMARK SMILES IDX 97 25 90 26 91 27 92 28 93 29 20 30 21 31 22 32 23 33 24 34
REMARK SMILES IDX 25 36 26 37 27 38 88 39 28 40 87 41 29 42 30 43 31 44 81 45
REMARK SMILES IDX 32 46 86 47 80 48 82 49 33 50 85 51 79 52 78 53 34 55 66 56
REMARK SMILES IDX 46 57 65 58 47 59 50 60 64 61 83 62 48 63 49 64 63 66 84 67
REMARK SMILES IDX 51 68 35 69 36 70 44 71 37 72 38 73 42 74 45 75 39 76 40 77
REMARK SMILES IDX 43 78 41 79 67 80 68 81 76 82 69 83 70 84 74 85 77 86 71 87
REMARK SMILES IDX 72 88 75 89 73 90 52 91 53 92 61 93 54 94 55 95 59 96 62 97
REMARK SMILES IDX 56 98 57 99 60 100 58 101
REMARK H PARENT 16 7 23 35 82 54 50 65
REMARK Flexibility Score: inf
ROOT
ATOM      1  C   UNL     1      -8.779  -5.795  -5.902  1.00  0.00     0.002 C 
ENDROOT
BRANCH   1   2
ATOM      2  C   UNL     1      -7.754  -4.851  -5.262  1.00  0.00     0.021 C 
BRANCH   2   3
ATOM      3  C   UNL     1      -7.752  -4.874  -3.736  1.00  0.00     0.116 C 
BRANCH   3   4
ATOM      4  N   UNL     1      -6.947  -5.963  -3.213  1.00  0.00    -0.352 N 
ATOM      5  C   UNL     1      -5.842  -6.105  -2.446  1.00  0.00     0.251 C 
ATOM      6  O   UNL     1      -5.510  -7.274  -2.222  1.00  0.00    -0.270 OA
ATOM      7  H   UNL     1      -7.302  -6.837  -3.494  1.00  0.00     0.163 HD
BRANCH   5   8
ATOM      8  C   UNL     1      -5.031  -4.989  -1.874  1.00  0.00     0.067 C 
ATOM      9  C   UNL     1      -1.522  -2.242   0.559  1.00  0.00     0.060 A 
ATOM     10  C   UNL     1      -2.541  -1.974  -0.373  1.00  0.00     0.074 A 
ATOM     11  C   UNL     1      -1.301  -3.604   0.876  1.00  0.00     0.065 A 
ATOM     12  C   UNL     1      -3.327  -2.989  -0.917  1.00  0.00     0.130 A 
ATOM     13  C   UNL     1      -2.060  -4.629   0.281  1.00  0.00     0.034 A 
ATOM     14  Cl  UNL     1      -0.167  -4.121   2.081  1.00  0.00    -0.082 Cl
ATOM     15  C   UNL     1      -3.086  -4.321  -0.609  1.00  0.00     0.019 A 
ATOM     16  O   UNL     1      -4.314  -2.600  -1.775  1.00  0.00    -0.475 OA
ATOM     17  C   UNL     1      -3.904  -5.354  -1.231  1.00  0.00     0.025 C 
ATOM     18  C   UNL     1      -5.415  -3.537  -1.936  1.00  0.00     0.314 C 
BRANCH   9  19
ATOM     19  N   UNL     1      -0.819  -1.159   1.127  1.00  0.00    -0.365 N 
BRANCH  19  20
ATOM     20  C   UNL     1       0.654  -1.154   0.977  1.00  0.00     0.076 C 
ATOM     21  C   UNL     1       1.147  -0.123  -0.036  1.00  0.00     0.030 C 
ATOM     22  C   UNL     1       1.393  -1.004   2.304  1.00  0.00     0.030 C 
ENDBRANCH  19  20
BRANCH  19  23
ATOM     23  C   UNL     1      -1.646  -0.056   1.671  1.00  0.00     0.076 C 
ATOM     24  C   UNL     1      -1.411   0.184   3.159  1.00  0.00     0.030 C 
ATOM     25  C   UNL     1      -1.541   1.242   0.875  1.00  0.00     0.030 C 
ENDBRANCH  19  23
ENDBRANCH   9  19
BRANCH  18  26
ATOM     26  C   UNL     1      -6.545  -3.181  -0.951  1.00  0.00     0.429 C 
ATOM     27  F   UNL     1      -7.061  -1.960  -1.241  1.00  0.00    -0.167 F 
ATOM     28  F   UNL     1      -7.579  -4.054  -1.013  1.00  0.00    -0.167 F 
ATOM     29  F   UNL     1      -6.130  -3.152   0.334  1.00  0.00    -0.167 F 
ENDBRANCH  18  26
ENDBRANCH   5   8
ENDBRANCH   3   4
ENDBRANCH   2   3
ENDBRANCH   1   2
BRANCH   1  30
ATOM     30  C   UNL     1     -10.236  -5.587  -5.466  1.00  0.00     0.002 C 
BRANCH  30  31
ATOM     31  C   UNL     1     -10.741  -4.143  -5.501  1.00  0.00     0.021 C 
BRANCH  31  32
ATOM     32  C   UNL     1     -10.649  -3.461  -6.861  1.00  0.00     0.116 C 
BRANCH  32  33
ATOM     33  N   UNL     1     -11.496  -4.088  -7.862  1.00  0.00    -0.352 N 
ATOM     34  C   UNL     1     -12.405  -3.512  -8.715  1.00  0.00     0.251 C 
ATOM     35  H   UNL     1     -11.405  -5.066  -7.939  1.00  0.00     0.163 HD
ATOM     36  O   UNL     1     -13.144  -4.211  -9.401  1.00  0.00    -0.269 OA
BRANCH  34  37
ATOM     37  C   UNL     1     -12.515  -2.039  -8.781  1.00  0.00     0.039 A 
ATOM     38  C   UNL     1     -11.372  -1.241  -8.860  1.00  0.00     0.014 A 
ATOM     39  C   UNL     1     -13.782  -1.449  -8.744  1.00  0.00     0.014 A 
ATOM     40  C   UNL     1     -11.487   0.140  -8.742  1.00  0.00     0.010 A 
ATOM     41  C   UNL     1     -13.900  -0.057  -8.706  1.00  0.00     0.010 A 
ATOM     42  C   UNL     1     -12.751   0.747  -8.656  1.00  0.00    -0.014 A 
BRANCH  42  43
ATOM     43  C   UNL     1     -12.840   2.223  -8.510  1.00  0.00     0.031 A 
ATOM     44  C   UNL     1     -13.373   2.840  -7.246  1.00  0.00     0.074 A 
ATOM     45  C   UNL     1     -12.372   3.009  -9.499  1.00  0.00     0.049 A 
ATOM     46  N   UNL     1     -13.480   4.106  -6.928  1.00  0.00    -0.248 NA
ATOM     47  C   UNL     1     -13.850   1.920  -6.202  1.00  0.00     0.031 C 
ATOM     48  C   UNL     1     -11.824   2.525 -10.767  1.00  0.00     0.029 A 
ATOM     49  N   UNL     1     -12.252   4.373  -9.583  1.00  0.00    -0.354 N 
ATOM     50  C   UNL     1     -14.046   4.134  -5.660  1.00  0.00     0.074 A 
ATOM     51  C   UNL     1     -14.289   2.761  -5.275  1.00  0.00     0.031 C 
ATOM     52  C   UNL     1     -11.371   3.570 -11.475  1.00  0.00     0.029 A 
ATOM     53  C   UNL     1     -11.648   4.799 -10.740  1.00  0.00     0.049 A 
ATOM     54  H   UNL     1     -12.569   4.987  -8.881  1.00  0.00     0.167 HD
ATOM     55  C   UNL     1     -14.323   5.208  -4.883  1.00  0.00     0.037 A 
ATOM     56  C   UNL     1     -11.353   6.042 -11.164  1.00  0.00     0.037 A 
ATOM     57  C   UNL     1     -14.057   6.573  -5.257  1.00  0.00     0.049 A 
ATOM     58  C   UNL     1     -11.707   7.217 -10.297  1.00  0.00     0.074 A 
ATOM     59  C   UNL     1     -14.283   7.727  -4.526  1.00  0.00     0.029 A 
ATOM     60  N   UNL     1     -13.503   6.968  -6.465  1.00  0.00    -0.354 N 
ATOM     61  N   UNL     1     -12.235   7.228  -9.098  1.00  0.00    -0.248 NA
ATOM     62  C   UNL     1     -11.434   8.552 -10.848  1.00  0.00     0.031 C 
ATOM     63  C   UNL     1     -13.900   8.822  -5.306  1.00  0.00     0.029 A 
ATOM     64  C   UNL     1     -13.398   8.349  -6.508  1.00  0.00     0.049 A 
ATOM     65  H   UNL     1     -13.226   6.357  -7.186  1.00  0.00     0.167 HD
ATOM     66  C   UNL     1     -12.354   8.564  -8.747  1.00  0.00     0.074 A 
ATOM     67  C   UNL     1     -11.820   9.336  -9.850  1.00  0.00     0.031 C 
ATOM     68  C   UNL     1     -12.867   9.102  -7.614  1.00  0.00     0.037 A 
BRANCH  55  69
ATOM     69  C   UNL     1     -14.948   4.962  -3.541  1.00  0.00     0.064 A 
ATOM     70  C   UNL     1     -14.203   4.445  -2.471  1.00  0.00     0.173 A 
ATOM     71  C   UNL     1     -16.284   5.316  -3.302  1.00  0.00     0.173 A 
ATOM     72  F   UNL     1     -12.925   4.081  -2.651  1.00  0.00    -0.203 F 
ATOM     73  C   UNL     1     -14.778   4.282  -1.212  1.00  0.00     0.198 A 
ATOM     74  C   UNL     1     -16.848   5.174  -2.037  1.00  0.00     0.198 A 
ATOM     75  F   UNL     1     -17.037   5.821  -4.291  1.00  0.00    -0.203 F 
ATOM     76  F   UNL     1     -14.055   3.761  -0.211  1.00  0.00    -0.200 F 
ATOM     77  C   UNL     1     -16.096   4.655  -0.994  1.00  0.00     0.200 A 
ATOM     78  F   UNL     1     -18.118   5.547  -1.825  1.00  0.00    -0.200 F 
ATOM     79  F   UNL     1     -16.642   4.512   0.221  1.00  0.00    -0.200 F 
ENDBRANCH  55  69
BRANCH  56  80
ATOM     80  C   UNL     1     -10.675   6.228 -12.472  1.00  0.00     0.064 A 
ATOM     81  C   UNL     1      -9.342   6.655 -12.535  1.00  0.00     0.173 A 
ATOM     82  C   UNL     1     -11.332   5.952 -13.680  1.00  0.00     0.173 A 
ATOM     83  F   UNL     1      -8.680   6.950 -11.407  1.00  0.00    -0.203 F 
ATOM     84  C   UNL     1      -8.692   6.801 -13.759  1.00  0.00     0.198 A 
ATOM     85  C   UNL     1     -10.673   6.072 -14.901  1.00  0.00     0.198 A 
ATOM     86  F   UNL     1     -12.608   5.538 -13.671  1.00  0.00    -0.203 F 
ATOM     87  F   UNL     1      -7.425   7.236 -13.794  1.00  0.00    -0.200 F 
ATOM     88  C   UNL     1      -9.355   6.500 -14.940  1.00  0.00     0.200 A 
ATOM     89  F   UNL     1     -11.312   5.765 -16.038  1.00  0.00    -0.200 F 
ATOM     90  F   UNL     1      -8.724   6.625 -16.115  1.00  0.00    -0.200 F 
ENDBRANCH  56  80
BRANCH  68  91
ATOM     91  C   UNL     1     -12.877  10.597  -7.503  1.00  0.00     0.064 A 
ATOM     92  C   UNL     1     -13.797  11.373  -8.222  1.00  0.00     0.173 A 
ATOM     93  C   UNL     1     -12.005  11.252  -6.622  1.00  0.00     0.173 A 
ATOM     94  F   UNL     1     -14.640  10.792  -9.087  1.00  0.00    -0.203 F 
ATOM     95  C   UNL     1     -13.836  12.756  -8.069  1.00  0.00     0.198 A 
ATOM     96  C   UNL     1     -12.063  12.632  -6.453  1.00  0.00     0.198 A 
ATOM     97  F   UNL     1     -11.111  10.551  -5.908  1.00  0.00    -0.203 F 
ATOM     98  F   UNL     1     -14.703  13.483  -8.787  1.00  0.00    -0.200 F 
ATOM     99  C   UNL     1     -12.976  13.383  -7.179  1.00  0.00     0.200 A 
ATOM    100  F   UNL     1     -11.240  13.236  -5.585  1.00  0.00    -0.200 F 
ATOM    101  F   UNL     1     -13.025  14.713  -7.023  1.00  0.00    -0.200 F 
ENDBRANCH  68  91
ENDBRANCH  42  43
ENDBRANCH  34  37
ENDBRANCH  32  33
ENDBRANCH  31  32
ENDBRANCH  30  31
ENDBRANCH   1  30
TORSDOF 17
