REMARK SMILES C[C@@H](C(=O)NCc1ccc(F)cc1)n1cc(C(=O)NCCCCCCNC(=O)c2ccc(-c3c4nc(c(-c5c(F)c(F)c(F)c(F)c5F)c5ccc([nH]5)c(-c5c(F)c(F)c(F)c(F)c5F)c5nc(c(-c6c(F)c(F)c(F)c(F)c6F)c6ccc3[nH]6)C=C5)C=C4)cc2)cn1
REMARK SMILES IDX 21 1 20 2 19 3 17 4 18 5 16 7 14 8 15 9 93 10 92 11 2 12
REMARK SMILES IDX 1 13 3 14 4 15 5 16 6 18 7 19 8 20 13 21 9 22 12 23 10 24
REMARK SMILES IDX 11 25 22 26 23 27 24 28 25 29 26 30 27 31 28 33 29 34 30 35
REMARK SMILES IDX 91 36 31 37 90 38 32 39 33 40 34 41 84 42 35 43 89 44 83 45
REMARK SMILES IDX 85 46 36 47 88 48 82 49 81 50 37 52 69 53 49 54 68 55 50 56
REMARK SMILES IDX 53 57 67 58 86 59 51 60 52 61 66 63 87 64 54 65 38 66 39 67
REMARK SMILES IDX 47 68 40 69 41 70 45 71 48 72 42 73 43 74 46 75 44 76 70 77
REMARK SMILES IDX 71 78 79 79 72 80 73 81 77 82 80 83 74 84 75 85 78 86 76 87
REMARK SMILES IDX 55 88 56 89 64 90 57 91 58 92 62 93 65 94 59 95 60 96 63 97
REMARK SMILES IDX 61 98
REMARK H PARENT 19 6 5 17 26 32 85 51 53 62
REMARK Flexibility Score: inf
ROOT
ATOM      1  C   UNL     1      -3.210  -5.619   0.209  1.00  0.00     0.021 C 
ENDROOT
BRANCH   1   2
ATOM      2  C   UNL     1      -3.038  -4.647  -0.956  1.00  0.00     0.116 C 
BRANCH   2   3
ATOM      3  N   UNL     1      -4.181  -3.780  -1.162  1.00  0.00    -0.352 N 
ATOM      4  C   UNL     1      -4.257  -2.414  -1.308  1.00  0.00     0.254 C 
ATOM      5  O   UNL     1      -5.376  -1.909  -1.382  1.00  0.00    -0.269 OA
ATOM      6  H   UNL     1      -5.047  -4.246  -1.206  1.00  0.00     0.163 HD
BRANCH   4   7
ATOM      7  C   UNL     1      -3.061  -1.592  -1.305  1.00  0.00     0.077 A 
ATOM      8  N   UNL     1      -0.994  -0.850  -1.188  1.00  0.00    -0.260 N 
ATOM      9  C   UNL     1      -1.760  -1.872  -1.682  1.00  0.00     0.123 A 
ATOM     10  N   UNL     1      -1.744   0.243  -0.918  1.00  0.00    -0.180 NA
ATOM     11  C   UNL     1      -2.994  -0.227  -0.938  1.00  0.00     0.149 A 
BRANCH   8  12
ATOM     12  C   UNL     1       0.460  -0.823  -0.955  1.00  0.00     0.193 C 
ATOM     13  C   UNL     1       0.814   0.160   0.165  1.00  0.00     0.044 C 
BRANCH  12  14
ATOM     14  C   UNL     1       1.028  -2.207  -0.602  1.00  0.00     0.244 C 
ATOM     15  O   UNL     1       0.341  -3.144  -0.186  1.00  0.00    -0.273 OA
ATOM     16  N   UNL     1       2.359  -2.475  -0.747  1.00  0.00    -0.350 N 
ATOM     17  H   UNL     1       2.597  -3.423  -0.632  1.00  0.00     0.163 HD
BRANCH  16  18
ATOM     18  C   UNL     1       3.484  -1.607  -1.042  1.00  0.00     0.151 C 
BRANCH  18  19
ATOM     19  C   UNL     1       4.326  -1.380   0.195  1.00  0.00    -0.029 A 
ATOM     20  C   UNL     1       4.576  -0.080   0.662  1.00  0.00     0.008 A 
ATOM     21  C   UNL     1       4.872  -2.467   0.903  1.00  0.00     0.008 A 
ATOM     22  C   UNL     1       5.311   0.128   1.832  1.00  0.00     0.039 A 
ATOM     23  C   UNL     1       5.613  -2.257   2.068  1.00  0.00     0.039 A 
ATOM     24  C   UNL     1       5.819  -0.962   2.526  1.00  0.00     0.123 A 
ATOM     25  F   UNL     1       6.517  -0.763   3.651  1.00  0.00    -0.207 F 
ENDBRANCH  18  19
ENDBRANCH  16  18
ENDBRANCH  12  14
ENDBRANCH   8  12
ENDBRANCH   4   7
ENDBRANCH   2   3
ENDBRANCH   1   2
BRANCH   1  26
ATOM     26  C   UNL     1      -4.278  -6.698   0.034  1.00  0.00     0.002 C 
BRANCH  26  27
ATOM     27  C   UNL     1      -4.201  -7.538  -1.247  1.00  0.00     0.002 C 
BRANCH  27  28
ATOM     28  C   UNL     1      -2.845  -8.177  -1.582  1.00  0.00     0.021 C 
BRANCH  28  29
ATOM     29  C   UNL     1      -2.325  -9.151  -0.535  1.00  0.00     0.116 C 
BRANCH  29  30
ATOM     30  N   UNL     1      -3.161 -10.340  -0.405  1.00  0.00    -0.352 N 
ATOM     31  C   UNL     1      -3.007 -11.406   0.460  1.00  0.00     0.251 C 
ATOM     32  H   UNL     1      -3.934 -10.389  -1.012  1.00  0.00     0.163 HD
ATOM     33  O   UNL     1      -3.523 -12.486   0.225  1.00  0.00    -0.269 OA
BRANCH  31  34
ATOM     34  C   UNL     1      -2.199 -11.223   1.681  1.00  0.00     0.039 A 
ATOM     35  C   UNL     1      -1.342 -12.233   2.125  1.00  0.00     0.014 A 
ATOM     36  C   UNL     1      -2.302 -10.020   2.377  1.00  0.00     0.014 A 
ATOM     37  C   UNL     1      -0.528 -11.989   3.228  1.00  0.00     0.010 A 
ATOM     38  C   UNL     1      -1.407  -9.729   3.378  1.00  0.00     0.010 A 
ATOM     39  C   UNL     1      -0.545 -10.722   3.834  1.00  0.00    -0.014 A 
BRANCH  39  40
ATOM     40  C   UNL     1       0.463 -10.374   4.834  1.00  0.00     0.031 A 
ATOM     41  C   UNL     1       1.859 -10.559   4.348  1.00  0.00     0.074 A 
ATOM     42  C   UNL     1       0.173  -9.732   5.989  1.00  0.00     0.049 A 
ATOM     43  N   UNL     1       2.751 -11.374   4.801  1.00  0.00    -0.248 NA
ATOM     44  C   UNL     1       2.276  -9.860   3.116  1.00  0.00     0.031 C 
ATOM     45  C   UNL     1      -1.134  -9.201   6.397  1.00  0.00     0.029 A 
ATOM     46  N   UNL     1       0.994  -9.296   6.991  1.00  0.00    -0.354 N 
ATOM     47  C   UNL     1       3.907 -11.127   4.063  1.00  0.00     0.074 A 
ATOM     48  C   UNL     1       3.506 -10.344   2.928  1.00  0.00     0.031 C 
ATOM     49  C   UNL     1      -0.970  -8.309   7.398  1.00  0.00     0.029 A 
ATOM     50  C   UNL     1       0.416  -8.338   7.822  1.00  0.00     0.049 A 
ATOM     51  H   UNL     1       1.912  -9.630   7.115  1.00  0.00     0.167 HD
ATOM     52  C   UNL     1       5.131 -11.324   4.627  1.00  0.00     0.037 A 
ATOM     53  C   UNL     1       1.042  -7.597   8.769  1.00  0.00     0.037 A 
ATOM     54  C   UNL     1       5.006 -12.097   5.834  1.00  0.00     0.049 A 
ATOM     55  C   UNL     1       2.290  -8.305   9.129  1.00  0.00     0.074 A 
ATOM     56  C   UNL     1       4.770 -13.412   6.163  1.00  0.00     0.029 A 
ATOM     57  N   UNL     1       4.712 -11.338   6.933  1.00  0.00    -0.354 N 
ATOM     58  N   UNL     1       2.319  -9.454   9.743  1.00  0.00    -0.248 NA
ATOM     59  C   UNL     1       3.545  -7.892   8.508  1.00  0.00     0.031 C 
ATOM     60  C   UNL     1       4.176 -13.395   7.461  1.00  0.00     0.029 A 
ATOM     61  C   UNL     1       4.118 -12.079   7.914  1.00  0.00     0.049 A 
ATOM     62  H   UNL     1       4.905 -10.375   7.008  1.00  0.00     0.167 HD
ATOM     63  C   UNL     1       3.423 -10.088   9.214  1.00  0.00     0.074 A 
ATOM     64  C   UNL     1       4.231  -9.031   8.622  1.00  0.00     0.031 C 
ATOM     65  C   UNL     1       3.405 -11.433   8.993  1.00  0.00     0.037 A 
BRANCH  52  66
ATOM     66  C   UNL     1       6.338 -10.428   4.419  1.00  0.00     0.064 A 
ATOM     67  C   UNL     1       6.265  -9.098   3.951  1.00  0.00     0.173 A 
ATOM     68  C   UNL     1       7.570 -10.790   5.010  1.00  0.00     0.173 A 
ATOM     69  F   UNL     1       5.131  -8.569   3.479  1.00  0.00    -0.203 F 
ATOM     70  C   UNL     1       7.330  -8.204   4.059  1.00  0.00     0.198 A 
ATOM     71  C   UNL     1       8.617  -9.875   5.163  1.00  0.00     0.198 A 
ATOM     72  F   UNL     1       7.746 -12.015   5.526  1.00  0.00    -0.203 F 
ATOM     73  F   UNL     1       7.180  -6.947   3.618  1.00  0.00    -0.200 F 
ATOM     74  C   UNL     1       8.497  -8.583   4.688  1.00  0.00     0.200 A 
ATOM     75  F   UNL     1       9.723 -10.232   5.832  1.00  0.00    -0.200 F 
ATOM     76  F   UNL     1       9.478  -7.690   4.875  1.00  0.00    -0.200 F 
ENDBRANCH  52  66
BRANCH  53  77
ATOM     77  C   UNL     1       0.794  -6.199   9.204  1.00  0.00     0.064 A 
ATOM     78  C   UNL     1       0.234  -5.246   8.332  1.00  0.00     0.173 A 
ATOM     79  C   UNL     1       1.405  -5.696  10.367  1.00  0.00     0.173 A 
ATOM     80  F   UNL     1      -0.333  -5.620   7.177  1.00  0.00    -0.203 F 
ATOM     81  C   UNL     1       0.340  -3.875   8.575  1.00  0.00     0.198 A 
ATOM     82  C   UNL     1       1.518  -4.322  10.605  1.00  0.00     0.198 A 
ATOM     83  F   UNL     1       1.980  -6.532  11.244  1.00  0.00    -0.203 F 
ATOM     84  F   UNL     1      -0.136  -3.002   7.675  1.00  0.00    -0.200 F 
ATOM     85  C   UNL     1       1.004  -3.413   9.697  1.00  0.00     0.200 A 
ATOM     86  F   UNL     1       2.192  -3.883  11.677  1.00  0.00    -0.200 F 
ATOM     87  F   UNL     1       1.188  -2.098   9.878  1.00  0.00    -0.200 F 
ENDBRANCH  53  77
BRANCH  65  88
ATOM     88  C   UNL     1       2.485 -12.265   9.828  1.00  0.00     0.064 A 
ATOM     89  C   UNL     1       3.073 -13.243  10.643  1.00  0.00     0.173 A 
ATOM     90  C   UNL     1       1.083 -12.199   9.799  1.00  0.00     0.173 A 
ATOM     91  F   UNL     1       4.409 -13.369  10.683  1.00  0.00    -0.203 F 
ATOM     92  C   UNL     1       2.300 -14.125  11.387  1.00  0.00     0.198 A 
ATOM     93  C   UNL     1       0.310 -13.058  10.581  1.00  0.00     0.198 A 
ATOM     94  F   UNL     1       0.446 -11.341   8.991  1.00  0.00    -0.203 F 
ATOM     95  F   UNL     1       2.896 -15.085  12.108  1.00  0.00    -0.200 F 
ATOM     96  C   UNL     1       0.919 -14.026  11.365  1.00  0.00     0.200 A 
ATOM     97  F   UNL     1      -1.028 -12.968  10.556  1.00  0.00    -0.200 F 
ATOM     98  F   UNL     1       0.176 -14.878  12.084  1.00  0.00    -0.200 F 
ENDBRANCH  65  88
ENDBRANCH  39  40
ENDBRANCH  31  34
ENDBRANCH  29  30
ENDBRANCH  28  29
ENDBRANCH  27  28
ENDBRANCH  26  27
ENDBRANCH   1  26
TORSDOF 17
