REMARK SMILES NS(=O)(=O)c1ccc(N2N=C(C(=O)NCCCCCCNC(=O)c3ccc(-c4c5nc(c(-c6c(F)c(F)c(F)c(F)c6F)c6ccc([nH]6)c(-c6c(F)c(F)c(F)c(F)c6F)c6nc(c(-c7c(F)c(F)c(F)c(F)c7F)c7ccc4[nH]7)C=C6)C=C5)cc3)C[C@H]2c2cccs2)cc1
REMARK SMILES IDX 17 1 16 2 15 3 14 4 12 5 13 6 11 8 9 9 10 10 88 11 87 12
REMARK SMILES IDX 8 13 5 14 6 15 95 16 7 17 94 18 2 19 3 20 4 21 1 22 89 25
REMARK SMILES IDX 90 26 93 27 91 28 92 29 18 30 19 31 20 32 21 33 22 34 23 36
REMARK SMILES IDX 24 37 25 38 86 39 26 40 85 41 27 42 28 43 29 44 79 45 30 46
REMARK SMILES IDX 84 47 78 48 80 49 31 50 83 51 77 52 76 53 32 55 64 56 44 57
REMARK SMILES IDX 63 58 45 59 48 60 62 61 81 62 46 63 47 64 61 66 82 67 49 68
REMARK SMILES IDX 33 69 34 70 42 71 35 72 36 73 40 74 43 75 37 76 38 77 41 78
REMARK SMILES IDX 39 79 65 80 66 81 74 82 67 83 68 84 72 85 75 86 69 87 70 88
REMARK SMILES IDX 73 89 71 90 50 91 51 92 59 93 52 94 53 95 57 96 60 97 54 98
REMARK SMILES IDX 55 99 58 100 56 101
REMARK H PARENT 14 7 1 23 1 24 21 35 80 54 48 65
REMARK Flexibility Score: inf
ROOT
ATOM      1  C   UNL     1       2.937   9.155   9.882  1.00  0.00     0.002 C 
ENDROOT
BRANCH   1   2
ATOM      2  C   UNL     1       1.925   8.522   8.925  1.00  0.00     0.021 C 
BRANCH   2   3
ATOM      3  C   UNL     1       2.253   8.662   7.441  1.00  0.00     0.116 C 
BRANCH   3   4
ATOM      4  N   UNL     1       3.370   7.825   7.059  1.00  0.00    -0.351 N 
ATOM      5  C   UNL     1       3.584   6.918   6.052  1.00  0.00     0.267 C 
ATOM      6  O   UNL     1       4.662   6.327   6.048  1.00  0.00    -0.268 OA
ATOM      7  H   UNL     1       4.148   7.930   7.653  1.00  0.00     0.163 HD
BRANCH   5   8
ATOM      8  C   UNL     1       2.594   6.629   4.933  1.00  0.00     0.128 C 
ATOM      9  N   UNL     1       1.874   5.814   3.091  1.00  0.00    -0.256 N 
ATOM     10  N   UNL     1       2.859   5.734   4.027  1.00  0.00    -0.171 NA
ATOM     11  C   UNL     1       0.827   6.782   3.421  1.00  0.00     0.154 C 
ATOM     12  C   UNL     1       1.264   7.292   4.798  1.00  0.00     0.097 C 
BRANCH   9  13
ATOM     13  C   UNL     1       1.614   4.744   2.236  1.00  0.00     0.060 A 
ATOM     14  C   UNL     1       0.971   2.612   0.518  1.00  0.00     0.082 A 
ATOM     15  C   UNL     1       1.325   2.352   1.843  1.00  0.00     0.024 A 
ATOM     16  C   UNL     1       0.971   3.919   0.032  1.00  0.00     0.024 A 
ATOM     17  C   UNL     1       1.658   3.417   2.688  1.00  0.00     0.029 A 
ATOM     18  C   UNL     1       1.286   4.972   0.891  1.00  0.00     0.029 A 
BRANCH  14  19
ATOM     19  S   UNL     1       0.547   1.306  -0.590  1.00  0.00     0.238 S 
ATOM     20  O   UNL     1       1.154   1.575  -1.878  1.00  0.00    -0.207 OA
ATOM     21  O   UNL     1      -0.855   1.018  -0.437  1.00  0.00    -0.207 OA
BRANCH  19  22
ATOM     22  N   UNL     1       1.368  -0.034   0.005  1.00  0.00    -0.225 NA
ATOM     23  H   UNL     1       1.174  -0.842  -0.587  1.00  0.00     0.137 HD
ATOM     24  H   UNL     1       1.058  -0.227   0.957  1.00  0.00     0.137 HD
ENDBRANCH  19  22
ENDBRANCH  14  19
ENDBRANCH   9  13
BRANCH  11  25
ATOM     25  C   UNL     1       0.571   7.890   2.419  1.00  0.00     0.030 A 
ATOM     26  C   UNL     1      -0.471   7.962   1.510  1.00  0.00     0.017 A 
ATOM     27  S   UNL     1       1.623   9.238   2.250  1.00  0.00    -0.147 S 
ATOM     28  C   UNL     1      -0.423   9.139   0.710  1.00  0.00     0.012 A 
ATOM     29  C   UNL     1       0.644   9.941   1.041  1.00  0.00     0.065 A 
ENDBRANCH  11  25
ENDBRANCH   5   8
ENDBRANCH   3   4
ENDBRANCH   2   3
ENDBRANCH   1   2
BRANCH   1  30
ATOM     30  C   UNL     1       3.194  10.652   9.687  1.00  0.00     0.002 C 
BRANCH  30  31
ATOM     31  C   UNL     1       1.950  11.540   9.612  1.00  0.00     0.021 C 
BRANCH  31  32
ATOM     32  C   UNL     1       0.981  11.412  10.783  1.00  0.00     0.116 C 
BRANCH  32  33
ATOM     33  N   UNL     1       1.579  11.789  12.050  1.00  0.00    -0.352 N 
ATOM     34  C   UNL     1       1.112  12.649  13.013  1.00  0.00     0.251 C 
ATOM     35  H   UNL     1       2.445  11.366  12.249  1.00  0.00     0.163 HD
ATOM     36  O   UNL     1       1.827  12.959  13.960  1.00  0.00    -0.269 OA
BRANCH  34  37
ATOM     37  C   UNL     1      -0.245  13.227  12.900  1.00  0.00     0.039 A 
ATOM     38  C   UNL     1      -0.414  14.592  13.149  1.00  0.00     0.014 A 
ATOM     39  C   UNL     1      -1.346  12.433  12.569  1.00  0.00     0.014 A 
ATOM     40  C   UNL     1      -1.677  15.171  13.013  1.00  0.00     0.010 A 
ATOM     41  C   UNL     1      -2.591  13.023  12.367  1.00  0.00     0.010 A 
ATOM     42  C   UNL     1      -2.770  14.397  12.592  1.00  0.00    -0.014 A 
BRANCH  42  43
ATOM     43  C   UNL     1      -4.106  15.008  12.380  1.00  0.00     0.031 A 
ATOM     44  C   UNL     1      -5.268  14.610  13.245  1.00  0.00     0.074 A 
ATOM     45  C   UNL     1      -4.290  15.866  11.360  1.00  0.00     0.049 A 
ATOM     46  N   UNL     1      -6.521  14.982  13.172  1.00  0.00    -0.248 NA
ATOM     47  C   UNL     1      -4.990  13.639  14.313  1.00  0.00     0.031 C 
ATOM     48  C   UNL     1      -3.255  16.284  10.413  1.00  0.00     0.029 A 
ATOM     49  N   UNL     1      -5.416  16.526  10.937  1.00  0.00    -0.354 N 
ATOM     50  C   UNL     1      -7.183  14.278  14.169  1.00  0.00     0.074 A 
ATOM     51  C   UNL     1      -6.203  13.419  14.799  1.00  0.00     0.031 C 
ATOM     52  C   UNL     1      -3.791  17.138   9.527  1.00  0.00     0.029 A 
ATOM     53  C   UNL     1      -5.212  17.304   9.824  1.00  0.00     0.049 A 
ATOM     54  H   UNL     1      -6.288  16.450  11.388  1.00  0.00     0.167 HD
ATOM     55  C   UNL     1      -8.484  14.355  14.538  1.00  0.00     0.037 A 
ATOM     56  C   UNL     1      -6.073  18.059   9.117  1.00  0.00     0.037 A 
ATOM     57  C   UNL     1      -9.448  15.232  13.926  1.00  0.00     0.049 A 
ATOM     58  C   UNL     1      -7.507  18.151   9.558  1.00  0.00     0.074 A 
ATOM     59  C   UNL     1     -10.767  15.450  14.284  1.00  0.00     0.029 A 
ATOM     60  N   UNL     1      -9.196  16.033  12.821  1.00  0.00    -0.354 N 
ATOM     61  N   UNL     1      -8.104  17.545  10.556  1.00  0.00    -0.248 NA
ATOM     62  C   UNL     1      -8.384  19.038   8.782  1.00  0.00     0.031 C 
ATOM     63  C   UNL     1     -11.327  16.346  13.366  1.00  0.00     0.029 A 
ATOM     64  C   UNL     1     -10.344  16.725  12.466  1.00  0.00     0.049 A 
ATOM     65  H   UNL     1      -8.330  16.100  12.358  1.00  0.00     0.167 HD
ATOM     66  C   UNL     1      -9.418  17.989  10.540  1.00  0.00     0.074 A 
ATOM     67  C   UNL     1      -9.529  18.927   9.442  1.00  0.00     0.031 C 
ATOM     68  C   UNL     1     -10.441  17.649  11.364  1.00  0.00     0.037 A 
BRANCH  55  69
ATOM     69  C   UNL     1      -8.939  13.456  15.652  1.00  0.00     0.064 A 
ATOM     70  C   UNL     1      -8.509  13.643  16.975  1.00  0.00     0.173 A 
ATOM     71  C   UNL     1      -9.821  12.396  15.394  1.00  0.00     0.173 A 
ATOM     72  F   UNL     1      -7.657  14.635  17.274  1.00  0.00    -0.203 F 
ATOM     73  C   UNL     1      -8.911  12.777  17.989  1.00  0.00     0.198 A 
ATOM     74  C   UNL     1     -10.246  11.551  16.416  1.00  0.00     0.198 A 
ATOM     75  F   UNL     1     -10.268  12.175  14.149  1.00  0.00    -0.203 F 
ATOM     76  F   UNL     1      -8.436  12.938  19.232  1.00  0.00    -0.200 F 
ATOM     77  C   UNL     1      -9.782  11.735  17.710  1.00  0.00     0.200 A 
ATOM     78  F   UNL     1     -11.097  10.551  16.147  1.00  0.00    -0.200 F 
ATOM     79  F   UNL     1     -10.165  10.900  18.686  1.00  0.00    -0.200 F 
ENDBRANCH  55  69
BRANCH  56  80
ATOM     80  C   UNL     1      -5.581  18.808   7.933  1.00  0.00     0.064 A 
ATOM     81  C   UNL     1      -5.417  20.199   7.979  1.00  0.00     0.173 A 
ATOM     82  C   UNL     1      -5.223  18.145   6.750  1.00  0.00     0.173 A 
ATOM     83  F   UNL     1      -5.762  20.878   9.083  1.00  0.00    -0.203 F 
ATOM     84  C   UNL     1      -4.918  20.900   6.883  1.00  0.00     0.198 A 
ATOM     85  C   UNL     1      -4.703  18.844   5.664  1.00  0.00     0.198 A 
ATOM     86  F   UNL     1      -5.355  16.813   6.662  1.00  0.00    -0.203 F 
ATOM     87  F   UNL     1      -4.795  22.233   6.943  1.00  0.00    -0.200 F 
ATOM     88  C   UNL     1      -4.554  20.221   5.730  1.00  0.00     0.200 A 
ATOM     89  F   UNL     1      -4.336  18.182   4.558  1.00  0.00    -0.200 F 
ATOM     90  F   UNL     1      -4.059  20.894   4.682  1.00  0.00    -0.200 F 
ENDBRANCH  56  80
BRANCH  68  91
ATOM     91  C   UNL     1     -11.768  18.306  11.117  1.00  0.00     0.064 A 
ATOM     92  C   UNL     1     -12.566  17.959  10.018  1.00  0.00     0.173 A 
ATOM     93  C   UNL     1     -12.265  19.264  12.014  1.00  0.00     0.173 A 
ATOM     94  F   UNL     1     -12.128  17.060   9.123  1.00  0.00    -0.203 F 
ATOM     95  C   UNL     1     -13.805  18.562   9.814  1.00  0.00     0.198 A 
ATOM     96  C   UNL     1     -13.516  19.844  11.822  1.00  0.00     0.198 A 
ATOM     97  F   UNL     1     -11.543  19.627  13.084  1.00  0.00    -0.203 F 
ATOM     98  F   UNL     1     -14.532  18.246   8.733  1.00  0.00    -0.200 F 
ATOM     99  C   UNL     1     -14.281  19.498  10.719  1.00  0.00     0.200 A 
ATOM    100  F   UNL     1     -13.980  20.739  12.705  1.00  0.00    -0.200 F 
ATOM    101  F   UNL     1     -15.477  20.071  10.525  1.00  0.00    -0.200 F 
ENDBRANCH  68  91
ENDBRANCH  42  43
ENDBRANCH  34  37
ENDBRANCH  32  33
ENDBRANCH  31  32
ENDBRANCH  30  31
ENDBRANCH   1  30
TORSDOF 17
