REMARK SMILES O=C(/C=C/c1ccc(S(=O)(=O)Nc2ccc3c(c2)OCCO3)cc1)NCCCCCCNC(=O)c1ccc(-c2c3nc(c(-c4c(F)c(F)c(F)c(F)c4F)c4ccc([nH]4)c(-c4c(F)c(F)c(F)c(F)c4F)c4nc(c(-c5c(F)c(F)c(F)c(F)c5F)c5ccc2[nH]5)C=C4)C=C3)cc1
REMARK SMILES IDX 27 1 26 2 25 3 1 4 2 5 3 7 4 8 5 9 6 10 24 11 7 12 23 13
REMARK SMILES IDX 8 14 9 15 10 16 11 17 12 18 13 20 14 21 18 22 15 23 17 24
REMARK SMILES IDX 16 25 19 26 22 27 20 28 21 29 28 30 29 31 30 32 31 33 32 34
REMARK SMILES IDX 33 35 34 37 35 38 36 39 97 40 37 41 96 42 38 43 39 44 40 45
REMARK SMILES IDX 90 46 41 47 95 48 89 49 91 50 42 51 94 52 88 53 87 54 43 56
REMARK SMILES IDX 75 57 55 58 74 59 56 60 59 61 73 62 92 63 57 64 58 65 72 67
REMARK SMILES IDX 93 68 60 69 44 70 45 71 53 72 46 73 47 74 51 75 54 76 48 77
REMARK SMILES IDX 49 78 52 79 50 80 76 81 77 82 85 83 78 84 79 85 83 86 86 87
REMARK SMILES IDX 80 88 81 89 84 90 82 91 61 92 62 93 70 94 63 95 64 96 68 97
REMARK SMILES IDX 71 98 65 99 66 100 69 101 67 102
REMARK H PARENT 25 6 12 19 32 36 91 55 59 66
REMARK Flexibility Score: inf
ROOT
ATOM      1  C   UNL     1       2.629   3.317  -0.057  1.00  0.00     0.021 C 
ENDROOT
BRANCH   1   2
ATOM      2  C   UNL     1       2.155   2.098  -0.848  1.00  0.00     0.116 C 
BRANCH   2   3
ATOM      3  N   UNL     1       2.795   0.876  -0.397  1.00  0.00    -0.353 N 
ATOM      4  O   UNL     1       0.942   0.016   0.651  1.00  0.00    -0.270 OA
ATOM      5  C   UNL     1       2.130  -0.054   0.358  1.00  0.00     0.243 C 
ATOM      6  H   UNL     1       3.734   0.712  -0.639  1.00  0.00     0.163 HD
BRANCH   5   7
ATOM      7  C   UNL     1       2.912  -1.250   0.772  1.00  0.00     0.072 C 
ATOM      8  C   UNL     1       4.233  -1.276   1.016  1.00  0.00     0.014 C 
BRANCH   8   9
ATOM      9  C   UNL     1       4.998  -2.454   1.484  1.00  0.00    -0.025 A 
ATOM     10  C   UNL     1       6.398  -2.366   1.546  1.00  0.00     0.009 A 
ATOM     11  C   UNL     1       4.401  -3.655   1.900  1.00  0.00     0.009 A 
ATOM     12  C   UNL     1       7.177  -3.464   1.941  1.00  0.00     0.023 A 
ATOM     13  C   UNL     1       5.175  -4.739   2.344  1.00  0.00     0.023 A 
ATOM     14  C   UNL     1       6.565  -4.663   2.320  1.00  0.00     0.087 A 
BRANCH  14  15
ATOM     15  S   UNL     1       7.603  -6.054   2.745  1.00  0.00     0.261 S 
ATOM     16  O   UNL     1       8.792  -5.956   1.912  1.00  0.00    -0.201 OA
ATOM     17  O   UNL     1       7.718  -6.088   4.181  1.00  0.00    -0.201 OA
BRANCH  15  18
ATOM     18  N   UNL     1       6.849  -7.526   2.254  1.00  0.00    -0.279 N 
ATOM     19  H   UNL     1       6.953  -8.357   2.772  1.00  0.00     0.180 HD
BRANCH  18  20
ATOM     20  C   UNL     1       6.064  -7.484   1.055  1.00  0.00     0.053 A 
ATOM     21  C   UNL     1       4.715  -7.841   1.166  1.00  0.00     0.031 A 
ATOM     22  C   UNL     1       6.573  -6.975  -0.135  1.00  0.00     0.077 A 
ATOM     23  C   UNL     1       3.824  -7.483   0.158  1.00  0.00     0.052 A 
ATOM     24  C   UNL     1       5.676  -6.555  -1.107  1.00  0.00     0.163 A 
ATOM     25  C   UNL     1       4.302  -6.756  -0.927  1.00  0.00     0.161 A 
ATOM     26  O   UNL     1       6.206  -5.829  -2.141  1.00  0.00    -0.486 OA
ATOM     27  O   UNL     1       3.372  -6.152  -1.736  1.00  0.00    -0.486 OA
ATOM     28  C   UNL     1       5.214  -5.191  -2.954  1.00  0.00     0.271 C 
ATOM     29  C   UNL     1       3.929  -4.910  -2.189  1.00  0.00     0.271 C 
ENDBRANCH  18  20
ENDBRANCH  15  18
ENDBRANCH  14  15
ENDBRANCH   8   9
ENDBRANCH   5   7
ENDBRANCH   2   3
ENDBRANCH   1   2
BRANCH   1  30
ATOM     30  C   UNL     1       4.126   3.621  -0.192  1.00  0.00     0.002 C 
BRANCH  30  31
ATOM     31  C   UNL     1       4.619   3.887  -1.618  1.00  0.00     0.002 C 
BRANCH  31  32
ATOM     32  C   UNL     1       3.931   5.042  -2.349  1.00  0.00     0.021 C 
BRANCH  32  33
ATOM     33  C   UNL     1       4.027   6.400  -1.658  1.00  0.00     0.116 C 
BRANCH  33  34
ATOM     34  N   UNL     1       5.398   6.873  -1.536  1.00  0.00    -0.352 N 
ATOM     35  C   UNL     1       5.941   8.089  -1.873  1.00  0.00     0.251 C 
ATOM     36  H   UNL     1       6.032   6.223  -1.155  1.00  0.00     0.163 HD
ATOM     37  O   UNL     1       7.157   8.252  -1.832  1.00  0.00    -0.269 OA
BRANCH  35  38
ATOM     38  C   UNL     1       5.068   9.198  -2.315  1.00  0.00     0.039 A 
ATOM     39  C   UNL     1       5.446   9.945  -3.436  1.00  0.00     0.014 A 
ATOM     40  C   UNL     1       3.889   9.509  -1.632  1.00  0.00     0.014 A 
ATOM     41  C   UNL     1       4.605  10.950  -3.917  1.00  0.00     0.010 A 
ATOM     42  C   UNL     1       3.021  10.469  -2.149  1.00  0.00     0.010 A 
ATOM     43  C   UNL     1       3.366  11.192  -3.301  1.00  0.00    -0.014 A 
BRANCH  43  44
ATOM     44  C   UNL     1       2.404  12.170  -3.869  1.00  0.00     0.031 A 
ATOM     45  C   UNL     1       2.031  13.408  -3.105  1.00  0.00     0.074 A 
ATOM     46  C   UNL     1       1.805  11.900  -5.044  1.00  0.00     0.049 A 
ATOM     47  N   UNL     1       1.157  14.335  -3.407  1.00  0.00    -0.248 NA
ATOM     48  C   UNL     1       2.711  13.617  -1.819  1.00  0.00     0.031 C 
ATOM     49  C   UNL     1       2.038  10.703  -5.854  1.00  0.00     0.029 A 
ATOM     50  N   UNL     1       0.862  12.602  -5.752  1.00  0.00    -0.354 N 
ATOM     51  C   UNL     1       1.175  15.230  -2.347  1.00  0.00     0.074 A 
ATOM     52  C   UNL     1       2.108  14.708  -1.370  1.00  0.00     0.031 C 
ATOM     53  C   UNL     1       1.267  10.759  -6.951  1.00  0.00     0.029 A 
ATOM     54  C   UNL     1       0.461  11.975  -6.906  1.00  0.00     0.049 A 
ATOM     55  H   UNL     1       0.506  13.473  -5.460  1.00  0.00     0.167 HD
ATOM     56  C   UNL     1       0.493  16.393  -2.210  1.00  0.00     0.037 A 
ATOM     57  C   UNL     1      -0.460  12.332  -7.820  1.00  0.00     0.037 A 
ATOM     58  C   UNL     1      -0.424  16.917  -3.189  1.00  0.00     0.049 A 
ATOM     59  C   UNL     1      -1.208  13.624  -7.647  1.00  0.00     0.074 A 
ATOM     60  C   UNL     1      -1.110  18.119  -3.174  1.00  0.00     0.029 A 
ATOM     61  N   UNL     1      -0.791  16.262  -4.356  1.00  0.00    -0.354 N 
ATOM     62  N   UNL     1      -1.127  14.502  -6.677  1.00  0.00    -0.248 NA
ATOM     63  C   UNL     1      -2.172  13.978  -8.698  1.00  0.00     0.031 C 
ATOM     64  C   UNL     1      -1.927  18.171  -4.310  1.00  0.00     0.029 A 
ATOM     65  C   UNL     1      -1.716  17.023  -5.056  1.00  0.00     0.049 A 
ATOM     66  H   UNL     1      -0.446  15.387  -4.645  1.00  0.00     0.167 HD
ATOM     67  C   UNL     1      -2.016  15.516  -7.003  1.00  0.00     0.074 A 
ATOM     68  C   UNL     1      -2.612  15.155  -8.274  1.00  0.00     0.031 C 
ATOM     69  C   UNL     1      -2.312  16.644  -6.312  1.00  0.00     0.037 A 
BRANCH  56  70
ATOM     70  C   UNL     1       0.718  17.178  -0.950  1.00  0.00     0.064 A 
ATOM     71  C   UNL     1       1.938  17.823  -0.694  1.00  0.00     0.173 A 
ATOM     72  C   UNL     1      -0.301  17.300   0.007  1.00  0.00     0.173 A 
ATOM     73  F   UNL     1       2.948  17.730  -1.571  1.00  0.00    -0.203 F 
ATOM     74  C   UNL     1       2.142  18.528   0.490  1.00  0.00     0.198 A 
ATOM     75  C   UNL     1      -0.103  18.031   1.176  1.00  0.00     0.198 A 
ATOM     76  F   UNL     1      -1.489  16.709  -0.191  1.00  0.00    -0.203 F 
ATOM     77  F   UNL     1       3.335  19.087   0.737  1.00  0.00    -0.200 F 
ATOM     78  C   UNL     1       1.120  18.636   1.421  1.00  0.00     0.200 A 
ATOM     79  F   UNL     1      -1.096  18.144   2.069  1.00  0.00    -0.200 F 
ATOM     80  F   UNL     1       1.318  19.314   2.559  1.00  0.00    -0.200 F 
ENDBRANCH  56  70
BRANCH  57  81
ATOM     81  C   UNL     1      -0.708  11.452  -8.989  1.00  0.00     0.064 A 
ATOM     82  C   UNL     1      -0.273  11.817 -10.270  1.00  0.00     0.173 A 
ATOM     83  C   UNL     1      -1.356  10.216  -8.845  1.00  0.00     0.173 A 
ATOM     84  F   UNL     1       0.333  12.998 -10.459  1.00  0.00    -0.203 F 
ATOM     85  C   UNL     1      -0.483  10.981 -11.365  1.00  0.00     0.198 A 
ATOM     86  C   UNL     1      -1.543   9.371  -9.936  1.00  0.00     0.198 A 
ATOM     87  F   UNL     1      -1.785   9.820  -7.637  1.00  0.00    -0.203 F 
ATOM     88  F   UNL     1      -0.083  11.366 -12.585  1.00  0.00    -0.200 F 
ATOM     89  C   UNL     1      -1.110   9.756 -11.196  1.00  0.00     0.200 A 
ATOM     90  F   UNL     1      -2.135   8.181  -9.765  1.00  0.00    -0.200 F 
ATOM     91  F   UNL     1      -1.298   8.947 -12.247  1.00  0.00    -0.200 F 
ENDBRANCH  57  81
BRANCH  69  92
ATOM     92  C   UNL     1      -3.325  17.571  -6.916  1.00  0.00     0.064 A 
ATOM     93  C   UNL     1      -4.691  17.251  -6.937  1.00  0.00     0.173 A 
ATOM     94  C   UNL     1      -2.932  18.809  -7.448  1.00  0.00     0.173 A 
ATOM     95  F   UNL     1      -5.114  16.072  -6.456  1.00  0.00    -0.203 F 
ATOM     96  C   UNL     1      -5.623  18.126  -7.487  1.00  0.00     0.198 A 
ATOM     97  C   UNL     1      -3.871  19.693  -7.973  1.00  0.00     0.198 A 
ATOM     98  F   UNL     1      -1.639  19.164  -7.450  1.00  0.00    -0.203 F 
ATOM     99  F   UNL     1      -6.917  17.781  -7.534  1.00  0.00    -0.200 F 
ATOM    100  C   UNL     1      -5.214  19.349  -7.997  1.00  0.00     0.200 A 
ATOM    101  F   UNL     1      -3.475  20.879  -8.456  1.00  0.00    -0.200 F 
ATOM    102  F   UNL     1      -6.114  20.193  -8.521  1.00  0.00    -0.200 F 
ENDBRANCH  69  92
ENDBRANCH  43  44
ENDBRANCH  35  38
ENDBRANCH  33  34
ENDBRANCH  32  33
ENDBRANCH  31  32
ENDBRANCH  30  31
ENDBRANCH   1  30
TORSDOF 17
