REMARK SMILES O=C(NCCCCCCNC(=O)c1cnc(-c2ccccc2Cl)nc1)c1ccc(-c2c3nc(c(-c4c(F)c(F)c(F)c(F)c4F)c4ccc([nH]4)c(-c4c(F)c(F)c(F)c(F)c4F)c4nc(c(-c5c(F)c(F)c(F)c(F)c5F)c5ccc2[nH]5)C=C4)C=C3)cc1
REMARK SMILES IDX 6 1 5 2 4 3 3 4 1 5 2 6 26 8 27 9 88 10 28 11 87 12 29 13
REMARK SMILES IDX 30 14 31 15 81 16 32 17 86 18 80 19 82 20 33 21 85 22 79 23
REMARK SMILES IDX 78 24 34 26 66 27 46 28 65 29 47 30 50 31 64 32 83 33 48 34
REMARK SMILES IDX 49 35 63 37 84 38 51 39 35 40 36 41 44 42 37 43 38 44 42 45
REMARK SMILES IDX 45 46 39 47 40 48 43 49 41 50 67 51 68 52 76 53 69 54 70 55
REMARK SMILES IDX 74 56 77 57 71 58 72 59 75 60 73 61 52 62 53 63 61 64 54 65
REMARK SMILES IDX 55 66 59 67 62 68 56 69 57 70 60 71 58 72 7 73 8 74 9 75
REMARK SMILES IDX 10 76 11 77 12 79 13 80 14 81 25 82 15 83 24 84 16 85 17 86
REMARK SMILES IDX 18 87 22 88 19 89 21 90 23 91 20 92
REMARK H PARENT 3 7 82 25 50 36 10 78
REMARK Flexibility Score: inf
ROOT
ATOM      1  C   UNL     1       4.175  -3.544   1.473  1.00  0.00     0.002 C 
ENDROOT
BRANCH   1   2
ATOM      2  C   UNL     1       4.639  -2.093   1.592  1.00  0.00     0.021 C 
BRANCH   2   3
ATOM      3  C   UNL     1       4.372  -1.240   0.360  1.00  0.00     0.116 C 
BRANCH   3   4
ATOM      4  N   UNL     1       2.951  -1.063   0.104  1.00  0.00    -0.352 N 
ATOM      5  O   UNL     1       1.008   0.078  -0.067  1.00  0.00    -0.269 OA
ATOM      6  C   UNL     1       2.234   0.101  -0.021  1.00  0.00     0.251 C 
ATOM      7  H   UNL     1       2.432  -1.894   0.005  1.00  0.00     0.163 HD
BRANCH   6   8
ATOM      8  C   UNL     1       2.951   1.392  -0.077  1.00  0.00     0.039 A 
ATOM      9  C   UNL     1       4.086   1.535  -0.877  1.00  0.00     0.014 A 
ATOM     10  C   UNL     1       2.486   2.468   0.684  1.00  0.00     0.014 A 
ATOM     11  C   UNL     1       4.838   2.700  -0.805  1.00  0.00     0.010 A 
ATOM     12  C   UNL     1       3.189   3.675   0.678  1.00  0.00     0.010 A 
ATOM     13  C   UNL     1       4.386   3.792  -0.047  1.00  0.00    -0.014 A 
BRANCH  13  14
ATOM     14  C   UNL     1       5.140   5.070  -0.099  1.00  0.00     0.031 A 
ATOM     15  C   UNL     1       5.792   5.645   1.125  1.00  0.00     0.074 A 
ATOM     16  C   UNL     1       5.246   5.700  -1.285  1.00  0.00     0.049 A 
ATOM     17  N   UNL     1       6.490   6.747   1.245  1.00  0.00    -0.248 NA
ATOM     18  C   UNL     1       5.638   4.894   2.379  1.00  0.00     0.031 C 
ATOM     19  C   UNL     1       4.644   5.238  -2.538  1.00  0.00     0.029 A 
ATOM     20  N   UNL     1       5.903   6.850  -1.638  1.00  0.00    -0.354 N 
ATOM     21  C   UNL     1       6.844   6.831   2.585  1.00  0.00     0.074 A 
ATOM     22  C   UNL     1       6.259   5.683   3.246  1.00  0.00     0.031 C 
ATOM     23  C   UNL     1       4.995   6.069  -3.529  1.00  0.00     0.029 A 
ATOM     24  C   UNL     1       5.782   7.161  -2.970  1.00  0.00     0.049 A 
ATOM     25  H   UNL     1       6.412   7.400  -0.999  1.00  0.00     0.167 HD
ATOM     26  C   UNL     1       7.596   7.777   3.201  1.00  0.00     0.037 A 
ATOM     27  C   UNL     1       6.232   8.222  -3.664  1.00  0.00     0.037 A 
ATOM     28  C   UNL     1       8.177   8.914   2.530  1.00  0.00     0.049 A 
ATOM     29  C   UNL     1       7.023   9.276  -2.944  1.00  0.00     0.074 A 
ATOM     30  C   UNL     1       8.983   9.908   3.058  1.00  0.00     0.029 A 
ATOM     31  N   UNL     1       8.003   9.215   1.186  1.00  0.00    -0.354 N 
ATOM     32  N   UNL     1       7.388   9.322  -1.686  1.00  0.00    -0.248 NA
ATOM     33  C   UNL     1       7.463  10.428  -3.741  1.00  0.00     0.031 C 
ATOM     34  C   UNL     1       9.245  10.842   2.050  1.00  0.00     0.029 A 
ATOM     35  C   UNL     1       8.660  10.397   0.876  1.00  0.00     0.049 A 
ATOM     36  H   UNL     1       7.489   8.671   0.547  1.00  0.00     0.167 HD
ATOM     37  C   UNL     1       8.118  10.493  -1.544  1.00  0.00     0.074 A 
ATOM     38  C   UNL     1       8.163  11.116  -2.851  1.00  0.00     0.031 C 
ATOM     39  C   UNL     1       8.696  11.006  -0.431  1.00  0.00     0.037 A 
BRANCH  26  40
ATOM     40  C   UNL     1       7.818   7.641   4.682  1.00  0.00     0.064 A 
ATOM     41  C   UNL     1       8.623   6.625   5.221  1.00  0.00     0.173 A 
ATOM     42  C   UNL     1       7.258   8.571   5.572  1.00  0.00     0.173 A 
ATOM     43  F   UNL     1       9.176   5.704   4.417  1.00  0.00    -0.203 F 
ATOM     44  C   UNL     1       8.835   6.530   6.594  1.00  0.00     0.198 A 
ATOM     45  C   UNL     1       7.500   8.492   6.941  1.00  0.00     0.198 A 
ATOM     46  F   UNL     1       6.488   9.569   5.112  1.00  0.00    -0.203 F 
ATOM     47  F   UNL     1       9.569   5.524   7.089  1.00  0.00    -0.200 F 
ATOM     48  C   UNL     1       8.281   7.468   7.452  1.00  0.00     0.200 A 
ATOM     49  F   UNL     1       6.976   9.409   7.767  1.00  0.00    -0.200 F 
ATOM     50  F   UNL     1       8.495   7.380   8.773  1.00  0.00    -0.200 F 
ENDBRANCH  26  40
BRANCH  27  51
ATOM     51  C   UNL     1       5.930   8.338  -5.114  1.00  0.00     0.064 A 
ATOM     52  C   UNL     1       6.947   8.256  -6.074  1.00  0.00     0.173 A 
ATOM     53  C   UNL     1       4.616   8.526  -5.570  1.00  0.00     0.173 A 
ATOM     54  F   UNL     1       8.221   8.094  -5.687  1.00  0.00    -0.203 F 
ATOM     55  C   UNL     1       6.665   8.379  -7.432  1.00  0.00     0.198 A 
ATOM     56  C   UNL     1       4.331   8.612  -6.930  1.00  0.00     0.198 A 
ATOM     57  F   UNL     1       3.604   8.603  -4.693  1.00  0.00    -0.203 F 
ATOM     58  F   UNL     1       7.663   8.345  -8.326  1.00  0.00    -0.200 F 
ATOM     59  C   UNL     1       5.357   8.549  -7.860  1.00  0.00     0.200 A 
ATOM     60  F   UNL     1       3.063   8.755  -7.338  1.00  0.00    -0.200 F 
ATOM     61  F   UNL     1       5.085   8.658  -9.167  1.00  0.00    -0.200 F 
ENDBRANCH  27  51
BRANCH  39  62
ATOM     62  C   UNL     1       9.458  12.291  -0.588  1.00  0.00     0.064 A 
ATOM     63  C   UNL     1       8.809  13.509  -0.841  1.00  0.00     0.173 A 
ATOM     64  C   UNL     1      10.855  12.307  -0.460  1.00  0.00     0.173 A 
ATOM     65  F   UNL     1       7.476  13.546  -0.990  1.00  0.00    -0.203 F 
ATOM     66  C   UNL     1       9.534  14.688  -0.993  1.00  0.00     0.198 A 
ATOM     67  C   UNL     1      11.573  13.493  -0.576  1.00  0.00     0.198 A 
ATOM     68  F   UNL     1      11.525  11.171  -0.213  1.00  0.00    -0.203 F 
ATOM     69  F   UNL     1       8.898  15.829  -1.293  1.00  0.00    -0.200 F 
ATOM     70  C   UNL     1      10.914  14.681  -0.852  1.00  0.00     0.200 A 
ATOM     71  F   UNL     1      12.905  13.487  -0.425  1.00  0.00    -0.200 F 
ATOM     72  F   UNL     1      11.609  15.818  -0.992  1.00  0.00    -0.200 F 
ENDBRANCH  39  62
ENDBRANCH  13  14
ENDBRANCH   6   8
ENDBRANCH   3   4
ENDBRANCH   2   3
ENDBRANCH   1   2
BRANCH   1  73
ATOM     73  C   UNL     1       4.745  -4.313   0.277  1.00  0.00     0.002 C 
BRANCH  73  74
ATOM     74  C   UNL     1       6.273  -4.308   0.162  1.00  0.00     0.021 C 
BRANCH  74  75
ATOM     75  C   UNL     1       7.010  -4.811   1.401  1.00  0.00     0.116 C 
BRANCH  75  76
ATOM     76  N   UNL     1       6.698  -6.203   1.687  1.00  0.00    -0.352 N 
ATOM     77  C   UNL     1       7.542  -7.281   1.740  1.00  0.00     0.254 C 
ATOM     78  H   UNL     1       5.750  -6.397   1.867  1.00  0.00     0.163 HD
ATOM     79  O   UNL     1       7.100  -8.426   1.780  1.00  0.00    -0.269 OA
BRANCH  77  80
ATOM     80  C   UNL     1       8.986  -7.067   1.734  1.00  0.00     0.076 A 
ATOM     81  C   UNL     1       9.614  -6.230   2.627  1.00  0.00     0.129 A 
ATOM     82  C   UNL     1       9.797  -7.706   0.829  1.00  0.00     0.129 A 
ATOM     83  N   UNL     1      10.934  -5.958   2.584  1.00  0.00    -0.236 NA
ATOM     84  N   UNL     1      11.124  -7.473   0.742  1.00  0.00    -0.236 NA
ATOM     85  C   UNL     1      11.636  -6.573   1.607  1.00  0.00     0.160 A 
BRANCH  85  86
ATOM     86  C   UNL     1      13.058  -6.246   1.509  1.00  0.00     0.038 A 
ATOM     87  C   UNL     1      13.864  -6.326   2.664  1.00  0.00     0.013 A 
ATOM     88  C   UNL     1      13.672  -5.829   0.314  1.00  0.00     0.052 A 
ATOM     89  C   UNL     1      15.227  -6.027   2.626  1.00  0.00     0.001 A 
ATOM     90  C   UNL     1      15.041  -5.531   0.277  1.00  0.00     0.021 A 
ATOM     91  Cl  UNL     1      12.785  -5.585  -1.156  1.00  0.00    -0.084 Cl
ATOM     92  C   UNL     1      15.817  -5.634   1.430  1.00  0.00     0.002 A 
ENDBRANCH  85  86
ENDBRANCH  77  80
ENDBRANCH  75  76
ENDBRANCH  74  75
ENDBRANCH  73  74
ENDBRANCH   1  73
TORSDOF 14
