REMARK SMILES O=C(NCCCCCCNC(=O)[C@@H]1c2ccccc2C(=O)N(C2CCCC2)C12CCCCC2)c1ccc(-c2c3nc(c(-c4c(F)c(F)c(F)c(F)c4F)c4ccc([nH]4)c(-c4c(F)c(F)c(F)c(F)c4F)c4nc(c(-c5c(F)c(F)c(F)c(F)c5F)c5ccc2[nH]5)C=C4)C=C3)cc1
REMARK SMILES IDX 6 1 5 2 4 3 3 4 1 5 2 6 34 8 35 9 96 10 36 11 95 12 37 13
REMARK SMILES IDX 38 14 39 15 89 16 40 17 94 18 88 19 90 20 41 21 93 22 87 23
REMARK SMILES IDX 86 24 42 26 74 27 54 28 73 29 55 30 58 31 72 32 91 33 56 34
REMARK SMILES IDX 57 35 71 37 92 38 59 39 43 40 44 41 52 42 45 43 46 44 50 45
REMARK SMILES IDX 53 46 47 47 48 48 51 49 49 50 75 51 76 52 84 53 77 54 78 55
REMARK SMILES IDX 82 56 85 57 79 58 80 59 83 60 81 61 60 62 61 63 69 64 62 65
REMARK SMILES IDX 63 66 67 67 70 68 64 69 65 70 68 71 66 72 7 73 8 74 9 75
REMARK SMILES IDX 10 76 11 77 12 79 13 80 14 81 28 82 15 83 19 84 22 85 29 86
REMARK SMILES IDX 33 87 16 88 18 89 20 90 30 91 32 92 17 93 21 94 31 95 23 96
REMARK SMILES IDX 24 97 27 98 25 99 26 100
REMARK H PARENT 3 7 90 25 58 36 10 78
REMARK Flexibility Score: inf
ROOT
ATOM      1  C   UNL     1      13.119  -4.456   2.794  1.00  0.00     0.002 C 
ENDROOT
BRANCH   1   2
ATOM      2  C   UNL     1      13.575  -5.609   3.691  1.00  0.00     0.021 C 
BRANCH   2   3
ATOM      3  C   UNL     1      15.030  -6.026   3.529  1.00  0.00     0.116 C 
BRANCH   3   4
ATOM      4  N   UNL     1      15.946  -4.934   3.789  1.00  0.00    -0.352 N 
ATOM      5  O   UNL     1      17.556  -3.793   4.864  1.00  0.00    -0.269 OA
ATOM      6  C   UNL     1      17.003  -4.868   4.657  1.00  0.00     0.251 C 
ATOM      7  H   UNL     1      15.785  -4.118   3.263  1.00  0.00     0.163 HD
BRANCH   6   8
ATOM      8  C   UNL     1      17.482  -6.083   5.353  1.00  0.00     0.039 A 
ATOM      9  C   UNL     1      17.887  -5.967   6.685  1.00  0.00     0.014 A 
ATOM     10  C   UNL     1      17.604  -7.307   4.688  1.00  0.00     0.014 A 
ATOM     11  C   UNL     1      18.415  -7.075   7.350  1.00  0.00     0.010 A 
ATOM     12  C   UNL     1      18.056  -8.431   5.374  1.00  0.00     0.010 A 
ATOM     13  C   UNL     1      18.506  -8.314   6.697  1.00  0.00    -0.014 A 
BRANCH  13  14
ATOM     14  C   UNL     1      19.173  -9.467   7.349  1.00  0.00     0.031 A 
ATOM     15  C   UNL     1      20.477  -9.975   6.796  1.00  0.00     0.074 A 
ATOM     16  C   UNL     1      18.616 -10.058   8.422  1.00  0.00     0.049 A 
ATOM     17  N   UNL     1      21.205 -10.990   7.186  1.00  0.00    -0.248 NA
ATOM     18  C   UNL     1      21.024  -9.259   5.632  1.00  0.00     0.031 C 
ATOM     19  C   UNL     1      17.350  -9.665   9.039  1.00  0.00     0.029 A 
ATOM     20  N   UNL     1      19.049 -11.112   9.185  1.00  0.00    -0.354 N 
ATOM     21  C   UNL     1      22.280 -11.041   6.308  1.00  0.00     0.074 A 
ATOM     22  C   UNL     1      22.081  -9.996   5.330  1.00  0.00     0.031 C 
ATOM     23  C   UNL     1      17.124 -10.446  10.108  1.00  0.00     0.029 A 
ATOM     24  C   UNL     1      18.211 -11.415  10.229  1.00  0.00     0.049 A 
ATOM     25  H   UNL     1      19.881 -11.605   9.001  1.00  0.00     0.167 HD
ATOM     26  C   UNL     1      23.354 -11.864   6.335  1.00  0.00     0.037 A 
ATOM     27  C   UNL     1      18.312 -12.366  11.178  1.00  0.00     0.037 A 
ATOM     28  C   UNL     1      23.570 -12.874   7.335  1.00  0.00     0.049 A 
ATOM     29  C   UNL     1      19.505 -13.283  11.176  1.00  0.00     0.074 A 
ATOM     30  C   UNL     1      24.651 -13.724   7.482  1.00  0.00     0.029 A 
ATOM     31  N   UNL     1      22.686 -13.165   8.364  1.00  0.00    -0.354 N 
ATOM     32  N   UNL     1      20.534 -13.299  10.364  1.00  0.00    -0.248 NA
ATOM     33  C   UNL     1      19.549 -14.315  12.222  1.00  0.00     0.031 C 
ATOM     34  C   UNL     1      24.404 -14.558   8.576  1.00  0.00     0.029 A 
ATOM     35  C   UNL     1      23.188 -14.198   9.137  1.00  0.00     0.049 A 
ATOM     36  H   UNL     1      21.830 -12.705   8.521  1.00  0.00     0.167 HD
ATOM     37  C   UNL     1      21.354 -14.328  10.806  1.00  0.00     0.074 A 
ATOM     38  C   UNL     1      20.712 -14.903  11.970  1.00  0.00     0.031 C 
ATOM     39  C   UNL     1      22.532 -14.759  10.291  1.00  0.00     0.037 A 
BRANCH  26  40
ATOM     40  C   UNL     1      24.384 -11.695   5.257  1.00  0.00     0.064 A 
ATOM     41  C   UNL     1      25.222 -10.570   5.212  1.00  0.00     0.173 A 
ATOM     42  C   UNL     1      24.557 -12.681   4.275  1.00  0.00     0.173 A 
ATOM     43  F   UNL     1      25.087  -9.591   6.119  1.00  0.00    -0.203 F 
ATOM     44  C   UNL     1      26.176 -10.426   4.208  1.00  0.00     0.198 A 
ATOM     45  C   UNL     1      25.532 -12.549   3.290  1.00  0.00     0.198 A 
ATOM     46  F   UNL     1      23.785 -13.778   4.274  1.00  0.00    -0.203 F 
ATOM     47  F   UNL     1      26.930  -9.320   4.156  1.00  0.00    -0.200 F 
ATOM     48  C   UNL     1      26.335 -11.418   3.252  1.00  0.00     0.200 A 
ATOM     49  F   UNL     1      25.694 -13.514   2.374  1.00  0.00    -0.200 F 
ATOM     50  F   UNL     1      27.258 -11.282   2.291  1.00  0.00    -0.200 F 
ENDBRANCH  26  40
BRANCH  27  51
ATOM     51  C   UNL     1      17.268 -12.463  12.229  1.00  0.00     0.064 A 
ATOM     52  C   UNL     1      17.540 -12.070  13.546  1.00  0.00     0.173 A 
ATOM     53  C   UNL     1      15.972 -12.912  11.934  1.00  0.00     0.173 A 
ATOM     54  F   UNL     1      18.770 -11.653  13.879  1.00  0.00    -0.203 F 
ATOM     55  C   UNL     1      16.555 -12.121  14.530  1.00  0.00     0.198 A 
ATOM     56  C   UNL     1      14.981 -12.941  12.914  1.00  0.00     0.198 A 
ATOM     57  F   UNL     1      15.662 -13.297  10.688  1.00  0.00    -0.203 F 
ATOM     58  F   UNL     1      16.847 -11.760  15.787  1.00  0.00    -0.200 F 
ATOM     59  C   UNL     1      15.274 -12.547  14.211  1.00  0.00     0.200 A 
ATOM     60  F   UNL     1      13.742 -13.339  12.598  1.00  0.00    -0.200 F 
ATOM     61  F   UNL     1      14.322 -12.581  15.154  1.00  0.00    -0.200 F 
ENDBRANCH  27  51
BRANCH  39  62
ATOM     62  C   UNL     1      23.211 -15.907  10.977  1.00  0.00     0.064 A 
ATOM     63  C   UNL     1      22.730 -17.218  10.852  1.00  0.00     0.173 A 
ATOM     64  C   UNL     1      24.400 -15.706  11.695  1.00  0.00     0.173 A 
ATOM     65  F   UNL     1      21.591 -17.459  10.185  1.00  0.00    -0.203 F 
ATOM     66  C   UNL     1      23.411 -18.287  11.429  1.00  0.00     0.198 A 
ATOM     67  C   UNL     1      25.092 -16.780  12.248  1.00  0.00     0.198 A 
ATOM     68  F   UNL     1      24.905 -14.471  11.835  1.00  0.00    -0.203 F 
ATOM     69  F   UNL     1      22.919 -19.529  11.321  1.00  0.00    -0.200 F 
ATOM     70  C   UNL     1      24.596 -18.068  12.117  1.00  0.00     0.200 A 
ATOM     71  F   UNL     1      26.244 -16.569  12.898  1.00  0.00    -0.200 F 
ATOM     72  F   UNL     1      25.259 -19.101  12.655  1.00  0.00    -0.200 F 
ENDBRANCH  39  62
ENDBRANCH  13  14
ENDBRANCH   6   8
ENDBRANCH   3   4
ENDBRANCH   2   3
ENDBRANCH   1   2
BRANCH   1  73
ATOM     73  C   UNL     1      13.426  -4.604   1.302  1.00  0.00     0.002 C 
BRANCH  73  74
ATOM     74  C   UNL     1      12.977  -5.915   0.662  1.00  0.00     0.021 C 
BRANCH  74  75
ATOM     75  C   UNL     1      11.530  -6.303   0.929  1.00  0.00     0.116 C 
BRANCH  75  76
ATOM     76  N   UNL     1      10.562  -5.334   0.448  1.00  0.00    -0.355 N 
ATOM     77  C   UNL     1       9.334  -5.518  -0.121  1.00  0.00     0.229 C 
ATOM     78  H   UNL     1      10.835  -4.393   0.547  1.00  0.00     0.163 HD
ATOM     79  O   UNL     1       8.619  -4.517  -0.234  1.00  0.00    -0.274 OA
BRANCH  77  80
ATOM     80  C   UNL     1       8.828  -6.893  -0.588  1.00  0.00     0.135 C 
ATOM     81  C   UNL     1       9.004  -7.947   0.498  1.00  0.00    -0.020 A 
ATOM     82  C   UNL     1       9.284  -7.322  -2.052  1.00  0.00     0.059 C 
ATOM     83  C   UNL     1       8.725  -7.641   1.846  1.00  0.00     0.005 A 
ATOM     84  C   UNL     1       9.502  -9.213   0.190  1.00  0.00     0.044 A 
ATOM     85  N   UNL     1       8.982  -8.824  -2.176  1.00  0.00    -0.329 N 
ATOM     86  C   UNL     1      10.814  -7.186  -2.358  1.00  0.00     0.030 C 
ATOM     87  C   UNL     1       8.508  -6.443  -3.093  1.00  0.00     0.030 C 
ATOM     88  C   UNL     1       9.087  -8.520   2.867  1.00  0.00     0.000 A 
ATOM     89  C   UNL     1       9.878 -10.090   1.219  1.00  0.00     0.014 A 
ATOM     90  C   UNL     1       9.513  -9.695  -1.210  1.00  0.00     0.254 C 
ATOM     91  C   UNL     1      11.354  -5.798  -2.701  1.00  0.00     0.002 C 
ATOM     92  C   UNL     1       9.075  -5.057  -3.405  1.00  0.00     0.002 C 
ATOM     93  C   UNL     1       9.697  -9.731   2.555  1.00  0.00     0.001 A 
ATOM     94  O   UNL     1       9.861 -10.849  -1.441  1.00  0.00    -0.269 OA
ATOM     95  C   UNL     1      10.545  -5.104  -3.777  1.00  0.00     0.000 C 
BRANCH  85  96
ATOM     96  C   UNL     1       8.330  -9.491  -3.315  1.00  0.00     0.086 C 
ATOM     97  C   UNL     1       6.854  -9.154  -3.522  1.00  0.00     0.025 C 
ATOM     98  C   UNL     1       9.009  -9.406  -4.682  1.00  0.00     0.025 C 
ATOM     99  C   UNL     1       6.579  -9.648  -4.933  1.00  0.00     0.002 C 
ATOM    100  C   UNL     1       7.869  -9.389  -5.704  1.00  0.00     0.002 C 
ENDBRANCH  85  96
ENDBRANCH  77  80
ENDBRANCH  75  76
ENDBRANCH  74  75
ENDBRANCH  73  74
ENDBRANCH   1  73
TORSDOF 14
