REMARK SMILES CC(C)[C@@H]1CSC[C@@H](C(=O)NCCCCCCNC(=O)c2ccc(-c3c4nc(c(-c5c(F)c(F)c(F)c(F)c5F)c5ccc([nH]5)c(-c5c(F)c(F)c(F)c(F)c5F)c5nc(c(-c6c(F)c(F)c(F)c(F)c6F)c6ccc3[nH]6)C=C5)C=C4)cc2)[NH2+]1
REMARK SMILES IDX 15 1 14 2 13 3 12 4 11 5 9 6 10 7 8 9 4 10 5 11 84 12 6 13
REMARK SMILES IDX 7 16 2 17 1 18 3 19 16 20 17 21 18 22 19 23 20 25 21 26
REMARK SMILES IDX 22 27 83 28 23 29 82 30 24 31 25 32 26 33 76 34 27 35 81 36
REMARK SMILES IDX 75 37 77 38 28 39 80 40 74 41 73 42 29 44 61 45 41 46 60 47
REMARK SMILES IDX 42 48 45 49 59 50 78 51 43 52 44 53 58 55 79 56 46 57 30 58
REMARK SMILES IDX 31 59 39 60 32 61 33 62 37 63 40 64 34 65 35 66 38 67 36 68
REMARK SMILES IDX 62 69 63 70 71 71 64 72 65 73 69 74 72 75 66 76 67 77 70 78
REMARK SMILES IDX 68 79 47 80 48 81 56 82 49 83 50 84 54 85 57 86 51 87 52 88
REMARK SMILES IDX 55 89 53 90
REMARK H PARENT 11 8 84 14 84 15 18 24 77 43 45 54
REMARK Flexibility Score: inf
ROOT
ATOM      1  C   UNL     1      -6.501   4.272  -1.676  1.00  0.00     0.002 C 
ENDROOT
BRANCH   1   2
ATOM      2  C   UNL     1      -5.626   4.635  -0.472  1.00  0.00     0.002 C 
BRANCH   2   3
ATOM      3  C   UNL     1      -4.856   3.465   0.149  1.00  0.00     0.021 C 
BRANCH   3   4
ATOM      4  C   UNL     1      -4.038   2.653  -0.849  1.00  0.00     0.116 C 
BRANCH   4   5
ATOM      5  N   UNL     1      -2.986   3.446  -1.459  1.00  0.00    -0.351 N 
ATOM      6  C   UNL     1      -1.648   3.192  -1.540  1.00  0.00     0.279 C 
ATOM      7  O   UNL     1      -0.930   4.033  -2.087  1.00  0.00    -0.268 OA
ATOM      8  H   UNL     1      -3.281   4.289  -1.873  1.00  0.00     0.163 HD
BRANCH   6   9
ATOM      9  C   UNL     1      -1.054   1.890  -0.965  1.00  0.00     0.282 C 
ATOM     10  C   UNL     1      -0.826   0.663   1.178  1.00  0.00     0.195 C 
ATOM     11  C   UNL     1      -1.458  -0.633   0.626  1.00  0.00     0.135 C 
ATOM     12  N   UNL     1      -1.345   1.847   0.481  1.00  0.00    -0.332 N 
ATOM     13  S   UNL     1      -1.192  -0.954  -1.151  1.00  0.00    -0.149 SA
ATOM     14  H   UNL     1      -0.933   2.675   0.913  1.00  0.00     0.347 HD
ATOM     15  H   UNL     1      -2.360   1.811   0.570  1.00  0.00     0.347 HD
ATOM     16  C   UNL     1      -1.545   0.707  -1.814  1.00  0.00     0.145 C 
BRANCH  10  17
ATOM     17  C   UNL     1       0.718   0.613   1.431  1.00  0.00     0.042 C 
ATOM     18  C   UNL     1       1.588  -0.004   0.335  1.00  0.00     0.014 C 
ATOM     19  C   UNL     1       1.288   1.985   1.818  1.00  0.00     0.014 C 
ENDBRANCH  10  17
ENDBRANCH   6   9
ENDBRANCH   4   5
ENDBRANCH   3   4
ENDBRANCH   2   3
ENDBRANCH   1   2
BRANCH   1  20
ATOM     20  C   UNL     1      -7.493   3.132  -1.438  1.00  0.00     0.021 C 
BRANCH  20  21
ATOM     21  C   UNL     1      -8.444   3.355  -0.270  1.00  0.00     0.116 C 
BRANCH  21  22
ATOM     22  N   UNL     1      -9.292   4.518  -0.468  1.00  0.00    -0.352 N 
ATOM     23  C   UNL     1     -10.651   4.623  -0.341  1.00  0.00     0.251 C 
ATOM     24  H   UNL     1      -8.825   5.344  -0.728  1.00  0.00     0.163 HD
ATOM     25  O   UNL     1     -11.233   5.637  -0.727  1.00  0.00    -0.269 OA
BRANCH  23  26
ATOM     26  C   UNL     1     -11.423   3.511   0.248  1.00  0.00     0.039 A 
ATOM     27  C   UNL     1     -12.631   3.138  -0.346  1.00  0.00     0.014 A 
ATOM     28  C   UNL     1     -10.968   2.852   1.394  1.00  0.00     0.014 A 
ATOM     29  C   UNL     1     -13.368   2.082   0.192  1.00  0.00     0.010 A 
ATOM     30  C   UNL     1     -11.660   1.747   1.877  1.00  0.00     0.010 A 
ATOM     31  C   UNL     1     -12.880   1.368   1.298  1.00  0.00    -0.014 A 
BRANCH  31  32
ATOM     32  C   UNL     1     -13.658   0.257   1.899  1.00  0.00     0.031 A 
ATOM     33  C   UNL     1     -14.181   0.385   3.304  1.00  0.00     0.074 A 
ATOM     34  C   UNL     1     -13.853  -0.880   1.204  1.00  0.00     0.049 A 
ATOM     35  N   UNL     1     -14.844  -0.482   4.026  1.00  0.00    -0.248 NA
ATOM     36  C   UNL     1     -13.891   1.647   4.002  1.00  0.00     0.031 C 
ATOM     37  C   UNL     1     -13.360  -1.139  -0.148  1.00  0.00     0.029 A 
ATOM     38  N   UNL     1     -14.517  -2.031   1.544  1.00  0.00    -0.354 N 
ATOM     39  C   UNL     1     -15.027   0.119   5.264  1.00  0.00     0.074 A 
ATOM     40  C   UNL     1     -14.354   1.399   5.217  1.00  0.00     0.031 C 
ATOM     41  C   UNL     1     -13.768  -2.358  -0.537  1.00  0.00     0.029 A 
ATOM     42  C   UNL     1     -14.519  -2.978   0.551  1.00  0.00     0.049 A 
ATOM     43  H   UNL     1     -14.951  -2.165   2.418  1.00  0.00     0.167 HD
ATOM     44  C   UNL     1     -15.715  -0.342   6.336  1.00  0.00     0.037 A 
ATOM     45  C   UNL     1     -15.068  -4.207   0.523  1.00  0.00     0.037 A 
ATOM     46  C   UNL     1     -16.410  -1.602   6.364  1.00  0.00     0.049 A 
ATOM     47  C   UNL     1     -15.830  -4.697   1.726  1.00  0.00     0.074 A 
ATOM     48  C   UNL     1     -17.194  -2.134   7.372  1.00  0.00     0.029 A 
ATOM     49  N   UNL     1     -16.401  -2.530   5.332  1.00  0.00    -0.354 N 
ATOM     50  N   UNL     1     -16.061  -4.091   2.865  1.00  0.00    -0.248 NA
ATOM     51  C   UNL     1     -16.417  -6.040   1.631  1.00  0.00     0.031 C 
ATOM     52  C   UNL     1     -17.613  -3.408   6.973  1.00  0.00     0.029 A 
ATOM     53  C   UNL     1     -17.145  -3.643   5.690  1.00  0.00     0.049 A 
ATOM     54  H   UNL     1     -15.934  -2.415   4.473  1.00  0.00     0.167 HD
ATOM     55  C   UNL     1     -16.854  -4.957   3.605  1.00  0.00     0.074 A 
ATOM     56  C   UNL     1     -17.069  -6.130   2.782  1.00  0.00     0.031 C 
ATOM     57  C   UNL     1     -17.364  -4.794   4.852  1.00  0.00     0.037 A 
BRANCH  44  58
ATOM     58  C   UNL     1     -15.738   0.520   7.567  1.00  0.00     0.064 A 
ATOM     59  C   UNL     1     -16.403   1.756   7.596  1.00  0.00     0.173 A 
ATOM     60  C   UNL     1     -15.092   0.099   8.740  1.00  0.00     0.173 A 
ATOM     61  F   UNL     1     -17.027   2.213   6.500  1.00  0.00    -0.203 F 
ATOM     62  C   UNL     1     -16.383   2.556   8.736  1.00  0.00     0.198 A 
ATOM     63  C   UNL     1     -15.105   0.884   9.889  1.00  0.00     0.198 A 
ATOM     64  F   UNL     1     -14.446  -1.077   8.772  1.00  0.00    -0.203 F 
ATOM     65  F   UNL     1     -16.967   3.762   8.717  1.00  0.00    -0.200 F 
ATOM     66  C   UNL     1     -15.739   2.117   9.883  1.00  0.00     0.200 A 
ATOM     67  F   UNL     1     -14.495   0.452  11.002  1.00  0.00    -0.200 F 
ATOM     68  F   UNL     1     -15.721   2.888  10.980  1.00  0.00    -0.200 F 
ENDBRANCH  44  58
BRANCH  45  69
ATOM     69  C   UNL     1     -14.964  -5.039  -0.704  1.00  0.00     0.064 A 
ATOM     70  C   UNL     1     -16.096  -5.298  -1.491  1.00  0.00     0.173 A 
ATOM     71  C   UNL     1     -13.743  -5.591  -1.116  1.00  0.00     0.173 A 
ATOM     72  F   UNL     1     -17.290  -4.808  -1.127  1.00  0.00    -0.203 F 
ATOM     73  C   UNL     1     -16.014  -6.094  -2.631  1.00  0.00     0.198 A 
ATOM     74  C   UNL     1     -13.657  -6.363  -2.273  1.00  0.00     0.198 A 
ATOM     75  F   UNL     1     -12.630  -5.368  -0.402  1.00  0.00    -0.203 F 
ATOM     76  F   UNL     1     -17.119  -6.362  -3.339  1.00  0.00    -0.200 F 
ATOM     77  C   UNL     1     -14.793  -6.621  -3.025  1.00  0.00     0.200 A 
ATOM     78  F   UNL     1     -12.473  -6.859  -2.658  1.00  0.00    -0.200 F 
ATOM     79  F   UNL     1     -14.714  -7.383  -4.124  1.00  0.00    -0.200 F 
ENDBRANCH  45  69
BRANCH  57  80
ATOM     80  C   UNL     1     -18.257  -5.881   5.379  1.00  0.00     0.064 A 
ATOM     81  C   UNL     1     -17.761  -7.143   5.739  1.00  0.00     0.173 A 
ATOM     82  C   UNL     1     -19.628  -5.641   5.558  1.00  0.00     0.173 A 
ATOM     83  F   UNL     1     -16.460  -7.429   5.575  1.00  0.00    -0.203 F 
ATOM     84  C   UNL     1     -18.610  -8.133   6.226  1.00  0.00     0.198 A 
ATOM     85  C   UNL     1     -20.468  -6.621   6.079  1.00  0.00     0.198 A 
ATOM     86  F   UNL     1     -20.154  -4.448   5.238  1.00  0.00    -0.203 F 
ATOM     87  F   UNL     1     -18.123  -9.349   6.510  1.00  0.00    -0.200 F 
ATOM     88  C   UNL     1     -19.960  -7.870   6.403  1.00  0.00     0.200 A 
ATOM     89  F   UNL     1     -21.768  -6.358   6.264  1.00  0.00    -0.200 F 
ATOM     90  F   UNL     1     -20.773  -8.822   6.879  1.00  0.00    -0.200 F 
ENDBRANCH  57  80
ENDBRANCH  31  32
ENDBRANCH  23  26
ENDBRANCH  21  22
ENDBRANCH  20  21
ENDBRANCH   1  20
TORSDOF 14
