REMARK SMILES COc1ccc(-n2ncc(C(=O)NCCCCCCNC(=O)c3ccc(-c4c5nc(c(-c6c(F)c(F)c(F)c(F)c6F)c6ccc([nH]6)c(-c6c(F)c(F)c(F)c(F)c6F)c6nc(c(-c7c(F)c(F)c(F)c(F)c7F)c7ccc4[nH]7)C=C6)C=C5)cc3)n2)nn1
REMARK SMILES IDX 16 1 15 2 14 3 13 4 11 5 12 6 10 8 7 9 8 10 86 11 9 12 6 13
REMARK SMILES IDX 3 14 4 15 88 16 5 17 87 18 2 19 1 20 17 21 18 22 19 23 20 24
REMARK SMILES IDX 21 25 22 27 23 28 24 29 85 30 25 31 84 32 26 33 27 34 28 35
REMARK SMILES IDX 78 36 29 37 83 38 77 39 79 40 30 41 82 42 76 43 75 44 31 46
REMARK SMILES IDX 63 47 43 48 62 49 44 50 47 51 61 52 80 53 45 54 46 55 60 57
REMARK SMILES IDX 81 58 48 59 32 60 33 61 41 62 34 63 35 64 39 65 42 66 36 67
REMARK SMILES IDX 37 68 40 69 38 70 64 71 65 72 73 73 66 74 67 75 71 76 74 77
REMARK SMILES IDX 68 78 69 79 72 80 70 81 49 82 50 83 58 84 51 85 52 86 56 87
REMARK SMILES IDX 59 88 53 89 54 90 57 91 55 92
REMARK H PARENT 13 7 20 26 79 45 47 56
REMARK Flexibility Score: inf
ROOT
ATOM      1  C   UNL     1       1.177  12.064   6.020  1.00  0.00     0.002 C 
ENDROOT
BRANCH   1   2
ATOM      2  C   UNL     1       1.495  11.216   4.791  1.00  0.00     0.021 C 
BRANCH   2   3
ATOM      3  C   UNL     1       2.164   9.893   5.131  1.00  0.00     0.116 C 
BRANCH   3   4
ATOM      4  N   UNL     1       1.225   8.954   5.699  1.00  0.00    -0.351 N 
ATOM      5  C   UNL     1       0.698   7.774   5.238  1.00  0.00     0.273 C 
ATOM      6  O   UNL     1      -0.207   7.292   5.924  1.00  0.00    -0.267 OA
ATOM      7  H   UNL     1       0.900   9.211   6.592  1.00  0.00     0.163 HD
BRANCH   5   8
ATOM      8  C   UNL     1       1.215   7.101   4.039  1.00  0.00     0.170 A 
ATOM      9  N   UNL     1       1.429   5.588   2.568  1.00  0.00    -0.130 N 
ATOM     10  N   UNL     1       2.566   6.314   2.405  1.00  0.00    -0.154 NA
ATOM     11  N   UNL     1       0.557   6.057   3.490  1.00  0.00    -0.141 NA
ATOM     12  C   UNL     1       2.404   7.277   3.305  1.00  0.00     0.172 A 
BRANCH   9  13
ATOM     13  C   UNL     1       1.225   4.409   1.813  1.00  0.00     0.196 A 
ATOM     14  C   UNL     1       0.858   2.282   0.205  1.00  0.00     0.233 A 
ATOM     15  C   UNL     1       2.156   2.676   0.463  1.00  0.00     0.074 A 
ATOM     16  N   UNL     1      -0.215   2.899   0.743  1.00  0.00    -0.110 NA
ATOM     17  C   UNL     1       2.345   3.774   1.282  1.00  0.00     0.058 A 
ATOM     18  N   UNL     1      -0.031   3.959   1.588  1.00  0.00    -0.125 NA
BRANCH  14  19
ATOM     19  O   UNL     1       0.601   1.262  -0.672  1.00  0.00    -0.480 OA
ATOM     20  C   UNL     1       0.986   0.022  -0.089  1.00  0.00     0.280 C 
ENDBRANCH  14  19
ENDBRANCH   9  13
ENDBRANCH   5   8
ENDBRANCH   3   4
ENDBRANCH   2   3
ENDBRANCH   1   2
BRANCH   1  21
ATOM     21  C   UNL     1       2.371  12.316   6.956  1.00  0.00     0.002 C 
BRANCH  21  22
ATOM     22  C   UNL     1       3.647  12.844   6.283  1.00  0.00     0.021 C 
BRANCH  22  23
ATOM     23  C   UNL     1       3.446  14.194   5.619  1.00  0.00     0.116 C 
BRANCH  23  24
ATOM     24  N   UNL     1       3.212  15.263   6.589  1.00  0.00    -0.352 N 
ATOM     25  C   UNL     1       3.237  16.640   6.374  1.00  0.00     0.251 C 
ATOM     26  H   UNL     1       3.010  14.975   7.508  1.00  0.00     0.163 HD
ATOM     27  O   UNL     1       3.413  17.425   7.268  1.00  0.00    -0.269 OA
BRANCH  25  28
ATOM     28  C   UNL     1       2.942  17.104   5.001  1.00  0.00     0.039 A 
ATOM     29  C   UNL     1       3.517  18.221   4.392  1.00  0.00     0.014 A 
ATOM     30  C   UNL     1       1.997  16.367   4.318  1.00  0.00     0.014 A 
ATOM     31  C   UNL     1       3.092  18.553   3.096  1.00  0.00     0.010 A 
ATOM     32  C   UNL     1       2.024  16.431   2.965  1.00  0.00     0.010 A 
ATOM     33  C   UNL     1       2.261  17.658   2.402  1.00  0.00    -0.014 A 
BRANCH  33  34
ATOM     34  C   UNL     1       1.942  17.700   0.979  1.00  0.00     0.031 A 
ATOM     35  C   UNL     1       3.195  17.736   0.181  1.00  0.00     0.074 A 
ATOM     36  C   UNL     1       0.680  17.529   0.489  1.00  0.00     0.049 A 
ATOM     37  N   UNL     1       3.709  18.804  -0.327  1.00  0.00    -0.248 NA
ATOM     38  C   UNL     1       4.136  16.596   0.186  1.00  0.00     0.031 C 
ATOM     39  C   UNL     1      -0.588  17.303   1.205  1.00  0.00     0.029 A 
ATOM     40  N   UNL     1       0.255  17.523  -0.821  1.00  0.00    -0.354 N 
ATOM     41  C   UNL     1       4.865  18.399  -0.978  1.00  0.00     0.074 A 
ATOM     42  C   UNL     1       5.209  17.126  -0.413  1.00  0.00     0.031 C 
ATOM     43  C   UNL     1      -1.575  16.959   0.335  1.00  0.00     0.029 A 
ATOM     44  C   UNL     1      -1.070  17.065  -1.020  1.00  0.00     0.049 A 
ATOM     45  H   UNL     1       0.830  17.815  -1.564  1.00  0.00     0.167 HD
ATOM     46  C   UNL     1       5.209  19.002  -2.148  1.00  0.00     0.037 A 
ATOM     47  C   UNL     1      -1.700  16.873  -2.224  1.00  0.00     0.037 A 
ATOM     48  C   UNL     1       4.428  20.206  -2.319  1.00  0.00     0.049 A 
ATOM     49  C   UNL     1      -0.966  17.707  -3.216  1.00  0.00     0.074 A 
ATOM     50  C   UNL     1       4.314  21.392  -1.621  1.00  0.00     0.029 A 
ATOM     51  N   UNL     1       3.265  20.060  -3.033  1.00  0.00    -0.354 N 
ATOM     52  N   UNL     1      -0.964  19.012  -3.154  1.00  0.00    -0.248 NA
ATOM     53  C   UNL     1       0.202  17.091  -3.829  1.00  0.00     0.031 C 
ATOM     54  C   UNL     1       2.916  21.680  -1.605  1.00  0.00     0.029 A 
ATOM     55  C   UNL     1       2.259  20.758  -2.419  1.00  0.00     0.049 A 
ATOM     56  H   UNL     1       3.168  19.534  -3.860  1.00  0.00     0.167 HD
ATOM     57  C   UNL     1       0.378  19.349  -3.252  1.00  0.00     0.074 A 
ATOM     58  C   UNL     1       1.050  18.114  -3.677  1.00  0.00     0.031 C 
ATOM     59  C   UNL     1       0.862  20.473  -2.644  1.00  0.00     0.037 A 
BRANCH  46  60
ATOM     60  C   UNL     1       5.844  18.308  -3.329  1.00  0.00     0.064 A 
ATOM     61  C   UNL     1       6.229  19.088  -4.438  1.00  0.00     0.173 A 
ATOM     62  C   UNL     1       5.806  16.914  -3.551  1.00  0.00     0.173 A 
ATOM     63  F   UNL     1       6.275  20.426  -4.346  1.00  0.00    -0.203 F 
ATOM     64  C   UNL     1       6.483  18.522  -5.690  1.00  0.00     0.198 A 
ATOM     65  C   UNL     1       6.108  16.349  -4.790  1.00  0.00     0.198 A 
ATOM     66  F   UNL     1       5.372  16.052  -2.625  1.00  0.00    -0.203 F 
ATOM     67  F   UNL     1       6.727  19.315  -6.742  1.00  0.00    -0.200 F 
ATOM     68  C   UNL     1       6.419  17.152  -5.865  1.00  0.00     0.200 A 
ATOM     69  F   UNL     1       6.013  15.020  -4.946  1.00  0.00    -0.200 F 
ATOM     70  F   UNL     1       6.612  16.610  -7.074  1.00  0.00    -0.200 F 
ENDBRANCH  46  60
BRANCH  47  71
ATOM     71  C   UNL     1      -2.597  15.759  -2.674  1.00  0.00     0.064 A 
ATOM     72  C   UNL     1      -3.286  15.774  -3.910  1.00  0.00     0.173 A 
ATOM     73  C   UNL     1      -2.538  14.509  -2.032  1.00  0.00     0.173 A 
ATOM     74  F   UNL     1      -3.356  16.902  -4.633  1.00  0.00    -0.203 F 
ATOM     75  C   UNL     1      -3.853  14.611  -4.465  1.00  0.00     0.198 A 
ATOM     76  C   UNL     1      -3.092  13.351  -2.590  1.00  0.00     0.198 A 
ATOM     77  F   UNL     1      -1.851  14.366  -0.891  1.00  0.00    -0.203 F 
ATOM     78  F   UNL     1      -4.456  14.656  -5.663  1.00  0.00    -0.200 F 
ATOM     79  C   UNL     1      -3.741  13.398  -3.810  1.00  0.00     0.200 A 
ATOM     80  F   UNL     1      -2.933  12.176  -1.966  1.00  0.00    -0.200 F 
ATOM     81  F   UNL     1      -4.214  12.273  -4.367  1.00  0.00    -0.200 F 
ENDBRANCH  47  71
BRANCH  59  82
ATOM     82  C   UNL     1      -0.134  21.441  -2.060  1.00  0.00     0.064 A 
ATOM     83  C   UNL     1      -0.970  21.178  -0.959  1.00  0.00     0.173 A 
ATOM     84  C   UNL     1      -0.140  22.745  -2.566  1.00  0.00     0.173 A 
ATOM     85  F   UNL     1      -0.938  19.995  -0.336  1.00  0.00    -0.203 F 
ATOM     86  C   UNL     1      -1.817  22.159  -0.438  1.00  0.00     0.198 A 
ATOM     87  C   UNL     1      -0.956  23.731  -2.023  1.00  0.00     0.198 A 
ATOM     88  F   UNL     1       0.692  23.075  -3.565  1.00  0.00    -0.203 F 
ATOM     89  F   UNL     1      -2.616  21.879   0.604  1.00  0.00    -0.200 F 
ATOM     90  C   UNL     1      -1.810  23.435  -0.974  1.00  0.00     0.200 A 
ATOM     91  F   UNL     1      -0.892  24.980  -2.504  1.00  0.00    -0.200 F 
ATOM     92  F   UNL     1      -2.604  24.387  -0.464  1.00  0.00    -0.200 F 
ENDBRANCH  59  82
ENDBRANCH  33  34
ENDBRANCH  25  28
ENDBRANCH  23  24
ENDBRANCH  22  23
ENDBRANCH  21  22
ENDBRANCH   1  21
TORSDOF 15
