REMARK SMILES CC[C@H](C)[C@H](NC(=O)[C@H](C)Oc1ccc2c(C)c(C)c(=O)oc2c1C)C(=O)NCCCCCCNC(=O)c1ccc(-c2c3nc(c(-c4c(F)c(F)c(F)c(F)c4F)c4ccc([nH]4)c(-c4c(F)c(F)c(F)c(F)c4F)c4nc(c(-c5c(F)c(F)c(F)c(F)c5F)c5ccc2[nH]5)C=C4)C=C3)cc1
REMARK SMILES IDX 30 1 29 2 28 3 26 4 27 5 5 7 3 8 4 9 2 10 1 11 6 12 7 13
REMARK SMILES IDX 8 15 9 16 10 17 11 18 12 19 13 20 24 21 14 22 23 23 25 24
REMARK SMILES IDX 15 25 22 26 16 27 20 28 17 29 18 30 21 31 19 32 31 33 32 34
REMARK SMILES IDX 33 35 34 36 35 37 36 38 37 40 38 41 39 42 100 43 40 44 99 45
REMARK SMILES IDX 41 46 42 47 43 48 93 49 44 50 98 51 92 52 94 53 45 54 97 55
REMARK SMILES IDX 91 56 90 57 46 59 78 60 58 61 77 62 59 63 62 64 76 65 95 66
REMARK SMILES IDX 60 67 61 68 75 70 96 71 63 72 47 73 48 74 56 75 49 76 50 77
REMARK SMILES IDX 54 78 57 79 51 80 52 81 55 82 53 83 79 84 80 85 88 86 81 87
REMARK SMILES IDX 82 88 86 89 89 90 83 91 84 92 87 93 85 94 64 95 65 96 73 97
REMARK SMILES IDX 66 98 67 99 71 100 74 101 68 102 69 103 72 104 70 105
REMARK H PARENT 28 6 6 14 35 39 94 58 62 69
REMARK Flexibility Score: inf
ROOT
ATOM      1  C   UNL     1      -1.350  -7.227   1.460  1.00  0.00     0.021 C 
ENDROOT
BRANCH   1   2
ATOM      2  C   UNL     1       0.005  -6.599   1.185  1.00  0.00     0.116 C 
BRANCH   2   3
ATOM      3  N   UNL     1       0.020  -5.987  -0.115  1.00  0.00    -0.354 N 
ATOM      4  C   UNL     1       0.468  -4.763  -0.470  1.00  0.00     0.242 C 
ATOM      5  O   UNL     1       0.376  -4.444  -1.659  1.00  0.00    -0.273 OA
ATOM      6  H   UNL     1      -0.346  -6.535  -0.847  1.00  0.00     0.163 HD
BRANCH   4   7
ATOM      7  C   UNL     1       1.137  -3.830   0.555  1.00  0.00     0.174 C 
BRANCH   7   8
ATOM      8  C   UNL     1       2.529  -4.303   1.091  1.00  0.00     0.018 C 
ATOM      9  C   UNL     1       2.607  -4.856   2.528  1.00  0.00     0.010 C 
BRANCH   8  10
ATOM     10  C   UNL     1       3.244  -5.267   0.112  1.00  0.00     0.002 C 
ATOM     11  C   UNL     1       4.752  -5.101   0.119  1.00  0.00     0.004 C 
ENDBRANCH   8  10
ENDBRANCH   7   8
BRANCH   7  12
ATOM     12  N   UNL     1       0.224  -3.321   1.573  1.00  0.00    -0.341 N 
ATOM     13  C   UNL     1      -0.578  -2.226   1.601  1.00  0.00     0.261 C 
ATOM     14  H   UNL     1       0.182  -3.871   2.388  1.00  0.00     0.164 HD
ATOM     15  O   UNL     1      -1.213  -2.064   2.653  1.00  0.00    -0.271 OA
BRANCH  13  16
ATOM     16  C   UNL     1      -0.790  -1.248   0.405  1.00  0.00     0.258 C 
ATOM     17  C   UNL     1      -1.386  -1.949  -0.818  1.00  0.00     0.064 C 
BRANCH  16  18
ATOM     18  O   UNL     1       0.082  -0.179   0.039  1.00  0.00    -0.480 OA
BRANCH  18  19
ATOM     19  C   UNL     1       1.412  -0.462  -0.036  1.00  0.00     0.127 A 
ATOM     20  C   UNL     1       1.934  -0.905  -1.253  1.00  0.00     0.047 A 
ATOM     21  C   UNL     1       2.267  -0.210   1.039  1.00  0.00     0.035 A 
ATOM     22  C   UNL     1       3.294  -1.219  -1.375  1.00  0.00     0.016 A 
ATOM     23  C   UNL     1       3.630  -0.541   0.888  1.00  0.00     0.145 A 
ATOM     24  C   UNL     1       1.787   0.435   2.308  1.00  0.00     0.052 C 
ATOM     25  C   UNL     1       4.168  -1.059  -0.293  1.00  0.00     0.021 A 
ATOM     26  O   UNL     1       4.452  -0.369   2.019  1.00  0.00    -0.422 OA
ATOM     27  C   UNL     1       5.592  -1.451  -0.332  1.00  0.00    -0.030 A 
ATOM     28  C   UNL     1       5.754  -0.834   2.064  1.00  0.00     0.339 A 
ATOM     29  C   UNL     1       6.146  -1.969  -1.639  1.00  0.00     0.045 C 
ATOM     30  C   UNL     1       6.321  -1.389   0.805  1.00  0.00     0.038 A 
ATOM     31  O   UNL     1       6.404  -0.775   3.103  1.00  0.00    -0.246 OA
ATOM     32  C   UNL     1       7.745  -1.869   0.909  1.00  0.00     0.052 C 
ENDBRANCH  18  19
ENDBRANCH  16  18
ENDBRANCH  13  16
ENDBRANCH   7  12
ENDBRANCH   4   7
ENDBRANCH   2   3
ENDBRANCH   1   2
BRANCH   1  33
ATOM     33  C   UNL     1      -1.691  -8.385   0.518  1.00  0.00     0.002 C 
BRANCH  33  34
ATOM     34  C   UNL     1      -0.620  -9.478   0.432  1.00  0.00     0.002 C 
BRANCH  34  35
ATOM     35  C   UNL     1      -0.157 -10.024   1.783  1.00  0.00     0.021 C 
BRANCH  35  36
ATOM     36  C   UNL     1      -1.295 -10.463   2.693  1.00  0.00     0.116 C 
BRANCH  36  37
ATOM     37  N   UNL     1      -2.090 -11.509   2.078  1.00  0.00    -0.352 N 
ATOM     38  C   UNL     1      -2.300 -12.786   2.526  1.00  0.00     0.251 C 
ATOM     39  H   UNL     1      -2.535 -11.271   1.233  1.00  0.00     0.163 HD
ATOM     40  O   UNL     1      -2.800 -13.637   1.806  1.00  0.00    -0.269 OA
BRANCH  38  41
ATOM     41  C   UNL     1      -1.903 -13.114   3.907  1.00  0.00     0.039 A 
ATOM     42  C   UNL     1      -1.115 -14.241   4.136  1.00  0.00     0.014 A 
ATOM     43  C   UNL     1      -2.314 -12.293   4.964  1.00  0.00     0.014 A 
ATOM     44  C   UNL     1      -0.723 -14.545   5.438  1.00  0.00     0.010 A 
ATOM     45  C   UNL     1      -1.871 -12.561   6.251  1.00  0.00     0.010 A 
ATOM     46  C   UNL     1      -1.099 -13.706   6.499  1.00  0.00    -0.014 A 
BRANCH  46  47
ATOM     47  C   UNL     1      -0.806 -14.074   7.900  1.00  0.00     0.031 A 
ATOM     48  C   UNL     1      -1.940 -14.515   8.781  1.00  0.00     0.074 A 
ATOM     49  C   UNL     1       0.448 -13.991   8.379  1.00  0.00     0.049 A 
ATOM     50  N   UNL     1      -1.933 -14.811  10.054  1.00  0.00    -0.248 NA
ATOM     51  C   UNL     1      -3.266 -14.621   8.146  1.00  0.00     0.031 C 
ATOM     52  C   UNL     1       1.622 -13.579   7.611  1.00  0.00     0.029 A 
ATOM     53  N   UNL     1       0.940 -14.246   9.633  1.00  0.00    -0.354 N 
ATOM     54  C   UNL     1      -3.244 -15.143  10.367  1.00  0.00     0.074 A 
ATOM     55  C   UNL     1      -4.034 -14.950   9.172  1.00  0.00     0.031 C 
ATOM     56  C   UNL     1       2.703 -13.623   8.408  1.00  0.00     0.029 A 
ATOM     57  C   UNL     1       2.291 -14.031   9.749  1.00  0.00     0.049 A 
ATOM     58  H   UNL     1       0.377 -14.554  10.380  1.00  0.00     0.167 HD
ATOM     59  C   UNL     1      -3.737 -15.600  11.540  1.00  0.00     0.037 A 
ATOM     60  C   UNL     1       3.095 -14.144  10.823  1.00  0.00     0.037 A 
ATOM     61  C   UNL     1      -2.944 -15.802  12.721  1.00  0.00     0.049 A 
ATOM     62  C   UNL     1       2.500 -14.583  12.137  1.00  0.00     0.074 A 
ATOM     63  C   UNL     1      -3.345 -16.277  13.956  1.00  0.00     0.029 A 
ATOM     64  N   UNL     1      -1.584 -15.545  12.811  1.00  0.00    -0.354 N 
ATOM     65  N   UNL     1       1.266 -14.931  12.416  1.00  0.00    -0.248 NA
ATOM     66  C   UNL     1       3.413 -14.646  13.287  1.00  0.00     0.031 C 
ATOM     67  C   UNL     1      -2.238 -16.262  14.809  1.00  0.00     0.029 A 
ATOM     68  C   UNL     1      -1.135 -15.829  14.090  1.00  0.00     0.049 A 
ATOM     69  H   UNL     1      -1.022 -15.210  12.075  1.00  0.00     0.167 HD
ATOM     70  C   UNL     1       1.261 -15.278  13.761  1.00  0.00     0.074 A 
ATOM     71  C   UNL     1       2.621 -15.126  14.235  1.00  0.00     0.031 C 
ATOM     72  C   UNL     1       0.225 -15.677  14.539  1.00  0.00     0.037 A 
BRANCH  59  73
ATOM     73  C   UNL     1      -5.197 -15.936  11.603  1.00  0.00     0.064 A 
ATOM     74  C   UNL     1      -5.712 -17.066  10.949  1.00  0.00     0.173 A 
ATOM     75  C   UNL     1      -6.074 -15.171  12.385  1.00  0.00     0.173 A 
ATOM     76  F   UNL     1      -4.917 -17.819  10.174  1.00  0.00    -0.203 F 
ATOM     77  C   UNL     1      -7.053 -17.415  11.075  1.00  0.00     0.198 A 
ATOM     78  C   UNL     1      -7.408 -15.540  12.531  1.00  0.00     0.198 A 
ATOM     79  F   UNL     1      -5.630 -14.080  13.028  1.00  0.00    -0.203 F 
ATOM     80  F   UNL     1      -7.529 -18.483  10.420  1.00  0.00    -0.200 F 
ATOM     81  C   UNL     1      -7.896 -16.661  11.876  1.00  0.00     0.200 A 
ATOM     82  F   UNL     1      -8.219 -14.817  13.316  1.00  0.00    -0.200 F 
ATOM     83  F   UNL     1      -9.181 -17.013  12.017  1.00  0.00    -0.200 F 
ENDBRANCH  59  73
BRANCH  60  84
ATOM     84  C   UNL     1       4.549 -13.857  10.708  1.00  0.00     0.064 A 
ATOM     85  C   UNL     1       5.496 -14.879  10.872  1.00  0.00     0.173 A 
ATOM     86  C   UNL     1       5.026 -12.561  10.466  1.00  0.00     0.173 A 
ATOM     87  F   UNL     1       5.091 -16.131  11.128  1.00  0.00    -0.203 F 
ATOM     88  C   UNL     1       6.862 -14.610  10.825  1.00  0.00     0.198 A 
ATOM     89  C   UNL     1       6.393 -12.299  10.387  1.00  0.00     0.198 A 
ATOM     90  F   UNL     1       4.165 -11.547  10.301  1.00  0.00    -0.203 F 
ATOM     91  F   UNL     1       7.744 -15.596  11.041  1.00  0.00    -0.200 F 
ATOM     92  C   UNL     1       7.310 -13.322  10.577  1.00  0.00     0.200 A 
ATOM     93  F   UNL     1       6.821 -11.055  10.134  1.00  0.00    -0.200 F 
ATOM     94  F   UNL     1       8.624 -13.063  10.532  1.00  0.00    -0.200 F 
ENDBRANCH  60  84
BRANCH  72  95
ATOM     95  C   UNL     1       0.520 -15.994  15.977  1.00  0.00     0.064 A 
ATOM     96  C   UNL     1       0.846 -14.987  16.896  1.00  0.00     0.173 A 
ATOM     97  C   UNL     1       0.420 -17.311  16.453  1.00  0.00     0.173 A 
ATOM     98  F   UNL     1       0.964 -13.714  16.489  1.00  0.00    -0.203 F 
ATOM     99  C   UNL     1       1.088 -15.289  18.233  1.00  0.00     0.198 A 
ATOM    100  C   UNL     1       0.627 -17.604  17.798  1.00  0.00     0.198 A 
ATOM    101  F   UNL     1       0.100 -18.311  15.618  1.00  0.00    -0.203 F 
ATOM    102  F   UNL     1       1.447 -14.316  19.083  1.00  0.00    -0.200 F 
ATOM    103  C   UNL     1       0.969 -16.595  18.685  1.00  0.00     0.200 A 
ATOM    104  F   UNL     1       0.492 -18.863  18.236  1.00  0.00    -0.200 F 
ATOM    105  F   UNL     1       1.190 -16.881  19.975  1.00  0.00    -0.200 F 
ENDBRANCH  72  95
ENDBRANCH  46  47
ENDBRANCH  38  41
ENDBRANCH  36  37
ENDBRANCH  35  36
ENDBRANCH  34  35
ENDBRANCH  33  34
ENDBRANCH   1  33
TORSDOF 19
