REMARK SMILES CN(c1ccc(C(N)=O)nn1)[C@H]1COC[C@@H]1C(=O)NCCCCCCNC(=O)c1ccc(-c2c3nc(c(-c4c(F)c(F)c(F)c(F)c4F)c4ccc([nH]4)c(-c4c(F)c(F)c(F)c(F)c4F)c4nc(c(-c5c(F)c(F)c(F)c(F)c5F)c5ccc2[nH]5)C=C4)C=C3)cc1
REMARK SMILES IDX 22 1 21 2 20 3 19 4 17 5 18 6 16 8 12 9 13 10 14 11 15 12
REMARK SMILES IDX 2 13 1 14 3 15 4 16 11 17 5 18 10 19 6 20 7 21 8 22 9 23
REMARK SMILES IDX 23 26 24 27 25 28 26 29 27 30 28 32 29 33 30 34 91 35 31 36
REMARK SMILES IDX 90 37 32 38 33 39 34 40 84 41 35 42 89 43 83 44 85 45 36 46
REMARK SMILES IDX 88 47 82 48 81 49 37 51 69 52 49 53 68 54 50 55 53 56 67 57
REMARK SMILES IDX 86 58 51 59 52 60 66 62 87 63 54 64 38 65 39 66 47 67 40 68
REMARK SMILES IDX 41 69 45 70 48 71 42 72 43 73 46 74 44 75 70 76 71 77 79 78
REMARK SMILES IDX 72 79 73 80 77 81 80 82 74 83 75 84 78 85 76 86 55 87 56 88
REMARK SMILES IDX 64 89 57 90 58 91 62 92 65 93 59 94 60 95 63 96 61 97
REMARK H PARENT 19 7 8 24 8 25 26 31 85 50 53 61
REMARK Flexibility Score: inf
ROOT
ATOM      1  C   UNL     1      -3.676   3.578   2.073  1.00  0.00     0.002 C 
ENDROOT
BRANCH   1   2
ATOM      2  C   UNL     1      -2.272   3.414   2.669  1.00  0.00     0.021 C 
BRANCH   2   3
ATOM      3  C   UNL     1      -2.123   2.257   3.655  1.00  0.00     0.116 C 
BRANCH   3   4
ATOM      4  N   UNL     1      -2.358   0.981   3.005  1.00  0.00    -0.356 N 
ATOM      5  C   UNL     1      -1.592  -0.143   2.948  1.00  0.00     0.227 C 
ATOM      6  O   UNL     1      -2.017  -1.071   2.260  1.00  0.00    -0.275 OA
ATOM      7  H   UNL     1      -3.215   0.918   2.525  1.00  0.00     0.163 HD
BRANCH   5   8
ATOM      8  C   UNL     1      -0.266  -0.208   3.693  1.00  0.00     0.129 C 
ATOM      9  C   UNL     1       0.896  -0.205   2.705  1.00  0.00     0.124 C 
ATOM     10  C   UNL     1       0.948  -1.711   2.365  1.00  0.00     0.186 C 
ATOM     11  O   UNL     1       0.635  -2.426   3.568  1.00  0.00    -0.378 OA
ATOM     12  C   UNL     1      -0.123  -1.542   4.406  1.00  0.00     0.176 C 
BRANCH   9  13
ATOM     13  N   UNL     1       2.208   0.306   3.225  1.00  0.00    -0.352 N 
ATOM     14  C   UNL     1       3.440  -0.187   2.613  1.00  0.00     0.145 C 
BRANCH  13  15
ATOM     15  C   UNL     1       2.288   1.478   3.964  1.00  0.00     0.151 A 
ATOM     16  C   UNL     1       3.146   2.523   3.618  1.00  0.00     0.051 A 
ATOM     17  N   UNL     1       1.571   1.603   5.101  1.00  0.00    -0.132 NA
ATOM     18  C   UNL     1       3.284   3.641   4.445  1.00  0.00     0.040 A 
ATOM     19  N   UNL     1       1.676   2.705   5.928  1.00  0.00    -0.143 NA
ATOM     20  C   UNL     1       2.537   3.689   5.603  1.00  0.00     0.150 A 
BRANCH  20  21
ATOM     21  C   UNL     1       2.645   4.829   6.551  1.00  0.00     0.269 C 
ATOM     22  N   UNL     1       1.868   4.759   7.676  1.00  0.00    -0.364 N 
ATOM     23  O   UNL     1       3.389   5.782   6.342  1.00  0.00    -0.268 OA
ATOM     24  H   UNL     1       1.279   3.983   7.820  1.00  0.00     0.160 HD
ATOM     25  H   UNL     1       1.898   5.485   8.341  1.00  0.00     0.160 HD
ENDBRANCH  20  21
ENDBRANCH  13  15
ENDBRANCH   9  13
ENDBRANCH   5   8
ENDBRANCH   3   4
ENDBRANCH   2   3
ENDBRANCH   1   2
BRANCH   1  26
ATOM     26  C   UNL     1      -4.804   3.765   3.092  1.00  0.00     0.002 C 
BRANCH  26  27
ATOM     27  C   UNL     1      -4.604   4.914   4.082  1.00  0.00     0.021 C 
BRANCH  27  28
ATOM     28  C   UNL     1      -4.399   6.282   3.441  1.00  0.00     0.116 C 
BRANCH  28  29
ATOM     29  N   UNL     1      -5.564   6.722   2.691  1.00  0.00    -0.352 N 
ATOM     30  C   UNL     1      -6.260   7.902   2.776  1.00  0.00     0.251 C 
ATOM     31  H   UNL     1      -5.902   6.081   2.025  1.00  0.00     0.163 HD
ATOM     32  O   UNL     1      -7.330   8.033   2.190  1.00  0.00    -0.269 OA
BRANCH  30  33
ATOM     33  C   UNL     1      -5.732   9.013   3.598  1.00  0.00     0.039 A 
ATOM     34  C   UNL     1      -6.608   9.705   4.439  1.00  0.00     0.014 A 
ATOM     35  C   UNL     1      -4.383   9.376   3.539  1.00  0.00     0.014 A 
ATOM     36  C   UNL     1      -6.119  10.719   5.264  1.00  0.00     0.010 A 
ATOM     37  C   UNL     1      -3.884  10.335   4.416  1.00  0.00     0.010 A 
ATOM     38  C   UNL     1      -4.747  11.019   5.287  1.00  0.00    -0.014 A 
BRANCH  38  39
ATOM     39  C   UNL     1      -4.198  12.039   6.218  1.00  0.00     0.031 A 
ATOM     40  C   UNL     1      -3.538  13.279   5.681  1.00  0.00     0.074 A 
ATOM     41  C   UNL     1      -4.236  11.815   7.547  1.00  0.00     0.049 A 
ATOM     42  N   UNL     1      -2.939  14.246   6.331  1.00  0.00    -0.248 NA
ATOM     43  C   UNL     1      -3.526  13.445   4.219  1.00  0.00     0.031 C 
ATOM     44  C   UNL     1      -4.801  10.627   8.189  1.00  0.00     0.029 A 
ATOM     45  N   UNL     1      -3.774  12.570   8.598  1.00  0.00    -0.354 N 
ATOM     46  C   UNL     1      -2.466  15.119   5.360  1.00  0.00     0.074 A 
ATOM     47  C   UNL     1      -2.806  14.548   4.075  1.00  0.00     0.031 C 
ATOM     48  C   UNL     1      -4.667  10.739   9.520  1.00  0.00     0.029 A 
ATOM     49  C   UNL     1      -3.969  11.984   9.825  1.00  0.00     0.049 A 
ATOM     50  H   UNL     1      -3.345  13.449   8.482  1.00  0.00     0.167 HD
ATOM     51  C   UNL     1      -1.823  16.299   5.528  1.00  0.00     0.037 A 
ATOM     52  C   UNL     1      -3.609  12.396  11.057  1.00  0.00     0.037 A 
ATOM     53  C   UNL     1      -1.516  16.879   6.809  1.00  0.00     0.049 A 
ATOM     54  C   UNL     1      -2.898  13.714  11.211  1.00  0.00     0.074 A 
ATOM     55  C   UNL     1      -0.939  18.107   7.081  1.00  0.00     0.029 A 
ATOM     56  N   UNL     1      -1.755  16.269   8.031  1.00  0.00    -0.354 N 
ATOM     57  N   UNL     1      -2.534  14.572  10.289  1.00  0.00    -0.248 NA
ATOM     58  C   UNL     1      -2.556  14.128  12.579  1.00  0.00     0.031 C 
ATOM     59  C   UNL     1      -0.774  18.215   8.465  1.00  0.00     0.029 A 
ATOM     60  C   UNL     1      -1.308  17.084   9.059  1.00  0.00     0.049 A 
ATOM     61  H   UNL     1      -2.179  15.389   8.151  1.00  0.00     0.167 HD
ATOM     62  C   UNL     1      -1.952  15.636  10.964  1.00  0.00     0.074 A 
ATOM     63  C   UNL     1      -2.027  15.326  12.376  1.00  0.00     0.031 C 
ATOM     64  C   UNL     1      -1.402  16.768  10.461  1.00  0.00     0.037 A 
BRANCH  51  65
ATOM     65  C   UNL     1      -1.402  17.054   4.300  1.00  0.00     0.064 A 
ATOM     66  C   UNL     1      -2.337  17.680   3.461  1.00  0.00     0.173 A 
ATOM     67  C   UNL     1      -0.041  17.217   4.001  1.00  0.00     0.173 A 
ATOM     68  F   UNL     1      -3.651  17.547   3.696  1.00  0.00    -0.203 F 
ATOM     69  C   UNL     1      -1.924  18.426   2.360  1.00  0.00     0.198 A 
ATOM     70  C   UNL     1       0.369  17.990   2.918  1.00  0.00     0.198 A 
ATOM     71  F   UNL     1       0.895  16.645   4.774  1.00  0.00    -0.203 F 
ATOM     72  F   UNL     1      -2.836  18.985   1.552  1.00  0.00    -0.200 F 
ATOM     73  C   UNL     1      -0.573  18.590   2.096  1.00  0.00     0.200 A 
ATOM     74  F   UNL     1       1.676  18.160   2.674  1.00  0.00    -0.200 F 
ATOM     75  F   UNL     1      -0.177  19.325   1.047  1.00  0.00    -0.200 F 
ENDBRANCH  51  65
BRANCH  52  76
ATOM     76  C   UNL     1      -3.912  11.554  12.246  1.00  0.00     0.064 A 
ATOM     77  C   UNL     1      -4.822  11.981  13.224  1.00  0.00     0.173 A 
ATOM     78  C   UNL     1      -3.272  10.322  12.447  1.00  0.00     0.173 A 
ATOM     79  F   UNL     1      -5.445  13.161  13.089  1.00  0.00    -0.203 F 
ATOM     80  C   UNL     1      -5.053  11.227  14.373  1.00  0.00     0.198 A 
ATOM     81  C   UNL     1      -3.530   9.552  13.579  1.00  0.00     0.198 A 
ATOM     82  F   UNL     1      -2.398   9.862  11.540  1.00  0.00    -0.203 F 
ATOM     83  F   UNL     1      -5.878  11.690  15.321  1.00  0.00    -0.200 F 
ATOM     84  C   UNL     1      -4.410  10.011  14.548  1.00  0.00     0.200 A 
ATOM     85  F   UNL     1      -2.920   8.369  13.735  1.00  0.00    -0.200 F 
ATOM     86  F   UNL     1      -4.629   9.287  15.654  1.00  0.00    -0.200 F 
ENDBRANCH  52  76
BRANCH  64  87
ATOM     87  C   UNL     1      -0.880  17.779  11.442  1.00  0.00     0.064 A 
ATOM     88  C   UNL     1       0.276  17.546  12.201  1.00  0.00     0.173 A 
ATOM     89  C   UNL     1      -1.525  19.017  11.591  1.00  0.00     0.173 A 
ATOM     90  F   UNL     1       0.921  16.373  12.106  1.00  0.00    -0.203 F 
ATOM     91  C   UNL     1       0.750  18.503  13.094  1.00  0.00     0.198 A 
ATOM     92  C   UNL     1      -1.027  19.985  12.459  1.00  0.00     0.198 A 
ATOM     93  F   UNL     1      -2.630  19.295  10.883  1.00  0.00    -0.203 F 
ATOM     94  F   UNL     1       1.826  18.237  13.848  1.00  0.00    -0.200 F 
ATOM     95  C   UNL     1       0.104  19.724  13.216  1.00  0.00     0.200 A 
ATOM     96  F   UNL     1      -1.643  21.171  12.562  1.00  0.00    -0.200 F 
ATOM     97  F   UNL     1       0.569  20.647  14.069  1.00  0.00    -0.200 F 
ENDBRANCH  64  87
ENDBRANCH  38  39
ENDBRANCH  30  33
ENDBRANCH  28  29
ENDBRANCH  27  28
ENDBRANCH  26  27
ENDBRANCH   1  26
TORSDOF 16
