REMARK SMILES O=C(C[C@H](CNC(=O)c1ccccn1)c1ccc(Cl)cc1)NCCCCCCNC(=O)c1ccc(-c2c3nc(c(-c4c(F)c(F)c(F)c(F)c4F)c4ccc([nH]4)c(-c4c(F)c(F)c(F)c(F)c4F)c4nc(c(-c5c(F)c(F)c(F)c(F)c5F)c5ccc2[nH]5)C=C4)C=C3)cc1
REMARK SMILES IDX 24 1 23 2 22 3 1 4 2 5 3 7 4 8 15 9 16 10 21 11 17 12 20 13
REMARK SMILES IDX 18 14 19 15 5 16 6 17 7 18 8 20 9 21 10 22 14 23 11 24 13 25
REMARK SMILES IDX 12 26 25 27 26 28 27 29 28 30 29 31 30 32 31 34 32 35 33 36
REMARK SMILES IDX 94 37 34 38 93 39 35 40 36 41 37 42 87 43 38 44 92 45 86 46
REMARK SMILES IDX 88 47 39 48 91 49 85 50 84 51 40 53 72 54 52 55 71 56 53 57
REMARK SMILES IDX 56 58 70 59 89 60 54 61 55 62 69 64 90 65 57 66 41 67 42 68
REMARK SMILES IDX 50 69 43 70 44 71 48 72 51 73 45 74 46 75 49 76 47 77 73 78
REMARK SMILES IDX 74 79 82 80 75 81 76 82 80 83 83 84 77 85 78 86 81 87 79 88
REMARK SMILES IDX 58 89 59 90 67 91 60 92 61 93 65 94 68 95 62 96 63 97 66 98
REMARK SMILES IDX 64 99
REMARK H PARENT 22 6 6 19 29 33 88 52 56 63
REMARK Flexibility Score: inf
ROOT
ATOM      1  C   UNL     1       3.058   1.964   4.424  1.00  0.00     0.021 C 
ENDROOT
BRANCH   1   2
ATOM      2  C   UNL     1       2.737   1.026   3.261  1.00  0.00     0.116 C 
BRANCH   2   3
ATOM      3  N   UNL     1       3.485   1.370   2.068  1.00  0.00    -0.356 N 
ATOM      4  O   UNL     1       4.580  -0.629   1.917  1.00  0.00    -0.275 OA
ATOM      5  C   UNL     1       4.338   0.481   1.455  1.00  0.00     0.220 C 
ATOM      6  H   UNL     1       3.380   2.270   1.683  1.00  0.00     0.163 HD
BRANCH   5   7
ATOM      7  C   UNL     1       5.014   0.985   0.191  1.00  0.00     0.110 C 
BRANCH   7   8
ATOM      8  C   UNL     1       4.056   1.608  -0.842  1.00  0.00     0.048 C 
BRANCH   8   9
ATOM      9  C   UNL     1       4.805   2.237  -2.014  1.00  0.00    -0.043 A 
ATOM     10  C   UNL     1       5.718   1.505  -2.791  1.00  0.00     0.005 A 
ATOM     11  C   UNL     1       4.575   3.584  -2.345  1.00  0.00     0.005 A 
ATOM     12  C   UNL     1       6.360   2.092  -3.884  1.00  0.00     0.021 A 
ATOM     13  C   UNL     1       5.229   4.175  -3.430  1.00  0.00     0.021 A 
ATOM     14  C   UNL     1       6.112   3.424  -4.200  1.00  0.00     0.041 A 
ATOM     15  Cl  UNL     1       6.897   4.146  -5.549  1.00  0.00    -0.084 Cl
ENDBRANCH   8   9
BRANCH   8  16
ATOM     16  C   UNL     1       2.918   0.658  -1.293  1.00  0.00     0.125 C 
BRANCH  16  17
ATOM     17  N   UNL     1       3.325  -0.420  -2.179  1.00  0.00    -0.350 N 
ATOM     18  C   UNL     1       3.441  -1.776  -1.977  1.00  0.00     0.269 C 
ATOM     19  H   UNL     1       3.559  -0.126  -3.089  1.00  0.00     0.163 HD
ATOM     20  O   UNL     1       3.924  -2.457  -2.881  1.00  0.00    -0.268 OA
BRANCH  18  21
ATOM     21  C   UNL     1       2.979  -2.412  -0.711  1.00  0.00     0.128 A 
ATOM     22  C   UNL     1       1.688  -2.199  -0.240  1.00  0.00     0.034 A 
ATOM     23  N   UNL     1       3.866  -3.245  -0.113  1.00  0.00    -0.251 NA
ATOM     24  C   UNL     1       1.305  -2.823   0.943  1.00  0.00     0.004 A 
ATOM     25  C   UNL     1       3.463  -3.838   1.031  1.00  0.00     0.112 A 
ATOM     26  C   UNL     1       2.210  -3.655   1.595  1.00  0.00     0.020 A 
ENDBRANCH  18  21
ENDBRANCH  16  17
ENDBRANCH   8  16
ENDBRANCH   7   8
ENDBRANCH   5   7
ENDBRANCH   2   3
ENDBRANCH   1   2
BRANCH   1  27
ATOM     27  C   UNL     1       2.699   3.435   4.181  1.00  0.00     0.002 C 
BRANCH  27  28
ATOM     28  C   UNL     1       1.227   3.711   3.858  1.00  0.00     0.002 C 
BRANCH  28  29
ATOM     29  C   UNL     1       0.222   3.233   4.908  1.00  0.00     0.021 C 
BRANCH  29  30
ATOM     30  C   UNL     1       0.425   3.802   6.310  1.00  0.00     0.116 C 
BRANCH  30  31
ATOM     31  N   UNL     1       0.264   5.247   6.358  1.00  0.00    -0.352 N 
ATOM     32  C   UNL     1      -0.456   6.016   7.235  1.00  0.00     0.251 C 
ATOM     33  H   UNL     1       0.743   5.746   5.657  1.00  0.00     0.163 HD
ATOM     34  O   UNL     1      -0.590   7.223   7.023  1.00  0.00    -0.269 OA
BRANCH  32  35
ATOM     35  C   UNL     1      -1.096   5.409   8.422  1.00  0.00     0.039 A 
ATOM     36  C   UNL     1      -2.393   5.805   8.763  1.00  0.00     0.014 A 
ATOM     37  C   UNL     1      -0.421   4.478   9.216  1.00  0.00     0.014 A 
ATOM     38  C   UNL     1      -3.031   5.229   9.864  1.00  0.00     0.010 A 
ATOM     39  C   UNL     1      -1.082   3.854  10.273  1.00  0.00     0.010 A 
ATOM     40  C   UNL     1      -2.391   4.228  10.613  1.00  0.00    -0.014 A 
BRANCH  40  41
ATOM     41  C   UNL     1      -3.070   3.578  11.763  1.00  0.00     0.031 A 
ATOM     42  C   UNL     1      -2.535   3.760  13.158  1.00  0.00     0.074 A 
ATOM     43  C   UNL     1      -4.138   2.785  11.551  1.00  0.00     0.049 A 
ATOM     44  N   UNL     1      -2.946   3.225  14.280  1.00  0.00    -0.248 NA
ATOM     45  C   UNL     1      -1.367   4.642  13.306  1.00  0.00     0.031 C 
ATOM     46  C   UNL     1      -4.728   2.493  10.243  1.00  0.00     0.029 A 
ATOM     47  N   UNL     1      -4.912   2.071  12.431  1.00  0.00    -0.354 N 
ATOM     48  C   UNL     1      -2.087   3.700  15.262  1.00  0.00     0.074 A 
ATOM     49  C   UNL     1      -1.095   4.518  14.597  1.00  0.00     0.031 C 
ATOM     50  C   UNL     1      -5.778   1.673  10.408  1.00  0.00     0.029 A 
ATOM     51  C   UNL     1      -5.918   1.357  11.827  1.00  0.00     0.049 A 
ATOM     52  H   UNL     1      -4.761   2.070  13.404  1.00  0.00     0.167 HD
ATOM     53  C   UNL     1      -2.135   3.498  16.601  1.00  0.00     0.037 A 
ATOM     54  C   UNL     1      -6.845   0.536  12.357  1.00  0.00     0.037 A 
ATOM     55  C   UNL     1      -3.130   2.697  17.266  1.00  0.00     0.049 A 
ATOM     56  C   UNL     1      -6.877   0.328  13.848  1.00  0.00     0.074 A 
ATOM     57  C   UNL     1      -3.275   2.445  18.619  1.00  0.00     0.029 A 
ATOM     58  N   UNL     1      -4.157   2.022  16.622  1.00  0.00    -0.354 N 
ATOM     59  N   UNL     1      -6.088   0.823  14.771  1.00  0.00    -0.248 NA
ATOM     60  C   UNL     1      -7.939  -0.541  14.373  1.00  0.00     0.031 C 
ATOM     61  C   UNL     1      -4.372   1.594  18.792  1.00  0.00     0.029 A 
ATOM     62  C   UNL     1      -4.937   1.352  17.551  1.00  0.00     0.049 A 
ATOM     63  H   UNL     1      -4.309   2.020  15.650  1.00  0.00     0.167 HD
ATOM     64  C   UNL     1      -6.577   0.354  15.983  1.00  0.00     0.074 A 
ATOM     65  C   UNL     1      -7.740  -0.452  15.680  1.00  0.00     0.031 C 
ATOM     66  C   UNL     1      -6.104   0.571  17.234  1.00  0.00     0.037 A 
BRANCH  53  67
ATOM     67  C   UNL     1      -1.086   4.168  17.440  1.00  0.00     0.064 A 
ATOM     68  C   UNL     1      -1.082   5.559  17.628  1.00  0.00     0.173 A 
ATOM     69  C   UNL     1      -0.099   3.416  18.092  1.00  0.00     0.173 A 
ATOM     70  F   UNL     1      -1.998   6.326  17.016  1.00  0.00    -0.203 F 
ATOM     71  C   UNL     1      -0.112   6.174  18.415  1.00  0.00     0.198 A 
ATOM     72  C   UNL     1       0.853   4.031  18.903  1.00  0.00     0.198 A 
ATOM     73  F   UNL     1      -0.060   2.082  17.951  1.00  0.00    -0.203 F 
ATOM     74  F   UNL     1      -0.100   7.508  18.540  1.00  0.00    -0.200 F 
ATOM     75  C   UNL     1       0.850   5.409  19.057  1.00  0.00     0.200 A 
ATOM     76  F   UNL     1       1.774   3.290  19.533  1.00  0.00    -0.200 F 
ATOM     77  F   UNL     1       1.779   6.001  19.820  1.00  0.00    -0.200 F 
ENDBRANCH  53  67
BRANCH  54  78
ATOM     78  C   UNL     1      -7.838  -0.136  11.479  1.00  0.00     0.064 A 
ATOM     79  C   UNL     1      -9.194   0.217  11.521  1.00  0.00     0.173 A 
ATOM     80  C   UNL     1      -7.458  -1.159  10.599  1.00  0.00     0.173 A 
ATOM     81  F   UNL     1      -9.610   1.177  12.361  1.00  0.00    -0.203 F 
ATOM     82  C   UNL     1     -10.136  -0.448  10.740  1.00  0.00     0.198 A 
ATOM     83  C   UNL     1      -8.396  -1.803   9.796  1.00  0.00     0.198 A 
ATOM     84  F   UNL     1      -6.172  -1.530  10.514  1.00  0.00    -0.203 F 
ATOM     85  F   UNL     1     -11.434  -0.128  10.842  1.00  0.00    -0.200 F 
ATOM     86  C   UNL     1      -9.736  -1.455   9.875  1.00  0.00     0.200 A 
ATOM     87  F   UNL     1      -8.004  -2.766   8.950  1.00  0.00    -0.200 F 
ATOM     88  F   UNL     1     -10.643  -2.096   9.125  1.00  0.00    -0.200 F 
ENDBRANCH  54  78
BRANCH  66  89
ATOM     89  C   UNL     1      -6.877  -0.028  18.373  1.00  0.00     0.064 A 
ATOM     90  C   UNL     1      -6.874  -1.408  18.623  1.00  0.00     0.173 A 
ATOM     91  C   UNL     1      -7.609   0.796  19.242  1.00  0.00     0.173 A 
ATOM     92  F   UNL     1      -6.201  -2.239  17.812  1.00  0.00    -0.203 F 
ATOM     93  C   UNL     1      -7.601  -1.945  19.682  1.00  0.00     0.198 A 
ATOM     94  C   UNL     1      -8.311   0.259  20.317  1.00  0.00     0.198 A 
ATOM     95  F   UNL     1      -7.639   2.123  19.050  1.00  0.00    -0.203 F 
ATOM     96  F   UNL     1      -7.627  -3.272  19.870  1.00  0.00    -0.200 F 
ATOM     97  C   UNL     1      -8.314  -1.111  20.531  1.00  0.00     0.200 A 
ATOM     98  F   UNL     1      -8.989   1.067  21.144  1.00  0.00    -0.200 F 
ATOM     99  F   UNL     1      -9.011  -1.629  21.551  1.00  0.00    -0.200 F 
ENDBRANCH  66  89
ENDBRANCH  40  41
ENDBRANCH  32  35
ENDBRANCH  30  31
ENDBRANCH  29  30
ENDBRANCH  28  29
ENDBRANCH  27  28
ENDBRANCH   1  27
TORSDOF 18
