REMARK SMILES C[C@@H]1CCC[C@H]1NC(=O)c1csc(/C=C/C(=O)NCCCCCCNC(=O)c2ccc(-c3c4nc(c(-c5c(F)c(F)c(F)c(F)c5F)c5ccc([nH]5)c(-c5c(F)c(F)c(F)c(F)c5F)c5nc(c(-c6c(F)c(F)c(F)c(F)c6F)c6ccc3[nH]6)C=C5)C=C4)cc2)c1
REMARK SMILES IDX 21 1 20 2 19 3 18 4 16 5 17 6 15 8 14 9 13 10 10 11 11 12
REMARK SMILES IDX 91 13 12 14 8 15 7 16 9 18 6 19 1 20 2 21 3 22 4 23 5 24
REMARK SMILES IDX 22 25 23 26 24 27 25 28 26 29 27 31 28 32 29 33 90 34 30 35
REMARK SMILES IDX 89 36 31 37 32 38 33 39 83 40 34 41 88 42 82 43 84 44 35 45
REMARK SMILES IDX 87 46 81 47 80 48 36 50 68 51 48 52 67 53 49 54 52 55 66 56
REMARK SMILES IDX 85 57 50 58 51 59 65 61 86 62 53 63 37 64 38 65 46 66 39 67
REMARK SMILES IDX 40 68 44 69 47 70 41 71 42 72 45 73 43 74 69 75 70 76 78 77
REMARK SMILES IDX 71 78 72 79 76 80 79 81 73 82 74 83 77 84 75 85 54 86 55 87
REMARK SMILES IDX 63 88 56 89 57 90 61 91 64 92 58 93 59 94 62 95 60 96
REMARK H PARENT 18 7 7 17 25 30 84 49 52 60
REMARK Flexibility Score: inf
ROOT
ATOM      1  C   UNL     1       6.287   8.053   5.420  1.00  0.00     0.002 C 
ENDROOT
BRANCH   1   2
ATOM      2  C   UNL     1       5.238   7.204   4.688  1.00  0.00     0.021 C 
BRANCH   2   3
ATOM      3  C   UNL     1       4.036   8.017   4.206  1.00  0.00     0.116 C 
BRANCH   3   4
ATOM      4  N   UNL     1       4.381   8.749   3.000  1.00  0.00    -0.353 N 
ATOM      5  C   UNL     1       3.925   8.649   1.724  1.00  0.00     0.244 C 
ATOM      6  O   UNL     1       4.349   9.419   0.867  1.00  0.00    -0.270 OA
ATOM      7  H   UNL     1       5.069   9.442   3.131  1.00  0.00     0.163 HD
BRANCH   5   8
ATOM      8  C   UNL     1       2.846   7.701   1.378  1.00  0.00     0.072 C 
ATOM      9  C   UNL     1       2.823   6.416   1.756  1.00  0.00     0.024 C 
BRANCH   9  10
ATOM     10  C   UNL     1       1.721   5.551   1.497  1.00  0.00     0.028 A 
ATOM     11  C   UNL     1       0.181   3.782   1.764  1.00  0.00     0.051 A 
ATOM     12  C   UNL     1      -0.206   4.316   0.551  1.00  0.00     0.079 A 
ATOM     13  C   UNL     1       1.254   4.546   2.325  1.00  0.00     0.033 A 
ATOM     14  S   UNL     1       0.789   5.612   0.055  1.00  0.00    -0.144 S 
BRANCH  11  15
ATOM     15  C   UNL     1      -0.440   2.643   2.424  1.00  0.00     0.252 C 
ATOM     16  N   UNL     1      -0.579   1.467   1.732  1.00  0.00    -0.349 N 
ATOM     17  H   UNL     1      -1.078   0.760   2.203  1.00  0.00     0.164 HD
ATOM     18  O   UNL     1      -0.786   2.691   3.601  1.00  0.00    -0.269 OA
BRANCH  16  19
ATOM     19  C   UNL     1      -0.098   1.107   0.401  1.00  0.00     0.085 C 
ATOM     20  C   UNL     1       1.776  -0.149  -0.752  1.00  0.00     0.010 C 
ATOM     21  C   UNL     1       0.837  -0.111   0.456  1.00  0.00     0.008 C 
ATOM     22  C   UNL     1      -0.130  -1.294   0.461  1.00  0.00     0.005 C 
ATOM     23  C   UNL     1      -1.303  -0.864  -0.415  1.00  0.00     0.002 C 
ATOM     24  C   UNL     1      -1.268   0.664  -0.478  1.00  0.00     0.025 C 
ENDBRANCH  16  19
ENDBRANCH  11  15
ENDBRANCH   9  10
ENDBRANCH   5   8
ENDBRANCH   3   4
ENDBRANCH   2   3
ENDBRANCH   1   2
BRANCH   1  25
ATOM     25  C   UNL     1       5.778   8.742   6.692  1.00  0.00     0.002 C 
BRANCH  25  26
ATOM     26  C   UNL     1       5.136   7.804   7.718  1.00  0.00     0.021 C 
BRANCH  26  27
ATOM     27  C   UNL     1       6.073   6.724   8.245  1.00  0.00     0.116 C 
BRANCH  27  28
ATOM     28  N   UNL     1       7.187   7.296   8.982  1.00  0.00    -0.352 N 
ATOM     29  C   UNL     1       7.620   7.022  10.253  1.00  0.00     0.251 C 
ATOM     30  H   UNL     1       7.705   7.980   8.499  1.00  0.00     0.163 HD
ATOM     31  O   UNL     1       8.428   7.765  10.802  1.00  0.00    -0.269 OA
BRANCH  29  32
ATOM     32  C   UNL     1       7.117   5.828  10.964  1.00  0.00     0.039 A 
ATOM     33  C   UNL     1       6.841   5.925  12.331  1.00  0.00     0.014 A 
ATOM     34  C   UNL     1       6.966   4.606  10.302  1.00  0.00     0.014 A 
ATOM     35  C   UNL     1       6.398   4.800  13.027  1.00  0.00     0.010 A 
ATOM     36  C   UNL     1       6.443   3.509  10.978  1.00  0.00     0.010 A 
ATOM     37  C   UNL     1       6.186   3.585  12.354  1.00  0.00    -0.014 A 
BRANCH  37  38
ATOM     38  C   UNL     1       5.761   2.370  13.092  1.00  0.00     0.031 A 
ATOM     39  C   UNL     1       6.680   1.180  13.168  1.00  0.00     0.074 A 
ATOM     40  C   UNL     1       4.543   2.325  13.665  1.00  0.00     0.049 A 
ATOM     41  N   UNL     1       6.488   0.018  13.740  1.00  0.00    -0.248 NA
ATOM     42  C   UNL     1       7.978   1.302  12.485  1.00  0.00     0.031 C 
ATOM     43  C   UNL     1       3.547   3.396  13.620  1.00  0.00     0.029 A 
ATOM     44  N   UNL     1       3.938   1.336  14.398  1.00  0.00    -0.354 N 
ATOM     45  C   UNL     1       7.630  -0.727  13.474  1.00  0.00     0.074 A 
ATOM     46  C   UNL     1       8.480   0.086  12.633  1.00  0.00     0.031 C 
ATOM     47  C   UNL     1       2.466   3.019  14.322  1.00  0.00     0.029 A 
ATOM     48  C   UNL     1       2.680   1.670  14.837  1.00  0.00     0.049 A 
ATOM     49  H   UNL     1       4.364   0.470  14.591  1.00  0.00     0.167 HD
ATOM     50  C   UNL     1       7.957  -1.965  13.918  1.00  0.00     0.037 A 
ATOM     51  C   UNL     1       1.802   0.964  15.574  1.00  0.00     0.037 A 
ATOM     52  C   UNL     1       7.117  -2.760  14.774  1.00  0.00     0.049 A 
ATOM     53  C   UNL     1       2.190  -0.409  16.054  1.00  0.00     0.074 A 
ATOM     54  C   UNL     1       7.370  -4.008  15.317  1.00  0.00     0.029 A 
ATOM     55  N   UNL     1       5.856  -2.382  15.214  1.00  0.00    -0.354 N 
ATOM     56  N   UNL     1       3.300  -1.078  15.852  1.00  0.00    -0.248 NA
ATOM     57  C   UNL     1       1.205  -1.118  16.882  1.00  0.00     0.031 C 
ATOM     58  C   UNL     1       6.243  -4.405  16.045  1.00  0.00     0.029 A 
ATOM     59  C   UNL     1       5.313  -3.379  16.008  1.00  0.00     0.049 A 
ATOM     60  H   UNL     1       5.414  -1.530  14.994  1.00  0.00     0.167 HD
ATOM     61  C   UNL     1       3.162  -2.268  16.555  1.00  0.00     0.074 A 
ATOM     62  C   UNL     1       1.869  -2.219  17.205  1.00  0.00     0.031 C 
ATOM     63  C   UNL     1       4.027  -3.309  16.654  1.00  0.00     0.037 A 
BRANCH  50  64
ATOM     64  C   UNL     1       9.280  -2.530  13.484  1.00  0.00     0.064 A 
ATOM     65  C   UNL     1      10.496  -1.987  13.931  1.00  0.00     0.173 A 
ATOM     66  C   UNL     1       9.337  -3.640  12.629  1.00  0.00     0.173 A 
ATOM     67  F   UNL     1      10.501  -0.916  14.739  1.00  0.00    -0.203 F 
ATOM     68  C   UNL     1      11.715  -2.512  13.509  1.00  0.00     0.198 A 
ATOM     69  C   UNL     1      10.558  -4.185  12.238  1.00  0.00     0.198 A 
ATOM     70  F   UNL     1       8.207  -4.203  12.174  1.00  0.00    -0.203 F 
ATOM     71  F   UNL     1      12.861  -1.938  13.902  1.00  0.00    -0.200 F 
ATOM     72  C   UNL     1      11.745  -3.614  12.670  1.00  0.00     0.200 A 
ATOM     73  F   UNL     1      10.585  -5.259  11.437  1.00  0.00    -0.200 F 
ATOM     74  F   UNL     1      12.919  -4.122  12.270  1.00  0.00    -0.200 F 
ENDBRANCH  50  64
BRANCH  51  75
ATOM     75  C   UNL     1       0.486   1.554  15.936  1.00  0.00     0.064 A 
ATOM     76  C   UNL     1       0.187   1.887  17.265  1.00  0.00     0.173 A 
ATOM     77  C   UNL     1      -0.504   1.780  14.970  1.00  0.00     0.173 A 
ATOM     78  F   UNL     1       1.095   1.673  18.229  1.00  0.00    -0.203 F 
ATOM     79  C   UNL     1      -1.062   2.393  17.618  1.00  0.00     0.198 A 
ATOM     80  C   UNL     1      -1.742   2.316  15.319  1.00  0.00     0.198 A 
ATOM     81  F   UNL     1      -0.267   1.486  13.683  1.00  0.00    -0.203 F 
ATOM     82  F   UNL     1      -1.340   2.647  18.904  1.00  0.00    -0.200 F 
ATOM     83  C   UNL     1      -2.024   2.611  16.644  1.00  0.00     0.200 A 
ATOM     84  F   UNL     1      -2.664   2.540  14.373  1.00  0.00    -0.200 F 
ATOM     85  F   UNL     1      -3.226   3.096  16.984  1.00  0.00    -0.200 F 
ENDBRANCH  51  75
BRANCH  63  86
ATOM     86  C   UNL     1       3.620  -4.454  17.539  1.00  0.00     0.064 A 
ATOM     87  C   UNL     1       2.562  -5.311  17.203  1.00  0.00     0.173 A 
ATOM     88  C   UNL     1       4.307  -4.699  18.738  1.00  0.00     0.173 A 
ATOM     89  F   UNL     1       1.864  -5.114  16.074  1.00  0.00    -0.203 F 
ATOM     90  C   UNL     1       2.177  -6.342  18.057  1.00  0.00     0.198 A 
ATOM     91  C   UNL     1       3.944  -5.754  19.570  1.00  0.00     0.198 A 
ATOM     92  F   UNL     1       5.334  -3.917  19.102  1.00  0.00    -0.203 F 
ATOM     93  F   UNL     1       1.118  -7.104  17.750  1.00  0.00    -0.200 F 
ATOM     94  C   UNL     1       2.871  -6.566  19.237  1.00  0.00     0.200 A 
ATOM     95  F   UNL     1       4.628  -5.979  20.701  1.00  0.00    -0.200 F 
ATOM     96  F   UNL     1       2.499  -7.557  20.058  1.00  0.00    -0.200 F 
ENDBRANCH  63  86
ENDBRANCH  37  38
ENDBRANCH  29  32
ENDBRANCH  27  28
ENDBRANCH  26  27
ENDBRANCH  25  26
ENDBRANCH   1  25
TORSDOF 16
