REMARK SMILES C#CCNC(=O)[C@H](C)S(=O)(=O)c1ccc(C(=O)NCCCCCCNC(=O)c2ccc(-c3c4nc(c(-c5c(F)c(F)c(F)c(F)c5F)c5ccc([nH]5)c(-c5c(F)c(F)c(F)c(F)c5F)c5nc(c(-c6c(F)c(F)c(F)c(F)c6F)c6ccc3[nH]6)C=C5)C=C4)cc2)cc1F
REMARK SMILES IDX 20 1 19 2 18 3 16 4 17 5 15 7 12 8 13 9 92 10 14 11 91 12
REMARK SMILES IDX 93 13 9 14 10 15 11 16 7 17 8 18 5 19 4 20 6 22 3 23 2 24
REMARK SMILES IDX 1 25 21 26 22 27 23 28 24 29 25 30 26 31 27 33 28 34 29 35
REMARK SMILES IDX 90 36 30 37 89 38 31 39 32 40 33 41 83 42 34 43 88 44 82 45
REMARK SMILES IDX 84 46 35 47 87 48 81 49 80 50 36 52 68 53 48 54 67 55 49 56
REMARK SMILES IDX 52 57 66 58 85 59 50 60 51 61 65 63 86 64 53 65 37 66 38 67
REMARK SMILES IDX 46 68 39 69 40 70 44 71 47 72 41 73 42 74 45 75 43 76 69 77
REMARK SMILES IDX 70 78 78 79 71 80 72 81 76 82 79 83 73 84 74 85 77 86 75 87
REMARK SMILES IDX 54 88 55 89 63 90 56 91 57 92 61 93 64 94 58 95 59 96 62 97
REMARK SMILES IDX 60 98
REMARK H PARENT 18 6 4 21 25 32 84 51 52 62
REMARK Flexibility Score: inf
ROOT
ATOM      1  C   UNL     1      -1.984  -2.998  -5.471  1.00  0.00     0.021 C 
ENDROOT
BRANCH   1   2
ATOM      2  C   UNL     1      -1.203  -2.441  -4.287  1.00  0.00     0.116 C 
BRANCH   2   3
ATOM      3  N   UNL     1      -0.729  -1.092  -4.532  1.00  0.00    -0.352 N 
ATOM      4  C   UNL     1      -1.225   0.091  -4.053  1.00  0.00     0.251 C 
ATOM      5  O   UNL     1      -0.830   1.167  -4.492  1.00  0.00    -0.269 OA
ATOM      6  H   UNL     1       0.055  -1.018  -5.122  1.00  0.00     0.163 HD
BRANCH   4   7
ATOM      7  C   UNL     1      -2.246   0.083  -2.988  1.00  0.00     0.042 A 
ATOM      8  C   UNL     1      -4.098   0.207  -0.915  1.00  0.00     0.103 A 
ATOM      9  C   UNL     1      -4.329   0.920  -2.105  1.00  0.00     0.024 A 
ATOM     10  C   UNL     1      -3.000  -0.627  -0.815  1.00  0.00     0.142 A 
ATOM     11  C   UNL     1      -3.389   0.874  -3.135  1.00  0.00     0.015 A 
ATOM     12  C   UNL     1      -2.047  -0.658  -1.821  1.00  0.00     0.054 A 
ATOM     13  F   UNL     1      -2.826  -1.440   0.226  1.00  0.00    -0.206 F 
BRANCH   8  14
ATOM     14  S   UNL     1      -5.124   0.511   0.493  1.00  0.00     0.192 S 
ATOM     15  O   UNL     1      -5.959  -0.662   0.609  1.00  0.00    -0.223 OA
ATOM     16  O   UNL     1      -5.770   1.799   0.247  1.00  0.00    -0.223 OA
BRANCH  14  17
ATOM     17  C   UNL     1      -4.192   0.703   1.971  1.00  0.00     0.199 C 
ATOM     18  C   UNL     1      -3.675  -0.614   2.566  1.00  0.00     0.036 C 
BRANCH  17  19
ATOM     19  C   UNL     1      -3.123   1.761   2.154  1.00  0.00     0.239 C 
ATOM     20  N   UNL     1      -2.612   2.681   1.322  1.00  0.00    -0.344 N 
ATOM     21  H   UNL     1      -1.893   3.195   1.756  1.00  0.00     0.164 HD
ATOM     22  O   UNL     1      -2.586   1.816   3.278  1.00  0.00    -0.274 OA
BRANCH  20  23
ATOM     23  C   UNL     1      -2.828   3.119  -0.029  1.00  0.00     0.206 C 
BRANCH  23  24
ATOM     24  C   UNL     1      -3.335   4.552  -0.053  1.00  0.00    -0.085 C 
ATOM     25  C   UNL     1      -3.769   5.781  -0.073  1.00  0.00     0.006 C 
ENDBRANCH  23  24
ENDBRANCH  20  23
ENDBRANCH  17  19
ENDBRANCH  14  17
ENDBRANCH   8  14
ENDBRANCH   4   7
ENDBRANCH   2   3
ENDBRANCH   1   2
BRANCH   1  26
ATOM     26  C   UNL     1      -1.114  -3.588  -6.581  1.00  0.00     0.002 C 
BRANCH  26  27
ATOM     27  C   UNL     1      -0.095  -4.646  -6.139  1.00  0.00     0.002 C 
BRANCH  27  28
ATOM     28  C   UNL     1      -0.616  -5.739  -5.199  1.00  0.00     0.021 C 
BRANCH  28  29
ATOM     29  C   UNL     1      -1.801  -6.543  -5.722  1.00  0.00     0.116 C 
BRANCH  29  30
ATOM     30  N   UNL     1      -1.472  -7.280  -6.926  1.00  0.00    -0.352 N 
ATOM     31  C   UNL     1      -1.674  -8.601  -7.225  1.00  0.00     0.251 C 
ATOM     32  H   UNL     1      -1.039  -6.752  -7.634  1.00  0.00     0.163 HD
ATOM     33  O   UNL     1      -1.164  -9.079  -8.235  1.00  0.00    -0.269 OA
BRANCH  31  34
ATOM     34  C   UNL     1      -2.493  -9.465  -6.345  1.00  0.00     0.039 A 
ATOM     35  C   UNL     1      -2.068 -10.779  -6.125  1.00  0.00     0.014 A 
ATOM     36  C   UNL     1      -3.706  -9.025  -5.805  1.00  0.00     0.014 A 
ATOM     37  C   UNL     1      -2.846 -11.646  -5.355  1.00  0.00     0.010 A 
ATOM     38  C   UNL     1      -4.456  -9.873  -4.990  1.00  0.00     0.010 A 
ATOM     39  C   UNL     1      -4.045 -11.198  -4.778  1.00  0.00    -0.014 A 
BRANCH  39  40
ATOM     40  C   UNL     1      -4.909 -12.126  -4.008  1.00  0.00     0.031 A 
ATOM     41  C   UNL     1      -6.236 -12.552  -4.571  1.00  0.00     0.074 A 
ATOM     42  C   UNL     1      -4.514 -12.567  -2.800  1.00  0.00     0.049 A 
ATOM     43  N   UNL     1      -7.157 -13.314  -4.037  1.00  0.00    -0.248 NA
ATOM     44  C   UNL     1      -6.585 -12.034  -5.904  1.00  0.00     0.031 C 
ATOM     45  C   UNL     1      -3.260 -12.207  -2.138  1.00  0.00     0.029 A 
ATOM     46  N   UNL     1      -5.129 -13.415  -1.913  1.00  0.00    -0.354 N 
ATOM     47  C   UNL     1      -8.197 -13.351  -4.956  1.00  0.00     0.074 A 
ATOM     48  C   UNL     1      -7.813 -12.505  -6.066  1.00  0.00     0.031 C 
ATOM     49  C   UNL     1      -3.187 -12.849  -0.961  1.00  0.00     0.029 A 
ATOM     50  C   UNL     1      -4.398 -13.644  -0.774  1.00  0.00     0.049 A 
ATOM     51  H   UNL     1      -6.010 -13.821  -2.079  1.00  0.00     0.167 HD
ATOM     52  C   UNL     1      -9.358 -14.043  -4.889  1.00  0.00     0.037 A 
ATOM     53  C   UNL     1      -4.673 -14.413   0.297  1.00  0.00     0.037 A 
ATOM     54  C   UNL     1      -9.722 -14.914  -3.804  1.00  0.00     0.049 A 
ATOM     55  C   UNL     1      -5.955 -15.198   0.333  1.00  0.00     0.074 A 
ATOM     56  C   UNL     1     -10.865 -15.680  -3.657  1.00  0.00     0.029 A 
ATOM     57  N   UNL     1      -8.938 -15.145  -2.684  1.00  0.00    -0.354 N 
ATOM     58  N   UNL     1      -6.920 -15.243  -0.553  1.00  0.00    -0.248 NA
ATOM     59  C   UNL     1      -6.183 -16.047   1.511  1.00  0.00     0.031 C 
ATOM     60  C   UNL     1     -10.783 -16.359  -2.437  1.00  0.00     0.029 A 
ATOM     61  C   UNL     1      -9.572 -16.043  -1.842  1.00  0.00     0.049 A 
ATOM     62  H   UNL     1      -8.060 -14.732  -2.513  1.00  0.00     0.167 HD
ATOM     63  C   UNL     1      -7.854 -16.141  -0.055  1.00  0.00     0.074 A 
ATOM     64  C   UNL     1      -7.338 -16.624   1.209  1.00  0.00     0.031 C 
ATOM     65  C   UNL     1      -9.033 -16.528  -0.599  1.00  0.00     0.037 A 
BRANCH  52  66
ATOM     66  C   UNL     1     -10.321 -13.897  -6.029  1.00  0.00     0.064 A 
ATOM     67  C   UNL     1     -11.525 -13.197  -5.861  1.00  0.00     0.173 A 
ATOM     68  C   UNL     1     -10.074 -14.491  -7.276  1.00  0.00     0.173 A 
ATOM     69  F   UNL     1     -11.809 -12.613  -4.687  1.00  0.00    -0.203 F 
ATOM     70  C   UNL     1     -12.449 -13.103  -6.897  1.00  0.00     0.198 A 
ATOM     71  C   UNL     1     -10.990 -14.374  -8.318  1.00  0.00     0.198 A 
ATOM     72  F   UNL     1      -8.931 -15.159  -7.490  1.00  0.00    -0.203 F 
ATOM     73  F   UNL     1     -13.603 -12.448  -6.708  1.00  0.00    -0.200 F 
ATOM     74  C   UNL     1     -12.179 -13.687  -8.126  1.00  0.00     0.200 A 
ATOM     75  F   UNL     1     -10.717 -14.919  -9.511  1.00  0.00    -0.200 F 
ATOM     76  F   UNL     1     -13.064 -13.584  -9.127  1.00  0.00    -0.200 F 
ENDBRANCH  52  66
BRANCH  53  77
ATOM     77  C   UNL     1      -3.683 -14.515   1.397  1.00  0.00     0.064 A 
ATOM     78  C   UNL     1      -3.463 -13.453   2.284  1.00  0.00     0.173 A 
ATOM     79  C   UNL     1      -2.914 -15.676   1.561  1.00  0.00     0.173 A 
ATOM     80  F   UNL     1      -4.171 -12.320   2.163  1.00  0.00    -0.203 F 
ATOM     81  C   UNL     1      -2.500 -13.542   3.287  1.00  0.00     0.198 A 
ATOM     82  C   UNL     1      -1.966 -15.772   2.577  1.00  0.00     0.198 A 
ATOM     83  F   UNL     1      -3.104 -16.724   0.747  1.00  0.00    -0.203 F 
ATOM     84  F   UNL     1      -2.289 -12.503   4.106  1.00  0.00    -0.200 F 
ATOM     85  C   UNL     1      -1.755 -14.703   3.435  1.00  0.00     0.200 A 
ATOM     86  F   UNL     1      -1.262 -16.902   2.728  1.00  0.00    -0.200 F 
ATOM     87  F   UNL     1      -0.835 -14.792   4.405  1.00  0.00    -0.200 F 
ENDBRANCH  53  77
BRANCH  65  88
ATOM     88  C   UNL     1      -9.835 -17.553   0.144  1.00  0.00     0.064 A 
ATOM     89  C   UNL     1      -9.924 -18.867  -0.339  1.00  0.00     0.173 A 
ATOM     90  C   UNL     1     -10.577 -17.216   1.284  1.00  0.00     0.173 A 
ATOM     91  F   UNL     1      -9.238 -19.233  -1.432  1.00  0.00    -0.203 F 
ATOM     92  C   UNL     1     -10.736 -19.806   0.289  1.00  0.00     0.198 A 
ATOM     93  C   UNL     1     -11.372 -18.164   1.922  1.00  0.00     0.198 A 
ATOM     94  F   UNL     1     -10.514 -15.975   1.788  1.00  0.00    -0.203 F 
ATOM     95  F   UNL     1     -10.827 -21.049  -0.204  1.00  0.00    -0.200 F 
ATOM     96  C   UNL     1     -11.458 -19.454   1.420  1.00  0.00     0.200 A 
ATOM     97  F   UNL     1     -12.055 -17.829   3.026  1.00  0.00    -0.200 F 
ATOM     98  F   UNL     1     -12.236 -20.361   2.028  1.00  0.00    -0.200 F 
ENDBRANCH  65  88
ENDBRANCH  39  40
ENDBRANCH  31  34
ENDBRANCH  29  30
ENDBRANCH  28  29
ENDBRANCH  27  28
ENDBRANCH  26  27
ENDBRANCH   1  26
TORSDOF 18
