REMARK SMILES Cc1cc2nc(NC3=[NH+][C@H](CC(=O)NCCCCCCNC(=O)c4ccc(-c5c6nc(c(-c7c(F)c(F)c(F)c(F)c7F)c7ccc([nH]7)c(-c7c(F)c(F)c(F)c(F)c7F)c7nc(c(-c8c(F)c(F)c(F)c(F)c8F)c8ccc5[nH]8)C=C7)C=C6)cc4)C(=O)N3)nc(C)c2cc1C
REMARK SMILES IDX 17 1 16 2 15 3 14 4 12 5 13 6 11 8 10 9 7 10 8 11 9 13 89 14
REMARK SMILES IDX 87 16 88 18 6 19 1 20 2 21 3 22 95 23 4 24 94 25 96 26 5 27
REMARK SMILES IDX 93 28 91 29 90 30 92 31 18 32 19 33 20 34 21 35 22 36 23 38
REMARK SMILES IDX 24 39 25 40 86 41 26 42 85 43 27 44 28 45 29 46 79 47 30 48
REMARK SMILES IDX 84 49 78 50 80 51 31 52 83 53 77 54 76 55 32 57 64 58 44 59
REMARK SMILES IDX 63 60 45 61 48 62 62 63 81 64 46 65 47 66 61 68 82 69 49 70
REMARK SMILES IDX 33 71 34 72 42 73 35 74 36 75 40 76 43 77 37 78 38 79 41 80
REMARK SMILES IDX 39 81 65 82 66 83 74 84 67 85 68 86 72 87 75 88 69 89 70 90
REMARK SMILES IDX 73 91 71 92 50 93 51 94 59 95 52 96 53 97 57 98 60 99 54 100
REMARK SMILES IDX 55 101 58 102 56 103
REMARK H PARENT 14 7 7 12 9 15 89 17 21 37 80 56 48 67
REMARK Flexibility Score: inf
ROOT
ATOM      1  C   UNL     1       4.875  -4.423   1.065  1.00  0.00     0.002 C 
ENDROOT
BRANCH   1   2
ATOM      2  C   UNL     1       3.624  -5.240   0.729  1.00  0.00     0.021 C 
BRANCH   2   3
ATOM      3  C   UNL     1       2.770  -4.621  -0.381  1.00  0.00     0.116 C 
BRANCH   3   4
ATOM      4  N   UNL     1       3.152  -5.132  -1.682  1.00  0.00    -0.356 N 
ATOM      5  C   UNL     1       2.519  -6.069  -2.445  1.00  0.00     0.224 C 
ATOM      6  O   UNL     1       3.079  -6.464  -3.470  1.00  0.00    -0.275 OA
ATOM      7  H   UNL     1       3.976  -4.753  -2.066  1.00  0.00     0.163 HD
BRANCH   5   8
ATOM      8  C   UNL     1       1.143  -6.573  -2.067  1.00  0.00     0.153 C 
BRANCH   8   9
ATOM      9  C   UNL     1       1.173  -7.711  -1.053  1.00  0.00     0.260 C 
ATOM     10  N   UNL     1      -0.214  -6.913   2.125  1.00  0.00    -0.212 N 
ATOM     11  C   UNL     1       0.153  -7.373   0.906  1.00  0.00     0.358 C 
ATOM     12  H   UNL     1      -0.530  -7.562   2.795  1.00  0.00     0.270 HD
ATOM     13  N   UNL     1       1.290  -7.160   0.325  1.00  0.00    -0.263 N 
ATOM     14  N   UNL     1      -0.705  -8.131   0.200  1.00  0.00    -0.211 N 
ATOM     15  H   UNL     1       2.078  -6.719   0.717  1.00  0.00     0.261 HD
ATOM     16  C   UNL     1      -0.173  -8.409  -1.020  1.00  0.00     0.320 C 
ATOM     17  H   UNL     1      -1.584  -8.438   0.518  1.00  0.00     0.270 HD
ATOM     18  O   UNL     1      -0.710  -9.045  -1.904  1.00  0.00    -0.252 OA
BRANCH  10  19
ATOM     19  C   UNL     1      -0.165  -5.569   2.476  1.00  0.00     0.291 A 
ATOM     20  C   UNL     1       0.629  -0.095   0.022  1.00  0.00     0.044 C 
ATOM     21  C   UNL     1       0.302  -1.027   1.158  1.00  0.00    -0.046 A 
ATOM     22  C   UNL     1       0.122  -2.392   0.880  1.00  0.00     0.033 A 
ATOM     23  C   UNL     1       0.264  -0.597   2.492  1.00  0.00    -0.047 A 
ATOM     24  C   UNL     1      -0.043  -3.347   1.876  1.00  0.00     0.078 A 
ATOM     25  C   UNL     1       0.074  -1.551   3.504  1.00  0.00     0.016 A 
ATOM     26  C   UNL     1       0.449   0.850   2.860  1.00  0.00     0.044 C 
ATOM     27  N   UNL     1      -0.130  -4.631   1.520  1.00  0.00    -0.198 NA
ATOM     28  C   UNL     1      -0.050  -2.933   3.206  1.00  0.00     0.022 A 
ATOM     29  C   UNL     1      -0.138  -3.975   4.139  1.00  0.00     0.052 A 
ATOM     30  N   UNL     1      -0.186  -5.282   3.783  1.00  0.00    -0.203 NA
ATOM     31  C   UNL     1      -0.130  -3.706   5.617  1.00  0.00     0.067 C 
ENDBRANCH  10  19
ENDBRANCH   8   9
ENDBRANCH   5   8
ENDBRANCH   3   4
ENDBRANCH   2   3
ENDBRANCH   1   2
BRANCH   1  32
ATOM     32  C   UNL     1       4.600  -3.054   1.701  1.00  0.00     0.002 C 
BRANCH  32  33
ATOM     33  C   UNL     1       3.740  -3.083   2.964  1.00  0.00     0.021 C 
BRANCH  33  34
ATOM     34  C   UNL     1       4.298  -3.923   4.105  1.00  0.00     0.116 C 
BRANCH  34  35
ATOM     35  N   UNL     1       5.545  -3.383   4.629  1.00  0.00    -0.352 N 
ATOM     36  C   UNL     1       5.861  -2.978   5.903  1.00  0.00     0.251 C 
ATOM     37  H   UNL     1       6.271  -3.295   3.970  1.00  0.00     0.163 HD
ATOM     38  O   UNL     1       6.904  -2.371   6.121  1.00  0.00    -0.269 OA
BRANCH  36  39
ATOM     39  C   UNL     1       4.922  -3.247   7.013  1.00  0.00     0.039 A 
ATOM     40  C   UNL     1       4.295  -4.489   7.132  1.00  0.00     0.014 A 
ATOM     41  C   UNL     1       4.660  -2.238   7.944  1.00  0.00     0.014 A 
ATOM     42  C   UNL     1       3.281  -4.661   8.066  1.00  0.00     0.010 A 
ATOM     43  C   UNL     1       3.704  -2.445   8.942  1.00  0.00     0.010 A 
ATOM     44  C   UNL     1       2.969  -3.640   8.977  1.00  0.00    -0.014 A 
BRANCH  44  45
ATOM     45  C   UNL     1       1.868  -3.846   9.953  1.00  0.00     0.031 A 
ATOM     46  C   UNL     1       0.625  -3.001   9.902  1.00  0.00     0.074 A 
ATOM     47  C   UNL     1       1.970  -4.837  10.859  1.00  0.00     0.049 A 
ATOM     48  N   UNL     1      -0.453  -3.072  10.642  1.00  0.00    -0.248 NA
ATOM     49  C   UNL     1       0.584  -1.932   8.892  1.00  0.00     0.031 C 
ATOM     50  C   UNL     1       3.128  -5.720  11.008  1.00  0.00     0.029 A 
ATOM     51  N   UNL     1       1.087  -5.282  11.810  1.00  0.00    -0.354 N 
ATOM     52  C   UNL     1      -1.287  -2.054  10.203  1.00  0.00     0.074 A 
ATOM     53  C   UNL     1      -0.584  -1.358   9.147  1.00  0.00     0.031 C 
ATOM     54  C   UNL     1       2.867  -6.630  11.957  1.00  0.00     0.029 A 
ATOM     55  C   UNL     1       1.551  -6.357  12.527  1.00  0.00     0.049 A 
ATOM     56  H   UNL     1       0.206  -4.870  11.964  1.00  0.00     0.167 HD
ATOM     57  C   UNL     1      -2.531  -1.736  10.635  1.00  0.00     0.037 A 
ATOM     58  C   UNL     1       0.988  -7.042  13.540  1.00  0.00     0.037 A 
ATOM     59  C   UNL     1      -3.233  -2.441  11.675  1.00  0.00     0.049 A 
ATOM     60  C   UNL     1      -0.378  -6.648  14.023  1.00  0.00     0.074 A 
ATOM     61  C   UNL     1      -4.517  -2.226  12.145  1.00  0.00     0.029 A 
ATOM     62  N   UNL     1      -2.708  -3.492  12.414  1.00  0.00    -0.354 N 
ATOM     63  N   UNL     1      -1.173  -5.710  13.570  1.00  0.00    -0.248 NA
ATOM     64  C   UNL     1      -0.922  -7.400  15.162  1.00  0.00     0.031 C 
ATOM     65  C   UNL     1      -4.749  -3.107  13.206  1.00  0.00     0.029 A 
ATOM     66  C   UNL     1      -3.631  -3.911  13.361  1.00  0.00     0.049 A 
ATOM     67  H   UNL     1      -1.814  -3.882  12.286  1.00  0.00     0.167 HD
ATOM     68  C   UNL     1      -2.312  -5.759  14.361  1.00  0.00     0.074 A 
ATOM     69  C   UNL     1      -2.115  -6.837  15.309  1.00  0.00     0.031 C 
ATOM     70  C   UNL     1      -3.417  -4.977  14.308  1.00  0.00     0.037 A 
BRANCH  57  71
ATOM     71  C   UNL     1      -3.217  -0.562   9.996  1.00  0.00     0.064 A 
ATOM     72  C   UNL     1      -3.700  -0.616   8.681  1.00  0.00     0.173 A 
ATOM     73  C   UNL     1      -3.448   0.610  10.732  1.00  0.00     0.173 A 
ATOM     74  F   UNL     1      -3.490  -1.706   7.928  1.00  0.00    -0.203 F 
ATOM     75  C   UNL     1      -4.374   0.467   8.121  1.00  0.00     0.198 A 
ATOM     76  C   UNL     1      -4.146   1.680  10.178  1.00  0.00     0.198 A 
ATOM     77  F   UNL     1      -3.009   0.713  11.996  1.00  0.00    -0.203 F 
ATOM     78  F   UNL     1      -4.791   0.407   6.848  1.00  0.00    -0.200 F 
ATOM     79  C   UNL     1      -4.605   1.609   8.872  1.00  0.00     0.200 A 
ATOM     80  F   UNL     1      -4.376   2.780  10.910  1.00  0.00    -0.200 F 
ATOM     81  F   UNL     1      -5.263   2.646   8.334  1.00  0.00    -0.200 F 
ENDBRANCH  57  71
BRANCH  58  82
ATOM     82  C   UNL     1       1.734  -8.170  14.153  1.00  0.00     0.064 A 
ATOM     83  C   UNL     1       1.329  -9.496  13.954  1.00  0.00     0.173 A 
ATOM     84  C   UNL     1       2.902  -7.947  14.899  1.00  0.00     0.173 A 
ATOM     85  F   UNL     1       0.209  -9.757  13.264  1.00  0.00    -0.203 F 
ATOM     86  C   UNL     1       2.067 -10.558  14.473  1.00  0.00     0.198 A 
ATOM     87  C   UNL     1       3.654  -9.010  15.393  1.00  0.00     0.198 A 
ATOM     88  F   UNL     1       3.333  -6.696  15.113  1.00  0.00    -0.203 F 
ATOM     89  F   UNL     1       1.649 -11.816  14.284  1.00  0.00    -0.200 F 
ATOM     90  C   UNL     1       3.235 -10.315  15.181  1.00  0.00     0.200 A 
ATOM     91  F   UNL     1       4.791  -8.771  16.059  1.00  0.00    -0.200 F 
ATOM     92  F   UNL     1       3.957 -11.337  15.658  1.00  0.00    -0.200 F 
ENDBRANCH  58  82
BRANCH  70  93
ATOM     93  C   UNL     1      -4.506  -5.247  15.304  1.00  0.00     0.064 A 
ATOM     94  C   UNL     1      -4.362  -4.899  16.655  1.00  0.00     0.173 A 
ATOM     95  C   UNL     1      -5.732  -5.791  14.892  1.00  0.00     0.173 A 
ATOM     96  F   UNL     1      -3.203  -4.389  17.100  1.00  0.00    -0.203 F 
ATOM     97  C   UNL     1      -5.402  -5.095  17.559  1.00  0.00     0.198 A 
ATOM     98  C   UNL     1      -6.780  -5.959  15.792  1.00  0.00     0.198 A 
ATOM     99  F   UNL     1      -5.922  -6.134  13.609  1.00  0.00    -0.203 F 
ATOM    100  F   UNL     1      -5.232  -4.784  18.851  1.00  0.00    -0.200 F 
ATOM    101  C   UNL     1      -6.613  -5.614  17.125  1.00  0.00     0.200 A 
ATOM    102  F   UNL     1      -7.954  -6.446  15.368  1.00  0.00    -0.200 F 
ATOM    103  F   UNL     1      -7.620  -5.785  17.993  1.00  0.00    -0.200 F 
ENDBRANCH  70  93
ENDBRANCH  44  45
ENDBRANCH  36  39
ENDBRANCH  34  35
ENDBRANCH  33  34
ENDBRANCH  32  33
ENDBRANCH   1  32
TORSDOF 15
