REMARK SMILES CC[C@](C)(NC(=O)CCSc1ccccc1Cl)C(=O)NCCCCCCNC(=O)c1ccc(-c2c3nc(c(-c4c(F)c(F)c(F)c(F)c4F)c4ccc([nH]4)c(-c4c(F)c(F)c(F)c(F)c4F)c4nc(c(-c5c(F)c(F)c(F)c(F)c5F)c5ccc2[nH]5)C=C4)C=C3)cc1
REMARK SMILES IDX 22 1 21 2 20 3 18 4 19 5 3 7 4 8 2 9 1 10 5 11 6 12 7 14
REMARK SMILES IDX 8 15 9 16 10 17 11 18 12 19 16 20 13 21 15 22 17 23 14 24
REMARK SMILES IDX 23 25 24 26 25 27 26 28 27 29 28 30 29 32 30 33 31 34 92 35
REMARK SMILES IDX 32 36 91 37 33 38 34 39 35 40 85 41 36 42 90 43 84 44 86 45
REMARK SMILES IDX 37 46 89 47 83 48 82 49 38 51 70 52 50 53 69 54 51 55 54 56
REMARK SMILES IDX 68 57 87 58 52 59 53 60 67 62 88 63 55 64 39 65 40 66 48 67
REMARK SMILES IDX 41 68 42 69 46 70 49 71 43 72 44 73 47 74 45 75 71 76 72 77
REMARK SMILES IDX 80 78 73 79 74 80 78 81 81 82 75 83 76 84 79 85 77 86 56 87
REMARK SMILES IDX 57 88 65 89 58 90 59 91 63 92 66 93 60 94 61 95 64 96 62 97
REMARK H PARENT 20 6 5 13 27 31 86 50 54 61
REMARK Flexibility Score: inf
ROOT
ATOM      1  C   UNL     1       3.112  -5.564   2.588  1.00  0.00     0.021 C 
ENDROOT
BRANCH   1   2
ATOM      2  C   UNL     1       2.566  -4.224   3.084  1.00  0.00     0.116 C 
BRANCH   2   3
ATOM      3  N   UNL     1       3.259  -3.095   2.486  1.00  0.00    -0.354 N 
ATOM      4  C   UNL     1       2.833  -2.080   1.684  1.00  0.00     0.245 C 
ATOM      5  O   UNL     1       3.683  -1.247   1.354  1.00  0.00    -0.272 OA
ATOM      6  H   UNL     1       4.219  -3.056   2.702  1.00  0.00     0.163 HD
BRANCH   4   7
ATOM      7  C   UNL     1       1.337  -1.902   1.309  1.00  0.00     0.116 C 
ATOM      8  C   UNL     1       1.136  -0.773   0.293  1.00  0.00     0.045 C 
BRANCH   7   9
ATOM      9  C   UNL     1       0.559  -1.500   2.608  1.00  0.00     0.035 C 
ATOM     10  C   UNL     1       0.884  -0.123   3.176  1.00  0.00     0.007 C 
ENDBRANCH   7   9
BRANCH   7  11
ATOM     11  N   UNL     1       0.757  -3.183   0.845  1.00  0.00    -0.342 N 
ATOM     12  C   UNL     1       1.126  -4.161  -0.013  1.00  0.00     0.221 C 
ATOM     13  H   UNL     1      -0.113  -3.370   1.266  1.00  0.00     0.164 HD
ATOM     14  O   UNL     1       0.421  -5.178   0.034  1.00  0.00    -0.275 OA
BRANCH  12  15
ATOM     15  C   UNL     1       2.383  -4.170  -0.856  1.00  0.00     0.111 C 
BRANCH  15  16
ATOM     16  C   UNL     1       2.554  -3.174  -1.992  1.00  0.00     0.085 C 
BRANCH  16  17
ATOM     17  S   UNL     1       1.393  -3.180  -3.418  1.00  0.00    -0.124 SA
BRANCH  17  18
ATOM     18  C   UNL     1      -0.218  -3.220  -2.643  1.00  0.00     0.026 A 
ATOM     19  C   UNL     1      -0.783  -2.021  -2.184  1.00  0.00     0.016 A 
ATOM     20  C   UNL     1      -0.954  -4.408  -2.491  1.00  0.00     0.054 A 
ATOM     21  C   UNL     1      -1.999  -2.020  -1.492  1.00  0.00     0.001 A 
ATOM     22  C   UNL     1      -2.164  -4.405  -1.788  1.00  0.00     0.022 A 
ATOM     23  Cl  UNL     1      -0.400  -5.927  -3.115  1.00  0.00    -0.083 Cl
ATOM     24  C   UNL     1      -2.677  -3.215  -1.273  1.00  0.00     0.002 A 
ENDBRANCH  17  18
ENDBRANCH  16  17
ENDBRANCH  15  16
ENDBRANCH  12  15
ENDBRANCH   7  11
ENDBRANCH   4   7
ENDBRANCH   2   3
ENDBRANCH   1   2
BRANCH   1  25
ATOM     25  C   UNL     1       4.630  -5.724   2.715  1.00  0.00     0.002 C 
BRANCH  25  26
ATOM     26  C   UNL     1       5.196  -5.453   4.111  1.00  0.00     0.002 C 
BRANCH  26  27
ATOM     27  C   UNL     1       4.534  -6.244   5.239  1.00  0.00     0.021 C 
BRANCH  27  28
ATOM     28  C   UNL     1       4.517  -7.750   5.027  1.00  0.00     0.116 C 
BRANCH  28  29
ATOM     29  N   UNL     1       5.856  -8.309   4.991  1.00  0.00    -0.352 N 
ATOM     30  C   UNL     1       6.350  -9.379   5.693  1.00  0.00     0.251 C 
ATOM     31  H   UNL     1       6.492  -7.863   4.386  1.00  0.00     0.163 HD
ATOM     32  O   UNL     1       7.551  -9.622   5.704  1.00  0.00    -0.269 OA
BRANCH  30  33
ATOM     33  C   UNL     1       5.414 -10.230   6.455  1.00  0.00     0.039 A 
ATOM     34  C   UNL     1       5.729 -10.569   7.772  1.00  0.00     0.014 A 
ATOM     35  C   UNL     1       4.232 -10.691   5.866  1.00  0.00     0.014 A 
ATOM     36  C   UNL     1       4.842 -11.351   8.512  1.00  0.00     0.010 A 
ATOM     37  C   UNL     1       3.316 -11.409   6.627  1.00  0.00     0.010 A 
ATOM     38  C   UNL     1       3.624 -11.765   7.949  1.00  0.00    -0.014 A 
BRANCH  38  39
ATOM     39  C   UNL     1       2.690 -12.633   8.706  1.00  0.00     0.031 A 
ATOM     40  C   UNL     1       2.443 -14.041   8.236  1.00  0.00     0.074 A 
ATOM     41  C   UNL     1       2.046 -12.152   9.785  1.00  0.00     0.049 A 
ATOM     42  N   UNL     1       1.624 -14.943   8.715  1.00  0.00    -0.248 NA
ATOM     43  C   UNL     1       3.199 -14.485   7.053  1.00  0.00     0.031 C 
ATOM     44  C   UNL     1       2.173 -10.791  10.311  1.00  0.00     0.029 A 
ATOM     45  N   UNL     1       1.147 -12.752  10.630  1.00  0.00    -0.354 N 
ATOM     46  C   UNL     1       1.763 -16.052   7.890  1.00  0.00     0.074 A 
ATOM     47  C   UNL     1       2.694 -15.691   6.844  1.00  0.00     0.031 C 
ATOM     48  C   UNL     1       1.392 -10.666  11.397  1.00  0.00     0.029 A 
ATOM     49  C   UNL     1       0.691 -11.926  11.627  1.00  0.00     0.049 A 
ATOM     50  H   UNL     1       0.857 -13.688  10.531  1.00  0.00     0.167 HD
ATOM     51  C   UNL     1       1.192 -17.273   8.012  1.00  0.00     0.037 A 
ATOM     52  C   UNL     1      -0.195 -12.163  12.613  1.00  0.00     0.037 A 
ATOM     53  C   UNL     1       0.284 -17.637   9.066  1.00  0.00     0.049 A 
ATOM     54  C   UNL     1      -0.806 -13.534  12.733  1.00  0.00     0.074 A 
ATOM     55  C   UNL     1      -0.347 -18.849   9.286  1.00  0.00     0.029 A 
ATOM     56  N   UNL     1      -0.112 -16.787  10.089  1.00  0.00    -0.354 N 
ATOM     57  N   UNL     1      -0.635 -14.587  11.971  1.00  0.00    -0.248 NA
ATOM     58  C   UNL     1      -1.719 -13.756  13.863  1.00  0.00     0.031 C 
ATOM     59  C   UNL     1      -1.143 -18.726  10.430  1.00  0.00     0.029 A 
ATOM     60  C   UNL     1      -0.974 -17.451  10.946  1.00  0.00     0.049 A 
ATOM     61  H   UNL     1       0.176 -15.851  10.190  1.00  0.00     0.167 HD
ATOM     62  C   UNL     1      -1.385 -15.603  12.548  1.00  0.00     0.074 A 
ATOM     63  C   UNL     1      -2.003 -15.044  13.732  1.00  0.00     0.031 C 
ATOM     64  C   UNL     1      -1.551 -16.883  12.136  1.00  0.00     0.037 A 
BRANCH  51  65
ATOM     65  C   UNL     1       1.553 -18.312   6.991  1.00  0.00     0.064 A 
ATOM     66  C   UNL     1       2.830 -18.892   6.963  1.00  0.00     0.173 A 
ATOM     67  C   UNL     1       0.607 -18.761   6.058  1.00  0.00     0.173 A 
ATOM     68  F   UNL     1       3.775 -18.485   7.824  1.00  0.00    -0.203 F 
ATOM     69  C   UNL     1       3.155 -19.867   6.024  1.00  0.00     0.198 A 
ATOM     70  C   UNL     1       0.926 -19.758   5.139  1.00  0.00     0.198 A 
ATOM     71  F   UNL     1      -0.630 -18.242   6.044  1.00  0.00    -0.203 F 
ATOM     72  F   UNL     1       4.394 -20.375   5.988  1.00  0.00    -0.200 F 
ATOM     73  C   UNL     1       2.200 -20.305   5.119  1.00  0.00     0.200 A 
ATOM     74  F   UNL     1      -0.001 -20.189   4.272  1.00  0.00    -0.200 F 
ATOM     75  F   UNL     1       2.510 -21.252   4.222  1.00  0.00    -0.200 F 
ENDBRANCH  51  65
BRANCH  52  76
ATOM     76  C   UNL     1      -0.542 -11.091  13.583  1.00  0.00     0.064 A 
ATOM     77  C   UNL     1      -0.153 -11.179  14.927  1.00  0.00     0.173 A 
ATOM     78  C   UNL     1      -1.296  -9.974  13.195  1.00  0.00     0.173 A 
ATOM     79  F   UNL     1       0.554 -12.238  15.351  1.00  0.00    -0.203 F 
ATOM     80  C   UNL     1      -0.535 -10.211  15.853  1.00  0.00     0.198 A 
ATOM     81  C   UNL     1      -1.651  -8.991  14.116  1.00  0.00     0.198 A 
ATOM     82  F   UNL     1      -1.686  -9.837  11.919  1.00  0.00    -0.203 F 
ATOM     83  F   UNL     1      -0.201 -10.352  17.143  1.00  0.00    -0.200 F 
ATOM     84  C   UNL     1      -1.282  -9.116  15.446  1.00  0.00     0.200 A 
ATOM     85  F   UNL     1      -2.361  -7.926  13.715  1.00  0.00    -0.200 F 
ATOM     86  F   UNL     1      -1.654  -8.188  16.338  1.00  0.00    -0.200 F 
ENDBRANCH  52  76
BRANCH  64  87
ATOM     87  C   UNL     1      -2.380 -17.783  13.004  1.00  0.00     0.064 A 
ATOM     88  C   UNL     1      -3.773 -17.650  13.089  1.00  0.00     0.173 A 
ATOM     89  C   UNL     1      -1.770 -18.814  13.734  1.00  0.00     0.173 A 
ATOM     90  F   UNL     1      -4.400 -16.671  12.420  1.00  0.00    -0.203 F 
ATOM     91  C   UNL     1      -4.522 -18.499  13.899  1.00  0.00     0.198 A 
ATOM     92  C   UNL     1      -2.526 -19.679  14.520  1.00  0.00     0.198 A 
ATOM     93  F   UNL     1      -0.441 -18.988  13.680  1.00  0.00    -0.203 F 
ATOM     94  F   UNL     1      -5.847 -18.322  14.006  1.00  0.00    -0.200 F 
ATOM     95  C   UNL     1      -3.900 -19.515  14.608  1.00  0.00     0.200 A 
ATOM     96  F   UNL     1      -1.924 -20.669  15.194  1.00  0.00    -0.200 F 
ATOM     97  F   UNL     1      -4.624 -20.333  15.385  1.00  0.00    -0.200 F 
ENDBRANCH  64  87
ENDBRANCH  38  39
ENDBRANCH  30  33
ENDBRANCH  28  29
ENDBRANCH  27  28
ENDBRANCH  26  27
ENDBRANCH  25  26
ENDBRANCH   1  25
TORSDOF 19
