REMARK SMILES CC(C)(C)N(CC(=O)NCCCCCCNC(=O)c1ccc(-c2c3nc(c(-c4c(F)c(F)c(F)c(F)c4F)c4ccc([nH]4)c(-c4c(F)c(F)c(F)c(F)c4F)c4nc(c(-c5c(F)c(F)c(F)c(F)c5F)c5ccc2[nH]5)C=C4)C=C3)cc1)C(=O)NCCc1cnc[nH]1
REMARK SMILES IDX 11 1 10 2 9 3 7 4 8 5 6 7 5 8 2 9 1 10 3 11 4 12 82 13 83 14
REMARK SMILES IDX 84 15 85 17 86 18 87 19 88 20 91 21 89 22 90 23 12 25 13 26
REMARK SMILES IDX 14 27 15 28 16 29 17 30 18 32 19 33 20 34 81 35 21 36 80 37
REMARK SMILES IDX 22 38 23 39 24 40 74 41 25 42 79 43 73 44 75 45 26 46 78 47
REMARK SMILES IDX 72 48 71 49 27 51 59 52 39 53 58 54 40 55 43 56 57 57 76 58
REMARK SMILES IDX 41 59 42 60 56 62 77 63 44 64 28 65 29 66 37 67 30 68 31 69
REMARK SMILES IDX 35 70 38 71 32 72 33 73 36 74 34 75 60 76 61 77 69 78 62 79
REMARK SMILES IDX 63 80 67 81 70 82 64 83 65 84 68 85 66 86 45 87 46 88 54 89
REMARK SMILES IDX 47 90 48 91 52 92 55 93 49 94 50 95 53 96 51 97
REMARK H PARENT 9 6 84 16 91 24 16 31 75 50 43 61
REMARK Flexibility Score: inf
ROOT
ATOM      1  C   UNL     1       3.837   2.907   1.345  1.00  0.00     0.021 C 
ENDROOT
BRANCH   1   2
ATOM      2  C   UNL     1       3.799   1.420   1.015  1.00  0.00     0.116 C 
BRANCH   2   3
ATOM      3  N   UNL     1       4.039   0.585   2.162  1.00  0.00    -0.355 N 
ATOM      4  C   UNL     1       3.218  -0.367   2.687  1.00  0.00     0.239 C 
ATOM      5  O   UNL     1       3.741  -1.217   3.416  1.00  0.00    -0.273 OA
ATOM      6  H   UNL     1       4.900   0.717   2.622  1.00  0.00     0.163 HD
BRANCH   4   7
ATOM      7  C   UNL     1       1.742  -0.497   2.260  1.00  0.00     0.221 C 
BRANCH   7   8
ATOM      8  N   UNL     1       0.927   0.728   2.169  1.00  0.00    -0.311 N 
BRANCH   8   9
ATOM      9  C   UNL     1       0.111   0.986   0.897  1.00  0.00     0.037 C 
ATOM     10  C   UNL     1       0.394  -0.003  -0.269  1.00  0.00     0.034 C 
ATOM     11  C   UNL     1       0.360   2.399   0.303  1.00  0.00     0.034 C 
ATOM     12  C   UNL     1      -1.400   0.834   1.198  1.00  0.00     0.034 C 
ENDBRANCH   8   9
BRANCH   8  13
ATOM     13  C   UNL     1       0.650   1.518   3.267  1.00  0.00     0.318 C 
ATOM     14  O   UNL     1       0.013   2.573   3.177  1.00  0.00    -0.249 OA
ATOM     15  N   UNL     1       1.015   1.244   4.529  1.00  0.00    -0.338 N 
ATOM     16  H   UNL     1       0.776   1.998   5.115  1.00  0.00     0.165 HD
BRANCH  15  17
ATOM     17  C   UNL     1       1.652   0.192   5.317  1.00  0.00     0.124 C 
BRANCH  17  18
ATOM     18  C   UNL     1       3.041   0.615   5.817  1.00  0.00     0.077 C 
BRANCH  18  19
ATOM     19  C   UNL     1       2.975   1.394   7.088  1.00  0.00     0.036 A 
ATOM     20  C   UNL     1       2.839   0.988   8.398  1.00  0.00     0.134 A 
ATOM     21  N   UNL     1       3.078   2.761   7.157  1.00  0.00    -0.348 N 
ATOM     22  N   UNL     1       2.843   2.062   9.246  1.00  0.00    -0.245 NA
ATOM     23  C   UNL     1       2.993   3.113   8.475  1.00  0.00     0.196 A 
ATOM     24  H   UNL     1       3.193   3.376   6.396  1.00  0.00     0.167 HD
ENDBRANCH  18  19
ENDBRANCH  17  18
ENDBRANCH  15  17
ENDBRANCH   8  13
ENDBRANCH   7   8
ENDBRANCH   4   7
ENDBRANCH   2   3
ENDBRANCH   1   2
BRANCH   1  25
ATOM     25  C   UNL     1       5.245   3.460   1.582  1.00  0.00     0.002 C 
BRANCH  25  26
ATOM     26  C   UNL     1       6.256   3.171   0.465  1.00  0.00     0.002 C 
BRANCH  26  27
ATOM     27  C   UNL     1       5.800   3.548  -0.948  1.00  0.00     0.021 C 
BRANCH  27  28
ATOM     28  C   UNL     1       5.442   5.018  -1.129  1.00  0.00     0.116 C 
BRANCH  28  29
ATOM     29  N   UNL     1       6.579   5.889  -0.878  1.00  0.00    -0.352 N 
ATOM     30  C   UNL     1       7.194   6.784  -1.713  1.00  0.00     0.251 C 
ATOM     31  H   UNL     1       6.964   5.826   0.026  1.00  0.00     0.163 HD
ATOM     32  O   UNL     1       8.279   7.274  -1.404  1.00  0.00    -0.269 OA
BRANCH  30  33
ATOM     33  C   UNL     1       6.563   7.150  -2.997  1.00  0.00     0.039 A 
ATOM     34  C   UNL     1       7.353   7.213  -4.147  1.00  0.00     0.014 A 
ATOM     35  C   UNL     1       5.197   7.439  -3.064  1.00  0.00     0.014 A 
ATOM     36  C   UNL     1       6.760   7.505  -5.377  1.00  0.00     0.010 A 
ATOM     37  C   UNL     1       4.595   7.654  -4.300  1.00  0.00     0.010 A 
ATOM     38  C   UNL     1       5.371   7.692  -5.469  1.00  0.00    -0.014 A 
BRANCH  38  39
ATOM     39  C   UNL     1       4.709   7.919  -6.778  1.00  0.00     0.031 A 
ATOM     40  C   UNL     1       4.002   9.216  -7.053  1.00  0.00     0.074 A 
ATOM     41  C   UNL     1       4.689   6.931  -7.692  1.00  0.00     0.049 A 
ATOM     42  N   UNL     1       3.312   9.577  -8.106  1.00  0.00    -0.248 NA
ATOM     43  C   UNL     1       4.058  10.235  -5.994  1.00  0.00     0.031 C 
ATOM     44  C   UNL     1       5.309   5.615  -7.528  1.00  0.00     0.029 A 
ATOM     45  N   UNL     1       4.118   6.876  -8.939  1.00  0.00    -0.354 N 
ATOM     46  C   UNL     1       2.844  10.855  -7.830  1.00  0.00     0.074 A 
ATOM     47  C   UNL     1       3.277  11.183  -6.489  1.00  0.00     0.031 C 
ATOM     48  C   UNL     1       5.112   4.895  -8.643  1.00  0.00     0.029 A 
ATOM     49  C   UNL     1       4.314   5.678  -9.582  1.00  0.00     0.049 A 
ATOM     50  H   UNL     1       3.616   7.624  -9.335  1.00  0.00     0.167 HD
ATOM     51  C   UNL     1       2.138  11.689  -8.632  1.00  0.00     0.037 A 
ATOM     52  C   UNL     1       3.891   5.257 -10.788  1.00  0.00     0.037 A 
ATOM     53  C   UNL     1       1.718  11.359  -9.969  1.00  0.00     0.049 A 
ATOM     54  C   UNL     1       3.067   6.185 -11.641  1.00  0.00     0.074 A 
ATOM     55  C   UNL     1       1.044  12.151 -10.883  1.00  0.00     0.029 A 
ATOM     56  N   UNL     1       1.923  10.130 -10.581  1.00  0.00    -0.354 N 
ATOM     57  N   UNL     1       2.691   7.417 -11.400  1.00  0.00    -0.248 NA
ATOM     58  C   UNL     1       2.610   5.660 -12.935  1.00  0.00     0.031 C 
ATOM     59  C   UNL     1       0.789  11.382 -12.023  1.00  0.00     0.029 A 
ATOM     60  C   UNL     1       1.359  10.131 -11.847  1.00  0.00     0.049 A 
ATOM     61  H   UNL     1       2.399   9.370 -10.175  1.00  0.00     0.167 HD
ATOM     62  C   UNL     1       1.985   7.827 -12.523  1.00  0.00     0.074 A 
ATOM     63  C   UNL     1       1.996   6.715 -13.451  1.00  0.00     0.031 C 
ATOM     64  C   UNL     1       1.384   9.019 -12.764  1.00  0.00     0.037 A 
BRANCH  51  65
ATOM     65  C   UNL     1       1.768  13.035  -8.075  1.00  0.00     0.064 A 
ATOM     66  C   UNL     1       2.738  14.014  -7.803  1.00  0.00     0.173 A 
ATOM     67  C   UNL     1       0.426  13.358  -7.823  1.00  0.00     0.173 A 
ATOM     68  F   UNL     1       4.037  13.755  -8.017  1.00  0.00    -0.203 F 
ATOM     69  C   UNL     1       2.383  15.246  -7.260  1.00  0.00     0.198 A 
ATOM     70  C   UNL     1       0.071  14.605  -7.314  1.00  0.00     0.198 A 
ATOM     71  F   UNL     1      -0.544  12.466  -8.072  1.00  0.00    -0.203 F 
ATOM     72  F   UNL     1       3.333  16.137  -6.947  1.00  0.00    -0.200 F 
ATOM     73  C   UNL     1       1.050  15.543  -7.021  1.00  0.00     0.200 A 
ATOM     74  F   UNL     1      -1.219  14.896  -7.099  1.00  0.00    -0.200 F 
ATOM     75  F   UNL     1       0.709  16.729  -6.500  1.00  0.00    -0.200 F 
ENDBRANCH  51  65
BRANCH  52  76
ATOM     76  C   UNL     1       4.263   3.903 -11.277  1.00  0.00     0.064 A 
ATOM     77  C   UNL     1       5.142   3.750 -12.359  1.00  0.00     0.173 A 
ATOM     78  C   UNL     1       3.750   2.740 -10.684  1.00  0.00     0.173 A 
ATOM     79  F   UNL     1       5.643   4.833 -12.972  1.00  0.00    -0.203 F 
ATOM     80  C   UNL     1       5.478   2.487 -12.841  1.00  0.00     0.198 A 
ATOM     81  C   UNL     1       4.111   1.477 -11.148  1.00  0.00     0.198 A 
ATOM     82  F   UNL     1       2.909   2.830  -9.644  1.00  0.00    -0.203 F 
ATOM     83  F   UNL     1       6.284   2.372 -13.906  1.00  0.00    -0.200 F 
ATOM     84  C   UNL     1       4.968   1.351 -12.232  1.00  0.00     0.200 A 
ATOM     85  F   UNL     1       3.628   0.382 -10.546  1.00  0.00    -0.200 F 
ATOM     86  F   UNL     1       5.295   0.137 -12.693  1.00  0.00    -0.200 F 
ENDBRANCH  52  76
BRANCH  64  87
ATOM     87  C   UNL     1       0.722   9.199 -14.101  1.00  0.00     0.064 A 
ATOM     88  C   UNL     1      -0.462   8.527 -14.438  1.00  0.00     0.173 A 
ATOM     89  C   UNL     1       1.261  10.090 -15.043  1.00  0.00     0.173 A 
ATOM     90  F   UNL     1      -1.009   7.652 -13.580  1.00  0.00    -0.203 F 
ATOM     91  C   UNL     1      -1.068   8.720 -15.677  1.00  0.00     0.198 A 
ATOM     92  C   UNL     1       0.633  10.307 -16.266  1.00  0.00     0.198 A 
ATOM     93  F   UNL     1       2.388  10.763 -14.770  1.00  0.00    -0.203 F 
ATOM     94  F   UNL     1      -2.170   8.028 -15.996  1.00  0.00    -0.200 F 
ATOM     95  C   UNL     1      -0.525   9.616 -16.586  1.00  0.00     0.200 A 
ATOM     96  F   UNL     1       1.151  11.185 -17.137  1.00  0.00    -0.200 F 
ATOM     97  F   UNL     1      -1.116   9.809 -17.773  1.00  0.00    -0.200 F 
ENDBRANCH  64  87
ENDBRANCH  38  39
ENDBRANCH  30  33
ENDBRANCH  28  29
ENDBRANCH  27  28
ENDBRANCH  26  27
ENDBRANCH  25  26
ENDBRANCH   1  25
TORSDOF 19
