REMARK SMILES C[C@H](Nc1ncccc1C(=O)NCCCCCCNC(=O)c1ccc(-c2c3nc(c(-c4c(F)c(F)c(F)c(F)c4F)c4ccc([nH]4)c(-c4c(F)c(F)c(F)c(F)c4F)c4nc(c(-c5c(F)c(F)c(F)c(F)c5F)c5ccc2[nH]5)C=C4)C=C3)cc1)c1ccc(Cl)cc1
REMARK SMILES IDX 15 1 14 2 13 3 12 4 10 5 11 6 9 8 4 9 5 10 6 11 8 12 7 13
REMARK SMILES IDX 3 14 2 16 1 17 85 18 86 19 91 20 87 21 90 22 88 23 89 24
REMARK SMILES IDX 16 25 17 26 18 27 19 28 20 29 21 31 22 32 23 33 84 34 24 35
REMARK SMILES IDX 83 36 25 37 26 38 27 39 77 40 28 41 82 42 76 43 78 44 29 45
REMARK SMILES IDX 81 46 75 47 74 48 30 50 62 51 42 52 61 53 43 54 46 55 60 56
REMARK SMILES IDX 79 57 44 58 45 59 59 61 80 62 47 63 31 64 32 65 40 66 33 67
REMARK SMILES IDX 34 68 38 69 41 70 35 71 36 72 39 73 37 74 63 75 64 76 72 77
REMARK SMILES IDX 65 78 66 79 70 80 73 81 67 82 68 83 71 84 69 85 48 86 49 87
REMARK SMILES IDX 57 88 50 89 51 90 55 91 58 92 52 93 53 94 56 95 54 96
REMARK H PARENT 12 7 3 15 19 30 78 49 46 60
REMARK Flexibility Score: inf
ROOT
ATOM      1  C   UNL     1       3.720  -4.485  -4.700  1.00  0.00     0.002 C 
ENDROOT
BRANCH   1   2
ATOM      2  C   UNL     1       4.289  -4.039  -3.349  1.00  0.00     0.021 C 
BRANCH   2   3
ATOM      3  C   UNL     1       4.480  -2.540  -3.131  1.00  0.00     0.116 C 
BRANCH   3   4
ATOM      4  N   UNL     1       3.253  -1.771  -3.220  1.00  0.00    -0.352 N 
ATOM      5  C   UNL     1       2.660  -0.841  -2.395  1.00  0.00     0.255 C 
ATOM      6  O   UNL     1       1.648  -0.292  -2.829  1.00  0.00    -0.269 OA
ATOM      7  H   UNL     1       2.739  -1.951  -4.040  1.00  0.00     0.163 HD
BRANCH   5   8
ATOM      8  C   UNL     1       3.186  -0.482  -1.049  1.00  0.00     0.082 A 
ATOM      9  C   UNL     1       2.329  -0.168   0.019  1.00  0.00     0.139 A 
ATOM     10  N   UNL     1       2.804   0.269   1.215  1.00  0.00    -0.239 NA
ATOM     11  C   UNL     1       4.135   0.369   1.390  1.00  0.00     0.113 A 
ATOM     12  C   UNL     1       4.562  -0.298  -0.847  1.00  0.00     0.019 A 
ATOM     13  C   UNL     1       5.050   0.090   0.399  1.00  0.00     0.021 A 
BRANCH   9  14
ATOM     14  N   UNL     1       0.957  -0.296   0.059  1.00  0.00    -0.363 N 
ATOM     15  H   UNL     1       0.400   0.494   0.247  1.00  0.00     0.162 HD
BRANCH  14  16
ATOM     16  C   UNL     1       0.319  -1.588  -0.175  1.00  0.00     0.108 C 
ATOM     17  C   UNL     1       0.762  -2.547   0.948  1.00  0.00     0.036 C 
BRANCH  16  18
ATOM     18  C   UNL     1      -1.210  -1.459  -0.206  1.00  0.00    -0.026 A 
ATOM     19  C   UNL     1      -1.872  -0.218  -0.212  1.00  0.00     0.007 A 
ATOM     20  C   UNL     1      -2.006  -2.620  -0.270  1.00  0.00     0.007 A 
ATOM     21  C   UNL     1      -3.271  -0.142  -0.214  1.00  0.00     0.021 A 
ATOM     22  C   UNL     1      -3.402  -2.548  -0.272  1.00  0.00     0.021 A 
ATOM     23  C   UNL     1      -4.029  -1.308  -0.234  1.00  0.00     0.041 A 
ATOM     24  Cl  UNL     1      -5.747  -1.218  -0.222  1.00  0.00    -0.084 Cl
ENDBRANCH  16  18
ENDBRANCH  14  16
ENDBRANCH   9  14
ENDBRANCH   5   8
ENDBRANCH   3   4
ENDBRANCH   2   3
ENDBRANCH   1   2
BRANCH   1  25
ATOM     25  C   UNL     1       4.412  -3.956  -5.959  1.00  0.00     0.002 C 
BRANCH  25  26
ATOM     26  C   UNL     1       5.934  -4.106  -6.021  1.00  0.00     0.021 C 
BRANCH  26  27
ATOM     27  C   UNL     1       6.471  -5.522  -5.851  1.00  0.00     0.116 C 
BRANCH  27  28
ATOM     28  N   UNL     1       6.082  -6.407  -6.934  1.00  0.00    -0.352 N 
ATOM     29  C   UNL     1       6.858  -7.233  -7.711  1.00  0.00     0.251 C 
ATOM     30  H   UNL     1       5.120  -6.416  -7.143  1.00  0.00     0.163 HD
ATOM     31  O   UNL     1       6.368  -7.792  -8.687  1.00  0.00    -0.269 OA
BRANCH  29  32
ATOM     32  C   UNL     1       8.289  -7.443  -7.392  1.00  0.00     0.039 A 
ATOM     33  C   UNL     1       9.213  -7.471  -8.442  1.00  0.00     0.014 A 
ATOM     34  C   UNL     1       8.721  -7.657  -6.080  1.00  0.00     0.014 A 
ATOM     35  C   UNL     1      10.569  -7.674  -8.174  1.00  0.00     0.010 A 
ATOM     36  C   UNL     1      10.082  -7.790  -5.806  1.00  0.00     0.010 A 
ATOM     37  C   UNL     1      11.018  -7.816  -6.851  1.00  0.00    -0.014 A 
BRANCH  37  38
ATOM     38  C   UNL     1      12.457  -8.030  -6.550  1.00  0.00     0.031 A 
ATOM     39  C   UNL     1      12.916  -9.331  -5.950  1.00  0.00     0.074 A 
ATOM     40  C   UNL     1      13.343  -7.041  -6.773  1.00  0.00     0.049 A 
ATOM     41  N   UNL     1      14.117  -9.693  -5.572  1.00  0.00    -0.248 NA
ATOM     42  C   UNL     1      11.883 -10.352  -5.717  1.00  0.00     0.031 C 
ATOM     43  C   UNL     1      13.016  -5.719  -7.308  1.00  0.00     0.029 A 
ATOM     44  N   UNL     1      14.700  -6.992  -6.570  1.00  0.00    -0.354 N 
ATOM     45  C   UNL     1      13.979 -10.971  -5.045  1.00  0.00     0.074 A 
ATOM     46  C   UNL     1      12.571 -11.302  -5.102  1.00  0.00     0.031 C 
ATOM     47  C   UNL     1      14.143  -4.996  -7.412  1.00  0.00     0.029 A 
ATOM     48  C   UNL     1      15.266  -5.791  -6.923  1.00  0.00     0.049 A 
ATOM     49  H   UNL     1      15.218  -7.745  -6.206  1.00  0.00     0.167 HD
ATOM     50  C   UNL     1      14.941 -11.803  -4.580  1.00  0.00     0.037 A 
ATOM     51  C   UNL     1      16.547  -5.380  -6.859  1.00  0.00     0.037 A 
ATOM     52  C   UNL     1      16.344 -11.485  -4.555  1.00  0.00     0.049 A 
ATOM     53  C   UNL     1      17.599  -6.330  -6.354  1.00  0.00     0.074 A 
ATOM     54  C   UNL     1      17.404 -12.279  -4.155  1.00  0.00     0.029 A 
ATOM     55  N   UNL     1      16.883 -10.269  -4.950  1.00  0.00    -0.354 N 
ATOM     56  N   UNL     1      17.465  -7.559  -5.918  1.00  0.00    -0.248 NA
ATOM     57  C   UNL     1      18.984  -5.839  -6.343  1.00  0.00     0.031 C 
ATOM     58  C   UNL     1      18.581 -11.531  -4.271  1.00  0.00     0.029 A 
ATOM     59  C   UNL     1      18.259 -10.287  -4.790  1.00  0.00     0.049 A 
ATOM     60  H   UNL     1      16.364  -9.506  -5.294  1.00  0.00     0.167 HD
ATOM     61  C   UNL     1      18.746  -7.998  -5.612  1.00  0.00     0.074 A 
ATOM     62  C   UNL     1      19.646  -6.908  -5.925  1.00  0.00     0.031 C 
ATOM     63  C   UNL     1      19.142  -9.197  -5.118  1.00  0.00     0.037 A 
BRANCH  50  64
ATOM     64  C   UNL     1      14.507 -13.145  -4.063  1.00  0.00     0.064 A 
ATOM     65  C   UNL     1      14.024 -14.144  -4.922  1.00  0.00     0.173 A 
ATOM     66  C   UNL     1      14.604 -13.448  -2.696  1.00  0.00     0.173 A 
ATOM     67  F   UNL     1      13.900 -13.902  -6.236  1.00  0.00    -0.203 F 
ATOM     68  C   UNL     1      13.625 -15.384  -4.428  1.00  0.00     0.198 A 
ATOM     69  C   UNL     1      14.233 -14.699  -2.210  1.00  0.00     0.198 A 
ATOM     70  F   UNL     1      15.064 -12.531  -1.831  1.00  0.00    -0.203 F 
ATOM     71  F   UNL     1      13.118 -16.303  -5.262  1.00  0.00    -0.200 F 
ATOM     72  C   UNL     1      13.736 -15.663  -3.075  1.00  0.00     0.200 A 
ATOM     73  F   UNL     1      14.352 -14.972  -0.903  1.00  0.00    -0.200 F 
ATOM     74  F   UNL     1      13.356 -16.858  -2.602  1.00  0.00    -0.200 F 
ENDBRANCH  50  64
BRANCH  51  75
ATOM     75  C   UNL     1      16.912  -4.015  -7.320  1.00  0.00     0.064 A 
ATOM     76  C   UNL     1      17.656  -3.827  -8.493  1.00  0.00     0.173 A 
ATOM     77  C   UNL     1      16.529  -2.875  -6.600  1.00  0.00     0.173 A 
ATOM     78  F   UNL     1      18.063  -4.888  -9.205  1.00  0.00    -0.203 F 
ATOM     79  C   UNL     1      18.022  -2.551  -8.917  1.00  0.00     0.198 A 
ATOM     80  C   UNL     1      16.872  -1.598  -7.040  1.00  0.00     0.198 A 
ATOM     81  F   UNL     1      15.811  -3.000  -5.474  1.00  0.00    -0.203 F 
ATOM     82  F   UNL     1      18.773  -2.403 -10.017  1.00  0.00    -0.200 F 
ATOM     83  C   UNL     1      17.625  -1.437  -8.193  1.00  0.00     0.200 A 
ATOM     84  F   UNL     1      16.474  -0.523  -6.345  1.00  0.00    -0.200 F 
ATOM     85  F   UNL     1      17.974  -0.210  -8.603  1.00  0.00    -0.200 F 
ENDBRANCH  51  75
BRANCH  63  86
ATOM     86  C   UNL     1      20.615  -9.408  -4.925  1.00  0.00     0.064 A 
ATOM     87  C   UNL     1      21.325  -8.765  -3.900  1.00  0.00     0.173 A 
ATOM     88  C   UNL     1      21.318 -10.293  -5.757  1.00  0.00     0.173 A 
ATOM     89  F   UNL     1      20.700  -7.900  -3.087  1.00  0.00    -0.203 F 
ATOM     90  C   UNL     1      22.690  -8.979  -3.734  1.00  0.00     0.198 A 
ATOM     91  C   UNL     1      22.677 -10.526  -5.569  1.00  0.00     0.198 A 
ATOM     92  F   UNL     1      20.684 -10.938  -6.747  1.00  0.00    -0.203 F 
ATOM     93  F   UNL     1      23.358  -8.316  -2.779  1.00  0.00    -0.200 F 
ATOM     94  C   UNL     1      23.364  -9.863  -4.563  1.00  0.00     0.200 A 
ATOM     95  F   UNL     1      23.323 -11.391  -6.363  1.00  0.00    -0.200 F 
ATOM     96  F   UNL     1      24.677 -10.070  -4.398  1.00  0.00    -0.200 F 
ENDBRANCH  63  86
ENDBRANCH  37  38
ENDBRANCH  29  32
ENDBRANCH  27  28
ENDBRANCH  26  27
ENDBRANCH  25  26
ENDBRANCH   1  25
TORSDOF 16
