REMARK SMILES C[C@@H](C(=O)NCCCCCCNC(=O)c1ccc(-c2c3nc(c(-c4c(F)c(F)c(F)c(F)c4F)c4ccc([nH]4)c(-c4c(F)c(F)c(F)c(F)c4F)c4nc(c(-c5c(F)c(F)c(F)c(F)c5F)c5ccc2[nH]5)C=C4)C=C3)cc1)[C@H](C)[S@](C)=O
REMARK SMILES IDX 8 1 7 2 6 3 5 4 3 5 4 6 2 8 1 9 78 10 79 11 80 12 82 13
REMARK SMILES IDX 81 14 9 15 10 16 11 17 12 18 13 19 14 21 15 22 16 23 77 24
REMARK SMILES IDX 17 25 76 26 18 27 19 28 20 29 70 30 21 31 75 32 69 33 71 34
REMARK SMILES IDX 22 35 74 36 68 37 67 38 23 40 55 41 35 42 54 43 36 44 39 45
REMARK SMILES IDX 53 46 72 47 37 48 38 49 52 51 73 52 40 53 24 54 25 55 33 56
REMARK SMILES IDX 26 57 27 58 31 59 34 60 28 61 29 62 32 63 30 64 56 65 57 66
REMARK SMILES IDX 65 67 58 68 59 69 63 70 66 71 60 72 61 73 64 74 62 75 41 76
REMARK SMILES IDX 42 77 50 78 43 79 44 80 48 81 51 82 45 83 46 84 49 85 47 86
REMARK H PARENT 5 7 12 20 71 39 39 50
REMARK Flexibility Score: inf
ROOT
ATOM      1  C   UNL     1      -6.771   7.409   4.469  1.00  0.00     0.002 C 
ENDROOT
BRANCH   1   2
ATOM      2  C   UNL     1      -5.322   6.938   4.299  1.00  0.00     0.021 C 
BRANCH   2   3
ATOM      3  C   UNL     1      -5.116   5.431   4.463  1.00  0.00     0.116 C 
BRANCH   3   4
ATOM      4  N   UNL     1      -5.692   4.695   3.351  1.00  0.00    -0.356 N 
ATOM      5  C   UNL     1      -5.079   3.993   2.355  1.00  0.00     0.224 C 
ATOM      6  O   UNL     1      -5.780   3.521   1.460  1.00  0.00    -0.275 OA
ATOM      7  H   UNL     1      -6.676   4.705   3.309  1.00  0.00     0.163 HD
BRANCH   5   8
ATOM      8  C   UNL     1      -3.560   3.836   2.361  1.00  0.00     0.090 C 
ATOM      9  C   UNL     1      -2.952   5.130   1.804  1.00  0.00     0.019 C 
BRANCH   8  10
ATOM     10  C   UNL     1      -3.141   2.583   1.543  1.00  0.00     0.088 C 
ATOM     11  C   UNL     1      -3.823   1.303   2.050  1.00  0.00     0.023 C 
BRANCH  10  12
ATOM     12  S   UNL     1      -1.300   2.411   1.597  1.00  0.00     0.022 S 
ATOM     13  O   UNL     1      -0.923   1.904   2.958  1.00  0.00    -0.260 OA
ATOM     14  C   UNL     1      -1.136   1.060   0.409  1.00  0.00     0.123 C 
ENDBRANCH  10  12
ENDBRANCH   8  10
ENDBRANCH   5   8
ENDBRANCH   3   4
ENDBRANCH   2   3
ENDBRANCH   1   2
BRANCH   1  15
ATOM     15  C   UNL     1      -7.386   7.165   5.850  1.00  0.00     0.002 C 
BRANCH  15  16
ATOM     16  C   UNL     1      -6.596   7.724   7.037  1.00  0.00     0.021 C 
BRANCH  16  17
ATOM     17  C   UNL     1      -6.303   9.223   6.985  1.00  0.00     0.116 C 
BRANCH  17  18
ATOM     18  N   UNL     1      -7.511  10.029   6.996  1.00  0.00    -0.352 N 
ATOM     19  C   UNL     1      -7.852  11.097   7.786  1.00  0.00     0.251 C 
ATOM     20  H   UNL     1      -8.191   9.769   6.333  1.00  0.00     0.163 HD
ATOM     21  O   UNL     1      -8.995  11.549   7.738  1.00  0.00    -0.269 OA
BRANCH  19  22
ATOM     22  C   UNL     1      -6.871  11.701   8.716  1.00  0.00     0.039 A 
ATOM     23  C   UNL     1      -7.302  12.054   9.999  1.00  0.00     0.014 A 
ATOM     24  C   UNL     1      -5.553  11.963   8.329  1.00  0.00     0.014 A 
ATOM     25  C   UNL     1      -6.402  12.613  10.909  1.00  0.00     0.010 A 
ATOM     26  C   UNL     1      -4.641  12.471   9.256  1.00  0.00     0.010 A 
ATOM     27  C   UNL     1      -5.056  12.800  10.555  1.00  0.00    -0.014 A 
BRANCH  27  28
ATOM     28  C   UNL     1      -4.078  13.319  11.545  1.00  0.00     0.031 A 
ATOM     29  C   UNL     1      -3.455  14.676  11.370  1.00  0.00     0.074 A 
ATOM     30  C   UNL     1      -3.723  12.547  12.590  1.00  0.00     0.049 A 
ATOM     31  N   UNL     1      -2.568  15.282  12.120  1.00  0.00    -0.248 NA
ATOM     32  C   UNL     1      -3.869  15.447  10.188  1.00  0.00     0.031 C 
ATOM     33  C   UNL     1      -4.217  11.193  12.845  1.00  0.00     0.029 A 
ATOM     34  N   UNL     1      -2.859  12.786  13.630  1.00  0.00    -0.354 N 
ATOM     35  C   UNL     1      -2.316  16.499  11.502  1.00  0.00     0.074 A 
ATOM     36  C   UNL     1      -3.108  16.529  10.291  1.00  0.00     0.031 C 
ATOM     37  C   UNL     1      -3.662  10.728  13.976  1.00  0.00     0.029 A 
ATOM     38  C   UNL     1      -2.756  11.739  14.512  1.00  0.00     0.049 A 
ATOM     39  H   UNL     1      -2.361  13.629  13.733  1.00  0.00     0.167 HD
ATOM     40  C   UNL     1      -1.516  17.509  11.919  1.00  0.00     0.037 A 
ATOM     41  C   UNL     1      -2.013  11.608  15.627  1.00  0.00     0.037 A 
ATOM     42  C   UNL     1      -0.740  17.490  13.132  1.00  0.00     0.049 A 
ATOM     43  C   UNL     1      -1.144  12.752  16.073  1.00  0.00     0.074 A 
ATOM     44  C   UNL     1       0.072  18.482  13.655  1.00  0.00     0.029 A 
ATOM     45  N   UNL     1      -0.684  16.422  14.015  1.00  0.00    -0.354 N 
ATOM     46  N   UNL     1      -0.960  13.920  15.508  1.00  0.00    -0.248 NA
ATOM     47  C   UNL     1      -0.389  12.562  17.320  1.00  0.00     0.031 C 
ATOM     48  C   UNL     1       0.642  18.004  14.840  1.00  0.00     0.029 A 
ATOM     49  C   UNL     1       0.156  16.728  15.074  1.00  0.00     0.049 A 
ATOM     50  H   UNL     1      -1.170  15.573  13.906  1.00  0.00     0.167 HD
ATOM     51  C   UNL     1      -0.085  14.609  16.337  1.00  0.00     0.074 A 
ATOM     52  C   UNL     1       0.207  13.738  17.455  1.00  0.00     0.031 C 
ATOM     53  C   UNL     1       0.434  15.851  16.181  1.00  0.00     0.037 A 
BRANCH  40  54
ATOM     54  C   UNL     1      -1.446  18.738  11.062  1.00  0.00     0.064 A 
ATOM     55  C   UNL     1      -2.515  19.646  11.003  1.00  0.00     0.173 A 
ATOM     56  C   UNL     1      -0.283  19.044  10.341  1.00  0.00     0.173 A 
ATOM     57  F   UNL     1      -3.652  19.392  11.667  1.00  0.00    -0.203 F 
ATOM     58  C   UNL     1      -2.427  20.806  10.239  1.00  0.00     0.198 A 
ATOM     59  C   UNL     1      -0.190  20.218   9.597  1.00  0.00     0.198 A 
ATOM     60  F   UNL     1       0.769  18.212  10.368  1.00  0.00    -0.203 F 
ATOM     61  F   UNL     1      -3.473  21.642  10.171  1.00  0.00    -0.200 F 
ATOM     62  C   UNL     1      -1.263  21.095   9.543  1.00  0.00     0.200 A 
ATOM     63  F   UNL     1       0.939  20.502   8.933  1.00  0.00    -0.200 F 
ATOM     64  F   UNL     1      -1.176  22.219   8.818  1.00  0.00    -0.200 F 
ENDBRANCH  40  54
BRANCH  41  65
ATOM     65  C   UNL     1      -2.074  10.352  16.417  1.00  0.00     0.064 A 
ATOM     66  C   UNL     1      -2.691  10.321  17.675  1.00  0.00     0.173 A 
ATOM     67  C   UNL     1      -1.502   9.165  15.938  1.00  0.00     0.173 A 
ATOM     68  F   UNL     1      -3.231  11.438  18.182  1.00  0.00    -0.203 F 
ATOM     69  C   UNL     1      -2.713   9.155  18.436  1.00  0.00     0.198 A 
ATOM     70  C   UNL     1      -1.548   7.992  16.689  1.00  0.00     0.198 A 
ATOM     71  F   UNL     1      -0.904   9.143  14.738  1.00  0.00    -0.203 F 
ATOM     72  F   UNL     1      -3.266   9.165  19.656  1.00  0.00    -0.200 F 
ATOM     73  C   UNL     1      -2.145   7.990  17.941  1.00  0.00     0.200 A 
ATOM     74  F   UNL     1      -1.008   6.866  16.203  1.00  0.00    -0.200 F 
ATOM     75  F   UNL     1      -2.165   6.869  18.674  1.00  0.00    -0.200 F 
ENDBRANCH  41  65
BRANCH  53  76
ATOM     76  C   UNL     1       1.355  16.344  17.257  1.00  0.00     0.064 A 
ATOM     77  C   UNL     1       2.658  15.842  17.393  1.00  0.00     0.173 A 
ATOM     78  C   UNL     1       0.936  17.341  18.151  1.00  0.00     0.173 A 
ATOM     79  F   UNL     1       3.097  14.876  16.572  1.00  0.00    -0.203 F 
ATOM     80  C   UNL     1       3.499  16.301  18.402  1.00  0.00     0.198 A 
ATOM     81  C   UNL     1       1.789  17.815  19.144  1.00  0.00     0.198 A 
ATOM     82  F   UNL     1      -0.299  17.856  18.060  1.00  0.00    -0.203 F 
ATOM     83  F   UNL     1       4.722  15.772  18.544  1.00  0.00    -0.200 F 
ATOM     84  C   UNL     1       3.066  17.290  19.274  1.00  0.00     0.200 A 
ATOM     85  F   UNL     1       1.373  18.777  19.980  1.00  0.00    -0.200 F 
ATOM     86  F   UNL     1       3.877  17.729  20.246  1.00  0.00    -0.200 F 
ENDBRANCH  53  76
ENDBRANCH  27  28
ENDBRANCH  19  22
ENDBRANCH  17  18
ENDBRANCH  16  17
ENDBRANCH  15  16
ENDBRANCH   1  15
TORSDOF 15
