REMARK SMILES C[C@H]1C[C@H]1C(=O)Nc1cc(C(F)(F)F)ccc1C(=O)NCCCCCCNC(=O)c1ccc(-c2c3nc(c(-c4c(F)c(F)c(F)c(F)c4F)c4ccc([nH]4)c(-c4c(F)c(F)c(F)c(F)c4F)c4nc(c(-c5c(F)c(F)c(F)c(F)c5F)c5ccc2[nH]5)C=C4)C=C3)cc1
REMARK SMILES IDX 23 1 22 2 21 3 20 4 18 5 19 6 17 8 8 9 9 10 10 11 16 12
REMARK SMILES IDX 15 13 7 14 5 15 6 16 4 18 1 19 2 20 3 21 11 22 12 23 13 24
REMARK SMILES IDX 14 25 24 26 25 27 26 28 27 29 28 30 29 32 30 33 31 34 92 35
REMARK SMILES IDX 32 36 91 37 33 38 34 39 35 40 85 41 36 42 90 43 84 44 86 45
REMARK SMILES IDX 37 46 89 47 83 48 82 49 38 51 70 52 50 53 69 54 51 55 54 56
REMARK SMILES IDX 68 57 87 58 52 59 53 60 67 62 88 63 55 64 39 65 40 66 48 67
REMARK SMILES IDX 41 68 42 69 46 70 49 71 43 72 44 73 47 74 45 75 71 76 72 77
REMARK SMILES IDX 80 78 73 79 74 80 78 81 81 82 75 83 76 84 79 85 77 86 56 87
REMARK SMILES IDX 57 88 65 89 58 90 59 91 63 92 66 93 60 94 61 95 64 96 62 97
REMARK H PARENT 20 7 7 17 27 31 86 50 54 61
REMARK Flexibility Score: inf
ROOT
ATOM      1  C   UNL     1       3.011   4.615   0.951  1.00  0.00     0.002 C 
ENDROOT
BRANCH   1   2
ATOM      2  C   UNL     1       3.027   4.318   2.458  1.00  0.00     0.021 C 
BRANCH   2   3
ATOM      3  C   UNL     1       2.127   3.166   2.887  1.00  0.00     0.116 C 
BRANCH   3   4
ATOM      4  N   UNL     1       2.688   1.863   2.633  1.00  0.00    -0.352 N 
ATOM      5  C   UNL     1       2.410   0.627   3.151  1.00  0.00     0.253 C 
ATOM      6  O   UNL     1       3.164  -0.282   2.783  1.00  0.00    -0.269 OA
ATOM      7  H   UNL     1       3.408   1.862   1.961  1.00  0.00     0.163 HD
BRANCH   5   8
ATOM      8  C   UNL     1       1.351   0.303   4.167  1.00  0.00     0.063 A 
ATOM      9  C   UNL     1       0.208   1.017   4.533  1.00  0.00     0.054 A 
ATOM     10  C   UNL     1      -0.371   0.757   5.801  1.00  0.00     0.040 A 
ATOM     11  C   UNL     1       0.004  -0.332   6.598  1.00  0.00     0.058 A 
ATOM     12  C   UNL     1       1.654  -0.857   4.927  1.00  0.00     0.016 A 
ATOM     13  C   UNL     1       0.979  -1.188   6.106  1.00  0.00     0.014 A 
BRANCH   9  14
ATOM     14  N   UNL     1      -0.474   2.026   3.853  1.00  0.00    -0.325 N 
ATOM     15  C   UNL     1      -0.876   2.313   2.581  1.00  0.00     0.227 C 
ATOM     16  O   UNL     1      -1.377   3.440   2.472  1.00  0.00    -0.274 OA
ATOM     17  H   UNL     1      -0.746   2.741   4.473  1.00  0.00     0.169 HD
BRANCH  15  18
ATOM     18  C   UNL     1      -0.918   1.478   1.361  1.00  0.00     0.082 C 
ATOM     19  C   UNL     1       0.593  -0.777   1.135  1.00  0.00     0.008 C 
ATOM     20  C   UNL     1      -0.446   0.192   0.744  1.00  0.00    -0.001 C 
ATOM     21  C   UNL     1      -1.761   0.212   1.450  1.00  0.00     0.018 C 
ENDBRANCH  15  18
ENDBRANCH   9  14
BRANCH  11  22
ATOM     22  C   UNL     1      -0.614  -0.533   7.960  1.00  0.00     0.416 C 
ATOM     23  F   UNL     1      -0.045   0.274   8.898  1.00  0.00    -0.166 F 
ATOM     24  F   UNL     1      -1.946  -0.249   7.983  1.00  0.00    -0.166 F 
ATOM     25  F   UNL     1      -0.492  -1.803   8.431  1.00  0.00    -0.166 F 
ENDBRANCH  11  22
ENDBRANCH   5   8
ENDBRANCH   3   4
ENDBRANCH   2   3
ENDBRANCH   1   2
BRANCH   1  26
ATOM     26  C   UNL     1       1.648   4.944   0.320  1.00  0.00     0.002 C 
BRANCH  26  27
ATOM     27  C   UNL     1       0.807   6.016   1.018  1.00  0.00     0.021 C 
BRANCH  27  28
ATOM     28  C   UNL     1       1.513   7.335   1.311  1.00  0.00     0.116 C 
BRANCH  28  29
ATOM     29  N   UNL     1       2.126   7.930   0.137  1.00  0.00    -0.352 N 
ATOM     30  C   UNL     1       2.176   9.238  -0.264  1.00  0.00     0.251 C 
ATOM     31  H   UNL     1       2.574   7.293  -0.465  1.00  0.00     0.163 HD
ATOM     32  O   UNL     1       2.662   9.517  -1.361  1.00  0.00    -0.269 OA
BRANCH  30  33
ATOM     33  C   UNL     1       1.628  10.319   0.584  1.00  0.00     0.039 A 
ATOM     34  C   UNL     1       0.937  11.358  -0.044  1.00  0.00     0.014 A 
ATOM     35  C   UNL     1       1.807  10.344   1.971  1.00  0.00     0.014 A 
ATOM     36  C   UNL     1       0.391  12.391   0.717  1.00  0.00     0.010 A 
ATOM     37  C   UNL     1       1.191  11.332   2.739  1.00  0.00     0.010 A 
ATOM     38  C   UNL     1       0.483  12.371   2.120  1.00  0.00    -0.014 A 
BRANCH  38  39
ATOM     39  C   UNL     1      -0.184  13.429   2.922  1.00  0.00     0.031 A 
ATOM     40  C   UNL     1       0.615  14.387   3.759  1.00  0.00     0.074 A 
ATOM     41  C   UNL     1      -1.528  13.519   2.892  1.00  0.00     0.049 A 
ATOM     42  N   UNL     1       0.203  15.417   4.456  1.00  0.00    -0.248 NA
ATOM     43  C   UNL     1       2.063  14.149   3.847  1.00  0.00     0.031 C 
ATOM     44  C   UNL     1      -2.417  12.603   2.174  1.00  0.00     0.029 A 
ATOM     45  N   UNL     1      -2.381  14.427   3.466  1.00  0.00    -0.354 N 
ATOM     46  C   UNL     1       1.336  15.946   5.060  1.00  0.00     0.074 A 
ATOM     47  C   UNL     1       2.443  15.087   4.702  1.00  0.00     0.031 C 
ATOM     48  C   UNL     1      -3.683  13.024   2.307  1.00  0.00     0.029 A 
ATOM     49  C   UNL     1      -3.701  14.217   3.148  1.00  0.00     0.049 A 
ATOM     50  H   UNL     1      -2.077  15.159   4.049  1.00  0.00     0.167 HD
ATOM     51  C   UNL     1       1.446  17.062   5.822  1.00  0.00     0.037 A 
ATOM     52  C   UNL     1      -4.802  14.913   3.488  1.00  0.00     0.037 A 
ATOM     53  C   UNL     1       0.339  17.917   6.168  1.00  0.00     0.049 A 
ATOM     54  C   UNL     1      -4.650  16.151   4.328  1.00  0.00     0.074 A 
ATOM     55  C   UNL     1       0.353  19.102   6.883  1.00  0.00     0.029 A 
ATOM     56  N   UNL     1      -0.985  17.671   5.834  1.00  0.00    -0.354 N 
ATOM     57  N   UNL     1      -3.561  16.695   4.815  1.00  0.00    -0.248 NA
ATOM     58  C   UNL     1      -5.882  16.881   4.653  1.00  0.00     0.031 C 
ATOM     59  C   UNL     1      -0.967  19.540   7.034  1.00  0.00     0.029 A 
ATOM     60  C   UNL     1      -1.800  18.665   6.356  1.00  0.00     0.049 A 
ATOM     61  H   UNL     1      -1.300  16.903   5.303  1.00  0.00     0.167 HD
ATOM     62  C   UNL     1      -3.972  17.838   5.487  1.00  0.00     0.074 A 
ATOM     63  C   UNL     1      -5.407  17.926   5.313  1.00  0.00     0.031 C 
ATOM     64  C   UNL     1      -3.231  18.731   6.189  1.00  0.00     0.037 A 
BRANCH  51  65
ATOM     65  C   UNL     1       2.813  17.422   6.335  1.00  0.00     0.064 A 
ATOM     66  C   UNL     1       3.838  17.845   5.474  1.00  0.00     0.173 A 
ATOM     67  C   UNL     1       3.092  17.382   7.710  1.00  0.00     0.173 A 
ATOM     68  F   UNL     1       3.631  17.894   4.149  1.00  0.00    -0.203 F 
ATOM     69  C   UNL     1       5.098  18.181   5.966  1.00  0.00     0.198 A 
ATOM     70  C   UNL     1       4.342  17.752   8.201  1.00  0.00     0.198 A 
ATOM     71  F   UNL     1       2.149  16.992   8.581  1.00  0.00    -0.203 F 
ATOM     72  F   UNL     1       6.076  18.529   5.117  1.00  0.00    -0.200 F 
ATOM     73  C   UNL     1       5.346  18.142   7.329  1.00  0.00     0.200 A 
ATOM     74  F   UNL     1       4.575  17.728   9.521  1.00  0.00    -0.200 F 
ATOM     75  F   UNL     1       6.556  18.473   7.801  1.00  0.00    -0.200 F 
ENDBRANCH  51  65
BRANCH  52  76
ATOM     76  C   UNL     1      -6.138  14.471   3.006  1.00  0.00     0.064 A 
ATOM     77  C   UNL     1      -6.864  15.235   2.082  1.00  0.00     0.173 A 
ATOM     78  C   UNL     1      -6.718  13.278   3.463  1.00  0.00     0.173 A 
ATOM     79  F   UNL     1      -6.362  16.393   1.629  1.00  0.00    -0.203 F 
ATOM     80  C   UNL     1      -8.128  14.836   1.652  1.00  0.00     0.198 A 
ATOM     81  C   UNL     1      -7.966  12.863   3.006  1.00  0.00     0.198 A 
ATOM     82  F   UNL     1      -6.063  12.507   4.343  1.00  0.00    -0.203 F 
ATOM     83  F   UNL     1      -8.822  15.612   0.808  1.00  0.00    -0.200 F 
ATOM     84  C   UNL     1      -8.675  13.647   2.109  1.00  0.00     0.200 A 
ATOM     85  F   UNL     1      -8.483  11.704   3.438  1.00  0.00    -0.200 F 
ATOM     86  F   UNL     1      -9.888  13.260   1.692  1.00  0.00    -0.200 F 
ENDBRANCH  52  76
BRANCH  64  87
ATOM     87  C   UNL     1      -3.966  19.888   6.807  1.00  0.00     0.064 A 
ATOM     88  C   UNL     1      -4.869  19.706   7.866  1.00  0.00     0.173 A 
ATOM     89  C   UNL     1      -3.768  21.194   6.332  1.00  0.00     0.173 A 
ATOM     90  F   UNL     1      -5.105  18.477   8.350  1.00  0.00    -0.203 F 
ATOM     91  C   UNL     1      -5.582  20.780   8.392  1.00  0.00     0.198 A 
ATOM     92  C   UNL     1      -4.453  22.271   6.888  1.00  0.00     0.198 A 
ATOM     93  F   UNL     1      -2.909  21.427   5.329  1.00  0.00    -0.203 F 
ATOM     94  F   UNL     1      -6.494  20.570   9.352  1.00  0.00    -0.200 F 
ATOM     95  C   UNL     1      -5.370  22.062   7.906  1.00  0.00     0.200 A 
ATOM     96  F   UNL     1      -4.234  23.511   6.429  1.00  0.00    -0.200 F 
ATOM     97  F   UNL     1      -6.060  23.094   8.411  1.00  0.00    -0.200 F 
ENDBRANCH  64  87
ENDBRANCH  38  39
ENDBRANCH  30  33
ENDBRANCH  28  29
ENDBRANCH  27  28
ENDBRANCH  26  27
ENDBRANCH   1  26
TORSDOF 16
