REMARK SMILES Nc1cc(C(=O)NCCCCCCNC(=O)c2ccc(-c3c4nc(c(-c5c(F)c(F)c(F)c(F)c5F)c5ccc([nH]5)c(-c5c(F)c(F)c(F)c(F)c5F)c5nc(c(-c6c(F)c(F)c(F)c(F)c6F)c6ccc3[nH]6)C=C5)C=C4)cc2)nc2ccc(F)cc12
REMARK SMILES IDX 11 1 10 2 9 3 8 4 7 5 5 6 6 7 4 9 2 10 3 11 87 12 81 13
REMARK SMILES IDX 86 14 80 15 82 16 84 17 83 18 85 19 1 20 12 23 13 24 14 25
REMARK SMILES IDX 15 26 16 28 17 29 18 30 79 31 19 32 78 33 20 34 21 35 22 36
REMARK SMILES IDX 72 37 23 38 77 39 71 40 73 41 24 42 76 43 70 44 69 45 25 47
REMARK SMILES IDX 57 48 37 49 56 50 38 51 41 52 55 53 74 54 39 55 40 56 54 58
REMARK SMILES IDX 75 59 42 60 26 61 27 62 35 63 28 64 29 65 33 66 36 67 30 68
REMARK SMILES IDX 31 69 34 70 32 71 58 72 59 73 67 74 60 75 61 76 65 77 68 78
REMARK SMILES IDX 62 79 63 80 66 81 64 82 43 83 44 84 52 85 45 86 46 87 50 88
REMARK SMILES IDX 53 89 47 90 48 91 51 92 49 93
REMARK H PARENT 7 8 1 21 1 22 14 27 73 46 41 57
REMARK Flexibility Score: inf
ROOT
ATOM      1  C   UNL     1       4.795  -2.243  -5.570  1.00  0.00     0.002 C 
ENDROOT
BRANCH   1   2
ATOM      2  C   UNL     1       3.308  -2.561  -5.357  1.00  0.00     0.002 C 
BRANCH   2   3
ATOM      3  C   UNL     1       2.688  -1.925  -4.105  1.00  0.00     0.021 C 
BRANCH   3   4
ATOM      4  C   UNL     1       2.712  -0.395  -4.138  1.00  0.00     0.116 C 
BRANCH   4   5
ATOM      5  N   UNL     1       1.569   0.104  -4.871  1.00  0.00    -0.351 N 
ATOM      6  C   UNL     1       0.327   0.563  -4.497  1.00  0.00     0.269 C 
ATOM      7  O   UNL     1      -0.421   0.882  -5.426  1.00  0.00    -0.268 OA
ATOM      8  H   UNL     1       1.710   0.118  -5.845  1.00  0.00     0.163 HD
BRANCH   6   9
ATOM      9  C   UNL     1      -0.139   0.727  -3.071  1.00  0.00     0.130 A 
ATOM     10  C   UNL     1      -0.014   0.434  -0.686  1.00  0.00     0.043 A 
ATOM     11  C   UNL     1       0.445   0.127  -1.970  1.00  0.00     0.060 A 
ATOM     12  C   UNL     1      -1.159   1.250  -0.548  1.00  0.00     0.026 A 
ATOM     13  C   UNL     1      -1.743   1.749  -1.733  1.00  0.00     0.073 A 
ATOM     14  C   UNL     1      -1.749   1.587   0.692  1.00  0.00     0.051 A 
ATOM     15  N   UNL     1      -1.231   1.521  -2.946  1.00  0.00    -0.242 NA
ATOM     16  C   UNL     1      -2.905   2.506  -1.651  1.00  0.00     0.032 A 
ATOM     17  C   UNL     1      -2.907   2.352   0.738  1.00  0.00     0.124 A 
ATOM     18  C   UNL     1      -3.501   2.804  -0.426  1.00  0.00     0.041 A 
ATOM     19  F   UNL     1      -3.456   2.646   1.923  1.00  0.00    -0.207 F 
BRANCH  10  20
ATOM     20  N   UNL     1       0.612  -0.181   0.398  1.00  0.00    -0.398 N 
ATOM     21  H   UNL     1       1.409  -0.742   0.253  1.00  0.00     0.156 HD
ATOM     22  H   UNL     1       0.258  -0.055   1.308  1.00  0.00     0.156 HD
ENDBRANCH  10  20
ENDBRANCH   6   9
ENDBRANCH   4   5
ENDBRANCH   3   4
ENDBRANCH   2   3
ENDBRANCH   1   2
BRANCH   1  23
ATOM     23  C   UNL     1       5.697  -2.568  -4.379  1.00  0.00     0.021 C 
BRANCH  23  24
ATOM     24  C   UNL     1       5.724  -4.046  -4.012  1.00  0.00     0.116 C 
BRANCH  24  25
ATOM     25  N   UNL     1       6.330  -4.854  -5.060  1.00  0.00    -0.352 N 
ATOM     26  C   UNL     1       7.418  -5.693  -4.998  1.00  0.00     0.251 C 
ATOM     27  H   UNL     1       5.898  -4.791  -5.943  1.00  0.00     0.163 HD
ATOM     28  O   UNL     1       7.930  -6.124  -6.021  1.00  0.00    -0.269 OA
BRANCH  26  29
ATOM     29  C   UNL     1       7.979  -6.051  -3.678  1.00  0.00     0.039 A 
ATOM     30  C   UNL     1       7.133  -6.380  -2.618  1.00  0.00     0.014 A 
ATOM     31  C   UNL     1       9.364  -6.039  -3.498  1.00  0.00     0.014 A 
ATOM     32  C   UNL     1       7.658  -6.526  -1.341  1.00  0.00     0.010 A 
ATOM     33  C   UNL     1       9.897  -6.283  -2.229  1.00  0.00     0.010 A 
ATOM     34  C   UNL     1       9.046  -6.481  -1.131  1.00  0.00    -0.014 A 
BRANCH  34  35
ATOM     35  C   UNL     1       9.577  -6.641   0.247  1.00  0.00     0.031 A 
ATOM     36  C   UNL     1      10.321  -5.520   0.920  1.00  0.00     0.074 A 
ATOM     37  C   UNL     1       9.334  -7.786   0.913  1.00  0.00     0.049 A 
ATOM     38  N   UNL     1      10.841  -5.479   2.122  1.00  0.00    -0.248 NA
ATOM     39  C   UNL     1      10.511  -4.283   0.146  1.00  0.00     0.031 C 
ATOM     40  C   UNL     1       8.610  -8.937   0.369  1.00  0.00     0.029 A 
ATOM     41  N   UNL     1       9.643  -8.164   2.195  1.00  0.00    -0.354 N 
ATOM     42  C   UNL     1      11.428  -4.226   2.240  1.00  0.00     0.074 A 
ATOM     43  C   UNL     1      11.235  -3.547   0.978  1.00  0.00     0.031 C 
ATOM     44  C   UNL     1       8.480  -9.867   1.326  1.00  0.00     0.029 A 
ATOM     45  C   UNL     1       9.173  -9.412   2.526  1.00  0.00     0.049 A 
ATOM     46  H   UNL     1      10.152  -7.596   2.818  1.00  0.00     0.167 HD
ATOM     47  C   UNL     1      12.056  -3.688   3.313  1.00  0.00     0.037 A 
ATOM     48  C   UNL     1       9.299 -10.120   3.664  1.00  0.00     0.037 A 
ATOM     49  C   UNL     1      12.228  -4.362   4.574  1.00  0.00     0.049 A 
ATOM     50  C   UNL     1      10.054  -9.521   4.816  1.00  0.00     0.074 A 
ATOM     51  C   UNL     1      12.834  -3.892   5.726  1.00  0.00     0.029 A 
ATOM     52  N   UNL     1      11.794  -5.651   4.848  1.00  0.00    -0.354 N 
ATOM     53  N   UNL     1      10.593  -8.330   4.920  1.00  0.00    -0.248 NA
ATOM     54  C   UNL     1      10.227 -10.365   6.005  1.00  0.00     0.031 C 
ATOM     55  C   UNL     1      12.812  -4.912   6.680  1.00  0.00     0.029 A 
ATOM     56  C   UNL     1      12.142  -6.000   6.144  1.00  0.00     0.049 A 
ATOM     57  H   UNL     1      11.311  -6.231   4.217  1.00  0.00     0.167 HD
ATOM     58  C   UNL     1      11.156  -8.277   6.187  1.00  0.00     0.074 A 
ATOM     59  C   UNL     1      10.873  -9.546   6.824  1.00  0.00     0.031 C 
ATOM     60  C   UNL     1      11.851  -7.267   6.766  1.00  0.00     0.037 A 
BRANCH  47  61
ATOM     61  C   UNL     1      12.611  -2.298   3.181  1.00  0.00     0.064 A 
ATOM     62  C   UNL     1      11.773  -1.175   3.124  1.00  0.00     0.173 A 
ATOM     63  C   UNL     1      13.998  -2.081   3.190  1.00  0.00     0.173 A 
ATOM     64  F   UNL     1      10.440  -1.327   3.101  1.00  0.00    -0.203 F 
ATOM     65  C   UNL     1      12.302   0.113   3.066  1.00  0.00     0.198 A 
ATOM     66  C   UNL     1      14.523  -0.791   3.162  1.00  0.00     0.198 A 
ATOM     67  F   UNL     1      14.844  -3.120   3.251  1.00  0.00    -0.203 F 
ATOM     68  F   UNL     1      11.482   1.169   2.978  1.00  0.00    -0.200 F 
ATOM     69  C   UNL     1      13.675   0.304   3.096  1.00  0.00     0.200 A 
ATOM     70  F   UNL     1      15.850  -0.609   3.207  1.00  0.00    -0.200 F 
ATOM     71  F   UNL     1      14.182   1.544   3.060  1.00  0.00    -0.200 F 
ENDBRANCH  47  61
BRANCH  48  72
ATOM     72  C   UNL     1       8.689 -11.471   3.759  1.00  0.00     0.064 A 
ATOM     73  C   UNL     1       7.601 -11.712   4.609  1.00  0.00     0.173 A 
ATOM     74  C   UNL     1       9.158 -12.541   2.981  1.00  0.00     0.173 A 
ATOM     75  F   UNL     1       7.129 -10.726   5.387  1.00  0.00    -0.203 F 
ATOM     76  C   UNL     1       7.009 -12.971   4.681  1.00  0.00     0.198 A 
ATOM     77  C   UNL     1       8.545 -13.790   3.030  1.00  0.00     0.198 A 
ATOM     78  F   UNL     1      10.194 -12.362   2.148  1.00  0.00    -0.203 F 
ATOM     79  F   UNL     1       5.990 -13.182   5.525  1.00  0.00    -0.200 F 
ATOM     80  C   UNL     1       7.474 -14.006   3.884  1.00  0.00     0.200 A 
ATOM     81  F   UNL     1       8.986 -14.781   2.243  1.00  0.00    -0.200 F 
ATOM     82  F   UNL     1       6.893 -15.212   3.940  1.00  0.00    -0.200 F 
ENDBRANCH  48  72
BRANCH  60  83
ATOM     83  C   UNL     1      12.345  -7.480   8.167  1.00  0.00     0.064 A 
ATOM     84  C   UNL     1      13.414  -8.345   8.442  1.00  0.00     0.173 A 
ATOM     85  C   UNL     1      11.795  -6.753   9.234  1.00  0.00     0.173 A 
ATOM     86  F   UNL     1      13.964  -9.072   7.458  1.00  0.00    -0.203 F 
ATOM     87  C   UNL     1      13.905  -8.484   9.737  1.00  0.00     0.198 A 
ATOM     88  C   UNL     1      12.309  -6.871  10.522  1.00  0.00     0.198 A 
ATOM     89  F   UNL     1      10.776  -5.906   9.022  1.00  0.00    -0.203 F 
ATOM     90  F   UNL     1      14.904  -9.343   9.983  1.00  0.00    -0.200 F 
ATOM     91  C   UNL     1      13.361  -7.740  10.773  1.00  0.00     0.200 A 
ATOM     92  F   UNL     1      11.793  -6.138  11.518  1.00  0.00    -0.200 F 
ATOM     93  F   UNL     1      13.849  -7.861  12.015  1.00  0.00    -0.200 F 
ENDBRANCH  60  83
ENDBRANCH  34  35
ENDBRANCH  26  29
ENDBRANCH  24  25
ENDBRANCH  23  24
ENDBRANCH   1  23
TORSDOF 14
