REMARK SMILES O=C(NCCCCCCNC(=O)[C@@H]1CCCC[C@@H]1Sc1ccncc1)c1ccc(-c2c3nc(c(-c4c(F)c(F)c(F)c(F)c4F)c4ccc([nH]4)c(-c4c(F)c(F)c(F)c(F)c4F)c4nc(c(-c5c(F)c(F)c(F)c(F)c5F)c5ccc2[nH]5)C=C4)C=C3)cc1
REMARK SMILES IDX 6 1 5 2 4 3 3 4 1 5 2 6 26 8 27 9 88 10 28 11 87 12 29 13
REMARK SMILES IDX 30 14 31 15 81 16 32 17 86 18 80 19 82 20 33 21 85 22 79 23
REMARK SMILES IDX 78 24 34 26 66 27 46 28 65 29 47 30 50 31 64 32 83 33 48 34
REMARK SMILES IDX 49 35 63 37 84 38 51 39 35 40 36 41 44 42 37 43 38 44 42 45
REMARK SMILES IDX 45 46 39 47 40 48 43 49 41 50 67 51 68 52 76 53 69 54 70 55
REMARK SMILES IDX 74 56 77 57 71 58 72 59 75 60 73 61 52 62 53 63 61 64 54 65
REMARK SMILES IDX 55 66 59 67 62 68 56 69 57 70 60 71 58 72 7 73 8 74 9 75
REMARK SMILES IDX 10 76 11 77 12 79 13 80 14 81 18 82 15 83 17 84 16 85 19 86
REMARK SMILES IDX 20 87 21 88 25 89 22 90 24 91 23 92
REMARK H PARENT 3 7 82 25 50 36 10 78
REMARK Flexibility Score: inf
ROOT
ATOM      1  C   UNL     1       3.921   3.232  -1.933  1.00  0.00     0.002 C 
ENDROOT
BRANCH   1   2
ATOM      2  C   UNL     1       4.452   1.800  -1.862  1.00  0.00     0.021 C 
BRANCH   2   3
ATOM      3  C   UNL     1       4.302   1.157  -0.492  1.00  0.00     0.116 C 
BRANCH   3   4
ATOM      4  N   UNL     1       2.905   0.981  -0.131  1.00  0.00    -0.352 N 
ATOM      5  O   UNL     1       0.996  -0.182   0.188  1.00  0.00    -0.269 OA
ATOM      6  C   UNL     1       2.218  -0.180   0.127  1.00  0.00     0.251 C 
ATOM      7  H   UNL     1       2.377   1.809  -0.062  1.00  0.00     0.163 HD
BRANCH   6   8
ATOM      8  C   UNL     1       2.974  -1.433   0.327  1.00  0.00     0.039 A 
ATOM      9  C   UNL     1       4.127  -1.435   1.115  1.00  0.00     0.014 A 
ATOM     10  C   UNL     1       2.521  -2.613  -0.266  1.00  0.00     0.014 A 
ATOM     11  C   UNL     1       4.901  -2.582   1.200  1.00  0.00     0.010 A 
ATOM     12  C   UNL     1       3.247  -3.794  -0.094  1.00  0.00     0.010 A 
ATOM     13  C   UNL     1       4.451  -3.783   0.628  1.00  0.00    -0.014 A 
BRANCH  13  14
ATOM     14  C   UNL     1       5.211  -5.029   0.893  1.00  0.00     0.031 A 
ATOM     15  C   UNL     1       5.870  -5.797  -0.214  1.00  0.00     0.074 A 
ATOM     16  C   UNL     1       5.316  -5.444   2.171  1.00  0.00     0.049 A 
ATOM     17  N   UNL     1       6.581  -6.895  -0.142  1.00  0.00    -0.248 NA
ATOM     18  C   UNL     1       5.709  -5.276  -1.579  1.00  0.00     0.031 C 
ATOM     19  C   UNL     1       4.701  -4.779   3.324  1.00  0.00     0.029 A 
ATOM     20  N   UNL     1       5.986  -6.505   2.721  1.00  0.00    -0.354 N 
ATOM     21  C   UNL     1       6.940  -7.203  -1.447  1.00  0.00     0.074 A 
ATOM     22  C   UNL     1       6.344  -6.193  -2.296  1.00  0.00     0.031 C 
ATOM     23  C   UNL     1       5.061  -5.417   4.445  1.00  0.00     0.029 A 
ATOM     24  C   UNL     1       5.865  -6.577   4.088  1.00  0.00     0.049 A 
ATOM     25  H   UNL     1       6.502  -7.153   2.190  1.00  0.00     0.167 HD
ATOM     26  C   UNL     1       7.704  -8.232  -1.888  1.00  0.00     0.037 A 
ATOM     27  C   UNL     1       6.328  -7.493   4.957  1.00  0.00     0.037 A 
ATOM     28  C   UNL     1       8.293  -9.229  -1.029  1.00  0.00     0.049 A 
ATOM     29  C   UNL     1       7.135  -8.644   4.430  1.00  0.00     0.074 A 
ATOM     30  C   UNL     1       9.108 -10.293  -1.374  1.00  0.00     0.029 A 
ATOM     31  N   UNL     1       8.120  -9.292   0.347  1.00  0.00    -0.354 N 
ATOM     32  N   UNL     1       7.504  -8.901   3.199  1.00  0.00    -0.248 NA
ATOM     33  C   UNL     1       7.587  -9.635   5.414  1.00  0.00     0.031 C 
ATOM     34  C   UNL     1       9.379 -11.032  -0.218  1.00  0.00     0.029 A 
ATOM     35  C   UNL     1       8.789 -10.393   0.860  1.00  0.00     0.049 A 
ATOM     36  H   UNL     1       7.599  -8.649   0.881  1.00  0.00     0.167 HD
ATOM     37  C   UNL     1       8.248 -10.069   3.261  1.00  0.00     0.074 A 
ATOM     38  C   UNL     1       8.301 -10.455   4.656  1.00  0.00     0.031 C 
ATOM     39  C   UNL     1       8.832 -10.763   2.253  1.00  0.00     0.037 A 
BRANCH  26  40
ATOM     40  C   UNL     1       7.936  -8.351  -3.368  1.00  0.00     0.064 A 
ATOM     41  C   UNL     1       8.746  -7.441  -4.066  1.00  0.00     0.173 A 
ATOM     42  C   UNL     1       7.391  -9.425  -4.089  1.00  0.00     0.173 A 
ATOM     43  F   UNL     1       9.285  -6.391  -3.429  1.00  0.00    -0.203 F 
ATOM     44  C   UNL     1       8.983  -7.591  -5.430  1.00  0.00     0.198 A 
ATOM     45  C   UNL     1       7.655  -9.589  -5.446  1.00  0.00     0.198 A 
ATOM     46  F   UNL     1       6.615 -10.329  -3.472  1.00  0.00    -0.203 F 
ATOM     47  F   UNL     1       9.726  -6.687  -6.083  1.00  0.00    -0.200 F 
ATOM     48  C   UNL     1       8.445  -8.669  -6.117  1.00  0.00     0.200 A 
ATOM     49  F   UNL     1       7.147 -10.641  -6.104  1.00  0.00    -0.200 F 
ATOM     50  F   UNL     1       8.686  -8.819  -7.427  1.00  0.00    -0.200 F 
ENDBRANCH  26  40
BRANCH  27  51
ATOM     51  C   UNL     1       6.022  -7.363   6.405  1.00  0.00     0.064 A 
ATOM     52  C   UNL     1       7.036  -7.121   7.341  1.00  0.00     0.173 A 
ATOM     53  C   UNL     1       4.708  -7.481   6.884  1.00  0.00     0.173 A 
ATOM     54  F   UNL     1       8.310  -7.015   6.936  1.00  0.00    -0.203 F 
ATOM     55  C   UNL     1       6.752  -7.029   8.702  1.00  0.00     0.198 A 
ATOM     56  C   UNL     1       4.420  -7.351   8.240  1.00  0.00     0.198 A 
ATOM     57  F   UNL     1       3.698  -7.704   6.029  1.00  0.00    -0.203 F 
ATOM     58  F   UNL     1       7.747  -6.852   9.581  1.00  0.00    -0.200 F 
ATOM     59  C   UNL     1       5.443  -7.138   9.149  1.00  0.00     0.200 A 
ATOM     60  F   UNL     1       3.151  -7.435   8.664  1.00  0.00    -0.200 F 
ATOM     61  F   UNL     1       5.170  -7.044  10.457  1.00  0.00    -0.200 F 
ENDBRANCH  27  51
BRANCH  39  62
ATOM     62  C   UNL     1       9.607 -11.992   2.633  1.00  0.00     0.064 A 
ATOM     63  C   UNL     1       8.970 -13.150   3.104  1.00  0.00     0.173 A 
ATOM     64  C   UNL     1      11.004 -12.015   2.510  1.00  0.00     0.173 A 
ATOM     65  F   UNL     1       7.637 -13.174   3.257  1.00  0.00    -0.203 F 
ATOM     66  C   UNL     1       9.707 -14.273   3.472  1.00  0.00     0.198 A 
ATOM     67  C   UNL     1      11.735 -13.152   2.844  1.00  0.00     0.198 A 
ATOM     68  F   UNL     1      11.662 -10.936   2.060  1.00  0.00    -0.203 F 
ATOM     69  F   UNL     1       9.083 -15.345   3.978  1.00  0.00    -0.200 F 
ATOM     70  C   UNL     1      11.087 -14.275   3.334  1.00  0.00     0.200 A 
ATOM     71  F   UNL     1      13.066 -13.158   2.695  1.00  0.00    -0.200 F 
ATOM     72  F   UNL     1      11.794 -15.358   3.684  1.00  0.00    -0.200 F 
ENDBRANCH  39  62
ENDBRANCH  13  14
ENDBRANCH   6   8
ENDBRANCH   3   4
ENDBRANCH   2   3
ENDBRANCH   1   2
BRANCH   1  73
ATOM     73  C   UNL     1       4.597   4.222  -0.973  1.00  0.00     0.002 C 
BRANCH  73  74
ATOM     74  C   UNL     1       6.130   4.218  -1.006  1.00  0.00     0.021 C 
BRANCH  74  75
ATOM     75  C   UNL     1       6.709   4.451  -2.399  1.00  0.00     0.116 C 
BRANCH  75  76
ATOM     76  N   UNL     1       6.754   5.859  -2.739  1.00  0.00    -0.356 N 
ATOM     77  C   UNL     1       7.729   6.795  -2.801  1.00  0.00     0.224 C 
ATOM     78  H   UNL     1       5.869   6.217  -2.982  1.00  0.00     0.163 HD
ATOM     79  O   UNL     1       7.354   7.925  -3.145  1.00  0.00    -0.275 OA
BRANCH  77  80
ATOM     80  C   UNL     1       9.227   6.556  -2.548  1.00  0.00     0.092 C 
ATOM     81  C   UNL     1       9.704   5.165  -2.120  1.00  0.00     0.014 C 
ATOM     82  C   UNL     1       9.809   7.690  -1.648  1.00  0.00     0.064 C 
ATOM     83  C   UNL     1      11.210   5.053  -1.911  1.00  0.00     0.001 C 
ATOM     84  C   UNL     1      11.334   7.511  -1.518  1.00  0.00     0.015 C 
ATOM     85  C   UNL     1      11.740   6.139  -0.997  1.00  0.00     0.001 C 
BRANCH  82  86
ATOM     86  S   UNL     1       8.962   7.710   0.006  1.00  0.00    -0.122 SA
BRANCH  86  87
ATOM     87  C   UNL     1       9.577   9.165   0.849  1.00  0.00     0.011 A 
ATOM     88  C   UNL     1      10.381  10.155   0.288  1.00  0.00     0.035 A 
ATOM     89  C   UNL     1       9.225   9.293   2.195  1.00  0.00     0.035 A 
ATOM     90  C   UNL     1      10.861  11.168   1.106  1.00  0.00     0.112 A 
ATOM     91  C   UNL     1       9.730  10.356   2.925  1.00  0.00     0.112 A 
ATOM     92  N   UNL     1      10.558  11.288   2.414  1.00  0.00    -0.265 NA
ENDBRANCH  86  87
ENDBRANCH  82  86
ENDBRANCH  77  80
ENDBRANCH  75  76
ENDBRANCH  74  75
ENDBRANCH  73  74
ENDBRANCH   1  73
TORSDOF 15
