REMARK SMILES [NH3+]CCOCC(=O)Nc1ccc(C(=O)NCCCCCCNC(=O)c2ccc(-c3c4nc(c(-c5c(F)c(F)c(F)c(F)c5F)c5ccc([nH]5)c(-c5c(F)c(F)c(F)c(F)c5F)c5nc(c(-c6c(F)c(F)c(F)c(F)c6F)c6ccc3[nH]6)C=C5)C=C4)cc2)c(Cl)c1
REMARK SMILES IDX 16 1 15 2 13 3 14 4 12 6 9 7 10 8 90 9 11 10 88 11 89 12
REMARK SMILES IDX 8 13 6 14 7 15 5 17 4 18 3 19 2 20 1 21 17 25 18 26 19 27
REMARK SMILES IDX 20 28 21 29 22 30 23 31 24 33 25 34 26 35 87 36 27 37 86 38
REMARK SMILES IDX 28 39 29 40 30 41 80 42 31 43 85 44 79 45 81 46 32 47 84 48
REMARK SMILES IDX 78 49 77 50 33 52 65 53 45 54 64 55 46 56 49 57 63 58 82 59
REMARK SMILES IDX 47 60 48 61 62 63 83 64 50 65 34 66 35 67 43 68 36 69 37 70
REMARK SMILES IDX 41 71 44 72 38 73 39 74 42 75 40 76 66 77 67 78 75 79 68 80
REMARK SMILES IDX 69 81 73 82 76 83 70 84 71 85 74 86 72 87 51 88 52 89 60 90
REMARK SMILES IDX 53 91 54 92 58 93 61 94 55 95 56 96 59 97 57 98
REMARK H PARENT 15 5 8 16 1 22 1 23 1 24 22 32 81 51 49 62
REMARK Flexibility Score: inf
ROOT
ATOM      1  C   UNL     1       1.886   0.641 -10.134  1.00  0.00     0.116 C 
ENDROOT
BRANCH   1   2
ATOM      2  N   UNL     1       0.781   1.205  -9.396  1.00  0.00    -0.352 N 
ATOM      3  C   UNL     1       0.433   1.177  -8.076  1.00  0.00     0.252 C 
ATOM      4  O   UNL     1      -0.698   1.589  -7.804  1.00  0.00    -0.269 OA
ATOM      5  H   UNL     1       0.151   1.712  -9.957  1.00  0.00     0.163 HD
BRANCH   3   6
ATOM      6  C   UNL     1       1.337   0.820  -6.948  1.00  0.00     0.058 A 
ATOM      7  C   UNL     1       2.664   0.321  -4.505  1.00  0.00     0.042 A 
ATOM      8  C   UNL     1       1.780   1.385  -4.606  1.00  0.00     0.027 A 
ATOM      9  C   UNL     1       2.956  -0.440  -5.629  1.00  0.00     0.047 A 
ATOM     10  C   UNL     1       1.149   1.647  -5.821  1.00  0.00     0.017 A 
ATOM     11  C   UNL     1       2.225  -0.256  -6.816  1.00  0.00     0.055 A 
ATOM     12  Cl  UNL     1       2.358  -1.585  -7.905  1.00  0.00    -0.083 Cl
BRANCH   7  13
ATOM     13  N   UNL     1       3.213  -0.075  -3.284  1.00  0.00    -0.324 N 
ATOM     14  C   UNL     1       2.517  -0.392  -2.144  1.00  0.00     0.250 C 
ATOM     15  O   UNL     1       3.139  -0.686  -1.119  1.00  0.00    -0.272 OA
ATOM     16  H   UNL     1       4.195  -0.132  -3.236  1.00  0.00     0.170 HD
BRANCH  14  17
ATOM     17  C   UNL     1       0.974  -0.458  -2.182  1.00  0.00     0.260 C 
BRANCH  17  18
ATOM     18  O   UNL     1       0.211   0.724  -2.042  1.00  0.00    -0.366 OA
BRANCH  18  19
ATOM     19  C   UNL     1       0.694   1.660  -1.081  1.00  0.00     0.222 C 
BRANCH  19  20
ATOM     20  C   UNL     1       0.309   1.337   0.368  1.00  0.00     0.287 C 
BRANCH  20  21
ATOM     21  N   UNL     1       0.960   0.162   0.944  1.00  0.00    -0.356 N 
ATOM     22  H   UNL     1       0.640   0.032   1.903  1.00  0.00     0.344 HD
ATOM     23  H   UNL     1       1.971   0.296   0.937  1.00  0.00     0.344 HD
ATOM     24  H   UNL     1       0.723  -0.663   0.392  1.00  0.00     0.344 HD
ENDBRANCH  20  21
ENDBRANCH  19  20
ENDBRANCH  18  19
ENDBRANCH  17  18
ENDBRANCH  14  17
ENDBRANCH   7  13
ENDBRANCH   3   6
ENDBRANCH   1   2
BRANCH   1  25
ATOM     25  C   UNL     1       1.420  -0.668 -10.784  1.00  0.00     0.021 C 
BRANCH  25  26
ATOM     26  C   UNL     1       0.828  -0.484 -12.182  1.00  0.00     0.002 C 
BRANCH  26  27
ATOM     27  C   UNL     1       1.836  -0.003 -13.228  1.00  0.00     0.002 C 
BRANCH  27  28
ATOM     28  C   UNL     1       3.119  -0.835 -13.312  1.00  0.00     0.021 C 
BRANCH  28  29
ATOM     29  C   UNL     1       2.885  -2.311 -13.622  1.00  0.00     0.116 C 
BRANCH  29  30
ATOM     30  N   UNL     1       2.264  -2.483 -14.926  1.00  0.00    -0.352 N 
ATOM     31  C   UNL     1       2.749  -3.123 -16.032  1.00  0.00     0.251 C 
ATOM     32  H   UNL     1       1.370  -2.083 -15.026  1.00  0.00     0.163 HD
ATOM     33  O   UNL     1       2.233  -2.935 -17.138  1.00  0.00    -0.269 OA
BRANCH  31  34
ATOM     34  C   UNL     1       3.894  -4.042 -15.905  1.00  0.00     0.039 A 
ATOM     35  C   UNL     1       4.914  -3.998 -16.857  1.00  0.00     0.014 A 
ATOM     36  C   UNL     1       3.944  -4.967 -14.856  1.00  0.00     0.014 A 
ATOM     37  C   UNL     1       6.010  -4.853 -16.733  1.00  0.00     0.010 A 
ATOM     38  C   UNL     1       5.069  -5.768 -14.694  1.00  0.00     0.010 A 
ATOM     39  C   UNL     1       6.107  -5.726 -15.637  1.00  0.00    -0.014 A 
BRANCH  39  40
ATOM     40  C   UNL     1       7.283  -6.612 -15.465  1.00  0.00     0.031 A 
ATOM     41  C   UNL     1       7.117  -8.105 -15.531  1.00  0.00     0.074 A 
ATOM     42  C   UNL     1       8.485  -6.073 -15.188  1.00  0.00     0.049 A 
ATOM     43  N   UNL     1       8.007  -9.046 -15.342  1.00  0.00    -0.248 NA
ATOM     44  C   UNL     1       5.764  -8.607 -15.819  1.00  0.00     0.031 C 
ATOM     45  C   UNL     1       8.756  -4.641 -15.052  1.00  0.00     0.029 A 
ATOM     46  N   UNL     1       9.701  -6.665 -14.960  1.00  0.00    -0.354 N 
ATOM     47  C   UNL     1       7.320 -10.246 -15.473  1.00  0.00     0.074 A 
ATOM     48  C   UNL     1       5.931  -9.916 -15.704  1.00  0.00     0.031 C 
ATOM     49  C   UNL     1      10.060  -4.465 -14.784  1.00  0.00     0.029 A 
ATOM     50  C   UNL     1      10.707  -5.770 -14.693  1.00  0.00     0.049 A 
ATOM     51  H   UNL     1       9.839  -7.640 -14.984  1.00  0.00     0.167 HD
ATOM     52  C   UNL     1       7.811 -11.507 -15.429  1.00  0.00     0.037 A 
ATOM     53  C   UNL     1      12.004  -5.981 -14.401  1.00  0.00     0.037 A 
ATOM     54  C   UNL     1       9.200 -11.826 -15.225  1.00  0.00     0.049 A 
ATOM     55  C   UNL     1      12.523  -7.393 -14.357  1.00  0.00     0.074 A 
ATOM     56  C   UNL     1       9.810 -13.068 -15.226  1.00  0.00     0.029 A 
ATOM     57  N   UNL     1      10.195 -10.891 -14.978  1.00  0.00    -0.354 N 
ATOM     58  N   UNL     1      11.880  -8.518 -14.555  1.00  0.00    -0.248 NA
ATOM     59  C   UNL     1      13.951  -7.563 -14.056  1.00  0.00     0.031 C 
ATOM     60  C   UNL     1      11.166 -12.888 -14.932  1.00  0.00     0.029 A 
ATOM     61  C   UNL     1      11.411 -11.531 -14.802  1.00  0.00     0.049 A 
ATOM     62  H   UNL     1      10.057  -9.917 -14.935  1.00  0.00     0.167 HD
ATOM     63  C   UNL     1      12.826  -9.525 -14.431  1.00  0.00     0.074 A 
ATOM     64  C   UNL     1      14.092  -8.877 -14.157  1.00  0.00     0.031 C 
ATOM     65  C   UNL     1      12.662 -10.867 -14.536  1.00  0.00     0.037 A 
BRANCH  52  66
ATOM     66  C   UNL     1       6.840 -12.639 -15.608  1.00  0.00     0.064 A 
ATOM     67  C   UNL     1       6.221 -12.890 -16.843  1.00  0.00     0.173 A 
ATOM     68  C   UNL     1       6.551 -13.505 -14.543  1.00  0.00     0.173 A 
ATOM     69  F   UNL     1       6.453 -12.086 -17.891  1.00  0.00    -0.203 F 
ATOM     70  C   UNL     1       5.328 -13.948 -16.995  1.00  0.00     0.198 A 
ATOM     71  C   UNL     1       5.682 -14.580 -14.707  1.00  0.00     0.198 A 
ATOM     72  F   UNL     1       7.119 -13.314 -13.342  1.00  0.00    -0.203 F 
ATOM     73  F   UNL     1       4.711 -14.138 -18.170  1.00  0.00    -0.200 F 
ATOM     74  C   UNL     1       5.065 -14.796 -15.930  1.00  0.00     0.200 A 
ATOM     75  F   UNL     1       5.439 -15.407 -13.681  1.00  0.00    -0.200 F 
ATOM     76  F   UNL     1       4.212 -15.819 -16.081  1.00  0.00    -0.200 F 
ENDBRANCH  52  66
BRANCH  53  77
ATOM     77  C   UNL     1      12.906  -4.826 -14.153  1.00  0.00     0.064 A 
ATOM     78  C   UNL     1      13.919  -4.495 -15.064  1.00  0.00     0.173 A 
ATOM     79  C   UNL     1      12.777  -4.032 -13.004  1.00  0.00     0.173 A 
ATOM     80  F   UNL     1      14.094  -5.237 -16.168  1.00  0.00    -0.203 F 
ATOM     81  C   UNL     1      14.782  -3.428 -14.825  1.00  0.00     0.198 A 
ATOM     82  C   UNL     1      13.622  -2.947 -12.781  1.00  0.00     0.198 A 
ATOM     83  F   UNL     1      11.819  -4.302 -12.105  1.00  0.00    -0.203 F 
ATOM     84  F   UNL     1      15.771  -3.163 -15.689  1.00  0.00    -0.200 F 
ATOM     85  C   UNL     1      14.629  -2.651 -13.687  1.00  0.00     0.200 A 
ATOM     86  F   UNL     1      13.460  -2.189 -11.688  1.00  0.00    -0.200 F 
ATOM     87  F   UNL     1      15.457  -1.622 -13.459  1.00  0.00    -0.200 F 
ENDBRANCH  53  77
BRANCH  65  88
ATOM     88  C   UNL     1      13.887 -11.722 -14.388  1.00  0.00     0.064 A 
ATOM     89  C   UNL     1      14.515 -11.901 -13.147  1.00  0.00     0.173 A 
ATOM     90  C   UNL     1      14.415 -12.402 -15.496  1.00  0.00     0.173 A 
ATOM     91  F   UNL     1      14.058 -11.261 -12.060  1.00  0.00    -0.203 F 
ATOM     92  C   UNL     1      15.643 -12.709 -13.026  1.00  0.00     0.198 A 
ATOM     93  C   UNL     1      15.523 -13.234 -15.365  1.00  0.00     0.198 A 
ATOM     94  F   UNL     1      13.847 -12.270 -16.704  1.00  0.00    -0.203 F 
ATOM     95  F   UNL     1      16.256 -12.827 -11.840  1.00  0.00    -0.200 F 
ATOM     96  C   UNL     1      16.140 -13.381 -14.133  1.00  0.00     0.200 A 
ATOM     97  F   UNL     1      15.993 -13.894 -16.433  1.00  0.00    -0.200 F 
ATOM     98  F   UNL     1      17.221 -14.165 -14.012  1.00  0.00    -0.200 F 
ENDBRANCH  65  88
ENDBRANCH  39  40
ENDBRANCH  31  34
ENDBRANCH  29  30
ENDBRANCH  28  29
ENDBRANCH  27  28
ENDBRANCH  26  27
ENDBRANCH  25  26
ENDBRANCH   1  25
TORSDOF 19
