REMARK SMILES CC(C)[C@@H](CNC(=O)NCC1C(C)(C)C1(C)C)C(=O)NCCCCCCNC(=O)c1ccc(-c2c3nc(c(-c4c(F)c(F)c(F)c(F)c4F)c4ccc([nH]4)c(-c4c(F)c(F)c(F)c(F)c4F)c4nc(c(-c5c(F)c(F)c(F)c(F)c5F)c5ccc2[nH]5)C=C4)C=C3)cc1
REMARK SMILES IDX 22 1 21 2 20 3 18 4 19 5 4 7 2 8 1 9 3 10 5 11 6 12 7 13
REMARK SMILES IDX 8 15 9 16 10 18 11 19 12 20 15 21 13 22 14 23 16 24 17 25
REMARK SMILES IDX 23 26 24 27 25 28 26 29 27 30 28 31 29 33 30 34 31 35 92 36
REMARK SMILES IDX 32 37 91 38 33 39 34 40 35 41 85 42 36 43 90 44 84 45 86 46
REMARK SMILES IDX 37 47 89 48 83 49 82 50 38 52 70 53 50 54 69 55 51 56 54 57
REMARK SMILES IDX 68 58 87 59 52 60 53 61 67 63 88 64 55 65 39 66 40 67 48 68
REMARK SMILES IDX 41 69 42 70 46 71 49 72 43 73 44 74 47 75 45 76 71 77 72 78
REMARK SMILES IDX 80 79 73 80 74 81 78 82 81 83 75 84 76 85 79 86 77 87 56 88
REMARK SMILES IDX 57 89 65 90 58 91 59 92 63 93 66 94 60 95 61 96 64 97 62 98
REMARK H PARENT 20 6 6 14 9 17 27 32 86 51 54 62
REMARK Flexibility Score: inf
ROOT
ATOM      1  C   UNL     1       0.837   4.680   1.750  1.00  0.00     0.021 C 
ENDROOT
BRANCH   1   2
ATOM      2  C   UNL     1      -0.218   3.589   1.889  1.00  0.00     0.116 C 
BRANCH   2   3
ATOM      3  N   UNL     1      -1.119   3.536   0.758  1.00  0.00    -0.356 N 
ATOM      4  C   UNL     1      -1.490   2.490  -0.027  1.00  0.00     0.225 C 
ATOM      5  O   UNL     1      -2.425   2.678  -0.813  1.00  0.00    -0.275 OA
ATOM      6  H   UNL     1      -1.531   4.397   0.518  1.00  0.00     0.163 HD
BRANCH   4   7
ATOM      7  C   UNL     1      -0.803   1.123   0.023  1.00  0.00     0.100 C 
BRANCH   7   8
ATOM      8  C   UNL     1       0.734   1.155  -0.201  1.00  0.00    -0.003 C 
ATOM      9  C   UNL     1       1.342  -0.253  -0.257  1.00  0.00     0.008 C 
ATOM     10  C   UNL     1       1.073   1.887  -1.509  1.00  0.00     0.008 C 
ENDBRANCH   7   8
BRANCH   7  11
ATOM     11  C   UNL     1      -1.325   0.233   1.166  1.00  0.00     0.131 C 
BRANCH  11  12
ATOM     12  N   UNL     1      -1.249   0.749   2.510  1.00  0.00    -0.337 N 
ATOM     13  C   UNL     1      -2.144   1.297   3.340  1.00  0.00     0.314 C 
ATOM     14  H   UNL     1      -0.348   0.683   2.900  1.00  0.00     0.165 HD
ATOM     15  O   UNL     1      -1.736   1.656   4.449  1.00  0.00    -0.249 OA
ATOM     16  N   UNL     1      -3.429   1.507   3.053  1.00  0.00    -0.338 N 
ATOM     17  H   UNL     1      -3.906   1.917   3.810  1.00  0.00     0.165 HD
BRANCH  16  18
ATOM     18  C   UNL     1      -4.309   1.290   1.919  1.00  0.00     0.122 C 
BRANCH  18  19
ATOM     19  C   UNL     1      -5.280   0.190   2.227  1.00  0.00     0.021 C 
ATOM     20  C   UNL     1      -6.280  -0.285   1.180  1.00  0.00    -0.025 C 
ATOM     21  C   UNL     1      -5.238  -1.269   1.751  1.00  0.00    -0.025 C 
ATOM     22  C   UNL     1      -7.727  -0.388   1.611  1.00  0.00     0.012 C 
ATOM     23  C   UNL     1      -6.160   0.192  -0.255  1.00  0.00     0.012 C 
ATOM     24  C   UNL     1      -4.173  -1.817   0.834  1.00  0.00     0.012 C 
ATOM     25  C   UNL     1      -5.677  -2.319   2.756  1.00  0.00     0.012 C 
ENDBRANCH  18  19
ENDBRANCH  16  18
ENDBRANCH  11  12
ENDBRANCH   7  11
ENDBRANCH   4   7
ENDBRANCH   2   3
ENDBRANCH   1   2
BRANCH   1  26
ATOM     26  C   UNL     1       0.317   6.100   1.990  1.00  0.00     0.002 C 
BRANCH  26  27
ATOM     27  C   UNL     1      -0.439   6.320   3.306  1.00  0.00     0.002 C 
BRANCH  27  28
ATOM     28  C   UNL     1       0.264   5.824   4.574  1.00  0.00     0.021 C 
BRANCH  28  29
ATOM     29  C   UNL     1       1.663   6.383   4.808  1.00  0.00     0.116 C 
BRANCH  29  30
ATOM     30  N   UNL     1       1.673   7.832   4.902  1.00  0.00    -0.352 N 
ATOM     31  C   UNL     1       2.238   8.650   5.846  1.00  0.00     0.251 C 
ATOM     32  H   UNL     1       1.202   8.299   4.176  1.00  0.00     0.163 HD
ATOM     33  O   UNL     1       1.996   9.852   5.834  1.00  0.00    -0.269 OA
BRANCH  31  34
ATOM     34  C   UNL     1       3.124   8.095   6.894  1.00  0.00     0.039 A 
ATOM     35  C   UNL     1       2.997   8.584   8.197  1.00  0.00     0.014 A 
ATOM     36  C   UNL     1       4.102   7.139   6.600  1.00  0.00     0.014 A 
ATOM     37  C   UNL     1       3.817   8.086   9.211  1.00  0.00     0.010 A 
ATOM     38  C   UNL     1       4.875   6.594   7.625  1.00  0.00     0.010 A 
ATOM     39  C   UNL     1       4.746   7.069   8.939  1.00  0.00    -0.014 A 
BRANCH  39  40
ATOM     40  C   UNL     1       5.583   6.500  10.026  1.00  0.00     0.031 A 
ATOM     41  C   UNL     1       7.074   6.693  10.024  1.00  0.00     0.074 A 
ATOM     42  C   UNL     1       4.998   5.777  11.000  1.00  0.00     0.049 A 
ATOM     43  N   UNL     1       7.965   6.266  10.883  1.00  0.00    -0.248 NA
ATOM     44  C   UNL     1       7.644   7.444   8.895  1.00  0.00     0.031 C 
ATOM     45  C   UNL     1       3.569   5.471  11.081  1.00  0.00     0.029 A 
ATOM     46  N   UNL     1       5.532   5.164  12.106  1.00  0.00    -0.354 N 
ATOM     47  C   UNL     1       9.195   6.686  10.395  1.00  0.00     0.074 A 
ATOM     48  C   UNL     1       8.944   7.358   9.139  1.00  0.00     0.031 C 
ATOM     49  C   UNL     1       3.336   4.751  12.190  1.00  0.00     0.029 A 
ATOM     50  C   UNL     1       4.600   4.519  12.881  1.00  0.00     0.049 A 
ATOM     51  H   UNL     1       6.493   5.184  12.322  1.00  0.00     0.167 HD
ATOM     52  C   UNL     1      10.420   6.545  10.957  1.00  0.00     0.037 A 
ATOM     53  C   UNL     1       4.749   3.820  14.022  1.00  0.00     0.037 A 
ATOM     54  C   UNL     1      10.664   5.899  12.220  1.00  0.00     0.049 A 
ATOM     55  C   UNL     1       6.119   3.693  14.632  1.00  0.00     0.074 A 
ATOM     56  C   UNL     1      11.860   5.764  12.905  1.00  0.00     0.029 A 
ATOM     57  N   UNL     1       9.692   5.276  12.989  1.00  0.00    -0.354 N 
ATOM     58  N   UNL     1       7.263   4.165  14.201  1.00  0.00    -0.248 NA
ATOM     59  C   UNL     1       6.214   2.947  15.894  1.00  0.00     0.031 C 
ATOM     60  C   UNL     1      11.619   5.021  14.065  1.00  0.00     0.029 A 
ATOM     61  C   UNL     1      10.265   4.736  14.130  1.00  0.00     0.049 A 
ATOM     62  H   UNL     1       8.736   5.226  12.758  1.00  0.00     0.167 HD
ATOM     63  C   UNL     1       8.209   3.795  15.148  1.00  0.00     0.074 A 
ATOM     64  C   UNL     1       7.499   3.078  16.188  1.00  0.00     0.031 C 
ATOM     65  C   UNL     1       9.544   4.026  15.156  1.00  0.00     0.037 A 
BRANCH  52  66
ATOM     66  C   UNL     1      11.597   7.105  10.210  1.00  0.00     0.064 A 
ATOM     67  C   UNL     1      11.799   8.489  10.086  1.00  0.00     0.173 A 
ATOM     68  C   UNL     1      12.560   6.250   9.653  1.00  0.00     0.173 A 
ATOM     69  F   UNL     1      10.904   9.350  10.592  1.00  0.00    -0.203 F 
ATOM     70  C   UNL     1      12.907   8.994   9.410  1.00  0.00     0.198 A 
ATOM     71  C   UNL     1      13.681   6.759   9.003  1.00  0.00     0.198 A 
ATOM     72  F   UNL     1      12.419   4.919   9.748  1.00  0.00    -0.203 F 
ATOM     73  F   UNL     1      13.055  10.318   9.266  1.00  0.00    -0.200 F 
ATOM     74  C   UNL     1      13.851   8.130   8.876  1.00  0.00     0.200 A 
ATOM     75  F   UNL     1      14.599   5.923   8.499  1.00  0.00    -0.200 F 
ATOM     76  F   UNL     1      14.921   8.618   8.234  1.00  0.00    -0.200 F 
ENDBRANCH  52  66
BRANCH  53  77
ATOM     77  C   UNL     1       3.564   3.210  14.678  1.00  0.00     0.064 A 
ATOM     78  C   UNL     1       3.080   3.705  15.897  1.00  0.00     0.173 A 
ATOM     79  C   UNL     1       2.896   2.117  14.106  1.00  0.00     0.173 A 
ATOM     80  F   UNL     1       3.698   4.736  16.493  1.00  0.00    -0.203 F 
ATOM     81  C   UNL     1       1.987   3.117  16.530  1.00  0.00     0.198 A 
ATOM     82  C   UNL     1       1.786   1.548  14.726  1.00  0.00     0.198 A 
ATOM     83  F   UNL     1       3.317   1.608  12.939  1.00  0.00    -0.203 F 
ATOM     84  F   UNL     1       1.576   3.580  17.718  1.00  0.00    -0.200 F 
ATOM     85  C   UNL     1       1.338   2.042  15.942  1.00  0.00     0.200 A 
ATOM     86  F   UNL     1       1.153   0.518  14.148  1.00  0.00    -0.200 F 
ATOM     87  F   UNL     1       0.286   1.478  16.550  1.00  0.00    -0.200 F 
ENDBRANCH  53  77
BRANCH  65  88
ATOM     88  C   UNL     1      10.319   3.521  16.338  1.00  0.00     0.064 A 
ATOM     89  C   UNL     1      10.549   2.151  16.537  1.00  0.00     0.173 A 
ATOM     90  C   UNL     1      10.857   4.419  17.272  1.00  0.00     0.173 A 
ATOM     91  F   UNL     1      10.043   1.251  15.680  1.00  0.00    -0.203 F 
ATOM     92  C   UNL     1      11.261   1.698  17.644  1.00  0.00     0.198 A 
ATOM     93  C   UNL     1      11.595   3.965  18.361  1.00  0.00     0.198 A 
ATOM     94  F   UNL     1      10.673   5.740  17.124  1.00  0.00    -0.203 F 
ATOM     95  F   UNL     1      11.420   0.382  17.843  1.00  0.00    -0.200 F 
ATOM     96  C   UNL     1      11.788   2.605  18.552  1.00  0.00     0.200 A 
ATOM     97  F   UNL     1      12.116   4.843  19.230  1.00  0.00    -0.200 F 
ATOM     98  F   UNL     1      12.475   2.167  19.616  1.00  0.00    -0.200 F 
ENDBRANCH  65  88
ENDBRANCH  39  40
ENDBRANCH  31  34
ENDBRANCH  29  30
ENDBRANCH  28  29
ENDBRANCH  27  28
ENDBRANCH  26  27
ENDBRANCH   1  26
TORSDOF 18
