REMARK SMILES C[C@@H](C(=O)NCCCCCCNC(=O)c1ccc(-c2c3nc(c(-c4c(F)c(F)c(F)c(F)c4F)c4ccc([nH]4)c(-c4c(F)c(F)c(F)c(F)c4F)c4nc(c(-c5c(F)c(F)c(F)c(F)c5F)c5ccc2[nH]5)C=C4)C=C3)cc1)c1ccc(C[C@H]2CCCC2=O)c(-c2ccc(F)cc2)c1
REMARK SMILES IDX 8 1 7 2 6 3 5 4 3 5 4 6 2 8 1 9 78 10 79 11 97 12 80 13
REMARK SMILES IDX 89 14 81 15 90 16 91 17 96 18 92 19 95 20 93 21 94 22 82 23
REMARK SMILES IDX 83 24 84 25 87 26 85 27 86 28 88 29 9 30 10 31 11 32 12 33
REMARK SMILES IDX 13 34 14 36 15 37 16 38 77 39 17 40 76 41 18 42 19 43 20 44
REMARK SMILES IDX 70 45 21 46 75 47 69 48 71 49 22 50 74 51 68 52 67 53 23 55
REMARK SMILES IDX 55 56 35 57 54 58 36 59 39 60 53 61 72 62 37 63 38 64 52 66
REMARK SMILES IDX 73 67 40 68 24 69 25 70 33 71 26 72 27 73 31 74 34 75 28 76
REMARK SMILES IDX 29 77 32 78 30 79 56 80 57 81 65 82 58 83 59 84 63 85 66 86
REMARK SMILES IDX 60 87 61 88 64 89 62 90 41 91 42 92 50 93 43 94 44 95 48 96
REMARK SMILES IDX 51 97 45 98 46 99 49 100 47 101
REMARK H PARENT 5 7 12 35 71 54 39 65
REMARK Flexibility Score: inf
ROOT
ATOM      1  C   UNL     1       4.950   1.458  -2.399  1.00  0.00     0.002 C 
ENDROOT
BRANCH   1   2
ATOM      2  C   UNL     1       4.210   0.944  -1.157  1.00  0.00     0.021 C 
BRANCH   2   3
ATOM      3  C   UNL     1       3.325   1.993  -0.477  1.00  0.00     0.116 C 
BRANCH   3   4
ATOM      4  N   UNL     1       2.220   2.352  -1.342  1.00  0.00    -0.356 N 
ATOM      5  C   UNL     1       0.932   1.900  -1.351  1.00  0.00     0.227 C 
ATOM      6  O   UNL     1       0.265   2.152  -2.356  1.00  0.00    -0.274 OA
ATOM      7  H   UNL     1       2.430   3.026  -2.028  1.00  0.00     0.163 HD
BRANCH   5   8
ATOM      8  C   UNL     1       0.368   1.160  -0.123  1.00  0.00     0.105 C 
ATOM      9  C   UNL     1       0.913  -0.273  -0.066  1.00  0.00     0.023 C 
BRANCH   8  10
ATOM     10  C   UNL     1      -1.161   1.239  -0.053  1.00  0.00    -0.035 A 
ATOM     11  C   UNL     1      -1.798   2.483  -0.104  1.00  0.00     0.005 A 
ATOM     12  C   UNL     1      -1.975   0.105   0.079  1.00  0.00     0.013 A 
ATOM     13  C   UNL     1      -3.189   2.579  -0.044  1.00  0.00     0.004 A 
ATOM     14  C   UNL     1      -3.383   0.173   0.185  1.00  0.00    -0.015 A 
ATOM     15  C   UNL     1      -4.000   1.441   0.130  1.00  0.00    -0.039 A 
BRANCH  14  16
ATOM     16  C   UNL     1      -4.104  -1.102   0.351  1.00  0.00    -0.018 A 
ATOM     17  C   UNL     1      -4.975  -1.588  -0.638  1.00  0.00     0.012 A 
ATOM     18  C   UNL     1      -3.867  -1.906   1.484  1.00  0.00     0.012 A 
ATOM     19  C   UNL     1      -5.612  -2.823  -0.487  1.00  0.00     0.040 A 
ATOM     20  C   UNL     1      -4.492  -3.145   1.630  1.00  0.00     0.040 A 
ATOM     21  C   UNL     1      -5.363  -3.589   0.645  1.00  0.00     0.123 A 
ATOM     22  F   UNL     1      -5.963  -4.778   0.784  1.00  0.00    -0.207 F 
ENDBRANCH  14  16
BRANCH  15  23
ATOM     23  C   UNL     1      -5.496   1.651   0.266  1.00  0.00     0.047 C 
BRANCH  23  24
ATOM     24  C   UNL     1      -6.004   2.199   1.606  1.00  0.00     0.060 C 
ATOM     25  C   UNL     1      -5.543   1.470   2.871  1.00  0.00     0.012 C 
ATOM     26  C   UNL     1      -5.542   3.613   1.874  1.00  0.00     0.136 C 
ATOM     27  C   UNL     1      -4.358   2.263   3.407  1.00  0.00     0.009 C 
ATOM     28  C   UNL     1      -4.686   3.719   3.108  1.00  0.00     0.076 C 
ATOM     29  O   UNL     1      -5.847   4.575   1.178  1.00  0.00    -0.299 OA
ENDBRANCH  23  24
ENDBRANCH  15  23
ENDBRANCH   8  10
ENDBRANCH   5   8
ENDBRANCH   3   4
ENDBRANCH   2   3
ENDBRANCH   1   2
BRANCH   1  30
ATOM     30  C   UNL     1       5.913   2.620  -2.143  1.00  0.00     0.002 C 
BRANCH  30  31
ATOM     31  C   UNL     1       6.971   2.358  -1.069  1.00  0.00     0.021 C 
BRANCH  31  32
ATOM     32  C   UNL     1       7.860   1.143  -1.325  1.00  0.00     0.116 C 
BRANCH  32  33
ATOM     33  N   UNL     1       8.652   1.287  -2.535  1.00  0.00    -0.352 N 
ATOM     34  C   UNL     1       9.996   1.107  -2.723  1.00  0.00     0.251 C 
ATOM     35  H   UNL     1       8.148   1.553  -3.338  1.00  0.00     0.163 HD
ATOM     36  O   UNL     1      10.519   1.451  -3.784  1.00  0.00    -0.269 OA
BRANCH  34  37
ATOM     37  C   UNL     1      10.833   0.521  -1.656  1.00  0.00     0.039 A 
ATOM     38  C   UNL     1      12.082   1.092  -1.396  1.00  0.00     0.014 A 
ATOM     39  C   UNL     1      10.416  -0.606  -0.939  1.00  0.00     0.014 A 
ATOM     40  C   UNL     1      12.892   0.564  -0.389  1.00  0.00     0.010 A 
ATOM     41  C   UNL     1      11.198  -1.095   0.106  1.00  0.00     0.010 A 
ATOM     42  C   UNL     1      12.446  -0.519   0.386  1.00  0.00    -0.014 A 
BRANCH  42  43
ATOM     43  C   UNL     1      13.286  -1.056   1.487  1.00  0.00     0.031 A 
ATOM     44  C   UNL     1      13.881  -2.432   1.389  1.00  0.00     0.074 A 
ATOM     45  C   UNL     1      13.486  -0.310   2.591  1.00  0.00     0.049 A 
ATOM     46  N   UNL     1      14.628  -3.074   2.253  1.00  0.00    -0.248 NA
ATOM     47  C   UNL     1      13.581  -3.199   0.170  1.00  0.00     0.031 C 
ATOM     48  C   UNL     1      12.917   1.017   2.827  1.00  0.00     0.029 A 
ATOM     49  N   UNL     1      14.218  -0.566   3.723  1.00  0.00    -0.354 N 
ATOM     50  C   UNL     1      14.885  -4.313   1.683  1.00  0.00     0.074 A 
ATOM     51  C   UNL     1      14.170  -4.358   0.426  1.00  0.00     0.031 C 
ATOM     52  C   UNL     1      13.335   1.468   4.021  1.00  0.00     0.029 A 
ATOM     53  C   UNL     1      14.182   0.454   4.642  1.00  0.00     0.049 A 
ATOM     54  H   UNL     1      14.721  -1.400   3.862  1.00  0.00     0.167 HD
ATOM     55  C   UNL     1      15.669  -5.313   2.153  1.00  0.00     0.037 A 
ATOM     56  C   UNL     1      14.770   0.559   5.849  1.00  0.00     0.037 A 
ATOM     57  C   UNL     1      16.393  -5.264   3.396  1.00  0.00     0.049 A 
ATOM     58  C   UNL     1      15.651  -0.558   6.337  1.00  0.00     0.074 A 
ATOM     59  C   UNL     1      17.235  -6.216   3.946  1.00  0.00     0.029 A 
ATOM     60  N   UNL     1      16.362  -4.198   4.284  1.00  0.00    -0.354 N 
ATOM     61  N   UNL     1      15.932  -1.702   5.762  1.00  0.00    -0.248 NA
ATOM     62  C   UNL     1      16.311  -0.361   7.635  1.00  0.00     0.031 C 
ATOM     63  C   UNL     1      17.692  -5.737   5.179  1.00  0.00     0.029 A 
ATOM     64  C   UNL     1      17.165  -4.471   5.379  1.00  0.00     0.049 A 
ATOM     65  H   UNL     1      15.846  -3.370   4.154  1.00  0.00     0.167 HD
ATOM     66  C   UNL     1      16.813  -2.351   6.615  1.00  0.00     0.074 A 
ATOM     67  C   UNL     1      17.039  -1.464   7.737  1.00  0.00     0.031 C 
ATOM     68  C   UNL     1      17.381  -3.575   6.484  1.00  0.00     0.037 A 
BRANCH  55  69
ATOM     69  C   UNL     1      15.801  -6.545   1.305  1.00  0.00     0.064 A 
ATOM     70  C   UNL     1      16.535  -6.530   0.109  1.00  0.00     0.173 A 
ATOM     71  C   UNL     1      15.227  -7.759   1.709  1.00  0.00     0.173 A 
ATOM     72  F   UNL     1      17.092  -5.390  -0.327  1.00  0.00    -0.203 F 
ATOM     73  C   UNL     1      16.670  -7.680  -0.663  1.00  0.00     0.198 A 
ATOM     74  C   UNL     1      15.387  -8.914   0.947  1.00  0.00     0.198 A 
ATOM     75  F   UNL     1      14.520  -7.828   2.846  1.00  0.00    -0.203 F 
ATOM     76  F   UNL     1      17.340  -7.632  -1.823  1.00  0.00    -0.200 F 
ATOM     77  C   UNL     1      16.102  -8.873  -0.240  1.00  0.00     0.200 A 
ATOM     78  F   UNL     1      14.847 -10.069   1.362  1.00  0.00    -0.200 F 
ATOM     79  F   UNL     1      16.240  -9.981  -0.980  1.00  0.00    -0.200 F 
ENDBRANCH  55  69
BRANCH  56  80
ATOM     80  C   UNL     1      14.565   1.780   6.668  1.00  0.00     0.064 A 
ATOM     81  C   UNL     1      15.605   2.698   6.867  1.00  0.00     0.173 A 
ATOM     82  C   UNL     1      13.331   2.049   7.276  1.00  0.00     0.173 A 
ATOM     83  F   UNL     1      16.810   2.473   6.322  1.00  0.00    -0.203 F 
ATOM     84  C   UNL     1      15.426   3.828   7.663  1.00  0.00     0.198 A 
ATOM     85  C   UNL     1      13.144   3.193   8.049  1.00  0.00     0.198 A 
ATOM     86  F   UNL     1      12.302   1.205   7.110  1.00  0.00    -0.203 F 
ATOM     87  F   UNL     1      16.450   4.665   7.875  1.00  0.00    -0.200 F 
ATOM     88  C   UNL     1      14.194   4.077   8.249  1.00  0.00     0.200 A 
ATOM     89  F   UNL     1      11.948   3.437   8.603  1.00  0.00    -0.200 F 
ATOM     90  F   UNL     1      14.021   5.163   9.014  1.00  0.00    -0.200 F 
ENDBRANCH  56  80
BRANCH  68  91
ATOM     91  C   UNL     1      18.318  -4.012   7.571  1.00  0.00     0.064 A 
ATOM     92  C   UNL     1      17.846  -4.388   8.837  1.00  0.00     0.173 A 
ATOM     93  C   UNL     1      19.699  -4.076   7.336  1.00  0.00     0.173 A 
ATOM     94  F   UNL     1      16.535  -4.328   9.114  1.00  0.00    -0.203 F 
ATOM     95  C   UNL     1      18.728  -4.786   9.839  1.00  0.00     0.198 A 
ATOM     96  C   UNL     1      20.575  -4.500   8.332  1.00  0.00     0.198 A 
ATOM     97  F   UNL     1      20.199  -3.732   6.140  1.00  0.00    -0.203 F 
ATOM     98  F   UNL     1      18.260  -5.094  11.056  1.00  0.00    -0.200 F 
ATOM     99  C   UNL     1      20.090  -4.846   9.584  1.00  0.00     0.200 A 
ATOM    100  F   UNL     1      21.890  -4.567   8.081  1.00  0.00    -0.200 F 
ATOM    101  F   UNL     1      20.937  -5.230  10.549  1.00  0.00    -0.200 F 
ENDBRANCH  68  91
ENDBRANCH  42  43
ENDBRANCH  34  37
ENDBRANCH  32  33
ENDBRANCH  31  32
ENDBRANCH  30  31
ENDBRANCH   1  30
TORSDOF 17
