REMARK SMILES CC1=C(C#N)c2nc(N)c(C#N)c(C)c2/C1=C/c1ccc(-c2ccc(C(=O)NCCCCCCNC(=O)c3ccc(-c4c5nc(c(-c6c(F)c(F)c(F)c(F)c6F)c6ccc([nH]6)c(-c6c(F)c(F)c(F)c(F)c6F)c6nc(c(-c7c(F)c(F)c(F)c(F)c7F)c7ccc4[nH]7)C=C6)C=C5)cc3)cc2)o1
REMARK SMILES IDX 31 1 30 2 29 3 28 4 26 5 27 6 25 8 22 9 23 10 102 11 24 12
REMARK SMILES IDX 101 13 21 14 18 15 19 16 103 17 20 18 17 19 1 20 2 21 3 22
REMARK SMILES IDX 16 23 6 24 15 25 7 26 13 27 8 28 10 29 14 30 4 31 5 32 9 33
REMARK SMILES IDX 11 36 12 37 32 38 33 39 34 40 35 41 36 42 37 44 38 45 39 46
REMARK SMILES IDX 100 47 40 48 99 49 41 50 42 51 43 52 93 53 44 54 98 55 92 56
REMARK SMILES IDX 94 57 45 58 97 59 91 60 90 61 46 63 78 64 58 65 77 66 59 67
REMARK SMILES IDX 62 68 76 69 95 70 60 71 61 72 75 74 96 75 63 76 47 77 48 78
REMARK SMILES IDX 56 79 49 80 50 81 54 82 57 83 51 84 52 85 55 86 53 87 79 88
REMARK SMILES IDX 80 89 88 90 81 91 82 92 86 93 89 94 83 95 84 96 87 97 85 98
REMARK SMILES IDX 64 99 65 100 73 101 66 102 67 103 71 104 74 105 68 106
REMARK SMILES IDX 69 107 72 108 70 109
REMARK H PARENT 28 7 9 34 9 35 35 43 94 62 62 73
REMARK Flexibility Score: inf
ROOT
ATOM      1  C   UNL     1      -3.993  11.282   2.037  1.00  0.00     0.002 C 
ENDROOT
BRANCH   1   2
ATOM      2  C   UNL     1      -3.193  10.096   1.479  1.00  0.00     0.021 C 
BRANCH   2   3
ATOM      3  C   UNL     1      -2.616   9.221   2.594  1.00  0.00     0.116 C 
BRANCH   3   4
ATOM      4  N   UNL     1      -3.628   8.296   3.059  1.00  0.00    -0.352 N 
ATOM      5  C   UNL     1      -3.897   6.981   2.793  1.00  0.00     0.251 C 
ATOM      6  O   UNL     1      -4.886   6.491   3.338  1.00  0.00    -0.269 OA
ATOM      7  H   UNL     1      -4.256   8.698   3.702  1.00  0.00     0.163 HD
BRANCH   5   8
ATOM      8  C   UNL     1      -3.034   6.113   1.942  1.00  0.00     0.039 A 
ATOM      9  C   UNL     1      -1.340   4.336   0.573  1.00  0.00     0.017 A 
ATOM     10  C   UNL     1      -2.363   3.835   1.380  1.00  0.00     0.013 A 
ATOM     11  C   UNL     1      -1.214   5.712   0.398  1.00  0.00     0.013 A 
ATOM     12  C   UNL     1      -3.189   4.722   2.078  1.00  0.00     0.014 A 
ATOM     13  C   UNL     1      -2.091   6.585   1.030  1.00  0.00     0.014 A 
BRANCH   9  14
ATOM     14  C   UNL     1      -0.426   3.489  -0.149  1.00  0.00     0.134 A 
ATOM     15  C   UNL     1       0.002   1.962  -1.669  1.00  0.00     0.128 A 
ATOM     16  C   UNL     1       1.211   2.544  -1.314  1.00  0.00     0.051 A 
ATOM     17  O   UNL     1      -0.997   2.566  -0.957  1.00  0.00    -0.457 OA
ATOM     18  C   UNL     1       0.941   3.491  -0.305  1.00  0.00     0.051 A 
BRANCH  15  19
ATOM     19  C   UNL     1      -0.252   0.913  -2.574  1.00  0.00     0.056 C 
ATOM     20  C   UNL     1       0.900  -0.214   0.235  1.00  0.00     0.046 C 
ATOM     21  C   UNL     1       0.585  -0.928  -1.043  1.00  0.00    -0.023 C 
ATOM     22  C   UNL     1       0.741  -2.253  -1.212  1.00  0.00     0.082 C 
ATOM     23  C   UNL     1       0.033  -0.366  -2.290  1.00  0.00    -0.008 C 
ATOM     24  C   UNL     1       0.295  -2.626  -2.551  1.00  0.00     0.092 A 
ATOM     25  C   UNL     1      -0.161  -1.491  -3.237  1.00  0.00     0.014 A 
ATOM     26  N   UNL     1       0.338  -3.873  -3.045  1.00  0.00    -0.228 NA
ATOM     27  C   UNL     1      -0.624  -1.635  -4.545  1.00  0.00    -0.019 A 
ATOM     28  C   UNL     1      -0.105  -4.020  -4.313  1.00  0.00     0.142 A 
ATOM     29  C   UNL     1      -0.583  -2.942  -5.090  1.00  0.00     0.098 A 
ATOM     30  C   UNL     1      -1.129  -0.467  -5.346  1.00  0.00     0.046 C 
BRANCH  22  31
ATOM     31  C   UNL     1       1.304  -3.150  -0.121  1.00  0.00     0.102 C 
ATOM     32  N   UNL     1       1.771  -3.894   0.783  1.00  0.00    -0.192 NA
ENDBRANCH  22  31
BRANCH  28  33
ATOM     33  N   UNL     1       0.038  -5.294  -4.827  1.00  0.00    -0.383 N 
ATOM     34  H   UNL     1       0.375  -6.020  -4.254  1.00  0.00     0.158 HD
ATOM     35  H   UNL     1      -0.196  -5.475  -5.766  1.00  0.00     0.158 HD
ENDBRANCH  28  33
BRANCH  29  36
ATOM     36  C   UNL     1      -1.025  -3.198  -6.433  1.00  0.00     0.103 C 
ATOM     37  N   UNL     1      -1.401  -3.396  -7.511  1.00  0.00    -0.192 NA
ENDBRANCH  29  36
ENDBRANCH  15  19
ENDBRANCH   9  14
ENDBRANCH   5   8
ENDBRANCH   3   4
ENDBRANCH   2   3
ENDBRANCH   1   2
BRANCH   1  38
ATOM     38  C   UNL     1      -3.174  12.218   2.936  1.00  0.00     0.002 C 
BRANCH  38  39
ATOM     39  C   UNL     1      -1.892  12.742   2.287  1.00  0.00     0.021 C 
BRANCH  39  40
ATOM     40  C   UNL     1      -2.152  13.570   1.037  1.00  0.00     0.116 C 
BRANCH  40  41
ATOM     41  N   UNL     1      -2.929  14.760   1.350  1.00  0.00    -0.352 N 
ATOM     42  C   UNL     1      -2.564  16.077   1.253  1.00  0.00     0.251 C 
ATOM     43  H   UNL     1      -3.843  14.596   1.677  1.00  0.00     0.163 HD
ATOM     44  O   UNL     1      -3.211  16.951   1.818  1.00  0.00    -0.269 OA
BRANCH  42  45
ATOM     45  C   UNL     1      -1.371  16.428   0.461  1.00  0.00     0.039 A 
ATOM     46  C   UNL     1      -0.457  17.346   0.979  1.00  0.00     0.014 A 
ATOM     47  C   UNL     1      -1.160  15.839  -0.790  1.00  0.00     0.014 A 
ATOM     48  C   UNL     1       0.700  17.636   0.258  1.00  0.00     0.010 A 
ATOM     49  C   UNL     1       0.033  16.062  -1.463  1.00  0.00     0.010 A 
ATOM     50  C   UNL     1       0.967  16.974  -0.953  1.00  0.00    -0.014 A 
BRANCH  50  51
ATOM     51  C   UNL     1       2.206  17.253  -1.718  1.00  0.00     0.031 A 
ATOM     52  C   UNL     1       2.114  17.882  -3.080  1.00  0.00     0.074 A 
ATOM     53  C   UNL     1       3.402  16.924  -1.194  1.00  0.00     0.049 A 
ATOM     54  N   UNL     1       3.074  18.176  -3.919  1.00  0.00    -0.248 NA
ATOM     55  C   UNL     1       0.766  18.213  -3.574  1.00  0.00     0.031 C 
ATOM     56  C   UNL     1       3.609  16.294   0.111  1.00  0.00     0.029 A 
ATOM     57  N   UNL     1       4.672  17.083  -1.690  1.00  0.00    -0.354 N 
ATOM     58  C   UNL     1       2.448  18.735  -5.025  1.00  0.00     0.074 A 
ATOM     59  C   UNL     1       1.024  18.671  -4.790  1.00  0.00     0.031 C 
ATOM     60  C   UNL     1       4.927  16.160   0.331  1.00  0.00     0.029 A 
ATOM     61  C   UNL     1       5.657  16.649  -0.835  1.00  0.00     0.049 A 
ATOM     62  H   UNL     1       4.860  17.471  -2.575  1.00  0.00     0.167 HD
ATOM     63  C   UNL     1       3.016  19.291  -6.119  1.00  0.00     0.037 A 
ATOM     64  C   UNL     1       6.996  16.647  -0.981  1.00  0.00     0.037 A 
ATOM     65  C   UNL     1       4.434  19.369  -6.340  1.00  0.00     0.049 A 
ATOM     66  C   UNL     1       7.590  17.201  -2.251  1.00  0.00     0.074 A 
ATOM     67  C   UNL     1       5.106  19.923  -7.415  1.00  0.00     0.029 A 
ATOM     68  N   UNL     1       5.398  18.885  -5.469  1.00  0.00    -0.354 N 
ATOM     69  N   UNL     1       6.990  17.770  -3.268  1.00  0.00    -0.248 NA
ATOM     70  C   UNL     1       9.051  17.113  -2.392  1.00  0.00     0.031 C 
ATOM     71  C   UNL     1       6.475  19.729  -7.219  1.00  0.00     0.029 A 
ATOM     72  C   UNL     1       6.660  19.110  -5.994  1.00  0.00     0.049 A 
ATOM     73  H   UNL     1       5.213  18.448  -4.606  1.00  0.00     0.167 HD
ATOM     74  C   UNL     1       7.999  18.142  -4.147  1.00  0.00     0.074 A 
ATOM     75  C   UNL     1       9.251  17.753  -3.534  1.00  0.00     0.031 C 
ATOM     76  C   UNL     1       7.898  18.743  -5.357  1.00  0.00     0.037 A 
BRANCH  63  77
ATOM     77  C   UNL     1       2.115  19.901  -7.151  1.00  0.00     0.064 A 
ATOM     78  C   UNL     1       1.433  21.101  -6.898  1.00  0.00     0.173 A 
ATOM     79  C   UNL     1       2.022  19.351  -8.438  1.00  0.00     0.173 A 
ATOM     80  F   UNL     1       1.478  21.660  -5.679  1.00  0.00    -0.203 F 
ATOM     81  C   UNL     1       0.694  21.729  -7.897  1.00  0.00     0.198 A 
ATOM     82  C   UNL     1       1.308  19.997  -9.443  1.00  0.00     0.198 A 
ATOM     83  F   UNL     1       2.658  18.206  -8.732  1.00  0.00    -0.203 F 
ATOM     84  F   UNL     1       0.036  22.864  -7.627  1.00  0.00    -0.200 F 
ATOM     85  C   UNL     1       0.645  21.186  -9.171  1.00  0.00     0.200 A 
ATOM     86  F   UNL     1       1.276  19.481 -10.679  1.00  0.00    -0.200 F 
ATOM     87  F   UNL     1      -0.037  21.810 -10.141  1.00  0.00    -0.200 F 
ENDBRANCH  63  77
BRANCH  64  88
ATOM     88  C   UNL     1       7.875  16.132   0.104  1.00  0.00     0.064 A 
ATOM     89  C   UNL     1       8.771  16.985   0.767  1.00  0.00     0.173 A 
ATOM     90  C   UNL     1       7.871  14.780   0.477  1.00  0.00     0.173 A 
ATOM     91  F   UNL     1       8.828  18.283   0.435  1.00  0.00    -0.203 F 
ATOM     92  C   UNL     1       9.650  16.500   1.732  1.00  0.00     0.198 A 
ATOM     93  C   UNL     1       8.725  14.303   1.471  1.00  0.00     0.198 A 
ATOM     94  F   UNL     1       7.034  13.918  -0.119  1.00  0.00    -0.203 F 
ATOM     95  F   UNL     1      10.540  17.326   2.300  1.00  0.00    -0.200 F 
ATOM     96  C   UNL     1       9.623  15.160   2.087  1.00  0.00     0.200 A 
ATOM     97  F   UNL     1       8.683  13.011   1.823  1.00  0.00    -0.200 F 
ATOM     98  F   UNL     1      10.471  14.693   3.014  1.00  0.00    -0.200 F 
ENDBRANCH  64  88
BRANCH  76  99
ATOM     99  C   UNL     1       9.169  19.058  -6.092  1.00  0.00     0.064 A 
ATOM    100  C   UNL     1       9.964  18.048  -6.652  1.00  0.00     0.173 A 
ATOM    101  C   UNL     1       9.549  20.392  -6.314  1.00  0.00     0.173 A 
ATOM    102  F   UNL     1       9.649  16.758  -6.461  1.00  0.00    -0.203 F 
ATOM    103  C   UNL     1      11.102  18.359  -7.390  1.00  0.00     0.198 A 
ATOM    104  C   UNL     1      10.666  20.700  -7.085  1.00  0.00     0.198 A 
ATOM    105  F   UNL     1       8.817  21.398  -5.811  1.00  0.00    -0.203 F 
ATOM    106  F   UNL     1      11.869  17.376  -7.880  1.00  0.00    -0.200 F 
ATOM    107  C   UNL     1      11.444  19.684  -7.617  1.00  0.00     0.200 A 
ATOM    108  F   UNL     1      10.981  21.981  -7.324  1.00  0.00    -0.200 F 
ATOM    109  F   UNL     1      12.527  19.981  -8.349  1.00  0.00    -0.200 F 
ENDBRANCH  76  99
ENDBRANCH  50  51
ENDBRANCH  42  45
ENDBRANCH  40  41
ENDBRANCH  39  40
ENDBRANCH  38  39
ENDBRANCH   1  38
TORSDOF 18
