REMARK SMILES COc1ccc2c(c1C)OC(=O)[C@@H](CC(=O)N[C@@H](CC1=c3ccccc3=NC1)C(=O)NCCCCCCNC(=O)c1ccc(-c3c4nc(c(-c5c(F)c(F)c(F)c(F)c5F)c5ccc([nH]5)c(-c5c(F)c(F)c(F)c(F)c5F)c5nc(c(-c6c(F)c(F)c(F)c(F)c6F)c6ccc3[nH]6)C=C5)C=C4)cc1)[C@H]2C
REMARK SMILES IDX 33 1 32 2 31 3 29 4 30 5 18 7 17 8 15 9 16 10 14 12 13 13
REMARK SMILES IDX 3 14 4 15 8 16 5 17 7 18 9 19 6 20 10 21 104 22 11 23 105 24
REMARK SMILES IDX 12 25 2 26 1 27 19 28 20 29 21 30 28 31 22 32 26 33 27 34
REMARK SMILES IDX 23 35 25 36 24 37 34 38 35 39 36 40 37 41 38 42 39 43 40 45
REMARK SMILES IDX 41 46 42 47 103 48 43 49 102 50 44 51 45 52 46 53 96 54
REMARK SMILES IDX 47 55 101 56 95 57 97 58 48 59 100 60 94 61 93 62 49 64
REMARK SMILES IDX 81 65 61 66 80 67 62 68 65 69 79 70 98 71 63 72 64 73 78 75
REMARK SMILES IDX 99 76 66 77 50 78 51 79 59 80 52 81 53 82 57 83 60 84 54 85
REMARK SMILES IDX 55 86 58 87 56 88 82 89 83 90 91 91 84 92 85 93 89 94 92 95
REMARK SMILES IDX 86 96 87 97 90 98 88 99 67 100 68 101 76 102 69 103 70 104
REMARK SMILES IDX 74 105 77 106 71 107 72 108 75 109 73 110
REMARK H PARENT 31 6 17 11 38 44 97 63 65 74
REMARK Flexibility Score: inf
ROOT
ATOM      1  C   UNL     1       6.077 -10.986  -4.629  1.00  0.00     0.021 C 
ENDROOT
BRANCH   1   2
ATOM      2  C   UNL     1       5.619  -9.766  -3.862  1.00  0.00     0.116 C 
BRANCH   2   3
ATOM      3  N   UNL     1       5.816  -8.534  -4.572  1.00  0.00    -0.354 N 
ATOM      4  C   UNL     1       5.044  -7.421  -4.545  1.00  0.00     0.242 C 
ATOM      5  O   UNL     1       5.562  -6.364  -4.921  1.00  0.00    -0.273 OA
ATOM      6  H   UNL     1       6.613  -8.492  -5.149  1.00  0.00     0.163 HD
BRANCH   4   7
ATOM      7  C   UNL     1       3.613  -7.410  -3.970  1.00  0.00     0.175 C 
BRANCH   7   8
ATOM      8  N   UNL     1       2.666  -8.410  -4.451  1.00  0.00    -0.344 N 
ATOM      9  C   UNL     1       1.373  -8.280  -4.857  1.00  0.00     0.221 C 
ATOM     10  O   UNL     1       0.737  -9.320  -5.036  1.00  0.00    -0.275 OA
ATOM     11  H   UNL     1       3.019  -9.329  -4.488  1.00  0.00     0.164 HD
BRANCH   9  12
ATOM     12  C   UNL     1       0.749  -6.925  -5.158  1.00  0.00     0.116 C 
BRANCH  12  13
ATOM     13  C   UNL     1       0.516  -5.979  -3.958  1.00  0.00     0.116 C 
ATOM     14  C   UNL     1       0.626  -2.232  -0.588  1.00  0.00     0.125 A 
ATOM     15  C   UNL     1       1.943  -2.381  -1.034  1.00  0.00     0.047 A 
ATOM     16  C   UNL     1      -0.419  -2.978  -1.159  1.00  0.00     0.034 A 
ATOM     17  C   UNL     1       2.217  -3.204  -2.115  1.00  0.00     0.012 A 
ATOM     18  C   UNL     1      -0.113  -3.806  -2.249  1.00  0.00     0.140 A 
ATOM     19  C   UNL     1      -1.826  -2.900  -0.643  1.00  0.00     0.052 C 
ATOM     20  C   UNL     1       1.180  -3.901  -2.743  1.00  0.00    -0.001 A 
ATOM     21  O   UNL     1      -1.155  -4.512  -2.889  1.00  0.00    -0.426 OA
ATOM     22  C   UNL     1       1.470  -4.768  -3.927  1.00  0.00     0.035 C 
ATOM     23  C   UNL     1      -0.918  -5.458  -3.891  1.00  0.00     0.315 C 
ATOM     24  C   UNL     1       1.559  -3.956  -5.220  1.00  0.00     0.014 C 
ATOM     25  O   UNL     1      -1.838  -5.875  -4.585  1.00  0.00    -0.251 OA
BRANCH  14  26
ATOM     26  O   UNL     1       0.345  -1.368   0.439  1.00  0.00    -0.496 OA
ATOM     27  C   UNL     1       0.791  -0.041   0.142  1.00  0.00     0.278 C 
ENDBRANCH  14  26
ENDBRANCH  12  13
ENDBRANCH   9  12
ENDBRANCH   7   8
BRANCH   7  28
ATOM     28  C   UNL     1       3.572  -7.190  -2.419  1.00  0.00     0.068 C 
BRANCH  28  29
ATOM     29  C   UNL     1       3.878  -8.361  -1.525  1.00  0.00    -0.037 C 
ATOM     30  C   UNL     1       3.242  -9.528  -1.427  1.00  0.00     0.001 A 
ATOM     31  C   UNL     1       5.107  -8.375  -0.659  1.00  0.00     0.174 C 
ATOM     32  C   UNL     1       2.055 -10.083  -1.987  1.00  0.00     0.010 A 
ATOM     33  C   UNL     1       4.247 -10.378  -0.764  1.00  0.00     0.065 A 
ATOM     34  N   UNL     1       5.303  -9.797  -0.281  1.00  0.00    -0.280 NA
ATOM     35  C   UNL     1       1.934 -11.417  -2.063  1.00  0.00     0.001 A 
ATOM     36  C   UNL     1       4.028 -11.841  -0.854  1.00  0.00     0.028 A 
ATOM     37  C   UNL     1       2.957 -12.297  -1.527  1.00  0.00     0.002 A 
ENDBRANCH  28  29
ENDBRANCH   7  28
ENDBRANCH   4   7
ENDBRANCH   2   3
ENDBRANCH   1   2
BRANCH   1  38
ATOM     38  C   UNL     1       7.592 -11.080  -4.790  1.00  0.00     0.002 C 
BRANCH  38  39
ATOM     39  C   UNL     1       8.404 -10.938  -3.496  1.00  0.00     0.002 C 
BRANCH  39  40
ATOM     40  C   UNL     1       7.970 -11.841  -2.339  1.00  0.00     0.021 C 
BRANCH  40  41
ATOM     41  C   UNL     1       7.837 -13.314  -2.696  1.00  0.00     0.116 C 
BRANCH  41  42
ATOM     42  N   UNL     1       9.071 -13.848  -3.239  1.00  0.00    -0.352 N 
ATOM     43  C   UNL     1       9.847 -14.870  -2.761  1.00  0.00     0.251 C 
ATOM     44  H   UNL     1       9.396 -13.417  -4.063  1.00  0.00     0.163 HD
ATOM     45  O   UNL     1      10.970 -15.067  -3.204  1.00  0.00    -0.269 OA
BRANCH  43  46
ATOM     46  C   UNL     1       9.306 -15.736  -1.698  1.00  0.00     0.039 A 
ATOM     47  C   UNL     1      10.087 -15.993  -0.571  1.00  0.00     0.014 A 
ATOM     48  C   UNL     1       8.035 -16.304  -1.835  1.00  0.00     0.014 A 
ATOM     49  C   UNL     1       9.583 -16.810   0.441  1.00  0.00     0.010 A 
ATOM     50  C   UNL     1       7.513 -17.074  -0.804  1.00  0.00     0.010 A 
ATOM     51  C   UNL     1       8.293 -17.350   0.330  1.00  0.00    -0.014 A 
BRANCH  51  52
ATOM     52  C   UNL     1       7.765 -18.291   1.341  1.00  0.00     0.031 A 
ATOM     53  C   UNL     1       7.618 -19.740   0.974  1.00  0.00     0.074 A 
ATOM     54  C   UNL     1       7.383 -17.845   2.551  1.00  0.00     0.049 A 
ATOM     55  N   UNL     1       7.072 -20.715   1.654  1.00  0.00    -0.248 NA
ATOM     56  C   UNL     1       8.141 -20.142  -0.343  1.00  0.00     0.031 C 
ATOM     57  C   UNL     1       7.490 -16.463   3.016  1.00  0.00     0.029 A 
ATOM     58  N   UNL     1       6.813 -18.512   3.606  1.00  0.00    -0.354 N 
ATOM     59  C   UNL     1       7.189 -21.841   0.851  1.00  0.00     0.074 A 
ATOM     60  C   UNL     1       7.806 -21.423  -0.388  1.00  0.00     0.031 C 
ATOM     61  C   UNL     1       7.007 -16.385   4.268  1.00  0.00     0.029 A 
ATOM     62  C   UNL     1       6.520 -17.701   4.675  1.00  0.00     0.049 A 
ATOM     63  H   UNL     1       6.631 -19.479   3.597  1.00  0.00     0.167 HD
ATOM     64  C   UNL     1       6.836 -23.115   1.136  1.00  0.00     0.037 A 
ATOM     65  C   UNL     1       5.913 -17.992   5.841  1.00  0.00     0.037 A 
ATOM     66  C   UNL     1       6.233 -23.526   2.375  1.00  0.00     0.049 A 
ATOM     67  C   UNL     1       5.463 -19.408   6.099  1.00  0.00     0.074 A 
ATOM     68  C   UNL     1       5.845 -24.796   2.764  1.00  0.00     0.029 A 
ATOM     69  N   UNL     1       5.934 -22.674   3.429  1.00  0.00    -0.354 N 
ATOM     70  N   UNL     1       5.597 -20.472   5.345  1.00  0.00    -0.248 NA
ATOM     71  C   UNL     1       4.779 -19.663   7.374  1.00  0.00     0.031 C 
ATOM     72  C   UNL     1       5.270 -24.706   4.034  1.00  0.00     0.029 A 
ATOM     73  C   UNL     1       5.351 -23.390   4.461  1.00  0.00     0.049 A 
ATOM     74  H   UNL     1       6.111 -21.706   3.441  1.00  0.00     0.167 HD
ATOM     75  C   UNL     1       5.047 -21.524   6.066  1.00  0.00     0.074 A 
ATOM     76  C   UNL     1       4.595 -20.974   7.326  1.00  0.00     0.031 C 
ATOM     77  C   UNL     1       4.922 -22.828   5.715  1.00  0.00     0.037 A 
BRANCH  64  78
ATOM     78  C   UNL     1       7.107 -24.168   0.104  1.00  0.00     0.064 A 
ATOM     79  C   UNL     1       8.413 -24.606  -0.164  1.00  0.00     0.173 A 
ATOM     80  C   UNL     1       6.049 -24.809  -0.557  1.00  0.00     0.173 A 
ATOM     81  F   UNL     1       9.459 -24.013   0.430  1.00  0.00    -0.203 F 
ATOM     82  C   UNL     1       8.649 -25.648  -1.056  1.00  0.00     0.198 A 
ATOM     83  C   UNL     1       6.287 -25.869  -1.427  1.00  0.00     0.198 A 
ATOM     84  F   UNL     1       4.782 -24.426  -0.337  1.00  0.00    -0.203 F 
ATOM     85  F   UNL     1       9.905 -26.036  -1.313  1.00  0.00    -0.200 F 
ATOM     86  C   UNL     1       7.586 -26.288  -1.675  1.00  0.00     0.200 A 
ATOM     87  F   UNL     1       5.258 -26.495  -2.015  1.00  0.00    -0.200 F 
ATOM     88  F   UNL     1       7.813 -27.310  -2.512  1.00  0.00    -0.200 F 
ENDBRANCH  64  78
BRANCH  65  89
ATOM     89  C   UNL     1       5.703 -16.933   6.864  1.00  0.00     0.064 A 
ATOM     90  C   UNL     1       6.370 -16.984   8.096  1.00  0.00     0.173 A 
ATOM     91  C   UNL     1       4.814 -15.869   6.649  1.00  0.00     0.173 A 
ATOM     92  F   UNL     1       7.212 -17.995   8.360  1.00  0.00    -0.203 F 
ATOM     93  C   UNL     1       6.137 -16.029   9.083  1.00  0.00     0.198 A 
ATOM     94  C   UNL     1       4.606 -14.896   7.624  1.00  0.00     0.198 A 
ATOM     95  F   UNL     1       4.149 -15.772   5.488  1.00  0.00    -0.203 F 
ATOM     96  F   UNL     1       6.745 -16.136  10.273  1.00  0.00    -0.200 F 
ATOM     97  C   UNL     1       5.259 -14.982   8.845  1.00  0.00     0.200 A 
ATOM     98  F   UNL     1       3.766 -13.880   7.385  1.00  0.00    -0.200 F 
ATOM     99  F   UNL     1       5.034 -14.065   9.794  1.00  0.00    -0.200 F 
ENDBRANCH  65  89
BRANCH  77 100
ATOM    100  C   UNL     1       4.307 -23.762   6.719  1.00  0.00     0.064 A 
ATOM    101  C   UNL     1       2.942 -23.706   7.035  1.00  0.00     0.173 A 
ATOM    102  C   UNL     1       5.082 -24.762   7.327  1.00  0.00     0.173 A 
ATOM    103  F   UNL     1       2.160 -22.763   6.489  1.00  0.00    -0.203 F 
ATOM    104  C   UNL     1       2.381 -24.601   7.942  1.00  0.00     0.198 A 
ATOM    105  C   UNL     1       4.510 -25.677   8.206  1.00  0.00     0.198 A 
ATOM    106  F   UNL     1       6.390 -24.867   7.050  1.00  0.00    -0.203 F 
ATOM    107  F   UNL     1       1.084 -24.497   8.266  1.00  0.00    -0.200 F 
ATOM    108  C   UNL     1       3.162 -25.590   8.519  1.00  0.00     0.200 A 
ATOM    109  F   UNL     1       5.262 -26.645   8.746  1.00  0.00    -0.200 F 
ATOM    110  F   UNL     1       2.617 -26.458   9.382  1.00  0.00    -0.200 F 
ENDBRANCH  77 100
ENDBRANCH  51  52
ENDBRANCH  43  46
ENDBRANCH  41  42
ENDBRANCH  40  41
ENDBRANCH  39  40
ENDBRANCH  38  39
ENDBRANCH   1  38
TORSDOF 19
