REMARK SMILES CC(C)C[C@@H](CNC(=O)N(C)CCC#N)C(=O)NCCCCCCNC(=O)c1ccc(-c2c3nc(c(-c4c(F)c(F)c(F)c(F)c4F)c4ccc([nH]4)c(-c4c(F)c(F)c(F)c(F)c4F)c4nc(c(-c5c(F)c(F)c(F)c(F)c5F)c5ccc2[nH]5)C=C4)C=C3)cc1
REMARK SMILES IDX 19 1 18 2 16 3 17 4 5 6 4 7 2 8 1 9 3 10 6 11 7 12 8 13 9 15
REMARK SMILES IDX 10 16 11 17 12 18 13 19 14 20 15 21 20 22 21 23 22 24 23 25
REMARK SMILES IDX 24 26 25 27 26 28 27 30 28 31 29 32 90 33 30 34 89 35 31 36
REMARK SMILES IDX 32 37 33 38 83 39 34 40 88 41 82 42 84 43 35 44 87 45 81 46
REMARK SMILES IDX 80 47 36 49 68 50 48 51 67 52 49 53 52 54 66 55 85 56 50 57
REMARK SMILES IDX 51 58 65 60 86 61 53 62 37 63 38 64 46 65 39 66 40 67 44 68
REMARK SMILES IDX 47 69 41 70 42 71 45 72 43 73 69 74 70 75 78 76 71 77 72 78
REMARK SMILES IDX 76 79 79 80 73 81 74 82 77 83 75 84 54 85 55 86 63 87 56 88
REMARK SMILES IDX 57 89 61 90 64 91 58 92 59 93 62 94 60 95
REMARK H PARENT 18 5 7 14 25 29 84 48 52 59
REMARK Flexibility Score: inf
ROOT
ATOM      1  C   UNL     1      -3.377   0.356   3.013  1.00  0.00     0.116 C 
ENDROOT
BRANCH   1   2
ATOM      2  N   UNL     1      -3.688  -0.135   1.683  1.00  0.00    -0.356 N 
ATOM      3  C   UNL     1      -2.922  -0.741   0.739  1.00  0.00     0.224 C 
ATOM      4  O   UNL     1      -3.523  -1.340  -0.161  1.00  0.00    -0.275 OA
ATOM      5  H   UNL     1      -4.627  -0.004   1.415  1.00  0.00     0.163 HD
BRANCH   3   6
ATOM      6  C   UNL     1      -1.391  -0.742   0.736  1.00  0.00     0.098 C 
BRANCH   6   7
ATOM      7  C   UNL     1      -0.747   0.633   1.006  1.00  0.00     0.018 C 
BRANCH   7   8
ATOM      8  C   UNL     1       0.792   0.719   0.972  1.00  0.00    -0.017 C 
ATOM      9  C   UNL     1       1.397   0.226  -0.341  1.00  0.00     0.007 C 
ATOM     10  C   UNL     1       1.220   2.173   1.214  1.00  0.00     0.007 C 
ENDBRANCH   7   8
ENDBRANCH   6   7
BRANCH   6  11
ATOM     11  C   UNL     1      -0.829  -1.997   1.432  1.00  0.00     0.131 C 
BRANCH  11  12
ATOM     12  N   UNL     1      -1.015  -2.047   2.865  1.00  0.00    -0.337 N 
ATOM     13  C   UNL     1      -1.947  -2.552   3.680  1.00  0.00     0.317 C 
ATOM     14  H   UNL     1      -0.284  -1.605   3.356  1.00  0.00     0.165 HD
ATOM     15  O   UNL     1      -2.217  -1.786   4.604  1.00  0.00    -0.249 OA
BRANCH  13  16
ATOM     16  N   UNL     1      -2.509  -3.790   3.596  1.00  0.00    -0.327 N 
ATOM     17  C   UNL     1      -2.246  -4.812   2.598  1.00  0.00     0.148 C 
BRANCH  16  18
ATOM     18  C   UNL     1      -3.462  -4.202   4.670  1.00  0.00     0.136 C 
BRANCH  18  19
ATOM     19  C   UNL     1      -2.868  -4.455   6.088  1.00  0.00     0.141 C 
BRANCH  19  20
ATOM     20  C   UNL     1      -2.652  -3.106   6.753  1.00  0.00     0.064 C 
ATOM     21  N   UNL     1      -2.474  -1.986   7.305  1.00  0.00    -0.198 NA
ENDBRANCH  19  20
ENDBRANCH  18  19
ENDBRANCH  16  18
ENDBRANCH  13  16
ENDBRANCH  11  12
ENDBRANCH   6  11
ENDBRANCH   3   6
ENDBRANCH   1   2
BRANCH   1  22
ATOM     22  C   UNL     1      -3.934   1.750   3.289  1.00  0.00     0.021 C 
BRANCH  22  23
ATOM     23  C   UNL     1      -5.420   1.763   3.674  1.00  0.00     0.002 C 
BRANCH  23  24
ATOM     24  C   UNL     1      -5.813   0.886   4.872  1.00  0.00     0.002 C 
BRANCH  24  25
ATOM     25  C   UNL     1      -4.999   1.089   6.154  1.00  0.00     0.021 C 
BRANCH  25  26
ATOM     26  C   UNL     1      -5.018   2.505   6.723  1.00  0.00     0.116 C 
BRANCH  26  27
ATOM     27  N   UNL     1      -6.361   2.963   7.040  1.00  0.00    -0.352 N 
ATOM     28  C   UNL     1      -6.835   3.601   8.157  1.00  0.00     0.251 C 
ATOM     29  H   UNL     1      -7.035   2.787   6.345  1.00  0.00     0.163 HD
ATOM     30  O   UNL     1      -8.042   3.778   8.294  1.00  0.00    -0.269 OA
BRANCH  28  31
ATOM     31  C   UNL     1      -5.907   4.070   9.211  1.00  0.00     0.039 A 
ATOM     32  C   UNL     1      -6.276   3.897  10.549  1.00  0.00     0.014 A 
ATOM     33  C   UNL     1      -4.711   4.721   8.896  1.00  0.00     0.014 A 
ATOM     34  C   UNL     1      -5.429   4.335  11.569  1.00  0.00     0.010 A 
ATOM     35  C   UNL     1      -3.839   5.106   9.914  1.00  0.00     0.010 A 
ATOM     36  C   UNL     1      -4.194   4.925  11.259  1.00  0.00    -0.014 A 
BRANCH  36  37
ATOM     37  C   UNL     1      -3.273   5.377  12.333  1.00  0.00     0.031 A 
ATOM     38  C   UNL     1      -2.990   6.842  12.517  1.00  0.00     0.074 A 
ATOM     39  C   UNL     1      -2.659   4.467  13.113  1.00  0.00     0.049 A 
ATOM     40  N   UNL     1      -2.175   7.431  13.356  1.00  0.00    -0.248 NA
ATOM     41  C   UNL     1      -3.701   7.768  11.622  1.00  0.00     0.031 C 
ATOM     42  C   UNL     1      -2.818   3.017  13.004  1.00  0.00     0.029 A 
ATOM     43  N   UNL     1      -1.768   4.628  14.144  1.00  0.00    -0.354 N 
ATOM     44  C   UNL     1      -2.268   8.789  13.084  1.00  0.00     0.074 A 
ATOM     45  C   UNL     1      -3.179   8.936  11.970  1.00  0.00     0.031 C 
ATOM     46  C   UNL     1      -2.062   2.421  13.940  1.00  0.00     0.029 A 
ATOM     47  C   UNL     1      -1.344   3.444  14.694  1.00  0.00     0.049 A 
ATOM     48  H   UNL     1      -1.462   5.510  14.459  1.00  0.00     0.167 HD
ATOM     49  C   UNL     1      -1.667   9.822  13.722  1.00  0.00     0.037 A 
ATOM     50  C   UNL     1      -0.470   3.212  15.692  1.00  0.00     0.037 A 
ATOM     51  C   UNL     1      -0.775   9.677  14.842  1.00  0.00     0.049 A 
ATOM     52  C   UNL     1       0.175   4.378  16.390  1.00  0.00     0.074 A 
ATOM     53  C   UNL     1      -0.135  10.663  15.572  1.00  0.00     0.029 A 
ATOM     54  N   UNL     1      -0.402   8.462  15.398  1.00  0.00    -0.354 N 
ATOM     55  N   UNL     1       0.041   5.661  16.156  1.00  0.00    -0.248 NA
ATOM     56  C   UNL     1       1.085   4.064  17.501  1.00  0.00     0.031 C 
ATOM     57  C   UNL     1       0.648  10.043  16.553  1.00  0.00     0.029 A 
ATOM     58  C   UNL     1       0.463   8.673  16.459  1.00  0.00     0.049 A 
ATOM     59  H   UNL     1      -0.706   7.580  15.084  1.00  0.00     0.167 HD
ATOM     60  C   UNL     1       0.822   6.306  17.105  1.00  0.00     0.074 A 
ATOM     61  C   UNL     1       1.416   5.274  17.929  1.00  0.00     0.031 C 
ATOM     62  C   UNL     1       1.030   7.634  17.279  1.00  0.00     0.037 A 
BRANCH  49  63
ATOM     63  C   UNL     1      -1.968  11.207  13.227  1.00  0.00     0.064 A 
ATOM     64  C   UNL     1      -3.224  11.799  13.429  1.00  0.00     0.173 A 
ATOM     65  C   UNL     1      -0.984  11.964  12.573  1.00  0.00     0.173 A 
ATOM     66  F   UNL     1      -4.203  11.112  14.038  1.00  0.00    -0.203 F 
ATOM     67  C   UNL     1      -3.493  13.085  12.971  1.00  0.00     0.198 A 
ATOM     68  C   UNL     1      -1.247  13.261  12.142  1.00  0.00     0.198 A 
ATOM     69  F   UNL     1       0.236  11.448  12.360  1.00  0.00    -0.203 F 
ATOM     70  F   UNL     1      -4.715  13.612  13.134  1.00  0.00    -0.200 F 
ATOM     71  C   UNL     1      -2.503  13.818  12.334  1.00  0.00     0.200 A 
ATOM     72  F   UNL     1      -0.286  13.973  11.537  1.00  0.00    -0.200 F 
ATOM     73  F   UNL     1      -2.761  15.059  11.899  1.00  0.00    -0.200 F 
ENDBRANCH  49  63
BRANCH  50  74
ATOM     74  C   UNL     1      -0.175   1.818  16.112  1.00  0.00     0.064 A 
ATOM     75  C   UNL     1      -0.624   1.329  17.347  1.00  0.00     0.173 A 
ATOM     76  C   UNL     1       0.571   0.954  15.299  1.00  0.00     0.173 A 
ATOM     77  F   UNL     1      -1.322   2.127  18.169  1.00  0.00    -0.203 F 
ATOM     78  C   UNL     1      -0.317   0.036  17.763  1.00  0.00     0.198 A 
ATOM     79  C   UNL     1       0.855  -0.348  15.705  1.00  0.00     0.198 A 
ATOM     80  F   UNL     1       1.022   1.374  14.108  1.00  0.00    -0.203 F 
ATOM     81  F   UNL     1      -0.714  -0.389  18.970  1.00  0.00    -0.200 F 
ATOM     82  C   UNL     1       0.419  -0.803  16.940  1.00  0.00     0.200 A 
ATOM     83  F   UNL     1       1.558  -1.160  14.903  1.00  0.00    -0.200 F 
ATOM     84  F   UNL     1       0.717  -2.046  17.342  1.00  0.00    -0.200 F 
ENDBRANCH  50  74
BRANCH  62  85
ATOM     85  C   UNL     1       1.901   8.046  18.428  1.00  0.00     0.064 A 
ATOM     86  C   UNL     1       3.291   7.858  18.404  1.00  0.00     0.173 A 
ATOM     87  C   UNL     1       1.339   8.663  19.556  1.00  0.00     0.173 A 
ATOM     88  F   UNL     1       3.873   7.259  17.355  1.00  0.00    -0.203 F 
ATOM     89  C   UNL     1       4.083   8.248  19.481  1.00  0.00     0.198 A 
ATOM     90  C   UNL     1       2.137   9.076  20.619  1.00  0.00     0.198 A 
ATOM     91  F   UNL     1       0.015   8.870  19.624  1.00  0.00    -0.203 F 
ATOM     92  F   UNL     1       5.402   8.016  19.458  1.00  0.00    -0.200 F 
ATOM     93  C   UNL     1       3.507   8.862  20.584  1.00  0.00     0.200 A 
ATOM     94  F   UNL     1       1.581   9.678  21.679  1.00  0.00    -0.200 F 
ATOM     95  F   UNL     1       4.271   9.239  21.617  1.00  0.00    -0.200 F 
ENDBRANCH  62  85
ENDBRANCH  36  37
ENDBRANCH  28  31
ENDBRANCH  26  27
ENDBRANCH  25  26
ENDBRANCH  24  25
ENDBRANCH  23  24
ENDBRANCH  22  23
ENDBRANCH   1  22
TORSDOF 21
