REMARK SMILES O=C(NCCCCCCNC(=O)c1nccnc1C(=O)Nc1ccc2c(c1)OCO2)c1ccc(-c2c3nc(c(-c4c(F)c(F)c(F)c(F)c4F)c4ccc([nH]4)c(-c4c(F)c(F)c(F)c(F)c4F)c4nc(c(-c5c(F)c(F)c(F)c(F)c5F)c5ccc2[nH]5)C=C4)C=C3)cc1
REMARK SMILES IDX 6 1 5 2 4 3 3 4 1 5 2 6 31 8 32 9 93 10 33 11 92 12 34 13
REMARK SMILES IDX 35 14 36 15 86 16 37 17 91 18 85 19 87 20 38 21 90 22 84 23
REMARK SMILES IDX 83 24 39 26 71 27 51 28 70 29 52 30 55 31 69 32 88 33 53 34
REMARK SMILES IDX 54 35 68 37 89 38 56 39 40 40 41 41 49 42 42 43 43 44 47 45
REMARK SMILES IDX 50 46 44 47 45 48 48 49 46 50 72 51 73 52 81 53 74 54 75 55
REMARK SMILES IDX 79 56 82 57 76 58 77 59 80 60 78 61 57 62 58 63 66 64 59 65
REMARK SMILES IDX 60 66 64 67 67 68 61 69 62 70 65 71 63 72 7 73 8 74 9 75
REMARK SMILES IDX 10 76 11 77 12 79 13 80 14 81 18 82 15 83 17 84 16 85 19 86
REMARK SMILES IDX 20 87 21 88 22 90 23 91 27 92 24 93 26 94 25 95 28 96 30 97
REMARK SMILES IDX 29 98
REMARK H PARENT 3 7 87 25 55 36 10 78 21 89
REMARK Flexibility Score: inf
ROOT
ATOM      1  C   UNL     1       4.697  -1.739  -3.313  1.00  0.00     0.002 C 
ENDROOT
BRANCH   1   2
ATOM      2  C   UNL     1       4.884  -1.917  -1.812  1.00  0.00     0.021 C 
BRANCH   2   3
ATOM      3  C   UNL     1       4.529  -0.692  -0.992  1.00  0.00     0.116 C 
BRANCH   3   4
ATOM      4  N   UNL     1       3.107  -0.385  -1.000  1.00  0.00    -0.352 N 
ATOM      5  O   UNL     1       1.122   0.144  -0.035  1.00  0.00    -0.269 OA
ATOM      6  C   UNL     1       2.333   0.028   0.063  1.00  0.00     0.251 C 
ATOM      7  H   UNL     1       2.645  -0.483  -1.863  1.00  0.00     0.163 HD
BRANCH   6   8
ATOM      8  C   UNL     1       3.012   0.292   1.350  1.00  0.00     0.039 A 
ATOM      9  C   UNL     1       4.158   1.090   1.376  1.00  0.00     0.014 A 
ATOM     10  C   UNL     1       2.552  -0.333   2.511  1.00  0.00     0.014 A 
ATOM     11  C   UNL     1       4.934   1.133   2.524  1.00  0.00     0.010 A 
ATOM     12  C   UNL     1       3.281  -0.200   3.695  1.00  0.00     0.010 A 
ATOM     13  C   UNL     1       4.493   0.509   3.703  1.00  0.00    -0.014 A 
BRANCH  13  14
ATOM     14  C   UNL     1       5.282   0.689   4.947  1.00  0.00     0.031 A 
ATOM     15  C   UNL     1       5.922  -0.474   5.650  1.00  0.00     0.074 A 
ATOM     16  C   UNL     1       5.433   1.940   5.424  1.00  0.00     0.049 A 
ATOM     17  N   UNL     1       6.640  -0.479   6.746  1.00  0.00    -0.248 NA
ATOM     18  C   UNL     1       5.727  -1.805   5.057  1.00  0.00     0.031 C 
ATOM     19  C   UNL     1       4.846   3.142   4.827  1.00  0.00     0.029 A 
ATOM     20  N   UNL     1       6.133   2.414   6.503  1.00  0.00    -0.354 N 
ATOM     21  C   UNL     1       6.964  -1.808   6.986  1.00  0.00     0.074 A 
ATOM     22  C   UNL     1       6.345  -2.586   5.933  1.00  0.00     0.031 C 
ATOM     23  C   UNL     1       5.247   4.218   5.516  1.00  0.00     0.029 A 
ATOM     24  C   UNL     1       6.053   3.777   6.647  1.00  0.00     0.049 A 
ATOM     25  H   UNL     1       6.643   1.835   7.114  1.00  0.00     0.167 HD
ATOM     26  C   UNL     1       7.713  -2.323   7.991  1.00  0.00     0.037 A 
ATOM     27  C   UNL     1       6.549   4.585   7.601  1.00  0.00     0.037 A 
ATOM     28  C   UNL     1       8.332  -1.534   9.027  1.00  0.00     0.049 A 
ATOM     29  C   UNL     1       7.350   3.980   8.716  1.00  0.00     0.074 A 
ATOM     30  C   UNL     1       9.140  -1.957  10.069  1.00  0.00     0.029 A 
ATOM     31  N   UNL     1       8.206  -0.157   9.158  1.00  0.00    -0.354 N 
ATOM     32  N   UNL     1       7.677   2.726   8.912  1.00  0.00    -0.248 NA
ATOM     33  C   UNL     1       7.848   4.902   9.743  1.00  0.00     0.031 C 
ATOM     34  C   UNL     1       9.456  -0.847  10.859  1.00  0.00     0.029 A 
ATOM     35  C   UNL     1       8.899   0.280  10.277  1.00  0.00     0.049 A 
ATOM     36  H   UNL     1       7.699   0.424   8.545  1.00  0.00     0.167 HD
ATOM     37  C   UNL     1       8.434   2.709  10.074  1.00  0.00     0.074 A 
ATOM     38  C   UNL     1       8.537   4.083  10.523  1.00  0.00     0.031 C 
ATOM     39  C   UNL     1       8.991   1.651  10.712  1.00  0.00     0.037 A 
BRANCH  26  40
ATOM     40  C   UNL     1       7.891  -3.815   8.041  1.00  0.00     0.064 A 
ATOM     41  C   UNL     1       8.681  -4.499   7.105  1.00  0.00     0.173 A 
ATOM     42  C   UNL     1       7.311  -4.564   9.078  1.00  0.00     0.173 A 
ATOM     43  F   UNL     1       9.253  -3.834   6.090  1.00  0.00    -0.203 F 
ATOM     44  C   UNL     1       8.865  -5.878   7.192  1.00  0.00     0.198 A 
ATOM     45  C   UNL     1       7.521  -5.937   9.178  1.00  0.00     0.198 A 
ATOM     46  F   UNL     1       6.553  -3.961  10.006  1.00  0.00    -0.203 F 
ATOM     47  F   UNL     1       9.591  -6.514   6.262  1.00  0.00    -0.200 F 
ATOM     48  C   UNL     1       8.292  -6.594   8.232  1.00  0.00     0.200 A 
ATOM     49  F   UNL     1       6.980  -6.625  10.194  1.00  0.00    -0.200 F 
ATOM     50  F   UNL     1       8.480  -7.918   8.319  1.00  0.00    -0.200 F 
ENDBRANCH  26  40
BRANCH  27  51
ATOM     51  C   UNL     1       6.283   6.045   7.539  1.00  0.00     0.064 A 
ATOM     52  C   UNL     1       7.316   6.958   7.294  1.00  0.00     0.173 A 
ATOM     53  C   UNL     1       4.986   6.554   7.704  1.00  0.00     0.173 A 
ATOM     54  F   UNL     1       8.575   6.520   7.144  1.00  0.00    -0.203 F 
ATOM     55  C   UNL     1       7.066   8.327   7.235  1.00  0.00     0.198 A 
ATOM     56  C   UNL     1       4.731   7.919   7.610  1.00  0.00     0.198 A 
ATOM     57  F   UNL     1       3.960   5.720   7.930  1.00  0.00    -0.203 F 
ATOM     58  F   UNL     1       8.079   9.183   7.044  1.00  0.00    -0.200 F 
ATOM     59  C   UNL     1       5.772   8.806   7.385  1.00  0.00     0.200 A 
ATOM     60  F   UNL     1       3.477   8.374   7.732  1.00  0.00    -0.200 F 
ATOM     61  F   UNL     1       5.531  10.122   7.317  1.00  0.00    -0.200 F 
ENDBRANCH  27  51
BRANCH  39  62
ATOM     62  C   UNL     1       9.790   1.946  11.948  1.00  0.00     0.064 A 
ATOM     63  C   UNL     1       9.179   2.364  13.139  1.00  0.00     0.173 A 
ATOM     64  C   UNL     1      11.185   1.792  11.943  1.00  0.00     0.173 A 
ATOM     65  F   UNL     1       7.851   2.545  13.190  1.00  0.00    -0.203 F 
ATOM     66  C   UNL     1       9.939   2.648  14.271  1.00  0.00     0.198 A 
ATOM     67  C   UNL     1      11.937   2.044  13.086  1.00  0.00     0.198 A 
ATOM     68  F   UNL     1      11.818   1.390  10.831  1.00  0.00    -0.203 F 
ATOM     69  F   UNL     1       9.340   3.102  15.381  1.00  0.00    -0.200 F 
ATOM     70  C   UNL     1      11.315   2.481  14.246  1.00  0.00     0.200 A 
ATOM     71  F   UNL     1      13.266   1.868  13.064  1.00  0.00    -0.200 F 
ATOM     72  F   UNL     1      12.044   2.751  15.338  1.00  0.00    -0.200 F 
ENDBRANCH  39  62
ENDBRANCH  13  14
ENDBRANCH   6   8
ENDBRANCH   3   4
ENDBRANCH   2   3
ENDBRANCH   1   2
BRANCH   1  73
ATOM     73  C   UNL     1       5.503  -0.600  -3.943  1.00  0.00     0.002 C 
BRANCH  73  74
ATOM     74  C   UNL     1       7.023  -0.616  -3.765  1.00  0.00     0.021 C 
BRANCH  74  75
ATOM     75  C   UNL     1       7.762  -1.935  -3.993  1.00  0.00     0.116 C 
BRANCH  75  76
ATOM     76  N   UNL     1       7.313  -2.709  -5.135  1.00  0.00    -0.351 N 
ATOM     77  C   UNL     1       8.059  -3.246  -6.158  1.00  0.00     0.272 C 
ATOM     78  H   UNL     1       6.343  -2.871  -5.185  1.00  0.00     0.163 HD
ATOM     79  O   UNL     1       7.648  -4.217  -6.785  1.00  0.00    -0.267 OA
BRANCH  77  80
ATOM     80  C   UNL     1       9.401  -2.733  -6.431  1.00  0.00     0.159 A 
ATOM     81  N   UNL     1      10.315  -3.218  -5.518  1.00  0.00    -0.247 NA
ATOM     82  C   UNL     1       9.740  -1.889  -7.479  1.00  0.00     0.159 A 
ATOM     83  C   UNL     1      11.595  -2.854  -5.701  1.00  0.00     0.132 A 
ATOM     84  N   UNL     1      11.064  -1.524  -7.612  1.00  0.00    -0.247 NA
ATOM     85  C   UNL     1      11.963  -2.023  -6.732  1.00  0.00     0.132 A 
BRANCH  82  86
ATOM     86  C   UNL     1       8.897  -1.253  -8.573  1.00  0.00     0.276 C 
ATOM     87  O   UNL     1       9.331  -0.235  -9.125  1.00  0.00    -0.267 OA
ATOM     88  N   UNL     1       7.856  -1.892  -9.208  1.00  0.00    -0.320 N 
ATOM     89  H   UNL     1       8.003  -2.060 -10.167  1.00  0.00     0.170 HD
BRANCH  88  90
ATOM     90  C   UNL     1       6.624  -2.342  -8.724  1.00  0.00     0.045 A 
ATOM     91  C   UNL     1       5.902  -1.661  -7.728  1.00  0.00     0.030 A 
ATOM     92  C   UNL     1       6.118  -3.517  -9.291  1.00  0.00     0.076 A 
ATOM     93  C   UNL     1       4.726  -2.221  -7.208  1.00  0.00     0.053 A 
ATOM     94  C   UNL     1       5.016  -4.085  -8.693  1.00  0.00     0.167 A 
ATOM     95  C   UNL     1       4.351  -3.465  -7.663  1.00  0.00     0.165 A 
ATOM     96  O   UNL     1       4.502  -5.314  -8.972  1.00  0.00    -0.454 OA
ATOM     97  O   UNL     1       3.351  -4.234  -7.155  1.00  0.00    -0.454 OA
ATOM     98  C   UNL     1       3.604  -5.473  -7.855  1.00  0.00     0.468 C 
ENDBRANCH  88  90
ENDBRANCH  82  86
ENDBRANCH  77  80
ENDBRANCH  75  76
ENDBRANCH  74  75
ENDBRANCH  73  74
ENDBRANCH   1  73
TORSDOF 15
