REMARK SMILES O=C(CC[NH+]1CC[NH+]([C@@H]2CCO[C@@]3(CCOC3)C2)CC1)NCCCCCCNC(=O)c1ccc(-c2c3nc(c(-c4c(F)c(F)c(F)c(F)c4F)c4ccc([nH]4)c(-c4c(F)c(F)c(F)c(F)c4F)c4nc(c(-c5c(F)c(F)c(F)c(F)c5F)c5ccc2[nH]5)C=C4)C=C3)cc1
REMARK SMILES IDX 24 1 23 2 22 3 21 4 1 5 2 6 3 8 4 9 5 10 6 11 20 12 7 14
REMARK SMILES IDX 19 15 8 16 9 18 10 19 18 20 11 21 13 22 12 23 14 24 17 25
REMARK SMILES IDX 15 26 16 27 25 28 26 29 27 30 28 31 29 32 30 34 31 35 32 36
REMARK SMILES IDX 93 37 33 38 92 39 34 40 35 41 36 42 86 43 37 44 91 45 85 46
REMARK SMILES IDX 87 47 38 48 90 49 84 50 83 51 39 53 71 54 51 55 70 56 52 57
REMARK SMILES IDX 55 58 69 59 88 60 53 61 54 62 68 64 89 65 56 66 40 67 41 68
REMARK SMILES IDX 49 69 42 70 43 71 47 72 50 73 44 74 45 75 48 76 46 77 72 78
REMARK SMILES IDX 73 79 81 80 74 81 75 82 79 83 82 84 76 85 77 86 80 87 78 88
REMARK SMILES IDX 57 89 58 90 66 91 59 92 60 93 64 94 67 95 61 96 62 97 65 98
REMARK SMILES IDX 63 99
REMARK H PARENT 21 7 5 13 8 17 28 33 87 52 55 63
REMARK Flexibility Score: inf
ROOT
ATOM      1  C   UNL     1       3.767   3.275  -1.825  1.00  0.00     0.002 C 
ENDROOT
BRANCH   1   2
ATOM      2  C   UNL     1       2.241   3.172  -1.692  1.00  0.00     0.021 C 
BRANCH   2   3
ATOM      3  C   UNL     1       1.604   1.864  -2.178  1.00  0.00     0.116 C 
BRANCH   3   4
ATOM      4  N   UNL     1       1.907   0.762  -1.296  1.00  0.00    -0.356 N 
ATOM      5  O   UNL     1       0.041   0.986   0.004  1.00  0.00    -0.275 OA
ATOM      6  C   UNL     1       1.135   0.465  -0.202  1.00  0.00     0.225 C 
ATOM      7  H   UNL     1       2.696   0.205  -1.487  1.00  0.00     0.163 HD
BRANCH   6   8
ATOM      8  C   UNL     1       1.771  -0.428   0.846  1.00  0.00     0.161 C 
BRANCH   8   9
ATOM      9  C   UNL     1       2.870  -1.391   0.409  1.00  0.00     0.272 C 
BRANCH   9  10
ATOM     10  N   UNL     1       4.055  -0.845  -0.282  1.00  0.00    -0.325 N 
ATOM     11  C   UNL     1       4.621   0.411   0.247  1.00  0.00     0.324 C 
ATOM     12  C   UNL     1       5.127  -1.860  -0.304  1.00  0.00     0.324 C 
ATOM     13  H   UNL     1       3.704  -0.609  -1.210  1.00  0.00     0.348 HD
ATOM     14  C   UNL     1       5.540   0.366   1.485  1.00  0.00     0.324 C 
ATOM     15  C   UNL     1       5.895  -1.949   1.029  1.00  0.00     0.324 C 
ATOM     16  N   UNL     1       6.531  -0.720   1.502  1.00  0.00    -0.323 N 
ATOM     17  H   UNL     1       6.817  -0.938   2.457  1.00  0.00     0.348 HD
BRANCH  16  18
ATOM     18  C   UNL     1       7.873  -0.345   1.019  1.00  0.00     0.189 C 
ATOM     19  C   UNL     1       8.100  -0.037  -0.466  1.00  0.00     0.093 C 
ATOM     20  C   UNL     1       8.992  -1.305   1.475  1.00  0.00     0.103 C 
ATOM     21  C   UNL     1       8.548  -1.231  -1.301  1.00  0.00     0.167 C 
ATOM     22  C   UNL     1       9.128  -2.585   0.621  1.00  0.00     0.099 C 
ATOM     23  O   UNL     1       8.425  -2.473  -0.625  1.00  0.00    -0.372 OA
ATOM     24  C   UNL     1      10.585  -2.983   0.395  1.00  0.00     0.066 C 
ATOM     25  C   UNL     1       8.605  -3.838   1.371  1.00  0.00     0.195 C 
ATOM     26  C   UNL     1      10.889  -3.861   1.587  1.00  0.00     0.163 C 
ATOM     27  O   UNL     1       9.716  -4.644   1.782  1.00  0.00    -0.378 OA
ENDBRANCH  16  18
ENDBRANCH   9  10
ENDBRANCH   8   9
ENDBRANCH   6   8
ENDBRANCH   3   4
ENDBRANCH   2   3
ENDBRANCH   1   2
BRANCH   1  28
ATOM     28  C   UNL     1       4.355   2.937  -3.195  1.00  0.00     0.002 C 
BRANCH  28  29
ATOM     29  C   UNL     1       3.783   3.761  -4.346  1.00  0.00     0.021 C 
BRANCH  29  30
ATOM     30  C   UNL     1       3.956   5.268  -4.189  1.00  0.00     0.116 C 
BRANCH  30  31
ATOM     31  N   UNL     1       5.348   5.684  -4.271  1.00  0.00    -0.352 N 
ATOM     32  C   UNL     1       5.925   6.622  -5.090  1.00  0.00     0.251 C 
ATOM     33  H   UNL     1       5.963   5.228  -3.651  1.00  0.00     0.163 HD
ATOM     34  O   UNL     1       7.147   6.737  -5.141  1.00  0.00    -0.269 OA
BRANCH  32  35
ATOM     35  C   UNL     1       5.070   7.473  -5.944  1.00  0.00     0.039 A 
ATOM     36  C   UNL     1       5.400   7.624  -7.293  1.00  0.00     0.014 A 
ATOM     37  C   UNL     1       3.928   8.092  -5.426  1.00  0.00     0.014 A 
ATOM     38  C   UNL     1       4.538   8.322  -8.142  1.00  0.00     0.010 A 
ATOM     39  C   UNL     1       3.032   8.720  -6.287  1.00  0.00     0.010 A 
ATOM     40  C   UNL     1       3.322   8.832  -7.655  1.00  0.00    -0.014 A 
BRANCH  40  41
ATOM     41  C   UNL     1       2.325   9.445  -8.570  1.00  0.00     0.031 A 
ATOM     42  C   UNL     1       1.931  10.886  -8.415  1.00  0.00     0.074 A 
ATOM     43  C   UNL     1       1.711   8.676  -9.490  1.00  0.00     0.049 A 
ATOM     44  N   UNL     1       1.024  11.571  -9.065  1.00  0.00    -0.248 NA
ATOM     45  C   UNL     1       2.633  11.651  -7.375  1.00  0.00     0.031 C 
ATOM     46  C   UNL     1       1.964   7.250  -9.702  1.00  0.00     0.029 A 
ATOM     47  N   UNL     1       0.734   8.979 -10.406  1.00  0.00    -0.354 N 
ATOM     48  C   UNL     1       1.043  12.843  -8.510  1.00  0.00     0.074 A 
ATOM     49  C   UNL     1       2.006  12.817  -7.430  1.00  0.00     0.031 C 
ATOM     50  C   UNL     1       1.173   6.805 -10.689  1.00  0.00     0.029 A 
ATOM     51  C   UNL     1       0.325   7.900 -11.150  1.00  0.00     0.049 A 
ATOM     52  H   UNL     1       0.363   9.884 -10.519  1.00  0.00     0.167 HD
ATOM     53  C   UNL     1       0.338  13.939  -8.882  1.00  0.00     0.037 A 
ATOM     54  C   UNL     1      -0.640   7.796 -12.085  1.00  0.00     0.037 A 
ATOM     55  C   UNL     1      -0.622  13.959  -9.956  1.00  0.00     0.049 A 
ATOM     56  C   UNL     1      -1.431   9.018 -12.463  1.00  0.00     0.074 A 
ATOM     57  C   UNL     1      -1.346  15.030 -10.447  1.00  0.00     0.029 A 
ATOM     58  N   UNL     1      -1.002  12.848 -10.697  1.00  0.00    -0.354 N 
ATOM     59  N   UNL     1      -1.349  10.236 -11.987  1.00  0.00    -0.248 NA
ATOM     60  C   UNL     1      -2.446   8.852 -13.512  1.00  0.00     0.031 C 
ATOM     61  C   UNL     1      -2.208  14.557 -11.443  1.00  0.00     0.029 A 
ATOM     62  C   UNL     1      -1.977  13.203 -11.617  1.00  0.00     0.049 A 
ATOM     63  H   UNL     1      -0.633  11.942 -10.586  1.00  0.00     0.167 HD
ATOM     64  C   UNL     1      -2.286  10.985 -12.686  1.00  0.00     0.074 A 
ATOM     65  C   UNL     1      -2.911  10.087 -13.636  1.00  0.00     0.031 C 
ATOM     66  C   UNL     1      -2.600  12.297 -12.552  1.00  0.00     0.037 A 
BRANCH  53  67
ATOM     67  C   UNL     1       0.576  15.207  -8.110  1.00  0.00     0.064 A 
ATOM     68  C   UNL     1       1.802  15.889  -8.173  1.00  0.00     0.173 A 
ATOM     69  C   UNL     1      -0.436  15.757  -7.309  1.00  0.00     0.173 A 
ATOM     70  F   UNL     1       2.808  15.404  -8.917  1.00  0.00    -0.203 F 
ATOM     71  C   UNL     1       2.020  17.045  -7.428  1.00  0.00     0.198 A 
ATOM     72  C   UNL     1      -0.226  16.934  -6.594  1.00  0.00     0.198 A 
ATOM     73  F   UNL     1      -1.631  15.154  -7.218  1.00  0.00    -0.203 F 
ATOM     74  F   UNL     1       3.221  17.640  -7.454  1.00  0.00    -0.200 F 
ATOM     75  C   UNL     1       1.005  17.570  -6.644  1.00  0.00     0.200 A 
ATOM     76  F   UNL     1      -1.215  17.448  -5.850  1.00  0.00    -0.200 F 
ATOM     77  F   UNL     1       1.215  18.683  -5.929  1.00  0.00    -0.200 F 
ENDBRANCH  53  67
BRANCH  54  78
ATOM     78  C   UNL     1      -0.903   6.480 -12.723  1.00  0.00     0.064 A 
ATOM     79  C   UNL     1      -0.582   6.250 -14.068  1.00  0.00     0.173 A 
ATOM     80  C   UNL     1      -1.460   5.419 -11.995  1.00  0.00     0.173 A 
ATOM     81  F   UNL     1      -0.065   7.239 -14.812  1.00  0.00    -0.203 F 
ATOM     82  C   UNL     1      -0.819   5.012 -14.662  1.00  0.00     0.198 A 
ATOM     83  C   UNL     1      -1.668   4.173 -12.582  1.00  0.00     0.198 A 
ATOM     84  F   UNL     1      -1.780   5.585 -10.703  1.00  0.00    -0.203 F 
ATOM     85  F   UNL     1      -0.537   4.830 -15.960  1.00  0.00    -0.200 F 
ATOM     86  C   UNL     1      -1.354   3.972 -13.917  1.00  0.00     0.200 A 
ATOM     87  F   UNL     1      -2.168   3.166 -11.852  1.00  0.00    -0.200 F 
ATOM     88  F   UNL     1      -1.569   2.778 -14.486  1.00  0.00    -0.200 F 
ENDBRANCH  54  78
BRANCH  66  89
ATOM     89  C   UNL     1      -3.659  12.850 -13.463  1.00  0.00     0.064 A 
ATOM     90  C   UNL     1      -5.011  12.505 -13.315  1.00  0.00     0.173 A 
ATOM     91  C   UNL     1      -3.324  13.770 -14.468  1.00  0.00     0.173 A 
ATOM     92  F   UNL     1      -5.383  11.617 -12.380  1.00  0.00    -0.203 F 
ATOM     93  C   UNL     1      -5.984  13.043 -14.154  1.00  0.00     0.198 A 
ATOM     94  C   UNL     1      -4.304  14.331 -15.284  1.00  0.00     0.198 A 
ATOM     95  F   UNL     1      -2.047  14.138 -14.650  1.00  0.00    -0.203 F 
ATOM     96  F   UNL     1      -7.263  12.662 -14.024  1.00  0.00    -0.200 F 
ATOM     97  C   UNL     1      -5.631  13.961 -15.131  1.00  0.00     0.200 A 
ATOM     98  F   UNL     1      -3.962  15.230 -16.217  1.00  0.00    -0.200 F 
ATOM     99  F   UNL     1      -6.570  14.486 -15.930  1.00  0.00    -0.200 F 
ENDBRANCH  66  89
ENDBRANCH  40  41
ENDBRANCH  32  35
ENDBRANCH  30  31
ENDBRANCH  29  30
ENDBRANCH  28  29
ENDBRANCH   1  28
TORSDOF 16
