REMARK SMILES N#CCCN(C(=O)N[C@H]1CCCCC[C@@H]1C(=O)NCCCCCCNC(=O)c1ccc(-c2c3nc(c(-c4c(F)c(F)c(F)c(F)c4F)c4ccc([nH]4)c(-c4c(F)c(F)c(F)c(F)c4F)c4nc(c(-c5c(F)c(F)c(F)c(F)c5F)c5ccc2[nH]5)C=C4)C=C3)cc1)C1CC1
REMARK SMILES IDX 19 1 18 2 16 3 17 4 15 6 9 7 8 8 6 9 7 10 5 12 4 13 3 14
REMARK SMILES IDX 2 15 1 16 91 17 92 18 93 19 10 20 11 21 14 23 13 24 12 25
REMARK SMILES IDX 20 27 21 28 22 29 23 30 24 31 25 32 26 33 27 35 28 36 29 37
REMARK SMILES IDX 90 38 30 39 89 40 31 41 32 42 33 43 83 44 34 45 88 46 82 47
REMARK SMILES IDX 84 48 35 49 87 50 81 51 80 52 36 54 68 55 48 56 67 57 49 58
REMARK SMILES IDX 52 59 66 60 85 61 50 62 51 63 65 65 86 66 53 67 37 68 38 69
REMARK SMILES IDX 46 70 39 71 40 72 44 73 47 74 41 75 42 76 45 77 43 78 69 79
REMARK SMILES IDX 70 80 78 81 71 82 72 83 76 84 79 85 73 86 74 87 77 88 75 89
REMARK SMILES IDX 54 90 55 91 63 92 56 93 57 94 61 95 64 96 58 97 59 98 62 99
REMARK SMILES IDX 60 100
REMARK H PARENT 18 5 8 11 25 34 84 53 52 64
REMARK Flexibility Score: 90.00
ROOT
ATOM      1  C   UNL     1       9.447   0.367  -3.028  1.00  0.00     0.116 C 
ENDROOT
BRANCH   1   2
ATOM      2  N   UNL     1       9.111  -1.019  -2.827  1.00  0.00    -0.356 N 
ATOM      3  C   UNL     1       8.417  -1.626  -1.840  1.00  0.00     0.225 C 
ATOM      4  O   UNL     1       8.647  -2.830  -1.755  1.00  0.00    -0.275 OA
ATOM      5  H   UNL     1       9.442  -1.626  -3.528  1.00  0.00     0.163 HD
BRANCH   3   6
ATOM      6  C   UNL     1       7.524  -0.868  -0.852  1.00  0.00     0.101 C 
BRANCH   6   7
ATOM      7  C   UNL     1       6.564  -1.808  -0.059  1.00  0.00     0.096 C 
BRANCH   7   8
ATOM      8  N   UNL     1       7.295  -2.763   0.777  1.00  0.00    -0.334 N 
ATOM      9  C   UNL     1       7.580  -4.079   0.835  1.00  0.00     0.317 C 
ATOM     10  O   UNL     1       8.181  -4.361   1.880  1.00  0.00    -0.249 OA
ATOM     11  H   UNL     1       7.709  -2.296   1.539  1.00  0.00     0.165 HD
BRANCH   9  12
ATOM     12  N   UNL     1       7.247  -5.021  -0.115  1.00  0.00    -0.321 N 
BRANCH  12  13
ATOM     13  C   UNL     1       6.699  -4.802  -1.479  1.00  0.00     0.137 C 
BRANCH  13  14
ATOM     14  C   UNL     1       7.602  -5.263  -2.639  1.00  0.00     0.141 C 
BRANCH  14  15
ATOM     15  C   UNL     1       7.404  -6.668  -2.996  1.00  0.00     0.064 C 
ATOM     16  N   UNL     1       7.250  -7.781  -3.295  1.00  0.00    -0.198 NA
ENDBRANCH  14  15
ENDBRANCH  13  14
ENDBRANCH  12  13
BRANCH  12  17
ATOM     17  C   UNL     1       7.479  -6.449   0.142  1.00  0.00     0.087 C 
ATOM     18  C   UNL     1       8.900  -6.967   0.126  1.00  0.00     0.027 C 
ATOM     19  C   UNL     1       8.052  -7.132   1.350  1.00  0.00     0.027 C 
ENDBRANCH  12  17
ENDBRANCH   9  12
ENDBRANCH   7   8
BRANCH   7  20
ATOM     20  C   UNL     1       5.543  -1.053   0.838  1.00  0.00     0.026 C 
BRANCH  20  21
ATOM     21  C   UNL     1       6.025   0.255   1.475  1.00  0.00     0.002 CG0
ATOM     22  G   UNL     1       5.859   1.481   0.571  1.00  0.00     0.000 G0
ENDBRANCH  20  21
ENDBRANCH   7  20
ENDBRANCH   6   7
BRANCH   6  23
ATOM     23  C   UNL     1       6.692   0.251  -1.511  1.00  0.00     0.015 C 
BRANCH  23  24
ATOM     24  C   UNL     1       6.749   1.525  -0.667  1.00  0.00     0.001 C 
BRANCH  24  25
ATOM     25  C   UNL     1       5.859   1.481   0.571  1.00  0.00     0.000 CG0
ATOM     26  G   UNL     1       6.025   0.255   1.475  1.00  0.00     0.000 G0
ENDBRANCH  24  25
ENDBRANCH  23  24
ENDBRANCH   6  23
ENDBRANCH   3   6
ENDBRANCH   1   2
BRANCH   1  27
ATOM     27  C   UNL     1      10.927   0.517  -3.354  1.00  0.00     0.021 C 
BRANCH  27  28
ATOM     28  C   UNL     1      11.372  -0.174  -4.651  1.00  0.00     0.002 C 
BRANCH  28  29
ATOM     29  C   UNL     1      10.577   0.203  -5.904  1.00  0.00     0.002 C 
BRANCH  29  30
ATOM     30  C   UNL     1      10.456   1.704  -6.163  1.00  0.00     0.021 C 
BRANCH  30  31
ATOM     31  C   UNL     1      11.783   2.449  -6.179  1.00  0.00     0.116 C 
BRANCH  31  32
ATOM     32  N   UNL     1      12.663   1.984  -7.237  1.00  0.00    -0.352 N 
ATOM     33  C   UNL     1      13.296   2.708  -8.214  1.00  0.00     0.251 C 
ATOM     34  H   UNL     1      12.828   1.013  -7.255  1.00  0.00     0.163 HD
ATOM     35  O   UNL     1      13.851   2.139  -9.148  1.00  0.00    -0.269 OA
BRANCH  33  36
ATOM     36  C   UNL     1      13.280   4.184  -8.150  1.00  0.00     0.039 A 
ATOM     37  C   UNL     1      13.011   4.904  -9.315  1.00  0.00     0.014 A 
ATOM     38  C   UNL     1      13.514   4.853  -6.945  1.00  0.00     0.014 A 
ATOM     39  C   UNL     1      12.921   6.295  -9.259  1.00  0.00     0.010 A 
ATOM     40  C   UNL     1      13.331   6.229  -6.872  1.00  0.00     0.010 A 
ATOM     41  C   UNL     1      13.042   6.966  -8.030  1.00  0.00    -0.014 A 
BRANCH  41  42
ATOM     42  C   UNL     1      12.868   8.438  -7.944  1.00  0.00     0.031 A 
ATOM     43  C   UNL     1      13.999   9.311  -7.484  1.00  0.00     0.074 A 
ATOM     44  C   UNL     1      11.670   8.982  -8.229  1.00  0.00     0.049 A 
ATOM     45  N   UNL     1      14.025  10.608  -7.303  1.00  0.00    -0.248 NA
ATOM     46  C   UNL     1      15.261   8.634  -7.152  1.00  0.00     0.031 C 
ATOM     47  C   UNL     1      10.480   8.234  -8.635  1.00  0.00     0.029 A 
ATOM     48  N   UNL     1      11.253  10.289  -8.211  1.00  0.00    -0.354 N 
ATOM     49  C   UNL     1      15.299  10.898  -6.833  1.00  0.00     0.074 A 
ATOM     50  C   UNL     1      15.989   9.635  -6.684  1.00  0.00     0.031 C 
ATOM     51  C   UNL     1       9.474   9.095  -8.850  1.00  0.00     0.029 A 
ATOM     52  C   UNL     1       9.932  10.448  -8.549  1.00  0.00     0.049 A 
ATOM     53  H   UNL     1      11.844  11.041  -7.977  1.00  0.00     0.167 HD
ATOM     54  C   UNL     1      15.852  12.108  -6.576  1.00  0.00     0.037 A 
ATOM     55  C   UNL     1       9.169  11.556  -8.595  1.00  0.00     0.037 A 
ATOM     56  C   UNL     1      15.153  13.359  -6.720  1.00  0.00     0.049 A 
ATOM     57  C   UNL     1       9.789  12.888  -8.274  1.00  0.00     0.074 A 
ATOM     58  C   UNL     1      15.633  14.643  -6.531  1.00  0.00     0.029 A 
ATOM     59  N   UNL     1      13.814  13.482  -7.068  1.00  0.00    -0.354 N 
ATOM     60  N   UNL     1      11.017  13.161  -7.905  1.00  0.00    -0.248 NA
ATOM     61  C   UNL     1       8.919  14.066  -8.384  1.00  0.00     0.031 C 
ATOM     62  C   UNL     1      14.568  15.536  -6.688  1.00  0.00     0.029 A 
ATOM     63  C   UNL     1      13.441  14.818  -7.059  1.00  0.00     0.049 A 
ATOM     64  H   UNL     1      13.217  12.731  -7.289  1.00  0.00     0.167 HD
ATOM     65  C   UNL     1      11.076  14.541  -7.762  1.00  0.00     0.074 A 
ATOM     66  C   UNL     1       9.763  15.049  -8.101  1.00  0.00     0.031 C 
ATOM     67  C   UNL     1      12.126  15.315  -7.387  1.00  0.00     0.037 A 
BRANCH  54  68
ATOM     68  C   UNL     1      17.276  12.123  -6.087  1.00  0.00     0.064 A 
ATOM     69  C   UNL     1      18.341  11.680  -6.889  1.00  0.00     0.173 A 
ATOM     70  C   UNL     1      17.580  12.575  -4.794  1.00  0.00     0.173 A 
ATOM     71  F   UNL     1      18.111  11.231  -8.132  1.00  0.00    -0.203 F 
ATOM     72  C   UNL     1      19.642  11.629  -6.393  1.00  0.00     0.198 A 
ATOM     73  C   UNL     1      18.889  12.566  -4.318  1.00  0.00     0.198 A 
ATOM     74  F   UNL     1      16.607  13.021  -3.985  1.00  0.00    -0.203 F 
ATOM     75  F   UNL     1      20.625  11.119  -7.148  1.00  0.00    -0.200 F 
ATOM     76  C   UNL     1      19.916  12.076  -5.110  1.00  0.00     0.200 A 
ATOM     77  F   UNL     1      19.154  13.017  -3.084  1.00  0.00    -0.200 F 
ATOM     78  F   UNL     1      21.166  12.022  -4.632  1.00  0.00    -0.200 F 
ENDBRANCH  54  68
BRANCH  55  79
ATOM     79  C   UNL     1       7.735  11.437  -8.968  1.00  0.00     0.064 A 
ATOM     80  C   UNL     1       7.255  11.934 -10.187  1.00  0.00     0.173 A 
ATOM     81  C   UNL     1       6.821  10.786  -8.125  1.00  0.00     0.173 A 
ATOM     82  F   UNL     1       8.085  12.580 -11.020  1.00  0.00    -0.203 F 
ATOM     83  C   UNL     1       5.916  11.792 -10.545  1.00  0.00     0.198 A 
ATOM     84  C   UNL     1       5.490  10.615  -8.498  1.00  0.00     0.198 A 
ATOM     85  F   UNL     1       7.231  10.284  -6.950  1.00  0.00    -0.203 F 
ATOM     86  F   UNL     1       5.475  12.307 -11.701  1.00  0.00    -0.200 F 
ATOM     87  C   UNL     1       5.037  11.124  -9.705  1.00  0.00     0.200 A 
ATOM     88  F   UNL     1       4.652   9.949  -7.693  1.00  0.00    -0.200 F 
ATOM     89  F   UNL     1       3.754  10.970 -10.059  1.00  0.00    -0.200 F 
ENDBRANCH  55  79
BRANCH  67  90
ATOM     90  C   UNL     1      11.910  16.803  -7.352  1.00  0.00     0.064 A 
ATOM     91  C   UNL     1      11.075  17.411  -6.402  1.00  0.00     0.173 A 
ATOM     92  C   UNL     1      12.582  17.637  -8.260  1.00  0.00     0.173 A 
ATOM     93  F   UNL     1      10.398  16.661  -5.519  1.00  0.00    -0.203 F 
ATOM     94  C   UNL     1      10.896  18.792  -6.384  1.00  0.00     0.198 A 
ATOM     95  C   UNL     1      12.432  19.020  -8.213  1.00  0.00     0.198 A 
ATOM     96  F   UNL     1      13.399  17.112  -9.185  1.00  0.00    -0.203 F 
ATOM     97  F   UNL     1      10.047  19.344  -5.506  1.00  0.00    -0.200 F 
ATOM     98  C   UNL     1      11.581  19.596  -7.283  1.00  0.00     0.200 A 
ATOM     99  F   UNL     1      13.111  19.796  -9.069  1.00  0.00    -0.200 F 
ATOM    100  F   UNL     1      11.415  20.926  -7.257  1.00  0.00    -0.200 F 
ENDBRANCH  67  90
ENDBRANCH  41  42
ENDBRANCH  33  36
ENDBRANCH  31  32
ENDBRANCH  30  31
ENDBRANCH  29  30
ENDBRANCH  28  29
ENDBRANCH  27  28
ENDBRANCH   1  27
TORSDOF 19
