REMARK SMILES Cc1c(Cc2ccccc2)c(=O)oc2c(C)c(O[C@H](C)C(=O)NCCCCCCNC(=O)c3ccc(-c4c5nc(c(-c6c(F)c(F)c(F)c(F)c6F)c6ccc([nH]6)c(-c6c(F)c(F)c(F)c(F)c6F)c6nc(c(-c7c(F)c(F)c(F)c(F)c7F)c7ccc4[nH]7)C=C6)C=C5)cc3)ccc12
REMARK SMILES IDX 25 1 24 2 23 3 21 4 22 5 19 7 20 8 18 9 17 10 1 11 2 12 3 13
REMARK SMILES IDX 98 14 11 15 14 16 97 17 12 18 13 19 15 20 96 21 16 22 4 23
REMARK SMILES IDX 5 24 6 25 10 26 7 27 9 28 8 29 26 30 27 31 28 32 29 33 30 34
REMARK SMILES IDX 31 35 32 37 33 38 34 39 95 40 35 41 94 42 36 43 37 44 38 45
REMARK SMILES IDX 88 46 39 47 93 48 87 49 89 50 40 51 92 52 86 53 85 54 41 56
REMARK SMILES IDX 73 57 53 58 72 59 54 60 57 61 71 62 90 63 55 64 56 65 70 67
REMARK SMILES IDX 91 68 58 69 42 70 43 71 51 72 44 73 45 74 49 75 52 76 46 77
REMARK SMILES IDX 47 78 50 79 48 80 74 81 75 82 83 83 76 84 77 85 81 86 84 87
REMARK SMILES IDX 78 88 79 89 82 90 80 91 59 92 60 93 68 94 61 95 62 96 66 97
REMARK SMILES IDX 69 98 63 99 64 100 67 101 65 102
REMARK H PARENT 23 6 30 36 89 55 57 66
REMARK Flexibility Score: inf
ROOT
ATOM      1  C   UNL     1       0.332  -1.138  -4.775  1.00  0.00     0.021 C 
ENDROOT
BRANCH   1   2
ATOM      2  C   UNL     1      -0.905  -0.268  -5.020  1.00  0.00     0.116 C 
BRANCH   2   3
ATOM      3  N   UNL     1      -2.124  -0.924  -5.530  1.00  0.00    -0.353 N 
ATOM      4  C   UNL     1      -3.336  -0.239  -5.632  1.00  0.00     0.260 C 
ATOM      5  O   UNL     1      -3.464   0.513  -6.607  1.00  0.00    -0.271 OA
ATOM      6  H   UNL     1      -2.082  -1.868  -5.806  1.00  0.00     0.163 HD
BRANCH   4   7
ATOM      7  C   UNL     1      -4.641  -0.591  -4.712  1.00  0.00     0.258 C 
ATOM      8  C   UNL     1      -4.918  -2.095  -4.599  1.00  0.00     0.064 C 
BRANCH   7   9
ATOM      9  O   UNL     1      -5.183   0.002  -3.515  1.00  0.00    -0.480 OA
BRANCH   9  10
ATOM     10  C   UNL     1      -4.341   0.646  -2.677  1.00  0.00     0.127 A 
ATOM     11  C   UNL     1      -1.159   3.483   0.366  1.00  0.00     0.046 C 
ATOM     12  C   UNL     1      -1.436   3.285  -1.087  1.00  0.00    -0.029 A 
ATOM     13  C   UNL     1      -0.668   3.713  -2.119  1.00  0.00     0.046 A 
ATOM     14  C   UNL     1      -2.549   2.389  -1.412  1.00  0.00     0.021 A 
ATOM     15  C   UNL     1      -1.015   3.282  -3.501  1.00  0.00     0.340 A 
ATOM     16  C   UNL     1      -2.192   1.421  -2.325  1.00  0.00     0.145 A 
ATOM     17  C   UNL     1      -3.888   2.429  -1.050  1.00  0.00     0.016 A 
ATOM     18  O   UNL     1      -0.619   3.843  -4.513  1.00  0.00    -0.246 OA
ATOM     19  O   UNL     1      -1.675   2.068  -3.544  1.00  0.00    -0.422 OA
ATOM     20  C   UNL     1      -3.014   0.346  -2.615  1.00  0.00     0.035 A 
ATOM     21  C   UNL     1      -4.801   1.623  -1.779  1.00  0.00     0.047 A 
ATOM     22  C   UNL     1      -2.576  -1.067  -2.330  1.00  0.00     0.052 C 
BRANCH  13  23
ATOM     23  C   UNL     1       0.613   4.505  -2.061  1.00  0.00     0.079 C 
BRANCH  23  24
ATOM     24  C   UNL     1       0.402   5.995  -2.146  1.00  0.00    -0.043 A 
ATOM     25  C   UNL     1       0.986   6.746  -3.175  1.00  0.00     0.004 A 
ATOM     26  C   UNL     1      -0.379   6.654  -1.188  1.00  0.00     0.004 A 
ATOM     27  C   UNL     1       0.775   8.124  -3.248  1.00  0.00     0.000 A 
ATOM     28  C   UNL     1      -0.600   8.026  -1.268  1.00  0.00     0.000 A 
ATOM     29  C   UNL     1      -0.024   8.761  -2.299  1.00  0.00     0.000 A 
ENDBRANCH  23  24
ENDBRANCH  13  23
ENDBRANCH   9  10
ENDBRANCH   7   9
ENDBRANCH   4   7
ENDBRANCH   2   3
ENDBRANCH   1   2
BRANCH   1  30
ATOM     30  C   UNL     1       1.660  -0.346  -4.768  1.00  0.00     0.002 C 
BRANCH  30  31
ATOM     31  C   UNL     1       1.726   0.953  -3.950  1.00  0.00     0.002 C 
BRANCH  31  32
ATOM     32  C   UNL     1       1.683   0.806  -2.429  1.00  0.00     0.021 C 
BRANCH  32  33
ATOM     33  C   UNL     1       2.859   0.038  -1.837  1.00  0.00     0.116 C 
BRANCH  33  34
ATOM     34  N   UNL     1       4.136   0.631  -2.226  1.00  0.00    -0.352 N 
ATOM     35  C   UNL     1       5.006   1.380  -1.479  1.00  0.00     0.251 C 
ATOM     36  H   UNL     1       4.411   0.468  -3.157  1.00  0.00     0.163 HD
ATOM     37  O   UNL     1       5.861   2.084  -2.020  1.00  0.00    -0.269 OA
BRANCH  35  38
ATOM     38  C   UNL     1       4.928   1.316  -0.011  1.00  0.00     0.039 A 
ATOM     39  C   UNL     1       5.053   2.478   0.753  1.00  0.00     0.014 A 
ATOM     40  C   UNL     1       4.750   0.073   0.603  1.00  0.00     0.014 A 
ATOM     41  C   UNL     1       4.956   2.394   2.142  1.00  0.00     0.010 A 
ATOM     42  C   UNL     1       4.557   0.004   1.971  1.00  0.00     0.010 A 
ATOM     43  C   UNL     1       4.696   1.158   2.754  1.00  0.00    -0.014 A 
BRANCH  43  44
ATOM     44  C   UNL     1       4.666   1.012   4.224  1.00  0.00     0.031 A 
ATOM     45  C   UNL     1       5.742   0.202   4.891  1.00  0.00     0.074 A 
ATOM     46  C   UNL     1       3.657   1.547   4.932  1.00  0.00     0.049 A 
ATOM     47  N   UNL     1       5.880  -0.112   6.152  1.00  0.00    -0.248 NA
ATOM     48  C   UNL     1       6.788  -0.359   4.016  1.00  0.00     0.031 C 
ATOM     49  C   UNL     1       2.544   2.313   4.371  1.00  0.00     0.029 A 
ATOM     50  N   UNL     1       3.402   1.523   6.278  1.00  0.00    -0.354 N 
ATOM     51  C   UNL     1       7.019  -0.901   6.216  1.00  0.00     0.074 A 
ATOM     52  C   UNL     1       7.489  -1.094   4.864  1.00  0.00     0.031 C 
ATOM     53  C   UNL     1       1.742   2.715   5.371  1.00  0.00     0.029 A 
ATOM     54  C   UNL     1       2.266   2.206   6.635  1.00  0.00     0.049 A 
ATOM     55  H   UNL     1       3.979   1.060   6.928  1.00  0.00     0.167 HD
ATOM     56  C   UNL     1       7.644  -1.384   7.313  1.00  0.00     0.037 A 
ATOM     57  C   UNL     1       1.722   2.400   7.851  1.00  0.00     0.037 A 
ATOM     58  C   UNL     1       7.181  -1.159   8.654  1.00  0.00     0.049 A 
ATOM     59  C   UNL     1       2.418   1.823   9.056  1.00  0.00     0.074 A 
ATOM     60  C   UNL     1       7.758  -1.560   9.843  1.00  0.00     0.029 A 
ATOM     61  N   UNL     1       6.024  -0.464   8.978  1.00  0.00    -0.354 N 
ATOM     62  N   UNL     1       3.534   1.135   9.116  1.00  0.00    -0.248 NA
ATOM     63  C   UNL     1       1.786   2.053  10.362  1.00  0.00     0.031 C 
ATOM     64  C   UNL     1       6.923  -1.154  10.886  1.00  0.00     0.029 A 
ATOM     65  C   UNL     1       5.855  -0.449  10.351  1.00  0.00     0.049 A 
ATOM     66  H   UNL     1       5.414  -0.045   8.328  1.00  0.00     0.167 HD
ATOM     67  C   UNL     1       3.752   0.873  10.461  1.00  0.00     0.074 A 
ATOM     68  C   UNL     1       2.659   1.490  11.186  1.00  0.00     0.031 C 
ATOM     69  C   UNL     1       4.762   0.183  11.046  1.00  0.00     0.037 A 
BRANCH  56  70
ATOM     70  C   UNL     1       8.904  -2.173   7.110  1.00  0.00     0.064 A 
ATOM     71  C   UNL     1      10.083  -1.563   6.654  1.00  0.00     0.173 A 
ATOM     72  C   UNL     1       8.950  -3.540   7.421  1.00  0.00     0.173 A 
ATOM     73  F   UNL     1      10.088  -0.262   6.326  1.00  0.00    -0.203 F 
ATOM     74  C   UNL     1      11.256  -2.297   6.497  1.00  0.00     0.198 A 
ATOM     75  C   UNL     1      10.133  -4.263   7.294  1.00  0.00     0.198 A 
ATOM     76  F   UNL     1       7.851  -4.172   7.859  1.00  0.00    -0.203 F 
ATOM     77  F   UNL     1      12.356  -1.702   6.016  1.00  0.00    -0.200 F 
ATOM     78  C   UNL     1      11.283  -3.643   6.828  1.00  0.00     0.200 A 
ATOM     79  F   UNL     1      10.162  -5.561   7.626  1.00  0.00    -0.200 F 
ATOM     80  F   UNL     1      12.417  -4.344   6.693  1.00  0.00    -0.200 F 
ENDBRANCH  56  70
BRANCH  57  81
ATOM     81  C   UNL     1       0.487   3.215   7.987  1.00  0.00     0.064 A 
ATOM     82  C   UNL     1       0.525   4.476   8.599  1.00  0.00     0.173 A 
ATOM     83  C   UNL     1      -0.747   2.770   7.489  1.00  0.00     0.173 A 
ATOM     84  F   UNL     1       1.678   4.940   9.103  1.00  0.00    -0.203 F 
ATOM     85  C   UNL     1      -0.624   5.255   8.718  1.00  0.00     0.198 A 
ATOM     86  C   UNL     1      -1.890   3.562   7.584  1.00  0.00     0.198 A 
ATOM     87  F   UNL     1      -0.838   1.576   6.887  1.00  0.00    -0.203 F 
ATOM     88  F   UNL     1      -0.565   6.442   9.337  1.00  0.00    -0.200 F 
ATOM     89  C   UNL     1      -1.829   4.801   8.204  1.00  0.00     0.200 A 
ATOM     90  F   UNL     1      -3.048   3.128   7.068  1.00  0.00    -0.200 F 
ATOM     91  F   UNL     1      -2.931   5.556   8.306  1.00  0.00    -0.200 F 
ENDBRANCH  57  81
BRANCH  69  92
ATOM     92  C   UNL     1       4.751   0.064  12.541  1.00  0.00     0.064 A 
ATOM     93  C   UNL     1       3.837  -0.770  13.200  1.00  0.00     0.173 A 
ATOM     94  C   UNL     1       5.735   0.704  13.311  1.00  0.00     0.173 A 
ATOM     95  F   UNL     1       2.873  -1.395  12.508  1.00  0.00    -0.203 F 
ATOM     96  C   UNL     1       3.903  -0.952  14.578  1.00  0.00     0.198 A 
ATOM     97  C   UNL     1       5.818   0.494  14.683  1.00  0.00     0.198 A 
ATOM     98  F   UNL     1       6.640   1.502  12.724  1.00  0.00    -0.203 F 
ATOM     99  F   UNL     1       3.001  -1.730  15.192  1.00  0.00    -0.200 F 
ATOM    100  C   UNL     1       4.900  -0.331  15.316  1.00  0.00     0.200 A 
ATOM    101  F   UNL     1       6.796   1.076  15.391  1.00  0.00    -0.200 F 
ATOM    102  F   UNL     1       4.978  -0.530  16.639  1.00  0.00    -0.200 F 
ENDBRANCH  69  92
ENDBRANCH  43  44
ENDBRANCH  35  38
ENDBRANCH  33  34
ENDBRANCH  32  33
ENDBRANCH  31  32
ENDBRANCH  30  31
ENDBRANCH   1  30
TORSDOF 17
