REMARK SMILES CO[C@@H]1C[C@H](C(=O)NCCCCCCNC(=O)c2ccc(-c3c4nc(c(-c5c(F)c(F)c(F)c(F)c5F)c5ccc([nH]5)c(-c5c(F)c(F)c(F)c(F)c5F)c5nc(c(-c6c(F)c(F)c(F)c(F)c6F)c6ccc3[nH]6)C=C5)C=C4)cc2)N(C(=O)c2ccc([N+](=O)[O-])s2)C1
REMARK SMILES IDX 11 1 10 2 9 3 8 4 6 5 7 6 5 8 3 9 4 10 92 11 81 12 2 13 1 14
REMARK SMILES IDX 82 15 83 16 84 17 85 18 91 19 86 20 87 21 88 22 89 23 90 24
REMARK SMILES IDX 12 25 13 26 14 27 15 28 16 29 17 31 18 32 19 33 80 34 20 35
REMARK SMILES IDX 79 36 21 37 22 38 23 39 73 40 24 41 78 42 72 43 74 44 25 45
REMARK SMILES IDX 77 46 71 47 70 48 26 50 58 51 38 52 57 53 39 54 42 55 56 56
REMARK SMILES IDX 75 57 40 58 41 59 55 61 76 62 43 63 27 64 28 65 36 66 29 67
REMARK SMILES IDX 30 68 34 69 37 70 31 71 32 72 35 73 33 74 59 75 60 76 68 77
REMARK SMILES IDX 61 78 62 79 66 80 69 81 63 82 64 83 67 84 65 85 44 86 45 87
REMARK SMILES IDX 53 88 46 89 47 90 51 91 54 92 48 93 49 94 52 95 50 96
REMARK H PARENT 8 7 15 30 74 49 42 60
REMARK Flexibility Score: inf
ROOT
ATOM      1  C   UNL     1      -2.931   0.207  -0.206  1.00  0.00     0.002 C 
ENDROOT
BRANCH   1   2
ATOM      2  C   UNL     1      -1.616  -0.334   0.363  1.00  0.00     0.021 C 
BRANCH   2   3
ATOM      3  C   UNL     1      -0.910  -1.382  -0.508  1.00  0.00     0.116 C 
BRANCH   3   4
ATOM      4  N   UNL     1      -0.046  -0.741  -1.484  1.00  0.00    -0.354 N 
ATOM      5  C   UNL     1       1.294  -0.730  -1.682  1.00  0.00     0.242 C 
ATOM      6  O   UNL     1       1.704   0.134  -2.474  1.00  0.00    -0.273 OA
ATOM      7  H   UNL     1      -0.539  -0.198  -2.140  1.00  0.00     0.163 HD
BRANCH   5   8
ATOM      8  C   UNL     1       2.349  -1.601  -0.953  1.00  0.00     0.177 C 
ATOM      9  C   UNL     1       2.305  -1.383   1.438  1.00  0.00     0.139 C 
ATOM     10  C   UNL     1       3.058  -0.900   0.199  1.00  0.00     0.069 C 
ATOM     11  C   UNL     1       1.929  -2.834   1.073  1.00  0.00     0.152 C 
ATOM     12  N   UNL     1       1.994  -2.897  -0.387  1.00  0.00    -0.323 N 
BRANCH   9  13
ATOM     13  O   UNL     1       1.133  -0.616   1.706  1.00  0.00    -0.380 OA
ATOM     14  C   UNL     1       1.383   0.776   1.879  1.00  0.00     0.195 C 
ENDBRANCH   9  13
BRANCH  12  15
ATOM     15  C   UNL     1       2.070  -4.124  -1.036  1.00  0.00     0.264 C 
ATOM     16  O   UNL     1       1.608  -5.145  -0.532  1.00  0.00    -0.268 OA
BRANCH  15  17
ATOM     17  C   UNL     1       2.862  -4.140  -2.255  1.00  0.00     0.099 A 
ATOM     18  C   UNL     1       4.228  -3.927  -2.366  1.00  0.00     0.033 A 
ATOM     19  S   UNL     1       2.139  -4.416  -3.777  1.00  0.00    -0.058 S 
ATOM     20  C   UNL     1       4.655  -3.869  -3.723  1.00  0.00     0.099 A 
ATOM     21  C   UNL     1       3.608  -4.114  -4.586  1.00  0.00     0.324 A 
BRANCH  21  22
ATOM     22  N   UNL     1       3.677  -4.112  -6.024  1.00  0.00     0.074 N 
ATOM     23  O   UNL     1       4.743  -3.719  -6.519  1.00  0.00    -0.258 OA
ATOM     24  O   UNL     1       2.690  -4.497  -6.661  1.00  0.00    -0.258 OA
ENDBRANCH  21  22
ENDBRANCH  15  17
ENDBRANCH  12  15
ENDBRANCH   5   8
ENDBRANCH   3   4
ENDBRANCH   2   3
ENDBRANCH   1   2
BRANCH   1  25
ATOM     25  C   UNL     1      -4.096  -0.786  -0.234  1.00  0.00     0.002 C 
BRANCH  25  26
ATOM     26  C   UNL     1      -4.424  -1.474   1.095  1.00  0.00     0.021 C 
BRANCH  26  27
ATOM     27  C   UNL     1      -4.667  -0.542   2.282  1.00  0.00     0.116 C 
BRANCH  27  28
ATOM     28  N   UNL     1      -5.785   0.359   2.062  1.00  0.00    -0.352 N 
ATOM     29  C   UNL     1      -6.970   0.492   2.740  1.00  0.00     0.251 C 
ATOM     30  H   UNL     1      -5.674   0.976   1.303  1.00  0.00     0.163 HD
ATOM     31  O   UNL     1      -7.859   1.200   2.274  1.00  0.00    -0.269 OA
BRANCH  29  32
ATOM     32  C   UNL     1      -7.202  -0.212   4.021  1.00  0.00     0.039 A 
ATOM     33  C   UNL     1      -8.459  -0.783   4.248  1.00  0.00     0.014 A 
ATOM     34  C   UNL     1      -6.229  -0.255   5.024  1.00  0.00     0.014 A 
ATOM     35  C   UNL     1      -8.726  -1.427   5.458  1.00  0.00     0.010 A 
ATOM     36  C   UNL     1      -6.473  -0.954   6.206  1.00  0.00     0.010 A 
ATOM     37  C   UNL     1      -7.729  -1.534   6.441  1.00  0.00    -0.014 A 
BRANCH  37  38
ATOM     38  C   UNL     1      -8.005  -2.231   7.724  1.00  0.00     0.031 A 
ATOM     39  C   UNL     1      -8.042  -1.464   9.016  1.00  0.00     0.074 A 
ATOM     40  C   UNL     1      -8.195  -3.564   7.730  1.00  0.00     0.049 A 
ATOM     41  N   UNL     1      -8.268  -1.897  10.232  1.00  0.00    -0.248 NA
ATOM     42  C   UNL     1      -7.761  -0.022   8.936  1.00  0.00     0.031 C 
ATOM     43  C   UNL     1      -8.126  -4.431   6.553  1.00  0.00     0.029 A 
ATOM     44  N   UNL     1      -8.480  -4.423   8.761  1.00  0.00    -0.354 N 
ATOM     45  C   UNL     1      -8.153  -0.786  11.057  1.00  0.00     0.074 A 
ATOM     46  C   UNL     1      -7.778   0.329  10.213  1.00  0.00     0.031 C 
ATOM     47  C   UNL     1      -8.380  -5.696   6.925  1.00  0.00     0.029 A 
ATOM     48  C   UNL     1      -8.611  -5.731   8.366  1.00  0.00     0.049 A 
ATOM     49  H   UNL     1      -8.581  -4.130   9.695  1.00  0.00     0.167 HD
ATOM     50  C   UNL     1      -8.366  -0.696  12.393  1.00  0.00     0.037 A 
ATOM     51  C   UNL     1      -8.893  -6.835   9.085  1.00  0.00     0.037 A 
ATOM     52  C   UNL     1      -8.752  -1.801  13.230  1.00  0.00     0.049 A 
ATOM     53  C   UNL     1      -9.160  -6.705  10.559  1.00  0.00     0.074 A 
ATOM     54  C   UNL     1      -9.027  -1.806  14.587  1.00  0.00     0.029 A 
ATOM     55  N   UNL     1      -8.920  -3.105  12.785  1.00  0.00    -0.354 N 
ATOM     56  N   UNL     1      -9.113  -5.637  11.317  1.00  0.00    -0.248 NA
ATOM     57  C   UNL     1      -9.541  -7.932  11.272  1.00  0.00     0.031 C 
ATOM     58  C   UNL     1      -9.329  -3.119  14.969  1.00  0.00     0.029 A 
ATOM     59  C   UNL     1      -9.287  -3.924  13.842  1.00  0.00     0.049 A 
ATOM     60  H   UNL     1      -8.797  -3.404  11.855  1.00  0.00     0.167 HD
ATOM     61  C   UNL     1      -9.478  -6.056  12.589  1.00  0.00     0.074 A 
ATOM     62  C   UNL     1      -9.764  -7.473  12.495  1.00  0.00     0.031 C 
ATOM     63  C   UNL     1      -9.568  -5.332  13.732  1.00  0.00     0.037 A 
BRANCH  50  64
ATOM     64  C   UNL     1      -8.191   0.655  13.026  1.00  0.00     0.064 A 
ATOM     65  C   UNL     1      -9.090   1.704  12.777  1.00  0.00     0.173 A 
ATOM     66  C   UNL     1      -7.122   0.903  13.900  1.00  0.00     0.173 A 
ATOM     67  F   UNL     1     -10.122   1.522  11.939  1.00  0.00    -0.203 F 
ATOM     68  C   UNL     1      -8.906   2.959  13.350  1.00  0.00     0.198 A 
ATOM     69  C   UNL     1      -6.958   2.152  14.496  1.00  0.00     0.198 A 
ATOM     70  F   UNL     1      -6.236  -0.065  14.178  1.00  0.00    -0.203 F 
ATOM     71  F   UNL     1      -9.746   3.960  13.051  1.00  0.00    -0.200 F 
ATOM     72  C   UNL     1      -7.843   3.181  14.213  1.00  0.00     0.200 A 
ATOM     73  F   UNL     1      -5.937   2.362  15.338  1.00  0.00    -0.200 F 
ATOM     74  F   UNL     1      -7.667   4.390  14.763  1.00  0.00    -0.200 F 
ENDBRANCH  50  64
BRANCH  51  75
ATOM     75  C   UNL     1      -8.980  -8.151   8.404  1.00  0.00     0.064 A 
ATOM     76  C   UNL     1     -10.216  -8.783   8.209  1.00  0.00     0.173 A 
ATOM     77  C   UNL     1      -7.832  -8.796   7.921  1.00  0.00     0.173 A 
ATOM     78  F   UNL     1     -11.338  -8.212   8.671  1.00  0.00    -0.203 F 
ATOM     79  C   UNL     1     -10.300 -10.018   7.572  1.00  0.00     0.198 A 
ATOM     80  C   UNL     1      -7.920 -10.020   7.260  1.00  0.00     0.198 A 
ATOM     81  F   UNL     1      -6.627  -8.229   8.076  1.00  0.00    -0.203 F 
ATOM     82  F   UNL     1     -11.490 -10.618   7.433  1.00  0.00    -0.200 F 
ATOM     83  C   UNL     1      -9.153 -10.633   7.092  1.00  0.00     0.200 A 
ATOM     84  F   UNL     1      -6.811 -10.604   6.786  1.00  0.00    -0.200 F 
ATOM     85  F   UNL     1      -9.235 -11.818   6.472  1.00  0.00    -0.200 F 
ENDBRANCH  51  75
BRANCH  63  86
ATOM     86  C   UNL     1     -10.018  -6.059  14.966  1.00  0.00     0.064 A 
ATOM     87  C   UNL     1      -9.189  -6.982  15.621  1.00  0.00     0.173 A 
ATOM     88  C   UNL     1     -11.288  -5.815  15.510  1.00  0.00     0.173 A 
ATOM     89  F   UNL     1      -7.970  -7.260  15.133  1.00  0.00    -0.203 F 
ATOM     90  C   UNL     1      -9.628  -7.659  16.756  1.00  0.00     0.198 A 
ATOM     91  C   UNL     1     -11.713  -6.473  16.660  1.00  0.00     0.198 A 
ATOM     92  F   UNL     1     -12.117  -4.937  14.925  1.00  0.00    -0.203 F 
ATOM     93  F   UNL     1      -8.840  -8.576  17.333  1.00  0.00    -0.200 F 
ATOM     94  C   UNL     1     -10.887  -7.401  17.277  1.00  0.00     0.200 A 
ATOM     95  F   UNL     1     -12.926  -6.215  17.169  1.00  0.00    -0.200 F 
ATOM     96  F   UNL     1     -11.309  -8.055  18.368  1.00  0.00    -0.200 F 
ENDBRANCH  63  86
ENDBRANCH  37  38
ENDBRANCH  29  32
ENDBRANCH  27  28
ENDBRANCH  26  27
ENDBRANCH  25  26
ENDBRANCH   1  25
TORSDOF 17
