REMARK SMILES Cc1cc(C(=O)N[C@@H](C)C(=O)NCCCCCCNC(=O)c2ccc(-c3c4nc(c(-c5c(F)c(F)c(F)c(F)c5F)c5ccc([nH]5)c(-c5c(F)c(F)c(F)c(F)c5F)c5nc(c(-c6c(F)c(F)c(F)c(F)c6F)c6ccc3[nH]6)C=C5)C=C4)cc2)cc(C)c1OC(F)F
REMARK SMILES IDX 14 1 13 2 12 3 10 4 11 5 8 7 9 8 7 9 5 10 6 11 4 13 1 14
REMARK SMILES IDX 2 15 3 16 88 17 86 18 85 19 87 20 89 21 90 22 91 23 92 24
REMARK SMILES IDX 15 25 16 26 17 27 18 28 19 29 20 30 21 32 22 33 23 34 84 35
REMARK SMILES IDX 24 36 83 37 25 38 26 39 27 40 77 41 28 42 82 43 76 44 78 45
REMARK SMILES IDX 29 46 81 47 75 48 74 49 30 51 62 52 42 53 61 54 43 55 46 56
REMARK SMILES IDX 60 57 79 58 44 59 45 60 59 62 80 63 47 64 31 65 32 66 40 67
REMARK SMILES IDX 33 68 34 69 38 70 41 71 35 72 36 73 39 74 37 75 63 76 64 77
REMARK SMILES IDX 72 78 65 79 66 80 70 81 73 82 67 83 68 84 71 85 69 86 48 87
REMARK SMILES IDX 49 88 57 89 50 90 51 91 55 92 58 93 52 94 53 95 56 96 54 97
REMARK H PARENT 12 6 7 12 19 31 78 50 46 61
REMARK Flexibility Score: inf
ROOT
ATOM      1  C   UNL     1      -7.171   0.526  -1.490  1.00  0.00     0.021 C 
ENDROOT
BRANCH   1   2
ATOM      2  C   UNL     1      -6.626  -0.475  -0.477  1.00  0.00     0.116 C 
BRANCH   2   3
ATOM      3  N   UNL     1      -5.728  -1.448  -1.067  1.00  0.00    -0.354 N 
ATOM      4  C   UNL     1      -4.521  -1.918  -0.633  1.00  0.00     0.242 C 
ATOM      5  O   UNL     1      -4.019  -2.862  -1.251  1.00  0.00    -0.273 OA
ATOM      6  H   UNL     1      -6.038  -1.832  -1.919  1.00  0.00     0.163 HD
BRANCH   4   7
ATOM      7  C   UNL     1      -3.803  -1.310   0.591  1.00  0.00     0.168 C 
ATOM      8  C   UNL     1      -4.564  -1.529   1.893  1.00  0.00     0.041 C 
BRANCH   7   9
ATOM      9  N   UNL     1      -3.497   0.094   0.314  1.00  0.00    -0.341 N 
ATOM     10  C   UNL     1      -2.383   0.723  -0.183  1.00  0.00     0.251 C 
ATOM     11  O   UNL     1      -2.495   1.917  -0.467  1.00  0.00    -0.269 OA
ATOM     12  H   UNL     1      -4.237   0.709   0.527  1.00  0.00     0.164 HD
BRANCH  10  13
ATOM     13  C   UNL     1      -1.045   0.078  -0.278  1.00  0.00     0.040 A 
ATOM     14  C   UNL     1       2.440   1.417   0.300  1.00  0.00     0.048 C 
ATOM     15  C   UNL     1       1.391   0.373   0.035  1.00  0.00    -0.008 A 
ATOM     16  C   UNL     1       0.073   0.889  -0.052  1.00  0.00     0.021 A 
ATOM     17  C   UNL     1       1.560  -1.020  -0.030  1.00  0.00     0.131 A 
ATOM     18  C   UNL     1       0.444  -1.832  -0.355  1.00  0.00    -0.008 A 
ATOM     19  C   UNL     1      -0.829  -1.264  -0.540  1.00  0.00     0.021 A 
ATOM     20  C   UNL     1       0.529  -3.338  -0.419  1.00  0.00     0.048 C 
BRANCH  17  21
ATOM     21  O   UNL     1       2.662  -1.756   0.294  1.00  0.00    -0.434 OA
BRANCH  21  22
ATOM     22  C   UNL     1       3.979  -1.314   0.041  1.00  0.00     0.542 C 
ATOM     23  F   UNL     1       4.053  -0.641  -1.129  1.00  0.00    -0.167 F 
ATOM     24  F   UNL     1       4.386  -0.511   1.051  1.00  0.00    -0.167 F 
ENDBRANCH  21  22
ENDBRANCH  17  21
ENDBRANCH  10  13
ENDBRANCH   7   9
ENDBRANCH   4   7
ENDBRANCH   2   3
ENDBRANCH   1   2
BRANCH   1  25
ATOM     25  C   UNL     1      -8.111  -0.056  -2.549  1.00  0.00     0.002 C 
BRANCH  25  26
ATOM     26  C   UNL     1      -9.296  -0.867  -2.017  1.00  0.00     0.002 C 
BRANCH  26  27
ATOM     27  C   UNL     1     -10.163  -0.179  -0.959  1.00  0.00     0.021 C 
BRANCH  27  28
ATOM     28  C   UNL     1     -10.736   1.180  -1.353  1.00  0.00     0.116 C 
BRANCH  28  29
ATOM     29  N   UNL     1     -11.588   1.111  -2.524  1.00  0.00    -0.352 N 
ATOM     30  C   UNL     1     -12.829   1.651  -2.747  1.00  0.00     0.251 C 
ATOM     31  H   UNL     1     -11.219   0.595  -3.277  1.00  0.00     0.163 HD
ATOM     32  O   UNL     1     -13.444   1.353  -3.767  1.00  0.00    -0.269 OA
BRANCH  30  33
ATOM     33  C   UNL     1     -13.451   2.570  -1.765  1.00  0.00     0.039 A 
ATOM     34  C   UNL     1     -14.822   2.442  -1.521  1.00  0.00     0.014 A 
ATOM     35  C   UNL     1     -12.725   3.578  -1.123  1.00  0.00     0.014 A 
ATOM     36  C   UNL     1     -15.452   3.290  -0.607  1.00  0.00     0.010 A 
ATOM     37  C   UNL     1     -13.341   4.383  -0.163  1.00  0.00     0.010 A 
ATOM     38  C   UNL     1     -14.713   4.252   0.099  1.00  0.00    -0.014 A 
BRANCH  38  39
ATOM     39  C   UNL     1     -15.379   5.109   1.115  1.00  0.00     0.031 A 
ATOM     40  C   UNL     1     -15.520   6.591   0.900  1.00  0.00     0.074 A 
ATOM     41  C   UNL     1     -15.843   4.546   2.248  1.00  0.00     0.049 A 
ATOM     42  N   UNL     1     -16.115   7.482   1.655  1.00  0.00    -0.248 NA
ATOM     43  C   UNL     1     -14.894   7.154  -0.306  1.00  0.00     0.031 C 
ATOM     44  C   UNL     1     -15.709   3.133   2.605  1.00  0.00     0.029 A 
ATOM     45  N   UNL     1     -16.526   5.092   3.306  1.00  0.00    -0.354 N 
ATOM     46  C   UNL     1     -15.924   8.704   1.024  1.00  0.00     0.074 A 
ATOM     47  C   UNL     1     -15.121   8.451  -0.152  1.00  0.00     0.031 C 
ATOM     48  C   UNL     1     -16.320   2.916   3.781  1.00  0.00     0.029 A 
ATOM     49  C   UNL     1     -16.869   4.176   4.271  1.00  0.00     0.049 A 
ATOM     50  H   UNL     1     -16.749   6.049   3.368  1.00  0.00     0.167 HD
ATOM     51  C   UNL     1     -16.394   9.923   1.383  1.00  0.00     0.037 A 
ATOM     52  C   UNL     1     -17.558   4.334   5.417  1.00  0.00     0.037 A 
ATOM     53  C   UNL     1     -17.228  10.167   2.531  1.00  0.00     0.049 A 
ATOM     54  C   UNL     1     -18.100   5.693   5.767  1.00  0.00     0.074 A 
ATOM     55  C   UNL     1     -17.833  11.349   2.923  1.00  0.00     0.029 A 
ATOM     56  N   UNL     1     -17.572   9.211   3.475  1.00  0.00    -0.354 N 
ATOM     57  N   UNL     1     -18.004   6.820   5.105  1.00  0.00    -0.248 NA
ATOM     58  C   UNL     1     -18.861   5.797   7.021  1.00  0.00     0.031 C 
ATOM     59  C   UNL     1     -18.507  11.120   4.128  1.00  0.00     0.029 A 
ATOM     60  C   UNL     1     -18.359   9.784   4.462  1.00  0.00     0.049 A 
ATOM     61  H   UNL     1     -17.299   8.266   3.448  1.00  0.00     0.167 HD
ATOM     62  C   UNL     1     -18.712   7.758   5.844  1.00  0.00     0.074 A 
ATOM     63  C   UNL     1     -19.253   7.062   6.993  1.00  0.00     0.031 C 
ATOM     64  C   UNL     1     -18.893   9.078   5.597  1.00  0.00     0.037 A 
BRANCH  51  65
ATOM     65  C   UNL     1     -16.032  11.098   0.522  1.00  0.00     0.064 A 
ATOM     66  C   UNL     1     -16.598  11.281  -0.748  1.00  0.00     0.173 A 
ATOM     67  C   UNL     1     -15.164  12.089   1.004  1.00  0.00     0.173 A 
ATOM     68  F   UNL     1     -17.427  10.358  -1.257  1.00  0.00    -0.203 F 
ATOM     69  C   UNL     1     -16.296  12.407  -1.510  1.00  0.00     0.198 A 
ATOM     70  C   UNL     1     -14.884  13.226   0.250  1.00  0.00     0.198 A 
ATOM     71  F   UNL     1     -14.601  11.965   2.216  1.00  0.00    -0.203 F 
ATOM     72  F   UNL     1     -16.824  12.546  -2.734  1.00  0.00    -0.200 F 
ATOM     73  C   UNL     1     -15.447  13.382  -1.008  1.00  0.00     0.200 A 
ATOM     74  F   UNL     1     -14.075  14.174   0.742  1.00  0.00    -0.200 F 
ATOM     75  F   UNL     1     -15.171  14.472  -1.737  1.00  0.00    -0.200 F 
ENDBRANCH  51  65
BRANCH  52  76
ATOM     76  C   UNL     1     -17.813   3.169   6.304  1.00  0.00     0.064 A 
ATOM     77  C   UNL     1     -19.107   2.654   6.463  1.00  0.00     0.173 A 
ATOM     78  C   UNL     1     -16.778   2.569   7.036  1.00  0.00     0.173 A 
ATOM     79  F   UNL     1     -20.133   3.208   5.800  1.00  0.00    -0.203 F 
ATOM     80  C   UNL     1     -19.362   1.605   7.343  1.00  0.00     0.198 A 
ATOM     81  C   UNL     1     -17.029   1.500   7.893  1.00  0.00     0.198 A 
ATOM     82  F   UNL     1     -15.521   3.021   6.916  1.00  0.00    -0.203 F 
ATOM     83  F   UNL     1     -20.618   1.171   7.518  1.00  0.00    -0.200 F 
ATOM     84  C   UNL     1     -18.323   1.026   8.055  1.00  0.00     0.200 A 
ATOM     85  F   UNL     1     -16.020   0.936   8.570  1.00  0.00    -0.200 F 
ATOM     86  F   UNL     1     -18.568   0.021   8.905  1.00  0.00    -0.200 F 
ENDBRANCH  52  76
BRANCH  64  87
ATOM     87  C   UNL     1     -19.732   9.845   6.577  1.00  0.00     0.064 A 
ATOM     88  C   UNL     1     -19.269  10.138   7.868  1.00  0.00     0.173 A 
ATOM     89  C   UNL     1     -21.011  10.298   6.218  1.00  0.00     0.173 A 
ATOM     90  F   UNL     1     -18.060   9.713   8.264  1.00  0.00    -0.203 F 
ATOM     91  C   UNL     1     -20.070  10.825   8.777  1.00  0.00     0.198 A 
ATOM     92  C   UNL     1     -21.796  11.011   7.119  1.00  0.00     0.198 A 
ATOM     93  F   UNL     1     -21.498  10.050   4.993  1.00  0.00    -0.203 F 
ATOM     94  F   UNL     1     -19.630  11.040  10.024  1.00  0.00    -0.200 F 
ATOM     95  C   UNL     1     -21.330  11.264   8.401  1.00  0.00     0.200 A 
ATOM     96  F   UNL     1     -23.009  11.446   6.751  1.00  0.00    -0.200 F 
ATOM     97  F   UNL     1     -22.101  11.922   9.278  1.00  0.00    -0.200 F 
ENDBRANCH  64  87
ENDBRANCH  38  39
ENDBRANCH  30  33
ENDBRANCH  28  29
ENDBRANCH  27  28
ENDBRANCH  26  27
ENDBRANCH  25  26
ENDBRANCH   1  25
TORSDOF 17
