REMARK SMILES C[C@H]1[C@H](C(=O)NCCCCCCNC(=O)c2ccc(-c3c4nc(c(-c5c(F)c(F)c(F)c(F)c5F)c5ccc([nH]5)c(-c5c(F)c(F)c(F)c(F)c5F)c5nc(c(-c6c(F)c(F)c(F)c(F)c6F)c6ccc3[nH]6)C=C5)C=C4)cc2)CC[N@@H+]1CC(=O)N1CCCC1
REMARK SMILES IDX 9 1 8 2 7 3 6 4 4 5 5 6 3 8 1 9 2 10 81 11 79 12 80 13 82 15
REMARK SMILES IDX 83 16 84 17 85 18 86 19 89 20 87 21 88 22 10 23 11 24 12 25
REMARK SMILES IDX 13 26 14 27 15 29 16 30 17 31 78 32 18 33 77 34 19 35 20 36
REMARK SMILES IDX 21 37 71 38 22 39 76 40 70 41 72 42 23 43 75 44 69 45 68 46
REMARK SMILES IDX 24 48 56 49 36 50 55 51 37 52 40 53 54 54 73 55 38 56 39 57
REMARK SMILES IDX 53 59 74 60 41 61 25 62 26 63 34 64 27 65 28 66 32 67 35 68
REMARK SMILES IDX 29 69 30 70 33 71 31 72 57 73 58 74 66 75 59 76 60 77 64 78
REMARK SMILES IDX 67 79 61 80 62 81 65 82 63 83 42 84 43 85 51 86 44 87 45 88
REMARK SMILES IDX 49 89 52 90 46 91 47 92 50 93 48 94
REMARK H PARENT 6 7 81 14 13 28 72 47 40 58
REMARK Flexibility Score: inf
ROOT
ATOM      1  C   UNL     1      -1.740   1.278   5.515  1.00  0.00     0.002 C 
ENDROOT
BRANCH   1   2
ATOM      2  C   UNL     1      -1.787   0.352   4.293  1.00  0.00     0.021 C 
BRANCH   2   3
ATOM      3  C   UNL     1      -2.365   0.786   2.924  1.00  0.00     0.116 C 
BRANCH   3   4
ATOM      4  N   UNL     1      -1.704   1.892   2.226  1.00  0.00    -0.356 N 
ATOM      5  C   UNL     1      -1.278   2.172   0.962  1.00  0.00     0.229 C 
ATOM      6  O   UNL     1      -0.925   3.356   0.812  1.00  0.00    -0.275 OA
ATOM      7  H   UNL     1      -1.515   2.638   2.840  1.00  0.00     0.163 HD
BRANCH   5   8
ATOM      8  C   UNL     1      -1.080   1.240  -0.260  1.00  0.00     0.142 C 
ATOM      9  C   UNL     1       1.107   0.835  -1.676  1.00  0.00     0.076 C 
ATOM     10  C   UNL     1       0.342   0.674  -0.357  1.00  0.00     0.194 C 
ATOM     11  N   UNL     1       0.240  -0.766  -0.162  1.00  0.00    -0.324 N 
ATOM     12  C   UNL     1      -2.002   0.058  -0.438  1.00  0.00     0.081 C 
ATOM     13  C   UNL     1      -1.156  -1.180  -0.154  1.00  0.00     0.263 C 
ATOM     14  H   UNL     1       0.640  -1.231  -0.977  1.00  0.00     0.348 HD
BRANCH  11  15
ATOM     15  C   UNL     1       1.142  -1.327   0.858  1.00  0.00     0.364 C 
BRANCH  15  16
ATOM     16  C   UNL     1       1.006  -0.645   2.224  1.00  0.00     0.277 C 
ATOM     17  O   UNL     1       0.260  -1.178   3.046  1.00  0.00    -0.268 OA
ATOM     18  N   UNL     1       1.694   0.544   2.446  1.00  0.00    -0.338 N 
ATOM     19  C   UNL     1       3.015   0.855   1.937  1.00  0.00     0.119 C 
ATOM     20  C   UNL     1       1.228   1.685   3.215  1.00  0.00     0.119 C 
ATOM     21  C   UNL     1       3.551   1.959   2.858  1.00  0.00     0.023 C 
ATOM     22  C   UNL     1       2.460   2.225   3.887  1.00  0.00     0.023 C 
ENDBRANCH  15  16
ENDBRANCH  11  15
ENDBRANCH   5   8
ENDBRANCH   3   4
ENDBRANCH   2   3
ENDBRANCH   1   2
BRANCH   1  23
ATOM     23  C   UNL     1      -2.828   1.039   6.562  1.00  0.00     0.002 C 
BRANCH  23  24
ATOM     24  C   UNL     1      -3.064  -0.424   6.963  1.00  0.00     0.021 C 
BRANCH  24  25
ATOM     25  C   UNL     1      -1.816  -1.190   7.406  1.00  0.00     0.116 C 
BRANCH  25  26
ATOM     26  N   UNL     1      -1.297  -0.674   8.666  1.00  0.00    -0.352 N 
ATOM     27  C   UNL     1      -1.438  -1.218   9.917  1.00  0.00     0.251 C 
ATOM     28  H   UNL     1      -0.785   0.165   8.614  1.00  0.00     0.163 HD
ATOM     29  O   UNL     1      -1.235  -0.557  10.934  1.00  0.00    -0.269 OA
BRANCH  27  30
ATOM     30  C   UNL     1      -1.837  -2.632  10.020  1.00  0.00     0.039 A 
ATOM     31  C   UNL     1      -2.963  -2.988  10.762  1.00  0.00     0.014 A 
ATOM     32  C   UNL     1      -1.103  -3.594   9.319  1.00  0.00     0.014 A 
ATOM     33  C   UNL     1      -3.386  -4.317  10.759  1.00  0.00     0.010 A 
ATOM     34  C   UNL     1      -1.572  -4.899   9.255  1.00  0.00     0.010 A 
ATOM     35  C   UNL     1      -2.709  -5.276   9.985  1.00  0.00    -0.014 A 
BRANCH  35  36
ATOM     36  C   UNL     1      -3.159  -6.689   9.948  1.00  0.00     0.031 A 
ATOM     37  C   UNL     1      -2.262  -7.769  10.487  1.00  0.00     0.074 A 
ATOM     38  C   UNL     1      -4.341  -7.000   9.383  1.00  0.00     0.049 A 
ATOM     39  N   UNL     1      -2.447  -9.064  10.514  1.00  0.00    -0.248 NA
ATOM     40  C   UNL     1      -0.969  -7.337  11.042  1.00  0.00     0.031 C 
ATOM     41  C   UNL     1      -5.266  -6.042   8.778  1.00  0.00     0.029 A 
ATOM     42  N   UNL     1      -4.964  -8.212   9.221  1.00  0.00    -0.354 N 
ATOM     43  C   UNL     1      -1.295  -9.596  11.077  1.00  0.00     0.074 A 
ATOM     44  C   UNL     1      -0.388  -8.495  11.311  1.00  0.00     0.031 C 
ATOM     45  C   UNL     1      -6.354  -6.697   8.341  1.00  0.00     0.029 A 
ATOM     46  C   UNL     1      -6.185  -8.124   8.598  1.00  0.00     0.049 A 
ATOM     47  H   UNL     1      -4.573  -9.064   9.523  1.00  0.00     0.167 HD
ATOM     48  C   UNL     1      -1.031 -10.884  11.400  1.00  0.00     0.037 A 
ATOM     49  C   UNL     1      -7.065  -9.090   8.272  1.00  0.00     0.037 A 
ATOM     50  C   UNL     1      -1.949 -11.969  11.178  1.00  0.00     0.049 A 
ATOM     51  C   UNL     1      -6.741 -10.517   8.626  1.00  0.00     0.074 A 
ATOM     52  C   UNL     1      -1.808 -13.302  11.517  1.00  0.00     0.029 A 
ATOM     53  N   UNL     1      -3.180 -11.842  10.551  1.00  0.00    -0.354 N 
ATOM     54  N   UNL     1      -5.684 -11.001   9.234  1.00  0.00    -0.248 NA
ATOM     55  C   UNL     1      -7.736 -11.532   8.256  1.00  0.00     0.031 C 
ATOM     56  C   UNL     1      -2.928 -13.992  11.042  1.00  0.00     0.029 A 
ATOM     57  C   UNL     1      -3.797 -13.079  10.465  1.00  0.00     0.049 A 
ATOM     58  H   UNL     1      -3.559 -10.997  10.216  1.00  0.00     0.167 HD
ATOM     59  C   UNL     1      -5.897 -12.368   9.345  1.00  0.00     0.074 A 
ATOM     60  C   UNL     1      -7.195 -12.633   8.759  1.00  0.00     0.031 C 
ATOM     61  C   UNL     1      -5.093 -13.319   9.881  1.00  0.00     0.037 A 
BRANCH  48  62
ATOM     62  C   UNL     1       0.302 -11.183  12.026  1.00  0.00     0.064 A 
ATOM     63  C   UNL     1       0.635 -10.723  13.311  1.00  0.00     0.173 A 
ATOM     64  C   UNL     1       1.254 -11.955  11.343  1.00  0.00     0.173 A 
ATOM     65  F   UNL     1      -0.233  -9.970  14.005  1.00  0.00    -0.203 F 
ATOM     66  C   UNL     1       1.881 -10.992  13.870  1.00  0.00     0.198 A 
ATOM     67  C   UNL     1       2.485 -12.253  11.921  1.00  0.00     0.198 A 
ATOM     68  F   UNL     1       0.989 -12.426  10.115  1.00  0.00    -0.203 F 
ATOM     69  F   UNL     1       2.197 -10.489  15.072  1.00  0.00    -0.200 F 
ATOM     70  C   UNL     1       2.802 -11.763  13.178  1.00  0.00     0.200 A 
ATOM     71  F   UNL     1       3.369 -13.011  11.257  1.00  0.00    -0.200 F 
ATOM     72  F   UNL     1       3.999 -12.026  13.720  1.00  0.00    -0.200 F 
ENDBRANCH  48  62
BRANCH  49  73
ATOM     73  C   UNL     1      -8.344  -8.739   7.598  1.00  0.00     0.064 A 
ATOM     74  C   UNL     1      -9.572  -8.894   8.256  1.00  0.00     0.173 A 
ATOM     75  C   UNL     1      -8.369  -8.246   6.285  1.00  0.00     0.173 A 
ATOM     76  F   UNL     1      -9.605  -9.378   9.507  1.00  0.00    -0.203 F 
ATOM     77  C   UNL     1     -10.776  -8.596   7.619  1.00  0.00     0.198 A 
ATOM     78  C   UNL     1      -9.570  -7.918   5.660  1.00  0.00     0.198 A 
ATOM     79  F   UNL     1      -7.223  -8.072   5.611  1.00  0.00    -0.203 F 
ATOM     80  F   UNL     1     -11.937  -8.803   8.255  1.00  0.00    -0.200 F 
ATOM     81  C   UNL     1     -10.773  -8.102   6.324  1.00  0.00     0.200 A 
ATOM     82  F   UNL     1      -9.562  -7.424   4.414  1.00  0.00    -0.200 F 
ATOM     83  F   UNL     1     -11.930  -7.810   5.713  1.00  0.00    -0.200 F 
ENDBRANCH  49  73
BRANCH  61  84
ATOM     84  C   UNL     1      -5.607 -14.730   9.888  1.00  0.00     0.064 A 
ATOM     85  C   UNL     1      -5.732 -15.477   8.707  1.00  0.00     0.173 A 
ATOM     86  C   UNL     1      -5.938 -15.357  11.099  1.00  0.00     0.173 A 
ATOM     87  F   UNL     1      -5.442 -14.919   7.521  1.00  0.00    -0.203 F 
ATOM     88  C   UNL     1      -6.197 -16.789   8.736  1.00  0.00     0.198 A 
ATOM     89  C   UNL     1      -6.367 -16.681  11.128  1.00  0.00     0.198 A 
ATOM     90  F   UNL     1      -5.828 -14.691  12.258  1.00  0.00    -0.203 F 
ATOM     91  F   UNL     1      -6.360 -17.464   7.590  1.00  0.00    -0.200 F 
ATOM     92  C   UNL     1      -6.505 -17.392   9.946  1.00  0.00     0.200 A 
ATOM     93  F   UNL     1      -6.646 -17.268  12.300  1.00  0.00    -0.200 F 
ATOM     94  F   UNL     1      -6.942 -18.659   9.972  1.00  0.00    -0.200 F 
ENDBRANCH  61  84
ENDBRANCH  35  36
ENDBRANCH  27  30
ENDBRANCH  25  26
ENDBRANCH  24  25
ENDBRANCH  23  24
ENDBRANCH   1  23
TORSDOF 15
