REMARK SMILES COc1ccc(-n2nc(C(=O)NCCCCCCNC(=O)c3ccc(-c4c5nc(c(-c6c(F)c(F)c(F)c(F)c6F)c6ccc([nH]6)c(-c6c(F)c(F)c(F)c(F)c6F)c6nc(c(-c7c(F)c(F)c(F)c(F)c7F)c7ccc4[nH]7)C=C6)C=C5)cc3)c(=O)cc2C)cc1
REMARK SMILES IDX 15 1 14 2 13 3 12 4 10 5 11 6 9 8 7 9 8 10 88 11 87 12 89 13
REMARK SMILES IDX 85 14 86 15 6 16 3 17 4 18 91 19 5 20 90 21 2 22 1 23 16 24
REMARK SMILES IDX 17 25 18 26 19 27 20 28 21 30 22 31 23 32 84 33 24 34 83 35
REMARK SMILES IDX 25 36 26 37 27 38 77 39 28 40 82 41 76 42 78 43 29 44 81 45
REMARK SMILES IDX 75 46 74 47 30 49 62 50 42 51 61 52 43 53 46 54 60 55 79 56
REMARK SMILES IDX 44 57 45 58 59 60 80 61 47 62 31 63 32 64 40 65 33 66 34 67
REMARK SMILES IDX 38 68 41 69 35 70 36 71 39 72 37 73 63 74 64 75 72 76 65 77
REMARK SMILES IDX 66 78 70 79 73 80 67 81 68 82 71 83 69 84 48 85 49 86 57 87
REMARK SMILES IDX 50 88 51 89 55 90 58 91 52 92 53 93 56 94 54 95
REMARK H PARENT 12 7 19 29 78 48 46 59
REMARK Flexibility Score: inf
ROOT
ATOM      1  C   UNL     1       0.656  11.389  -7.261  1.00  0.00     0.002 C 
ENDROOT
BRANCH   1   2
ATOM      2  C   UNL     1       1.170   9.966  -7.503  1.00  0.00     0.021 C 
BRANCH   2   3
ATOM      3  C   UNL     1       1.975   9.333  -6.371  1.00  0.00     0.116 C 
BRANCH   3   4
ATOM      4  N   UNL     1       1.160   8.999  -5.223  1.00  0.00    -0.351 N 
ATOM      5  C   UNL     1       1.183   7.901  -4.396  1.00  0.00     0.275 C 
ATOM      6  O   UNL     1       0.458   7.910  -3.402  1.00  0.00    -0.267 OA
ATOM      7  H   UNL     1       0.475   9.669  -4.997  1.00  0.00     0.163 HD
BRANCH   5   8
ATOM      8  C   UNL     1       2.035   6.663  -4.662  1.00  0.00     0.196 A 
ATOM      9  N   UNL     1       2.244   4.378  -4.428  1.00  0.00    -0.237 N 
ATOM     10  N   UNL     1       1.491   5.524  -4.320  1.00  0.00    -0.158 NA
ATOM     11  C   UNL     1       3.390   4.299  -5.225  1.00  0.00     0.044 A 
ATOM     12  C   UNL     1       3.994   5.405  -5.682  1.00  0.00     0.078 A 
ATOM     13  C   UNL     1       3.957   2.958  -5.630  1.00  0.00     0.067 C 
ATOM     14  C   UNL     1       3.447   6.683  -5.202  1.00  0.00     0.213 A 
ATOM     15  O   UNL     1       4.109   7.708  -5.247  1.00  0.00    -0.287 OA
BRANCH   9  16
ATOM     16  C   UNL     1       1.790   3.325  -3.577  1.00  0.00     0.065 A 
ATOM     17  C   UNL     1       0.877   1.244  -1.899  1.00  0.00     0.119 A 
ATOM     18  C   UNL     1      -0.011   1.917  -2.738  1.00  0.00     0.048 A 
ATOM     19  C   UNL     1       2.222   1.608  -1.890  1.00  0.00     0.048 A 
ATOM     20  C   UNL     1       0.436   2.964  -3.550  1.00  0.00     0.032 A 
ATOM     21  C   UNL     1       2.673   2.642  -2.722  1.00  0.00     0.032 A 
BRANCH  17  22
ATOM     22  O   UNL     1       0.341   0.215  -1.175  1.00  0.00    -0.497 OA
ATOM     23  C   UNL     1       0.898   0.035   0.123  1.00  0.00     0.278 C 
ENDBRANCH  17  22
ENDBRANCH   9  16
ENDBRANCH   5   8
ENDBRANCH   3   4
ENDBRANCH   2   3
ENDBRANCH   1   2
BRANCH   1  24
ATOM     24  C   UNL     1       1.712  12.450  -6.933  1.00  0.00     0.002 C 
BRANCH  24  25
ATOM     25  C   UNL     1       2.916  12.515  -7.875  1.00  0.00     0.021 C 
BRANCH  25  26
ATOM     26  C   UNL     1       2.585  12.702  -9.352  1.00  0.00     0.116 C 
BRANCH  26  27
ATOM     27  N   UNL     1       1.889  13.951  -9.616  1.00  0.00    -0.352 N 
ATOM     28  C   UNL     1       2.207  14.962 -10.486  1.00  0.00     0.251 C 
ATOM     29  H   UNL     1       1.067  14.091  -9.092  1.00  0.00     0.163 HD
ATOM     30  O   UNL     1       1.595  16.027 -10.444  1.00  0.00    -0.269 OA
BRANCH  28  31
ATOM     31  C   UNL     1       3.299  14.785 -11.467  1.00  0.00     0.039 A 
ATOM     32  C   UNL     1       4.211  15.827 -11.657  1.00  0.00     0.014 A 
ATOM     33  C   UNL     1       3.413  13.609 -12.212  1.00  0.00     0.014 A 
ATOM     34  C   UNL     1       5.272  15.666 -12.550  1.00  0.00     0.010 A 
ATOM     35  C   UNL     1       4.511  13.421 -13.048  1.00  0.00     0.010 A 
ATOM     36  C   UNL     1       5.450  14.449 -13.229  1.00  0.00    -0.014 A 
BRANCH  36  37
ATOM     37  C   UNL     1       6.611  14.234 -14.129  1.00  0.00     0.031 A 
ATOM     38  C   UNL     1       6.396  14.001 -15.599  1.00  0.00     0.074 A 
ATOM     39  C   UNL     1       7.854  14.185 -13.612  1.00  0.00     0.049 A 
ATOM     40  N   UNL     1       7.273  13.725 -16.531  1.00  0.00    -0.248 NA
ATOM     41  C   UNL     1       5.008  14.061 -16.081  1.00  0.00     0.031 C 
ATOM     42  C   UNL     1       8.186  14.352 -12.196  1.00  0.00     0.029 A 
ATOM     43  N   UNL     1       9.068  13.968 -14.214  1.00  0.00    -0.354 N 
ATOM     44  C   UNL     1       6.543  13.566 -17.702  1.00  0.00     0.074 A 
ATOM     45  C   UNL     1       5.148  13.722 -17.354  1.00  0.00     0.031 C 
ATOM     46  C   UNL     1       9.516  14.253 -12.042  1.00  0.00     0.029 A 
ATOM     47  C   UNL     1      10.126  13.974 -13.338  1.00  0.00     0.049 A 
ATOM     48  H   UNL     1       9.171  13.823 -15.182  1.00  0.00     0.167 HD
ATOM     49  C   UNL     1       6.998  13.335 -18.957  1.00  0.00     0.037 A 
ATOM     50  C   UNL     1      11.439  13.766 -13.555  1.00  0.00     0.037 A 
ATOM     51  C   UNL     1       8.390  13.201 -19.300  1.00  0.00     0.049 A 
ATOM     52  C   UNL     1      11.916  13.494 -14.956  1.00  0.00     0.074 A 
ATOM     53  C   UNL     1       8.958  13.023 -20.550  1.00  0.00     0.029 A 
ATOM     54  N   UNL     1       9.435  13.224 -18.387  1.00  0.00    -0.354 N 
ATOM     55  N   UNL     1      11.224  13.415 -16.066  1.00  0.00    -0.248 NA
ATOM     56  C   UNL     1      13.360  13.287 -15.135  1.00  0.00     0.031 C 
ATOM     57  C   UNL     1      10.340  12.885 -20.387  1.00  0.00     0.029 A 
ATOM     58  C   UNL     1      10.641  13.037 -19.043  1.00  0.00     0.049 A 
ATOM     59  H   UNL     1       9.334  13.355 -17.416  1.00  0.00     0.167 HD
ATOM     60  C   UNL     1      12.147  13.182 -17.077  1.00  0.00     0.074 A 
ATOM     61  C   UNL     1      13.451  13.146 -16.449  1.00  0.00     0.031 C 
ATOM     62  C   UNL     1      11.933  13.011 -18.405  1.00  0.00     0.037 A 
BRANCH  49  63
ATOM     63  C   UNL     1       5.981  13.211 -20.055  1.00  0.00     0.064 A 
ATOM     64  C   UNL     1       5.229  14.314 -20.492  1.00  0.00     0.173 A 
ATOM     65  C   UNL     1       5.782  11.985 -20.707  1.00  0.00     0.173 A 
ATOM     66  F   UNL     1       5.373  15.507 -19.897  1.00  0.00    -0.203 F 
ATOM     67  C   UNL     1       4.296  14.185 -21.517  1.00  0.00     0.198 A 
ATOM     68  C   UNL     1       4.871  11.868 -21.755  1.00  0.00     0.198 A 
ATOM     69  F   UNL     1       6.478  10.900 -20.336  1.00  0.00    -0.203 F 
ATOM     70  F   UNL     1       3.553  15.240 -21.881  1.00  0.00    -0.200 F 
ATOM     71  C   UNL     1       4.123  12.965 -22.153  1.00  0.00     0.200 A 
ATOM     72  F   UNL     1       4.716  10.691 -22.378  1.00  0.00    -0.200 F 
ATOM     73  F   UNL     1       3.231  12.845 -23.145  1.00  0.00    -0.200 F 
ENDBRANCH  49  63
BRANCH  50  74
ATOM     74  C   UNL     1      12.398  13.825 -12.420  1.00  0.00     0.064 A 
ATOM     75  C   UNL     1      13.341  14.859 -12.327  1.00  0.00     0.173 A 
ATOM     76  C   UNL     1      12.401  12.849 -11.413  1.00  0.00     0.173 A 
ATOM     77  F   UNL     1      13.392  15.805 -13.276  1.00  0.00    -0.203 F 
ATOM     78  C   UNL     1      14.263  14.902 -11.283  1.00  0.00     0.198 A 
ATOM     79  C   UNL     1      13.303  12.909 -10.353  1.00  0.00     0.198 A 
ATOM     80  F   UNL     1      11.517  11.841 -11.453  1.00  0.00    -0.203 F 
ATOM     81  F   UNL     1      15.185  15.873 -11.246  1.00  0.00    -0.200 F 
ATOM     82  C   UNL     1      14.239  13.930 -10.294  1.00  0.00     0.200 A 
ATOM     83  F   UNL     1      13.267  11.977  -9.392  1.00  0.00    -0.200 F 
ATOM     84  F   UNL     1      15.124  13.973  -9.289  1.00  0.00    -0.200 F 
ENDBRANCH  50  74
BRANCH  62  85
ATOM     85  C   UNL     1      13.139  12.809 -19.277  1.00  0.00     0.064 A 
ATOM     86  C   UNL     1      13.885  11.622 -19.243  1.00  0.00     0.173 A 
ATOM     87  C   UNL     1      13.528  13.803 -20.189  1.00  0.00     0.173 A 
ATOM     88  F   UNL     1      13.563  10.648 -18.378  1.00  0.00    -0.203 F 
ATOM     89  C   UNL     1      14.991  11.448 -20.070  1.00  0.00     0.198 A 
ATOM     90  C   UNL     1      14.614  13.611 -21.038  1.00  0.00     0.198 A 
ATOM     91  F   UNL     1      12.845  14.955 -20.267  1.00  0.00    -0.203 F 
ATOM     92  F   UNL     1      15.719  10.325 -19.985  1.00  0.00    -0.200 F 
ATOM     93  C   UNL     1      15.349  12.438 -20.973  1.00  0.00     0.200 A 
ATOM     94  F   UNL     1      14.948  14.563 -21.921  1.00  0.00    -0.200 F 
ATOM     95  F   UNL     1      16.408  12.264 -21.775  1.00  0.00    -0.200 F 
ENDBRANCH  62  85
ENDBRANCH  36  37
ENDBRANCH  28  31
ENDBRANCH  26  27
ENDBRANCH  25  26
ENDBRANCH  24  25
ENDBRANCH   1  24
TORSDOF 15
