REMARK SMILES CN(CC(C)(C)O)C(=O)NC[C@@H](C(=O)NCCCCCCNC(=O)c1ccc(-c2c3nc(c(-c4c(F)c(F)c(F)c(F)c4F)c4ccc([nH]4)c(-c4c(F)c(F)c(F)c(F)c4F)c4nc(c(-c5c(F)c(F)c(F)c(F)c5F)c5ccc2[nH]5)C=C4)C=C3)cc1)c1ccccc1
REMARK SMILES IDX 16 1 15 2 13 3 14 4 12 6 11 7 10 8 8 9 9 10 2 12 1 13 3 14
REMARK SMILES IDX 4 15 5 16 6 17 7 18 88 20 89 21 93 22 90 23 92 24 91 25
REMARK SMILES IDX 17 26 18 27 19 28 20 29 21 30 22 31 23 32 24 34 25 35 26 36
REMARK SMILES IDX 87 37 27 38 86 39 28 40 29 41 30 42 80 43 31 44 85 45 79 46
REMARK SMILES IDX 81 47 32 48 84 49 78 50 77 51 33 53 65 54 45 55 64 56 46 57
REMARK SMILES IDX 49 58 63 59 82 60 47 61 48 62 62 64 83 65 50 66 34 67 35 68
REMARK SMILES IDX 43 69 36 70 37 71 41 72 44 73 38 74 39 75 42 76 40 77 66 78
REMARK SMILES IDX 67 79 75 80 68 81 69 82 73 83 76 84 70 85 71 86 74 87 72 88
REMARK SMILES IDX 51 89 52 90 60 91 53 92 54 93 58 94 61 95 55 96 56 97 59 98
REMARK SMILES IDX 57 99
REMARK H PARENT 15 5 10 11 7 19 22 33 81 52 49 63
REMARK Flexibility Score: inf
ROOT
ATOM      1  C   UNL     1      -0.362   2.801  -5.210  1.00  0.00     0.116 C 
ENDROOT
BRANCH   1   2
ATOM      2  N   UNL     1      -0.789   2.080  -6.396  1.00  0.00    -0.356 N 
ATOM      3  C   UNL     1      -1.007   0.739  -6.565  1.00  0.00     0.229 C 
ATOM      4  O   UNL     1      -1.051   0.314  -7.720  1.00  0.00    -0.274 OA
ATOM      5  H   UNL     1      -0.945   2.636  -7.194  1.00  0.00     0.163 HD
BRANCH   3   6
ATOM      6  C   UNL     1      -1.230  -0.160  -5.339  1.00  0.00     0.128 C 
BRANCH   6   7
ATOM      7  C   UNL     1       0.096  -0.761  -4.814  1.00  0.00     0.136 C 
BRANCH   7   8
ATOM      8  N   UNL     1       0.831   0.079  -3.870  1.00  0.00    -0.337 N 
ATOM      9  C   UNL     1       0.962   0.298  -2.556  1.00  0.00     0.317 C 
ATOM     10  O   UNL     1       1.729   1.236  -2.296  1.00  0.00    -0.249 OA
ATOM     11  H   UNL     1       1.428   0.685  -4.365  1.00  0.00     0.165 HD
BRANCH   9  12
ATOM     12  N   UNL     1       0.344  -0.404  -1.567  1.00  0.00    -0.325 N 
ATOM     13  C   UNL     1       0.678   0.015  -0.205  1.00  0.00     0.148 C 
BRANCH  12  14
ATOM     14  C   UNL     1      -0.618  -1.510  -1.644  1.00  0.00     0.155 C 
BRANCH  14  15
ATOM     15  C   UNL     1      -2.089  -1.155  -1.290  1.00  0.00     0.077 C 
ATOM     16  C   UNL     1      -2.632   0.047  -2.054  1.00  0.00     0.043 C 
ATOM     17  C   UNL     1      -2.969  -2.382  -1.572  1.00  0.00     0.043 C 
BRANCH  15  18
ATOM     18  O   UNL     1      -2.191  -0.863   0.110  1.00  0.00    -0.389 OA
ATOM     19  H   UNL     1      -1.644  -0.090   0.320  1.00  0.00     0.211 HD
ENDBRANCH  15  18
ENDBRANCH  14  15
ENDBRANCH  12  14
ENDBRANCH   9  12
ENDBRANCH   7   8
ENDBRANCH   6   7
BRANCH   6  20
ATOM     20  C   UNL     1      -2.312  -1.213  -5.627  1.00  0.00    -0.034 A 
ATOM     21  C   UNL     1      -3.661  -0.815  -5.678  1.00  0.00     0.004 A 
ATOM     22  C   UNL     1      -2.021  -2.573  -5.819  1.00  0.00     0.004 A 
ATOM     23  C   UNL     1      -4.683  -1.756  -5.830  1.00  0.00     0.000 A 
ATOM     24  C   UNL     1      -3.043  -3.514  -5.953  1.00  0.00     0.000 A 
ATOM     25  C   UNL     1      -4.374  -3.108  -5.945  1.00  0.00     0.000 A 
ENDBRANCH   6  20
ENDBRANCH   3   6
ENDBRANCH   1   2
BRANCH   1  26
ATOM     26  C   UNL     1       1.142   3.064  -5.286  1.00  0.00     0.021 C 
BRANCH  26  27
ATOM     27  C   UNL     1       1.514   4.263  -6.159  1.00  0.00     0.002 C 
BRANCH  27  28
ATOM     28  C   UNL     1       1.093   5.618  -5.585  1.00  0.00     0.002 C 
BRANCH  28  29
ATOM     29  C   UNL     1       1.615   5.916  -4.176  1.00  0.00     0.021 C 
BRANCH  29  30
ATOM     30  C   UNL     1       3.124   5.769  -4.008  1.00  0.00     0.116 C 
BRANCH  30  31
ATOM     31  N   UNL     1       3.860   6.630  -4.923  1.00  0.00    -0.352 N 
ATOM     32  C   UNL     1       4.766   7.617  -4.651  1.00  0.00     0.251 C 
ATOM     33  H   UNL     1       3.677   6.480  -5.879  1.00  0.00     0.163 HD
ATOM     34  O   UNL     1       5.127   8.392  -5.541  1.00  0.00    -0.269 OA
BRANCH  32  35
ATOM     35  C   UNL     1       5.308   7.767  -3.288  1.00  0.00     0.039 A 
ATOM     36  C   UNL     1       5.400   9.045  -2.732  1.00  0.00     0.014 A 
ATOM     37  C   UNL     1       5.743   6.651  -2.567  1.00  0.00     0.014 A 
ATOM     38  C   UNL     1       5.881   9.199  -1.431  1.00  0.00     0.010 A 
ATOM     39  C   UNL     1       6.156   6.798  -1.246  1.00  0.00     0.010 A 
ATOM     40  C   UNL     1       6.236   8.074  -0.669  1.00  0.00    -0.014 A 
BRANCH  40  41
ATOM     41  C   UNL     1       6.701   8.215   0.733  1.00  0.00     0.031 A 
ATOM     42  C   UNL     1       8.106   7.834   1.103  1.00  0.00     0.074 A 
ATOM     43  C   UNL     1       5.838   8.631   1.680  1.00  0.00     0.049 A 
ATOM     44  N   UNL     1       8.681   7.829   2.280  1.00  0.00    -0.248 NA
ATOM     45  C   UNL     1       8.975   7.372   0.010  1.00  0.00     0.031 C 
ATOM     46  C   UNL     1       4.437   8.985   1.449  1.00  0.00     0.029 A 
ATOM     47  N   UNL     1       6.011   8.816   3.029  1.00  0.00    -0.354 N 
ATOM     48  C   UNL     1       9.968   7.354   2.069  1.00  0.00     0.074 A 
ATOM     49  C   UNL     1      10.076   7.030   0.663  1.00  0.00     0.031 C 
ATOM     50  C   UNL     1       3.883   9.365   2.612  1.00  0.00     0.029 A 
ATOM     51  C   UNL     1       4.877   9.246   3.674  1.00  0.00     0.049 A 
ATOM     52  H   UNL     1       6.866   8.656   3.490  1.00  0.00     0.167 HD
ATOM     53  C   UNL     1      10.977   7.223   2.964  1.00  0.00     0.037 A 
ATOM     54  C   UNL     1       4.664   9.506   4.978  1.00  0.00     0.037 A 
ATOM     55  C   UNL     1      10.870   7.566   4.358  1.00  0.00     0.049 A 
ATOM     56  C   UNL     1       5.799   9.344   5.952  1.00  0.00     0.074 A 
ATOM     57  C   UNL     1      11.848   7.523   5.335  1.00  0.00     0.029 A 
ATOM     58  N   UNL     1       9.710   8.014   4.973  1.00  0.00    -0.354 N 
ATOM     59  N   UNL     1       7.033   8.961   5.730  1.00  0.00    -0.248 NA
ATOM     60  C   UNL     1       5.513   9.658   7.358  1.00  0.00     0.031 C 
ATOM     61  C   UNL     1      11.269   7.899   6.551  1.00  0.00     0.029 A 
ATOM     62  C   UNL     1       9.943   8.230   6.322  1.00  0.00     0.049 A 
ATOM     63  H   UNL     1       8.848   8.158   4.518  1.00  0.00     0.167 HD
ATOM     64  C   UNL     1       7.677   9.016   6.958  1.00  0.00     0.074 A 
ATOM     65  C   UNL     1       6.701   9.485   7.920  1.00  0.00     0.031 C 
ATOM     66  C   UNL     1       8.961   8.706   7.263  1.00  0.00     0.037 A 
BRANCH  53  67
ATOM     67  C   UNL     1      12.287   6.689   2.460  1.00  0.00     0.064 A 
ATOM     68  C   UNL     1      13.106   7.438   1.602  1.00  0.00     0.173 A 
ATOM     69  C   UNL     1      12.747   5.428   2.869  1.00  0.00     0.173 A 
ATOM     70  F   UNL     1      12.708   8.645   1.172  1.00  0.00    -0.203 F 
ATOM     71  C   UNL     1      14.322   6.933   1.148  1.00  0.00     0.198 A 
ATOM     72  C   UNL     1      13.978   4.939   2.438  1.00  0.00     0.198 A 
ATOM     73  F   UNL     1      12.007   4.672   3.694  1.00  0.00    -0.203 F 
ATOM     74  F   UNL     1      15.063   7.646   0.289  1.00  0.00    -0.200 F 
ATOM     75  C   UNL     1      14.760   5.688   1.573  1.00  0.00     0.200 A 
ATOM     76  F   UNL     1      14.407   3.742   2.861  1.00  0.00    -0.200 F 
ATOM     77  F   UNL     1      15.934   5.207   1.142  1.00  0.00    -0.200 F 
ENDBRANCH  53  67
BRANCH  54  78
ATOM     78  C   UNL     1       3.329   9.973   5.433  1.00  0.00     0.064 A 
ATOM     79  C   UNL     1       3.144  11.284   5.894  1.00  0.00     0.173 A 
ATOM     80  C   UNL     1       2.214   9.121   5.425  1.00  0.00     0.173 A 
ATOM     81  F   UNL     1       4.184  12.130   5.940  1.00  0.00    -0.203 F 
ATOM     82  C   UNL     1       1.902  11.719   6.351  1.00  0.00     0.198 A 
ATOM     83  C   UNL     1       0.966   9.566   5.855  1.00  0.00     0.198 A 
ATOM     84  F   UNL     1       2.336   7.859   4.989  1.00  0.00    -0.203 F 
ATOM     85  F   UNL     1       1.765  12.962   6.832  1.00  0.00    -0.200 F 
ATOM     86  C   UNL     1       0.812  10.861   6.326  1.00  0.00     0.200 A 
ATOM     87  F   UNL     1      -0.088   8.739   5.815  1.00  0.00    -0.200 F 
ATOM     88  F   UNL     1      -0.383  11.280   6.763  1.00  0.00    -0.200 F 
ENDBRANCH  54  78
BRANCH  66  89
ATOM     89  C   UNL     1       9.396   8.902   8.687  1.00  0.00     0.064 A 
ATOM     90  C   UNL     1       8.953   8.059   9.716  1.00  0.00     0.173 A 
ATOM     91  C   UNL     1      10.297   9.926   9.017  1.00  0.00     0.173 A 
ATOM     92  F   UNL     1       8.079   7.075   9.454  1.00  0.00    -0.203 F 
ATOM     93  C   UNL     1       9.375   8.251  11.029  1.00  0.00     0.198 A 
ATOM     94  C   UNL     1      10.742  10.095  10.325  1.00  0.00     0.198 A 
ATOM     95  F   UNL     1      10.757  10.756   8.068  1.00  0.00    -0.203 F 
ATOM     96  F   UNL     1       8.900   7.465  12.005  1.00  0.00    -0.200 F 
ATOM     97  C   UNL     1      10.274   9.263  11.331  1.00  0.00     0.200 A 
ATOM     98  F   UNL     1      11.621  11.064  10.613  1.00  0.00    -0.200 F 
ATOM     99  F   UNL     1      10.684   9.441  12.594  1.00  0.00    -0.200 F 
ENDBRANCH  66  89
ENDBRANCH  40  41
ENDBRANCH  32  35
ENDBRANCH  30  31
ENDBRANCH  29  30
ENDBRANCH  28  29
ENDBRANCH  27  28
ENDBRANCH  26  27
ENDBRANCH   1  26
TORSDOF 20
