REMARK SMILES CC[NH+](CC)[C@@H](C(=O)NCCCCCCNC(=O)c1ccc(-c2c3nc(c(-c4c(F)c(F)c(F)c(F)c4F)c4ccc([nH]4)c(-c4c(F)c(F)c(F)c(F)c4F)c4nc(c(-c5c(F)c(F)c(F)c(F)c5F)c5ccc2[nH]5)C=C4)C=C3)cc1)c1ccc(C2CC2)cc1
REMARK SMILES IDX 12 1 11 2 10 3 9 4 7 5 8 6 6 8 3 9 2 11 1 12 4 13 5 14 82 15
REMARK SMILES IDX 83 16 90 17 84 18 89 19 85 20 86 21 87 22 88 23 13 24 14 25
REMARK SMILES IDX 15 26 16 27 17 28 18 30 19 31 20 32 81 33 21 34 80 35 22 36
REMARK SMILES IDX 23 37 24 38 74 39 25 40 79 41 73 42 75 43 26 44 78 45 72 46
REMARK SMILES IDX 71 47 27 49 59 50 39 51 58 52 40 53 43 54 57 55 76 56 41 57
REMARK SMILES IDX 42 58 56 60 77 61 44 62 28 63 29 64 37 65 30 66 31 67 35 68
REMARK SMILES IDX 38 69 32 70 33 71 36 72 34 73 60 74 61 75 69 76 62 77 63 78
REMARK SMILES IDX 67 79 70 80 64 81 65 82 68 83 66 84 45 85 46 86 54 87 47 88
REMARK SMILES IDX 48 89 52 90 55 91 49 92 50 93 53 94 51 95
REMARK H PARENT 9 7 3 10 16 29 75 48 43 59
REMARK Flexibility Score: inf
ROOT
ATOM      1  C   UNL     1       1.444   2.993   6.176  1.00  0.00     0.002 C 
ENDROOT
BRANCH   1   2
ATOM      2  C   UNL     1       1.234   3.761   4.864  1.00  0.00     0.021 C 
BRANCH   2   3
ATOM      3  C   UNL     1       2.421   3.744   3.885  1.00  0.00     0.116 C 
BRANCH   3   4
ATOM      4  N   UNL     1       2.981   2.415   3.694  1.00  0.00    -0.351 N 
ATOM      5  C   UNL     1       2.950   1.496   2.681  1.00  0.00     0.283 C 
ATOM      6  O   UNL     1       3.440   0.400   2.979  1.00  0.00    -0.268 OA
ATOM      7  H   UNL     1       3.500   2.107   4.472  1.00  0.00     0.163 HD
BRANCH   5   8
ATOM      8  C   UNL     1       2.366   1.815   1.263  1.00  0.00     0.305 C 
BRANCH   8   9
ATOM      9  N   UNL     1       0.896   1.495   1.078  1.00  0.00    -0.321 N 
ATOM     10  H   UNL     1       0.726   2.124   0.293  1.00  0.00     0.349 HD
BRANCH   9  11
ATOM     11  C   UNL     1       0.510   0.177   0.559  1.00  0.00     0.259 C 
ATOM     12  C   UNL     1       0.365   0.146  -0.958  1.00  0.00     0.071 C 
ENDBRANCH   9  11
BRANCH   9  13
ATOM     13  C   UNL     1       0.031   1.875   2.191  1.00  0.00     0.259 C 
ATOM     14  C   UNL     1      -0.059   0.850   3.330  1.00  0.00     0.071 C 
ENDBRANCH   9  13
ENDBRANCH   8   9
BRANCH   8  15
ATOM     15  C   UNL     1       3.245   1.231   0.136  1.00  0.00     0.019 A 
ATOM     16  C   UNL     1       3.565  -0.137   0.099  1.00  0.00     0.011 A 
ATOM     17  C   UNL     1       3.588   2.003  -0.981  1.00  0.00     0.011 A 
ATOM     18  C   UNL     1       4.014  -0.741  -1.076  1.00  0.00     0.004 A 
ATOM     19  C   UNL     1       4.064   1.390  -2.153  1.00  0.00     0.004 A 
ATOM     20  C   UNL     1       4.205  -0.004  -2.251  1.00  0.00    -0.045 A 
BRANCH  20  21
ATOM     21  C   UNL     1       4.409  -0.749  -3.549  1.00  0.00     0.019 C 
ATOM     22  C   UNL     1       4.954  -0.112  -4.799  1.00  0.00     0.009 C 
ATOM     23  C   UNL     1       5.801  -1.075  -4.021  1.00  0.00     0.009 C 
ENDBRANCH  20  21
ENDBRANCH   8  15
ENDBRANCH   5   8
ENDBRANCH   3   4
ENDBRANCH   2   3
ENDBRANCH   1   2
BRANCH   1  24
ATOM     24  C   UNL     1       2.118   3.813   7.272  1.00  0.00     0.002 C 
BRANCH  24  25
ATOM     25  C   UNL     1       1.371   5.095   7.650  1.00  0.00     0.021 C 
BRANCH  25  26
ATOM     26  C   UNL     1      -0.100   4.886   7.995  1.00  0.00     0.116 C 
BRANCH  26  27
ATOM     27  N   UNL     1      -0.251   4.203   9.269  1.00  0.00    -0.352 N 
ATOM     28  C   UNL     1      -0.854   4.680  10.408  1.00  0.00     0.251 C 
ATOM     29  H   UNL     1       0.122   3.294   9.322  1.00  0.00     0.163 HD
ATOM     30  O   UNL     1      -0.672   4.150  11.494  1.00  0.00    -0.269 OA
BRANCH  28  31
ATOM     31  C   UNL     1      -1.728   5.864  10.290  1.00  0.00     0.039 A 
ATOM     32  C   UNL     1      -1.526   6.953  11.137  1.00  0.00     0.014 A 
ATOM     33  C   UNL     1      -2.722   5.898   9.306  1.00  0.00     0.014 A 
ATOM     34  C   UNL     1      -2.298   8.103  10.968  1.00  0.00     0.010 A 
ATOM     35  C   UNL     1      -3.438   7.070   9.092  1.00  0.00     0.010 A 
ATOM     36  C   UNL     1      -3.241   8.180   9.928  1.00  0.00    -0.014 A 
BRANCH  36  37
ATOM     37  C   UNL     1      -4.039   9.412   9.707  1.00  0.00     0.031 A 
ATOM     38  C   UNL     1      -5.532   9.381   9.875  1.00  0.00     0.074 A 
ATOM     39  C   UNL     1      -3.425  10.541   9.305  1.00  0.00     0.049 A 
ATOM     40  N   UNL     1      -6.407  10.337   9.688  1.00  0.00    -0.248 NA
ATOM     41  C   UNL     1      -6.126   8.097  10.281  1.00  0.00     0.031 C 
ATOM     42  C   UNL     1      -1.989  10.680   9.060  1.00  0.00     0.029 A 
ATOM     43  N   UNL     1      -3.932  11.785   9.024  1.00  0.00    -0.354 N 
ATOM     44  C   UNL     1      -7.648   9.768   9.943  1.00  0.00     0.074 A 
ATOM     45  C   UNL     1      -7.421   8.370  10.237  1.00  0.00     0.031 C 
ATOM     46  C   UNL     1      -1.726  11.944   8.691  1.00  0.00     0.029 A 
ATOM     47  C   UNL     1      -2.978  12.693   8.633  1.00  0.00     0.049 A 
ATOM     48  H   UNL     1      -4.888  12.006   9.096  1.00  0.00     0.167 HD
ATOM     49  C   UNL     1      -8.864  10.364   9.954  1.00  0.00     0.037 A 
ATOM     50  C   UNL     1      -3.102  13.982   8.262  1.00  0.00     0.037 A 
ATOM     51  C   UNL     1      -9.080  11.760   9.677  1.00  0.00     0.049 A 
ATOM     52  C   UNL     1      -4.467  14.617   8.270  1.00  0.00     0.074 A 
ATOM     53  C   UNL     1     -10.263  12.475   9.723  1.00  0.00     0.029 A 
ATOM     54  N   UNL     1      -8.088  12.651   9.293  1.00  0.00    -0.354 N 
ATOM     55  N   UNL     1      -5.624  14.090   8.589  1.00  0.00    -0.248 NA
ATOM     56  C   UNL     1      -4.541  16.029   7.873  1.00  0.00     0.031 C 
ATOM     57  C   UNL     1      -9.998  13.784   9.308  1.00  0.00     0.029 A 
ATOM     58  C   UNL     1      -8.639  13.903   9.068  1.00  0.00     0.049 A 
ATOM     59  H   UNL     1      -7.134  12.428   9.195  1.00  0.00     0.167 HD
ATOM     60  C   UNL     1      -6.557  15.110   8.461  1.00  0.00     0.074 A 
ATOM     61  C   UNL     1      -5.828  16.292   8.052  1.00  0.00     0.031 C 
ATOM     62  C   UNL     1      -7.897  15.072   8.665  1.00  0.00     0.037 A 
BRANCH  49  63
ATOM     63  C   UNL     1     -10.056   9.507  10.275  1.00  0.00     0.064 A 
ATOM     64  C   UNL     1     -10.256   8.966  11.554  1.00  0.00     0.173 A 
ATOM     65  C   UNL     1     -11.032   9.253   9.298  1.00  0.00     0.173 A 
ATOM     66  F   UNL     1      -9.349   9.169  12.523  1.00  0.00    -0.203 F 
ATOM     67  C   UNL     1     -11.368   8.177  11.835  1.00  0.00     0.198 A 
ATOM     68  C   UNL     1     -12.161   8.492   9.592  1.00  0.00     0.198 A 
ATOM     69  F   UNL     1     -10.896   9.750   8.060  1.00  0.00    -0.203 F 
ATOM     70  F   UNL     1     -11.508   7.626  13.049  1.00  0.00    -0.200 F 
ATOM     71  C   UNL     1     -12.324   7.947  10.857  1.00  0.00     0.200 A 
ATOM     72  F   UNL     1     -13.091   8.285   8.649  1.00  0.00    -0.200 F 
ATOM     73  F   UNL     1     -13.398   7.195  11.130  1.00  0.00    -0.200 F 
ENDBRANCH  49  63
BRANCH  50  74
ATOM     74  C   UNL     1      -1.898  14.762   7.871  1.00  0.00     0.064 A 
ATOM     75  C   UNL     1      -1.433  15.821   8.664  1.00  0.00     0.173 A 
ATOM     76  C   UNL     1      -1.190  14.471   6.695  1.00  0.00     0.173 A 
ATOM     77  F   UNL     1      -2.086  16.151   9.789  1.00  0.00    -0.203 F 
ATOM     78  C   UNL     1      -0.323  16.573   8.285  1.00  0.00     0.198 A 
ATOM     79  C   UNL     1      -0.061  15.203   6.334  1.00  0.00     0.198 A 
ATOM     80  F   UNL     1      -1.587  13.464   5.904  1.00  0.00    -0.203 F 
ATOM     81  F   UNL     1       0.068  17.611   9.036  1.00  0.00    -0.200 F 
ATOM     82  C   UNL     1       0.366  16.259   7.123  1.00  0.00     0.200 A 
ATOM     83  F   UNL     1       0.612  14.884   5.220  1.00  0.00    -0.200 F 
ATOM     84  F   UNL     1       1.436  16.980   6.761  1.00  0.00    -0.200 F 
ENDBRANCH  50  74
BRANCH  62  85
ATOM     85  C   UNL     1      -8.659  16.354   8.484  1.00  0.00     0.064 A 
ATOM     86  C   UNL     1      -8.852  16.927   7.218  1.00  0.00     0.173 A 
ATOM     87  C   UNL     1      -9.239  16.995   9.590  1.00  0.00     0.173 A 
ATOM     88  F   UNL     1      -8.308  16.361   6.130  1.00  0.00    -0.203 F 
ATOM     89  C   UNL     1      -9.571  18.111   7.071  1.00  0.00     0.198 A 
ATOM     90  C   UNL     1      -9.987  18.159   9.434  1.00  0.00     0.198 A 
ATOM     91  F   UNL     1      -9.092  16.485  10.822  1.00  0.00    -0.203 F 
ATOM     92  F   UNL     1      -9.696  18.669   5.859  1.00  0.00    -0.200 F 
ATOM     93  C   UNL     1     -10.145  18.720   8.177  1.00  0.00     0.200 A 
ATOM     94  F   UNL     1     -10.554  18.736  10.502  1.00  0.00    -0.200 F 
ATOM     95  F   UNL     1     -10.844  19.854   8.031  1.00  0.00    -0.200 F 
ENDBRANCH  62  85
ENDBRANCH  36  37
ENDBRANCH  28  31
ENDBRANCH  26  27
ENDBRANCH  25  26
ENDBRANCH  24  25
ENDBRANCH   1  24
TORSDOF 18
