REMARK SMILES COc1cccc([C@@H]2CC(c3cccc(C)c3)=NN2C(=O)CCC(=O)NCCCCCCNC(=O)c2ccc(-c3c4nc(c(-c5c(F)c(F)c(F)c(F)c5F)c5ccc([nH]5)c(-c5c(F)c(F)c(F)c(F)c5F)c5nc(c(-c6c(F)c(F)c(F)c(F)c6F)c6ccc3[nH]6)C=C5)C=C4)cc2)c1
REMARK SMILES IDX 28 1 27 2 26 3 24 4 25 5 23 7 22 8 20 9 21 10 19 11 8 12
REMARK SMILES IDX 9 13 10 14 18 15 7 16 3 17 4 18 99 19 5 20 6 21 2 22 1 23
REMARK SMILES IDX 11 24 12 25 17 26 13 27 15 28 14 29 16 30 29 31 30 32 31 33
REMARK SMILES IDX 32 34 33 35 34 36 35 38 36 39 37 40 98 41 38 42 97 43 39 44
REMARK SMILES IDX 40 45 41 46 91 47 42 48 96 49 90 50 92 51 43 52 95 53 89 54
REMARK SMILES IDX 88 55 44 57 76 58 56 59 75 60 57 61 60 62 74 63 93 64 58 65
REMARK SMILES IDX 59 66 73 68 94 69 61 70 45 71 46 72 54 73 47 74 48 75 52 76
REMARK SMILES IDX 55 77 49 78 50 79 53 80 51 81 77 82 78 83 86 84 79 85 80 86
REMARK SMILES IDX 84 87 87 88 81 89 82 90 85 91 83 92 62 93 63 94 71 95 64 96
REMARK SMILES IDX 65 97 69 98 72 99 66 100 67 101 70 102 68 103
REMARK H PARENT 26 6 33 37 92 56 60 67
REMARK Flexibility Score: inf
ROOT
ATOM      1  C   UNL     1       5.573  -2.076  -2.675  1.00  0.00     0.021 C 
ENDROOT
BRANCH   1   2
ATOM      2  C   UNL     1       4.094  -2.111  -2.291  1.00  0.00     0.116 C 
BRANCH   2   3
ATOM      3  N   UNL     1       3.357  -0.861  -2.346  1.00  0.00    -0.356 N 
ATOM      4  C   UNL     1       2.478  -0.398  -3.272  1.00  0.00     0.220 C 
ATOM      5  O   UNL     1       1.747   0.549  -2.971  1.00  0.00    -0.275 OA
ATOM      6  H   UNL     1       3.521  -0.252  -1.591  1.00  0.00     0.163 HD
BRANCH   4   7
ATOM      7  C   UNL     1       2.476  -0.963  -4.674  1.00  0.00     0.110 C 
BRANCH   7   8
ATOM      8  C   UNL     1       3.162  -0.013  -5.657  1.00  0.00     0.112 C 
BRANCH   8   9
ATOM      9  C   UNL     1       4.511   0.440  -5.127  1.00  0.00     0.243 C 
ATOM     10  O   UNL     1       5.508  -0.249  -5.354  1.00  0.00    -0.273 OA
BRANCH   9  11
ATOM     11  N   UNL     1       4.511   1.564  -4.314  1.00  0.00    -0.225 N 
ATOM     12  C   UNL     1       3.607   2.717  -4.388  1.00  0.00     0.147 C 
ATOM     13  C   UNL     1       3.986   3.561  -3.173  1.00  0.00     0.091 C 
ATOM     14  C   UNL     1       5.220   2.829  -2.739  1.00  0.00     0.071 C 
ATOM     15  N   UNL     1       5.519   1.762  -3.408  1.00  0.00    -0.174 NA
BRANCH  12  16
ATOM     16  C   UNL     1       3.803   3.399  -5.733  1.00  0.00    -0.019 A 
ATOM     17  C   UNL     1       2.838   4.126  -7.840  1.00  0.00     0.119 A 
ATOM     18  C   UNL     1       4.120   4.244  -8.380  1.00  0.00     0.046 A 
ATOM     19  C   UNL     1       2.682   3.699  -6.521  1.00  0.00     0.052 A 
ATOM     20  C   UNL     1       5.243   3.988  -7.598  1.00  0.00     0.004 A 
ATOM     21  C   UNL     1       5.087   3.584  -6.276  1.00  0.00     0.006 A 
BRANCH  17  22
ATOM     22  O   UNL     1       1.814   4.407  -8.704  1.00  0.00    -0.497 OA
ATOM     23  C   UNL     1       0.541   4.626  -8.108  1.00  0.00     0.278 C 
ENDBRANCH  17  22
ENDBRANCH  12  16
BRANCH  14  24
ATOM     24  C   UNL     1       6.034   3.293  -1.613  1.00  0.00    -0.002 A 
ATOM     25  C   UNL     1       7.354   3.661  -1.867  1.00  0.00     0.010 A 
ATOM     26  C   UNL     1       5.541   3.218  -0.303  1.00  0.00     0.013 A 
ATOM     27  C   UNL     1       8.179   4.014  -0.805  1.00  0.00     0.001 A 
ATOM     28  C   UNL     1       6.385   3.533   0.771  1.00  0.00    -0.050 A 
ATOM     29  C   UNL     1       7.693   3.961   0.503  1.00  0.00     0.003 A 
ATOM     30  C   UNL     1       5.971   3.293   2.195  1.00  0.00     0.044 C 
ENDBRANCH  14  24
ENDBRANCH   9  11
ENDBRANCH   8   9
ENDBRANCH   7   8
ENDBRANCH   4   7
ENDBRANCH   2   3
ENDBRANCH   1   2
BRANCH   1  31
ATOM     31  C   UNL     1       6.508  -1.039  -2.041  1.00  0.00     0.002 C 
BRANCH  31  32
ATOM     32  C   UNL     1       6.162  -0.510  -0.646  1.00  0.00     0.002 C 
BRANCH  32  33
ATOM     33  C   UNL     1       6.918  -1.194   0.486  1.00  0.00     0.021 C 
BRANCH  33  34
ATOM     34  C   UNL     1       8.384  -0.785   0.548  1.00  0.00     0.116 C 
BRANCH  34  35
ATOM     35  N   UNL     1       8.605   0.598   0.964  1.00  0.00    -0.352 N 
ATOM     36  C   UNL     1       9.786   1.129   1.438  1.00  0.00     0.251 C 
ATOM     37  H   UNL     1       7.837   1.210   0.901  1.00  0.00     0.163 HD
ATOM     38  O   UNL     1       9.890   2.270   1.871  1.00  0.00    -0.269 OA
BRANCH  36  39
ATOM     39  C   UNL     1      10.940   0.223   1.479  1.00  0.00     0.039 A 
ATOM     40  C   UNL     1      11.420  -0.167   2.728  1.00  0.00     0.014 A 
ATOM     41  C   UNL     1      11.339  -0.412   0.301  1.00  0.00     0.014 A 
ATOM     42  C   UNL     1      12.219  -1.299   2.810  1.00  0.00     0.010 A 
ATOM     43  C   UNL     1      12.057  -1.591   0.396  1.00  0.00     0.010 A 
ATOM     44  C   UNL     1      12.478  -2.052   1.653  1.00  0.00    -0.014 A 
BRANCH  44  45
ATOM     45  C   UNL     1      13.173  -3.350   1.751  1.00  0.00     0.031 A 
ATOM     46  C   UNL     1      14.527  -3.496   1.134  1.00  0.00     0.074 A 
ATOM     47  C   UNL     1      12.546  -4.385   2.343  1.00  0.00     0.049 A 
ATOM     48  N   UNL     1      15.302  -4.546   1.083  1.00  0.00    -0.248 NA
ATOM     49  C   UNL     1      15.072  -2.311   0.450  1.00  0.00     0.031 C 
ATOM     50  C   UNL     1      11.191  -4.346   2.902  1.00  0.00     0.029 A 
ATOM     51  N   UNL     1      12.961  -5.670   2.575  1.00  0.00    -0.354 N 
ATOM     52  C   UNL     1      16.413  -4.152   0.352  1.00  0.00     0.074 A 
ATOM     53  C   UNL     1      16.188  -2.790  -0.075  1.00  0.00     0.031 C 
ATOM     54  C   UNL     1      10.903  -5.541   3.443  1.00  0.00     0.029 A 
ATOM     55  C   UNL     1      12.038  -6.435   3.246  1.00  0.00     0.049 A 
ATOM     56  H   UNL     1      13.838  -6.012   2.288  1.00  0.00     0.167 HD
ATOM     57  C   UNL     1      17.533  -4.862   0.089  1.00  0.00     0.037 A 
ATOM     58  C   UNL     1      12.116  -7.714   3.659  1.00  0.00     0.037 A 
ATOM     59  C   UNL     1      17.741  -6.207   0.552  1.00  0.00     0.049 A 
ATOM     60  C   UNL     1      13.394  -8.465   3.395  1.00  0.00     0.074 A 
ATOM     61  C   UNL     1      18.850  -7.015   0.395  1.00  0.00     0.029 A 
ATOM     62  N   UNL     1      16.805  -6.939   1.272  1.00  0.00    -0.354 N 
ATOM     63  N   UNL     1      14.475  -8.060   2.770  1.00  0.00    -0.248 NA
ATOM     64  C   UNL     1      13.472  -9.841   3.901  1.00  0.00     0.031 C 
ATOM     65  C   UNL     1      18.572  -8.250   0.991  1.00  0.00     0.029 A 
ATOM     66  C   UNL     1      17.307  -8.195   1.559  1.00  0.00     0.049 A 
ATOM     67  H   UNL     1      15.915  -6.611   1.539  1.00  0.00     0.167 HD
ATOM     68  C   UNL     1      15.368  -9.119   2.825  1.00  0.00     0.074 A 
ATOM     69  C   UNL     1      14.710 -10.178   3.565  1.00  0.00     0.031 C 
ATOM     70  C   UNL     1      16.618  -9.215   2.309  1.00  0.00     0.037 A 
BRANCH  57  71
ATOM     71  C   UNL     1      18.598  -4.191  -0.725  1.00  0.00     0.064 A 
ATOM     72  C   UNL     1      19.341  -3.112  -0.219  1.00  0.00     0.173 A 
ATOM     73  C   UNL     1      18.875  -4.621  -2.030  1.00  0.00     0.173 A 
ATOM     74  F   UNL     1      19.101  -2.647   1.017  1.00  0.00    -0.203 F 
ATOM     75  C   UNL     1      20.295  -2.467  -1.001  1.00  0.00     0.198 A 
ATOM     76  C   UNL     1      19.852  -3.993  -2.800  1.00  0.00     0.198 A 
ATOM     77  F   UNL     1      18.194  -5.645  -2.564  1.00  0.00    -0.203 F 
ATOM     78  F   UNL     1      20.947  -1.401  -0.517  1.00  0.00    -0.200 F 
ATOM     79  C   UNL     1      20.554  -2.912  -2.289  1.00  0.00     0.200 A 
ATOM     80  F   UNL     1      20.107  -4.429  -4.041  1.00  0.00    -0.200 F 
ATOM     81  F   UNL     1      21.472  -2.290  -3.041  1.00  0.00    -0.200 F 
ENDBRANCH  57  71
BRANCH  58  82
ATOM     82  C   UNL     1      10.983  -8.339   4.393  1.00  0.00     0.064 A 
ATOM     83  C   UNL     1      11.095  -8.669   5.752  1.00  0.00     0.173 A 
ATOM     84  C   UNL     1       9.764  -8.619   3.757  1.00  0.00     0.173 A 
ATOM     85  F   UNL     1      12.243  -8.435   6.405  1.00  0.00    -0.203 F 
ATOM     86  C   UNL     1      10.043  -9.274   6.438  1.00  0.00     0.198 A 
ATOM     87  C   UNL     1       8.703  -9.199   4.451  1.00  0.00     0.198 A 
ATOM     88  F   UNL     1       9.598  -8.316   2.462  1.00  0.00    -0.203 F 
ATOM     89  F   UNL     1      10.195  -9.619   7.724  1.00  0.00    -0.200 F 
ATOM     90  C   UNL     1       8.846  -9.535   5.789  1.00  0.00     0.200 A 
ATOM     91  F   UNL     1       7.543  -9.434   3.824  1.00  0.00    -0.200 F 
ATOM     92  F   UNL     1       7.834 -10.113   6.449  1.00  0.00    -0.200 F 
ENDBRANCH  58  82
BRANCH  70  93
ATOM     93  C   UNL     1      17.355 -10.497   2.551  1.00  0.00     0.064 A 
ATOM     94  C   UNL     1      17.016 -11.675   1.869  1.00  0.00     0.173 A 
ATOM     95  C   UNL     1      18.445 -10.531   3.433  1.00  0.00     0.173 A 
ATOM     96  F   UNL     1      15.972 -11.692   1.028  1.00  0.00    -0.203 F 
ATOM     97  C   UNL     1      17.733 -12.848   2.079  1.00  0.00     0.198 A 
ATOM     98  C   UNL     1      19.176 -11.699   3.617  1.00  0.00     0.198 A 
ATOM     99  F   UNL     1      18.809  -9.426   4.100  1.00  0.00    -0.203 F 
ATOM    100  F   UNL     1      17.368 -13.974   1.450  1.00  0.00    -0.200 F 
ATOM    101  C   UNL     1      18.816 -12.857   2.945  1.00  0.00     0.200 A 
ATOM    102  F   UNL     1      20.231 -11.703   4.443  1.00  0.00    -0.200 F 
ATOM    103  F   UNL     1      19.511 -13.987   3.137  1.00  0.00    -0.200 F 
ENDBRANCH  70  93
ENDBRANCH  44  45
ENDBRANCH  36  39
ENDBRANCH  34  35
ENDBRANCH  33  34
ENDBRANCH  32  33
ENDBRANCH  31  32
ENDBRANCH   1  31
TORSDOF 19
