REMARK SMILES COCCN(CC(=O)NCCCCCCNC(=O)c1ccc(-c2c3nc(c(-c4c(F)c(F)c(F)c(F)c4F)c4ccc([nH]4)c(-c4c(F)c(F)c(F)c(F)c4F)c4nc(c(-c5c(F)c(F)c(F)c(F)c5F)c5ccc2[nH]5)C=C4)C=C3)cc1)C(=O)c1cccc(N)c1
REMARK SMILES IDX 11 1 10 2 9 3 7 4 8 5 6 7 5 8 4 9 3 10 2 11 1 12 82 13 83 14
REMARK SMILES IDX 84 15 85 16 90 17 86 18 88 19 87 20 89 21 12 24 13 25 14 26
REMARK SMILES IDX 15 27 16 28 17 29 18 31 19 32 20 33 81 34 21 35 80 36 22 37
REMARK SMILES IDX 23 38 24 39 74 40 25 41 79 42 73 43 75 44 26 45 78 46 72 47
REMARK SMILES IDX 71 48 27 50 59 51 39 52 58 53 40 54 43 55 57 56 76 57 41 58
REMARK SMILES IDX 42 59 56 61 77 62 44 63 28 64 29 65 37 66 30 67 31 68 35 69
REMARK SMILES IDX 38 70 32 71 33 72 36 73 34 74 60 75 61 76 69 77 62 78 63 79
REMARK SMILES IDX 67 80 70 81 64 82 65 83 68 84 66 85 45 86 46 87 54 88 47 89
REMARK SMILES IDX 48 90 52 91 55 92 49 93 50 94 53 95 51 96
REMARK H PARENT 9 6 89 22 89 23 16 30 75 49 43 60
REMARK Flexibility Score: inf
ROOT
ATOM      1  C   UNL     1      -2.031   3.621   2.301  1.00  0.00     0.021 C 
ENDROOT
BRANCH   1   2
ATOM      2  C   UNL     1      -0.798   4.523   2.271  1.00  0.00     0.116 C 
BRANCH   2   3
ATOM      3  N   UNL     1       0.183   4.205   3.283  1.00  0.00    -0.355 N 
ATOM      4  C   UNL     1       1.362   3.527   3.184  1.00  0.00     0.239 C 
ATOM      5  O   UNL     1       2.155   3.662   4.123  1.00  0.00    -0.273 OA
ATOM      6  H   UNL     1      -0.034   4.529   4.186  1.00  0.00     0.163 HD
BRANCH   4   7
ATOM      7  C   UNL     1       1.777   2.735   1.925  1.00  0.00     0.219 C 
BRANCH   7   8
ATOM      8  N   UNL     1       0.730   1.997   1.205  1.00  0.00    -0.327 N 
BRANCH   8   9
ATOM      9  C   UNL     1       0.385   2.447  -0.157  1.00  0.00     0.149 C 
BRANCH   9  10
ATOM     10  C   UNL     1       1.226   1.835  -1.290  1.00  0.00     0.181 C 
BRANCH  10  11
ATOM     11  O   UNL     1       0.820   0.507  -1.601  1.00  0.00    -0.383 OA
ATOM     12  C   UNL     1       1.669  -0.483  -1.043  1.00  0.00     0.194 C 
ENDBRANCH  10  11
ENDBRANCH   9  10
ENDBRANCH   8   9
BRANCH   8  13
ATOM     13  C   UNL     1       0.155   0.802   1.662  1.00  0.00     0.254 C 
ATOM     14  O   UNL     1      -0.746   0.220   1.063  1.00  0.00    -0.269 OA
BRANCH  13  15
ATOM     15  C   UNL     1       0.668   0.139   2.884  1.00  0.00     0.042 A 
ATOM     16  C   UNL     1       1.229  -1.135   2.749  1.00  0.00     0.014 A 
ATOM     17  C   UNL     1       0.515   0.698   4.154  1.00  0.00     0.039 A 
ATOM     18  C   UNL     1       1.678  -1.819   3.876  1.00  0.00     0.003 A 
ATOM     19  C   UNL     1       1.040   0.058   5.279  1.00  0.00     0.032 A 
ATOM     20  C   UNL     1       1.581  -1.222   5.134  1.00  0.00     0.025 A 
BRANCH  19  21
ATOM     21  N   UNL     1       0.886   0.618   6.540  1.00  0.00    -0.399 N 
ATOM     22  H   UNL     1       1.258   0.163   7.330  1.00  0.00     0.156 HD
ATOM     23  H   UNL     1       0.406   1.471   6.645  1.00  0.00     0.156 HD
ENDBRANCH  19  21
ENDBRANCH  13  15
ENDBRANCH   8  13
ENDBRANCH   7   8
ENDBRANCH   4   7
ENDBRANCH   2   3
ENDBRANCH   1   2
BRANCH   1  24
ATOM     24  C   UNL     1      -2.940   3.819   3.517  1.00  0.00     0.002 C 
BRANCH  24  25
ATOM     25  C   UNL     1      -3.414   5.256   3.752  1.00  0.00     0.002 C 
BRANCH  25  26
ATOM     26  C   UNL     1      -4.076   5.928   2.547  1.00  0.00     0.021 C 
BRANCH  26  27
ATOM     27  C   UNL     1      -5.338   5.231   2.049  1.00  0.00     0.116 C 
BRANCH  27  28
ATOM     28  N   UNL     1      -6.409   5.279   3.034  1.00  0.00    -0.352 N 
ATOM     29  C   UNL     1      -7.653   5.850   2.941  1.00  0.00     0.251 C 
ATOM     30  H   UNL     1      -6.212   4.837   3.891  1.00  0.00     0.163 HD
ATOM     31  O   UNL     1      -8.350   5.990   3.944  1.00  0.00    -0.269 OA
BRANCH  29  32
ATOM     32  C   UNL     1      -8.148   6.321   1.632  1.00  0.00     0.039 A 
ATOM     33  C   UNL     1      -8.740   7.583   1.543  1.00  0.00     0.014 A 
ATOM     34  C   UNL     1      -8.018   5.522   0.493  1.00  0.00     0.014 A 
ATOM     35  C   UNL     1      -9.127   8.079   0.296  1.00  0.00     0.010 A 
ATOM     36  C   UNL     1      -8.336   6.045  -0.757  1.00  0.00     0.010 A 
ATOM     37  C   UNL     1      -8.884   7.332  -0.869  1.00  0.00    -0.014 A 
BRANCH  37  38
ATOM     38  C   UNL     1      -9.162   7.888  -2.218  1.00  0.00     0.031 A 
ATOM     39  C   UNL     1     -10.178   7.236  -3.111  1.00  0.00     0.074 A 
ATOM     40  C   UNL     1      -8.432   8.926  -2.670  1.00  0.00     0.049 A 
ATOM     41  N   UNL     1     -10.478   7.501  -4.357  1.00  0.00    -0.248 NA
ATOM     42  C   UNL     1     -10.944   6.120  -2.533  1.00  0.00     0.031 C 
ATOM     43  C   UNL     1      -7.391   9.621  -1.911  1.00  0.00     0.029 A 
ATOM     44  N   UNL     1      -8.438   9.566  -3.885  1.00  0.00    -0.354 N 
ATOM     45  C   UNL     1     -11.454   6.581  -4.715  1.00  0.00     0.074 A 
ATOM     46  C   UNL     1     -11.662   5.718  -3.572  1.00  0.00     0.031 C 
ATOM     47  C   UNL     1      -6.870  10.597  -2.670  1.00  0.00     0.029 A 
ATOM     48  C   UNL     1      -7.500  10.565  -3.986  1.00  0.00     0.049 A 
ATOM     49  H   UNL     1      -9.057   9.332  -4.614  1.00  0.00     0.167 HD
ATOM     50  C   UNL     1     -12.127   6.478  -5.886  1.00  0.00     0.037 A 
ATOM     51  C   UNL     1      -7.169  11.350  -5.029  1.00  0.00     0.037 A 
ATOM     52  C   UNL     1     -11.923   7.348  -7.016  1.00  0.00     0.049 A 
ATOM     53  C   UNL     1      -7.902  11.186  -6.333  1.00  0.00     0.074 A 
ATOM     54  C   UNL     1     -12.598   7.364  -8.224  1.00  0.00     0.029 A 
ATOM     55  N   UNL     1     -10.964   8.349  -7.080  1.00  0.00    -0.354 N 
ATOM     56  N   UNL     1      -8.874  10.360  -6.638  1.00  0.00    -0.248 NA
ATOM     57  C   UNL     1      -7.493  12.063  -7.440  1.00  0.00     0.031 C 
ATOM     58  C   UNL     1     -12.006   8.332  -9.042  1.00  0.00     0.029 A 
ATOM     59  C   UNL     1     -11.005   8.963  -8.322  1.00  0.00     0.049 A 
ATOM     60  H   UNL     1     -10.346   8.588  -6.351  1.00  0.00     0.167 HD
ATOM     61  C   UNL     1      -9.209  10.634  -7.957  1.00  0.00     0.074 A 
ATOM     62  C   UNL     1      -8.348  11.714  -8.391  1.00  0.00     0.031 C 
ATOM     63  C   UNL     1     -10.144  10.042  -8.739  1.00  0.00     0.037 A 
BRANCH  50  64
ATOM     64  C   UNL     1     -13.145   5.381  -6.012  1.00  0.00     0.064 A 
ATOM     65  C   UNL     1     -14.345   5.401  -5.284  1.00  0.00     0.173 A 
ATOM     66  C   UNL     1     -12.940   4.320  -6.907  1.00  0.00     0.173 A 
ATOM     67  F   UNL     1     -14.588   6.389  -4.409  1.00  0.00    -0.203 F 
ATOM     68  C   UNL     1     -15.286   4.384  -5.424  1.00  0.00     0.198 A 
ATOM     69  C   UNL     1     -13.899   3.323  -7.069  1.00  0.00     0.198 A 
ATOM     70  F   UNL     1     -11.815   4.255  -7.634  1.00  0.00    -0.203 F 
ATOM     71  F   UNL     1     -16.401   4.399  -4.681  1.00  0.00    -0.200 F 
ATOM     72  C   UNL     1     -15.066   3.351  -6.322  1.00  0.00     0.200 A 
ATOM     73  F   UNL     1     -13.692   2.334  -7.951  1.00  0.00    -0.200 F 
ATOM     74  F   UNL     1     -15.978   2.379  -6.464  1.00  0.00    -0.200 F 
ENDBRANCH  50  64
BRANCH  51  75
ATOM     75  C   UNL     1      -6.088  12.362  -4.885  1.00  0.00     0.064 A 
ATOM     76  C   UNL     1      -6.375  13.733  -4.925  1.00  0.00     0.173 A 
ATOM     77  C   UNL     1      -4.749  11.982  -4.712  1.00  0.00     0.173 A 
ATOM     78  F   UNL     1      -7.638  14.148  -5.109  1.00  0.00    -0.203 F 
ATOM     79  C   UNL     1      -5.363  14.685  -4.821  1.00  0.00     0.198 A 
ATOM     80  C   UNL     1      -3.741  12.935  -4.575  1.00  0.00     0.198 A 
ATOM     81  F   UNL     1      -4.419  10.683  -4.662  1.00  0.00    -0.203 F 
ATOM     82  F   UNL     1      -5.660  15.989  -4.914  1.00  0.00    -0.200 F 
ATOM     83  C   UNL     1      -4.048  14.285  -4.640  1.00  0.00     0.200 A 
ATOM     84  F   UNL     1      -2.474  12.544  -4.383  1.00  0.00    -0.200 F 
ATOM     85  F   UNL     1      -3.075  15.201  -4.535  1.00  0.00    -0.200 F 
ENDBRANCH  51  75
BRANCH  63  86
ATOM     86  C   UNL     1     -10.311  10.565 -10.137  1.00  0.00     0.064 A 
ATOM     87  C   UNL     1      -9.347  10.335 -11.129  1.00  0.00     0.173 A 
ATOM     88  C   UNL     1     -11.479  11.253 -10.503  1.00  0.00     0.173 A 
ATOM     89  F   UNL     1      -8.206   9.697 -10.828  1.00  0.00    -0.203 F 
ATOM     90  C   UNL     1      -9.537  10.791 -12.431  1.00  0.00     0.198 A 
ATOM     91  C   UNL     1     -11.680  11.678 -11.812  1.00  0.00     0.198 A 
ATOM     92  F   UNL     1     -12.435  11.495  -9.593  1.00  0.00    -0.203 F 
ATOM     93  F   UNL     1      -8.584  10.598 -13.353  1.00  0.00    -0.200 F 
ATOM     94  C   UNL     1     -10.707  11.452 -12.774  1.00  0.00     0.200 A 
ATOM     95  F   UNL     1     -12.818  12.303 -12.145  1.00  0.00    -0.200 F 
ATOM     96  F   UNL     1     -10.895  11.876 -14.031  1.00  0.00    -0.200 F 
ENDBRANCH  63  86
ENDBRANCH  37  38
ENDBRANCH  29  32
ENDBRANCH  27  28
ENDBRANCH  26  27
ENDBRANCH  25  26
ENDBRANCH  24  25
ENDBRANCH   1  24
TORSDOF 20
