REMARK SMILES C=C(C)COc1cc(/C=C/c2cc(C(=O)NCCCCCCNC(=O)c3ccc(-c4c5nc(c(-c6c(F)c(F)c(F)c(F)c6F)c6ccc([nH]6)c(-c6c(F)c(F)c(F)c(F)c6F)c6nc(c(-c7c(F)c(F)c(F)c(F)c7F)c7ccc4[nH]7)C=C6)C=C5)cc3)ncn2)ccc1OC
REMARK SMILES IDX 18 1 17 2 16 3 14 4 15 5 13 7 11 8 12 9 91 10 90 11 89 12
REMARK SMILES IDX 10 13 9 14 8 15 6 16 7 17 94 18 93 19 92 20 5 21 4 22 2 23
REMARK SMILES IDX 1 24 3 25 95 26 96 27 19 28 20 29 21 30 22 31 23 32 24 33
REMARK SMILES IDX 25 35 26 36 27 37 88 38 28 39 87 40 29 41 30 42 31 43 81 44
REMARK SMILES IDX 32 45 86 46 80 47 82 48 33 49 85 50 79 51 78 52 34 54 66 55
REMARK SMILES IDX 46 56 65 57 47 58 50 59 64 60 83 61 48 62 49 63 63 65 84 66
REMARK SMILES IDX 51 67 35 68 36 69 44 70 37 71 38 72 42 73 45 74 39 75 40 76
REMARK SMILES IDX 43 77 41 78 67 79 68 80 76 81 69 82 70 83 74 84 77 85 71 86
REMARK SMILES IDX 72 87 75 88 73 89 52 90 53 91 61 92 54 93 55 94 59 95 62 96
REMARK SMILES IDX 56 97 57 98 60 99 58 100
REMARK H PARENT 16 6 23 34 82 53 50 64
REMARK Flexibility Score: inf
ROOT
ATOM      1  C   UNL     1       5.005  -1.304   8.539  1.00  0.00     0.021 C 
ENDROOT
BRANCH   1   2
ATOM      2  C   UNL     1       4.193  -0.427   9.496  1.00  0.00     0.116 C 
BRANCH   2   3
ATOM      3  N   UNL     1       5.080   0.238  10.433  1.00  0.00    -0.351 N 
ATOM      4  C   UNL     1       5.566   1.522  10.537  1.00  0.00     0.270 C 
ATOM      5  O   UNL     1       6.343   1.736  11.470  1.00  0.00    -0.268 OA
ATOM      6  H   UNL     1       5.404  -0.358  11.147  1.00  0.00     0.163 HD
BRANCH   4   7
ATOM      7  C   UNL     1       5.163   2.652   9.629  1.00  0.00     0.132 A 
ATOM      8  C   UNL     1       4.205   3.589   7.706  1.00  0.00     0.067 A 
ATOM      9  C   UNL     1       4.729   2.475   8.338  1.00  0.00     0.062 A 
ATOM     10  N   UNL     1       4.262   4.822   8.228  1.00  0.00    -0.237 NA
ATOM     11  C   UNL     1       4.805   4.905   9.451  1.00  0.00     0.223 A 
ATOM     12  N   UNL     1       5.230   3.878  10.194  1.00  0.00    -0.231 NA
BRANCH   8  13
ATOM     13  C   UNL     1       3.448   3.424   6.453  1.00  0.00     0.029 C 
ATOM     14  C   UNL     1       2.377   2.612   6.471  1.00  0.00     0.010 C 
BRANCH  14  15
ATOM     15  C   UNL     1       1.558   2.077   5.369  1.00  0.00    -0.022 A 
ATOM     16  C   UNL     1       1.169   1.398   3.049  1.00  0.00     0.162 A 
ATOM     17  C   UNL     1       1.852   2.190   4.002  1.00  0.00     0.058 A 
ATOM     18  C   UNL     1       0.204   0.471   3.470  1.00  0.00     0.160 A 
ATOM     19  C   UNL     1      -0.153   0.445   4.820  1.00  0.00     0.051 A 
ATOM     20  C   UNL     1       0.507   1.235   5.755  1.00  0.00     0.012 A 
BRANCH  16  21
ATOM     21  O   UNL     1       1.617   1.443   1.754  1.00  0.00    -0.485 OA
BRANCH  21  22
ATOM     22  C   UNL     1       1.029   2.500   0.977  1.00  0.00     0.260 C 
BRANCH  22  23
ATOM     23  C   UNL     1       0.541   1.925  -0.341  1.00  0.00    -0.043 C 
ATOM     24  C   UNL     1       1.311   1.138  -1.115  1.00  0.00     0.011 C 
ATOM     25  C   UNL     1      -0.898   2.175  -0.705  1.00  0.00     0.042 C 
ENDBRANCH  22  23
ENDBRANCH  21  22
ENDBRANCH  16  21
BRANCH  18  26
ATOM     26  O   UNL     1      -0.464  -0.495   2.778  1.00  0.00    -0.493 OA
ATOM     27  C   UNL     1      -0.122  -0.775   1.436  1.00  0.00     0.278 C 
ENDBRANCH  18  26
ENDBRANCH  14  15
ENDBRANCH   8  13
ENDBRANCH   4   7
ENDBRANCH   2   3
ENDBRANCH   1   2
BRANCH   1  28
ATOM     28  C   UNL     1       5.401  -2.657   9.149  1.00  0.00     0.002 C 
BRANCH  28  29
ATOM     29  C   UNL     1       4.221  -3.573   9.502  1.00  0.00     0.002 C 
BRANCH  29  30
ATOM     30  C   UNL     1       3.262  -3.863   8.345  1.00  0.00     0.021 C 
BRANCH  30  31
ATOM     31  C   UNL     1       3.909  -4.580   7.165  1.00  0.00     0.116 C 
BRANCH  31  32
ATOM     32  N   UNL     1       4.362  -5.915   7.531  1.00  0.00    -0.352 N 
ATOM     33  C   UNL     1       4.017  -7.125   6.990  1.00  0.00     0.251 C 
ATOM     34  H   UNL     1       5.009  -5.952   8.272  1.00  0.00     0.163 HD
ATOM     35  O   UNL     1       4.305  -8.170   7.574  1.00  0.00    -0.269 OA
BRANCH  33  36
ATOM     36  C   UNL     1       3.288  -7.178   5.708  1.00  0.00     0.039 A 
ATOM     37  C   UNL     1       2.220  -8.067   5.569  1.00  0.00     0.014 A 
ATOM     38  C   UNL     1       3.667  -6.359   4.640  1.00  0.00     0.014 A 
ATOM     39  C   UNL     1       1.497  -8.095   4.376  1.00  0.00     0.010 A 
ATOM     40  C   UNL     1       2.897  -6.332   3.482  1.00  0.00     0.010 A 
ATOM     41  C   UNL     1       1.809  -7.205   3.335  1.00  0.00    -0.014 A 
BRANCH  41  42
ATOM     42  C   UNL     1       1.012  -7.176   2.083  1.00  0.00     0.031 A 
ATOM     43  C   UNL     1       1.652  -7.533   0.771  1.00  0.00     0.074 A 
ATOM     44  C   UNL     1      -0.273  -6.773   2.123  1.00  0.00     0.049 A 
ATOM     45  N   UNL     1       1.142  -7.507  -0.435  1.00  0.00    -0.248 NA
ATOM     46  C   UNL     1       3.063  -7.951   0.815  1.00  0.00     0.031 C 
ATOM     47  C   UNL     1      -0.992  -6.360   3.329  1.00  0.00     0.029 A 
ATOM     48  N   UNL     1      -1.200  -6.635   1.120  1.00  0.00    -0.354 N 
ATOM     49  C   UNL     1       2.167  -7.894  -1.288  1.00  0.00     0.074 A 
ATOM     50  C   UNL     1       3.345  -8.091  -0.472  1.00  0.00     0.031 C 
ATOM     51  C   UNL     1      -2.254  -6.040   3.001  1.00  0.00     0.029 A 
ATOM     52  C   UNL     1      -2.421  -6.182   1.558  1.00  0.00     0.049 A 
ATOM     53  H   UNL     1      -1.009  -6.841   0.177  1.00  0.00     0.167 HD
ATOM     54  C   UNL     1       2.122  -8.092  -2.627  1.00  0.00     0.037 A 
ATOM     55  C   UNL     1      -3.545  -5.903   0.870  1.00  0.00     0.037 A 
ATOM     56  C   UNL     1       0.942  -7.910  -3.431  1.00  0.00     0.049 A 
ATOM     57  C   UNL     1      -3.559  -6.108  -0.621  1.00  0.00     0.074 A 
ATOM     58  C   UNL     1       0.780  -8.130  -4.787  1.00  0.00     0.029 A 
ATOM     59  N   UNL     1      -0.279  -7.457  -2.951  1.00  0.00    -0.354 N 
ATOM     60  N   UNL     1      -2.602  -6.537  -1.408  1.00  0.00    -0.248 NA
ATOM     61  C   UNL     1      -4.813  -5.794  -1.319  1.00  0.00     0.031 C 
ATOM     62  C   UNL     1      -0.521  -7.757  -5.138  1.00  0.00     0.029 A 
ATOM     63  C   UNL     1      -1.191  -7.367  -3.990  1.00  0.00     0.049 A 
ATOM     64  H   UNL     1      -0.469  -7.234  -2.011  1.00  0.00     0.167 HD
ATOM     65  C   UNL     1      -3.147  -6.579  -2.684  1.00  0.00     0.074 A 
ATOM     66  C   UNL     1      -4.523  -6.144  -2.564  1.00  0.00     0.031 C 
ATOM     67  C   UNL     1      -2.561  -6.942  -3.852  1.00  0.00     0.037 A 
BRANCH  54  68
ATOM     68  C   UNL     1       3.386  -8.532  -3.309  1.00  0.00     0.064 A 
ATOM     69  C   UNL     1       3.932  -9.808  -3.097  1.00  0.00     0.173 A 
ATOM     70  C   UNL     1       4.038  -7.685  -4.218  1.00  0.00     0.173 A 
ATOM     71  F   UNL     1       3.356 -10.654  -2.230  1.00  0.00    -0.203 F 
ATOM     72  C   UNL     1       5.097 -10.207  -3.748  1.00  0.00     0.198 A 
ATOM     73  C   UNL     1       5.183  -8.101  -4.893  1.00  0.00     0.198 A 
ATOM     74  F   UNL     1       3.557  -6.457  -4.463  1.00  0.00    -0.203 F 
ATOM     75  F   UNL     1       5.627 -11.412  -3.490  1.00  0.00    -0.200 F 
ATOM     76  C   UNL     1       5.716  -9.357  -4.651  1.00  0.00     0.200 A 
ATOM     77  F   UNL     1       5.771  -7.283  -5.777  1.00  0.00    -0.200 F 
ATOM     78  F   UNL     1       6.831  -9.747  -5.285  1.00  0.00    -0.200 F 
ENDBRANCH  54  68
BRANCH  55  79
ATOM     79  C   UNL     1      -4.756  -5.418   1.584  1.00  0.00     0.064 A 
ATOM     80  C   UNL     1      -5.912  -6.207   1.660  1.00  0.00     0.173 A 
ATOM     81  C   UNL     1      -4.791  -4.151   2.186  1.00  0.00     0.173 A 
ATOM     82  F   UNL     1      -5.936  -7.417   1.083  1.00  0.00    -0.203 F 
ATOM     83  C   UNL     1      -7.065  -5.738   2.286  1.00  0.00     0.198 A 
ATOM     84  C   UNL     1      -5.934  -3.697   2.841  1.00  0.00     0.198 A 
ATOM     85  F   UNL     1      -3.711  -3.357   2.145  1.00  0.00    -0.203 F 
ATOM     86  F   UNL     1      -8.174  -6.490   2.293  1.00  0.00    -0.200 F 
ATOM     87  C   UNL     1      -7.074  -4.485   2.880  1.00  0.00     0.200 A 
ATOM     88  F   UNL     1      -5.933  -2.492   3.428  1.00  0.00    -0.200 F 
ATOM     89  F   UNL     1      -8.182  -4.034   3.482  1.00  0.00    -0.200 F 
ENDBRANCH  55  79
BRANCH  67  90
ATOM     90  C   UNL     1      -3.417  -6.929  -5.086  1.00  0.00     0.064 A 
ATOM     91  C   UNL     1      -3.860  -5.732  -5.667  1.00  0.00     0.173 A 
ATOM     92  C   UNL     1      -3.765  -8.133  -5.718  1.00  0.00     0.173 A 
ATOM     93  F   UNL     1      -3.566  -4.555  -5.095  1.00  0.00    -0.203 F 
ATOM     94  C   UNL     1      -4.645  -5.742  -6.817  1.00  0.00     0.198 A 
ATOM     95  C   UNL     1      -4.520  -8.138  -6.888  1.00  0.00     0.198 A 
ATOM     96  F   UNL     1      -3.361  -9.307  -5.209  1.00  0.00    -0.203 F 
ATOM     97  F   UNL     1      -5.102  -4.588  -7.324  1.00  0.00    -0.200 F 
ATOM     98  C   UNL     1      -4.967  -6.943  -7.431  1.00  0.00     0.200 A 
ATOM     99  F   UNL     1      -4.815  -9.299  -7.489  1.00  0.00    -0.200 F 
ATOM    100  F   UNL     1      -5.715  -6.950  -8.543  1.00  0.00    -0.200 F 
ENDBRANCH  67  90
ENDBRANCH  41  42
ENDBRANCH  33  36
ENDBRANCH  31  32
ENDBRANCH  30  31
ENDBRANCH  29  30
ENDBRANCH  28  29
ENDBRANCH   1  28
TORSDOF 19
