REMARK SMILES Cc1nnc(SCC2=C(C(=O)NCCCCCCNC(=O)c3ccc(-c4c5nc(c(-c6c(F)c(F)c(F)c(F)c6F)c6ccc([nH]6)c(-c6c(F)c(F)c(F)c(F)c6F)c6nc(c(-c7c(F)c(F)c(F)c(F)c7F)c7ccc4[nH]7)C=C6)C=C5)cc3)N3C(=O)[C@H](NC(=O)c4cn(C)nc4C)[C@@H]3SC2)s1
REMARK SMILES IDX 15 1 14 2 13 3 12 4 10 5 11 6 9 8 8 9 101 10 85 11 100 12
REMARK SMILES IDX 86 13 99 14 87 15 88 16 7 17 6 18 5 19 1 20 2 21 3 22 102 23
REMARK SMILES IDX 4 24 89 25 90 26 91 28 92 29 93 30 97 31 94 32 96 33 98 34
REMARK SMILES IDX 95 35 16 36 17 37 18 38 19 39 20 40 21 42 22 43 23 44 84 45
REMARK SMILES IDX 24 46 83 47 25 48 26 49 27 50 77 51 28 52 82 53 76 54 78 55
REMARK SMILES IDX 29 56 81 57 75 58 74 59 30 61 62 62 42 63 61 64 43 65 46 66
REMARK SMILES IDX 60 67 79 68 44 69 45 70 59 72 80 73 47 74 31 75 32 76 40 77
REMARK SMILES IDX 33 78 34 79 38 80 41 81 35 82 36 83 39 84 37 85 63 86 64 87
REMARK SMILES IDX 72 88 65 89 66 90 70 91 73 92 67 93 68 94 71 95 69 96 48 97
REMARK SMILES IDX 49 98 57 99 50 100 51 101 55 102 58 103 52 104 53 105 56 106
REMARK SMILES IDX 54 107
REMARK H PARENT 12 7 89 27 19 41 78 60 46 71
REMARK Flexibility Score: inf
ROOT
ATOM      1  C   UNL     1       7.111  -0.853  -3.460  1.00  0.00     0.002 C 
ENDROOT
BRANCH   1   2
ATOM      2  C   UNL     1       7.210  -0.517  -1.967  1.00  0.00     0.021 C 
BRANCH   2   3
ATOM      3  C   UNL     1       6.034  -0.850  -1.053  1.00  0.00     0.116 C 
BRANCH   3   4
ATOM      4  N   UNL     1       5.636  -2.232  -0.926  1.00  0.00    -0.351 N 
ATOM      5  C   UNL     1       4.784  -2.886  -0.072  1.00  0.00     0.268 C 
ATOM      6  O   UNL     1       4.452  -4.014  -0.443  1.00  0.00    -0.268 OA
ATOM      7  H   UNL     1       6.063  -2.825  -1.586  1.00  0.00     0.163 HD
BRANCH   5   8
ATOM      8  C   UNL     1       4.321  -2.364   1.305  1.00  0.00     0.111 C 
ATOM      9  C   UNL     1       3.796  -1.123   1.563  1.00  0.00    -0.020 C 
ATOM     10  C   UNL     1       3.366  -0.673   2.954  1.00  0.00     0.106 C 
ATOM     11  N   UNL     1       4.338  -3.301   2.322  1.00  0.00    -0.290 N 
ATOM     12  S   UNL     1       2.797  -1.984   4.043  1.00  0.00    -0.129 SA
ATOM     13  C   UNL     1       4.424  -4.649   2.471  1.00  0.00     0.253 C 
ATOM     14  C   UNL     1       4.244  -3.004   3.738  1.00  0.00     0.181 C 
ATOM     15  O   UNL     1       4.623  -5.590   1.742  1.00  0.00    -0.272 OA
ATOM     16  C   UNL     1       4.068  -4.529   3.988  1.00  0.00     0.206 C 
BRANCH   9  17
ATOM     17  C   UNL     1       3.586  -0.087   0.476  1.00  0.00     0.111 C 
BRANCH  17  18
ATOM     18  S   UNL     1       2.377   1.234   0.685  1.00  0.00    -0.089 SA
BRANCH  18  19
ATOM     19  C   UNL     1       0.883   0.411   0.347  1.00  0.00     0.174 A 
ATOM     20  C   UNL     1      -2.818  -0.413  -0.125  1.00  0.00     0.081 C 
ATOM     21  C   UNL     1      -1.346  -0.293   0.005  1.00  0.00     0.115 A 
ATOM     22  N   UNL     1      -0.486  -1.277  -0.155  1.00  0.00    -0.143 NA
ATOM     23  S   UNL     1      -0.626   1.216   0.389  1.00  0.00    -0.091 S 
ATOM     24  N   UNL     1       0.815  -0.865   0.047  1.00  0.00    -0.132 NA
ENDBRANCH  18  19
ENDBRANCH  17  18
ENDBRANCH   9  17
BRANCH  16  25
ATOM     25  N   UNL     1       2.706  -4.998   4.371  1.00  0.00    -0.337 N 
ATOM     26  C   UNL     1       2.272  -5.559   5.547  1.00  0.00     0.255 C 
ATOM     27  H   UNL     1       2.015  -4.889   3.678  1.00  0.00     0.164 HD
ATOM     28  O   UNL     1       1.101  -5.921   5.642  1.00  0.00    -0.269 OA
BRANCH  26  29
ATOM     29  C   UNL     1       3.220  -5.748   6.627  1.00  0.00     0.080 A 
ATOM     30  C   UNL     1       4.107  -4.831   7.161  1.00  0.00     0.122 A 
ATOM     31  C   UNL     1       3.402  -6.913   7.425  1.00  0.00     0.072 A 
ATOM     32  N   UNL     1       4.795  -5.490   8.137  1.00  0.00    -0.275 N 
ATOM     33  N   UNL     1       4.384  -6.752   8.323  1.00  0.00    -0.178 NA
ATOM     34  C   UNL     1       2.695  -8.216   7.339  1.00  0.00     0.069 C 
ATOM     35  C   UNL     1       5.896  -4.986   8.920  1.00  0.00     0.173 C 
ENDBRANCH  26  29
ENDBRANCH  16  25
ENDBRANCH   5   8
ENDBRANCH   3   4
ENDBRANCH   2   3
ENDBRANCH   1   2
BRANCH   1  36
ATOM     36  C   UNL     1       5.818  -0.563  -4.229  1.00  0.00     0.002 C 
BRANCH  36  37
ATOM     37  C   UNL     1       5.187   0.828  -4.143  1.00  0.00     0.021 C 
BRANCH  37  38
ATOM     38  C   UNL     1       6.090   2.038  -4.358  1.00  0.00     0.116 C 
BRANCH  38  39
ATOM     39  N   UNL     1       6.774   2.046  -5.637  1.00  0.00    -0.352 N 
ATOM     40  C   UNL     1       6.886   3.035  -6.585  1.00  0.00     0.251 C 
ATOM     41  H   UNL     1       7.232   1.205  -5.864  1.00  0.00     0.163 HD
ATOM     42  O   UNL     1       7.468   2.796  -7.640  1.00  0.00    -0.269 OA
BRANCH  40  43
ATOM     43  C   UNL     1       6.288   4.378  -6.380  1.00  0.00     0.039 A 
ATOM     44  C   UNL     1       5.637   4.984  -7.461  1.00  0.00     0.014 A 
ATOM     45  C   UNL     1       6.391   5.064  -5.167  1.00  0.00     0.014 A 
ATOM     46  C   UNL     1       5.033   6.236  -7.308  1.00  0.00     0.010 A 
ATOM     47  C   UNL     1       5.735   6.286  -4.996  1.00  0.00     0.010 A 
ATOM     48  C   UNL     1       5.046   6.883  -6.063  1.00  0.00    -0.014 A 
BRANCH  48  49
ATOM     49  C   UNL     1       4.329   8.171  -5.863  1.00  0.00     0.031 A 
ATOM     50  C   UNL     1       5.089   9.431  -5.556  1.00  0.00     0.074 A 
ATOM     51  C   UNL     1       2.982   8.194  -5.903  1.00  0.00     0.049 A 
ATOM     52  N   UNL     1       4.633  10.632  -5.296  1.00  0.00    -0.248 NA
ATOM     53  C   UNL     1       6.555   9.324  -5.512  1.00  0.00     0.031 C 
ATOM     54  C   UNL     1       2.125   7.034  -6.149  1.00  0.00     0.029 A 
ATOM     55  N   UNL     1       2.097   9.230  -5.729  1.00  0.00    -0.354 N 
ATOM     56  C   UNL     1       5.751  11.417  -5.047  1.00  0.00     0.074 A 
ATOM     57  C   UNL     1       6.905  10.548  -5.141  1.00  0.00     0.031 C 
ATOM     58  C   UNL     1       0.841   7.423  -6.128  1.00  0.00     0.029 A 
ATOM     59  C   UNL     1       0.780   8.852  -5.834  1.00  0.00     0.049 A 
ATOM     60  H   UNL     1       2.379  10.155  -5.545  1.00  0.00     0.167 HD
ATOM     61  C   UNL     1       5.811  12.745  -4.784  1.00  0.00     0.037 A 
ATOM     62  C   UNL     1      -0.349   9.573  -5.702  1.00  0.00     0.037 A 
ATOM     63  C   UNL     1       4.665  13.614  -4.717  1.00  0.00     0.049 A 
ATOM     64  C   UNL     1      -0.255  11.046  -5.410  1.00  0.00     0.074 A 
ATOM     65  C   UNL     1       4.631  14.984  -4.518  1.00  0.00     0.029 A 
ATOM     66  N   UNL     1       3.349  13.197  -4.846  1.00  0.00    -0.354 N 
ATOM     67  N   UNL     1       0.812  11.789  -5.241  1.00  0.00    -0.248 NA
ATOM     68  C   UNL     1      -1.522  11.783  -5.299  1.00  0.00     0.031 C 
ATOM     69  C   UNL     1       3.292  15.389  -4.484  1.00  0.00     0.029 A 
ATOM     70  C   UNL     1       2.494  14.280  -4.708  1.00  0.00     0.049 A 
ATOM     71  H   UNL     1       3.063  12.270  -5.011  1.00  0.00     0.167 HD
ATOM     72  C   UNL     1       0.348  13.080  -5.029  1.00  0.00     0.074 A 
ATOM     73  C   UNL     1      -1.096  13.023  -5.105  1.00  0.00     0.031 C 
ATOM     74  C   UNL     1       1.057  14.210  -4.791  1.00  0.00     0.037 A 
BRANCH  61  75
ATOM     75  C   UNL     1       7.168  13.346  -4.550  1.00  0.00     0.064 A 
ATOM     76  C   UNL     1       8.091  13.504  -5.594  1.00  0.00     0.173 A 
ATOM     77  C   UNL     1       7.532  13.808  -3.276  1.00  0.00     0.173 A 
ATOM     78  F   UNL     1       7.796  13.070  -6.828  1.00  0.00    -0.203 F 
ATOM     79  C   UNL     1       9.340  14.077  -5.366  1.00  0.00     0.198 A 
ATOM     80  C   UNL     1       8.770  14.407  -3.058  1.00  0.00     0.198 A 
ATOM     81  F   UNL     1       6.684  13.688  -2.244  1.00  0.00    -0.203 F 
ATOM     82  F   UNL     1      10.224  14.175  -6.368  1.00  0.00    -0.200 F 
ATOM     83  C   UNL     1       9.676  14.534  -4.100  1.00  0.00     0.200 A 
ATOM     84  F   UNL     1       9.088  14.859  -1.837  1.00  0.00    -0.200 F 
ATOM     85  F   UNL     1      10.875  15.091  -3.883  1.00  0.00    -0.200 F 
ENDBRANCH  61  75
BRANCH  62  86
ATOM     86  C   UNL     1      -1.671   8.916  -5.870  1.00  0.00     0.064 A 
ATOM     87  C   UNL     1      -2.472   9.186  -6.988  1.00  0.00     0.173 A 
ATOM     88  C   UNL     1      -2.160   8.008  -4.920  1.00  0.00     0.173 A 
ATOM     89  F   UNL     1      -2.057  10.064  -7.912  1.00  0.00    -0.203 F 
ATOM     90  C   UNL     1      -3.720   8.585  -7.141  1.00  0.00     0.198 A 
ATOM     91  C   UNL     1      -3.397   7.387  -5.088  1.00  0.00     0.198 A 
ATOM     92  F   UNL     1      -1.431   7.713  -3.834  1.00  0.00    -0.203 F 
ATOM     93  F   UNL     1      -4.484   8.894  -8.198  1.00  0.00    -0.200 F 
ATOM     94  C   UNL     1      -4.179   7.682  -6.194  1.00  0.00     0.200 A 
ATOM     95  F   UNL     1      -3.830   6.505  -4.177  1.00  0.00    -0.200 F 
ATOM     96  F   UNL     1      -5.377   7.102  -6.344  1.00  0.00    -0.200 F 
ENDBRANCH  62  86
BRANCH  74  97
ATOM     97  C   UNL     1       0.283  15.485  -4.626  1.00  0.00     0.064 A 
ATOM     98  C   UNL     1      -0.472  15.742  -3.472  1.00  0.00     0.173 A 
ATOM     99  C   UNL     1       0.325  16.476  -5.618  1.00  0.00     0.173 A 
ATOM    100  F   UNL     1      -0.556  14.819  -2.502  1.00  0.00    -0.203 F 
ATOM    101  C   UNL     1      -1.175  16.935  -3.328  1.00  0.00     0.198 A 
ATOM    102  C   UNL     1      -0.357  17.679  -5.459  1.00  0.00     0.198 A 
ATOM    103  F   UNL     1       1.036  16.281  -6.739  1.00  0.00    -0.203 F 
ATOM    104  F   UNL     1      -1.927  17.140  -2.237  1.00  0.00    -0.200 F 
ATOM    105  C   UNL     1      -1.112  17.904  -4.318  1.00  0.00     0.200 A 
ATOM    106  F   UNL     1      -0.285  18.619  -6.411  1.00  0.00    -0.200 F 
ATOM    107  F   UNL     1      -1.785  19.054  -4.175  1.00  0.00    -0.200 F 
ENDBRANCH  74  97
ENDBRANCH  48  49
ENDBRANCH  40  43
ENDBRANCH  38  39
ENDBRANCH  37  38
ENDBRANCH  36  37
ENDBRANCH   1  36
TORSDOF 18
