REMARK SMILES COc1cccc(C(=O)/C=C(/Nc2cc(C)c(C)cc2[N+](=O)[O-])C(=O)NCCCCCCNC(=O)c2ccc(-c3c4nc(c(-c5c(F)c(F)c(F)c(F)c5F)c5ccc([nH]5)c(-c5c(F)c(F)c(F)c(F)c5F)c5nc(c(-c6c(F)c(F)c(F)c(F)c6F)c6ccc3[nH]6)C=C5)C=C4)cc2)c1
REMARK SMILES IDX 29 1 28 2 27 3 26 4 24 5 25 6 11 8 10 9 8 10 9 11 7 12 3 13
REMARK SMILES IDX 4 14 99 15 5 16 6 17 2 18 1 19 12 20 13 22 14 23 20 24 15 25
REMARK SMILES IDX 19 26 16 27 17 28 18 29 21 30 22 31 23 32 30 33 31 34 32 35
REMARK SMILES IDX 33 36 34 37 35 39 36 40 37 41 98 42 38 43 97 44 39 45 40 46
REMARK SMILES IDX 41 47 91 48 42 49 96 50 90 51 92 52 43 53 95 54 89 55 88 56
REMARK SMILES IDX 44 58 76 59 56 60 75 61 57 62 60 63 74 64 93 65 58 66 59 67
REMARK SMILES IDX 73 69 94 70 61 71 45 72 46 73 54 74 47 75 48 76 52 77 55 78
REMARK SMILES IDX 49 79 50 80 53 81 51 82 77 83 78 84 86 85 79 86 80 87 84 88
REMARK SMILES IDX 87 89 81 90 82 91 85 92 83 93 62 94 63 95 71 96 64 97 65 98
REMARK SMILES IDX 69 99 72 100 66 101 67 102 70 103 68 104
REMARK H PARENT 26 7 12 21 33 38 92 57 60 68
REMARK Flexibility Score: inf
ROOT
ATOM      1  C   UNL     1       1.479   2.111   1.358  1.00  0.00     0.002 C 
ENDROOT
BRANCH   1   2
ATOM      2  C   UNL     1       2.645   2.032   0.367  1.00  0.00     0.021 C 
BRANCH   2   3
ATOM      3  C   UNL     1       3.514   0.781   0.334  1.00  0.00     0.116 C 
BRANCH   3   4
ATOM      4  N   UNL     1       2.856  -0.493   0.147  1.00  0.00    -0.351 N 
ATOM      5  C   UNL     1       3.372  -1.645  -0.395  1.00  0.00     0.267 C 
ATOM      6  O   UNL     1       2.773  -2.707  -0.248  1.00  0.00    -0.268 OA
ATOM      7  H   UNL     1       1.920  -0.542   0.447  1.00  0.00     0.163 HD
BRANCH   5   8
ATOM      8  C   UNL     1       4.648  -1.597  -1.184  1.00  0.00     0.108 C 
ATOM      9  C   UNL     1       4.592  -1.877  -2.504  1.00  0.00     0.084 C 
BRANCH   9  10
ATOM     10  C   UNL     1       3.565  -2.287  -3.514  1.00  0.00     0.188 C 
ATOM     11  O   UNL     1       3.964  -2.515  -4.659  1.00  0.00    -0.289 OA
BRANCH  10  12
ATOM     12  C   UNL     1       2.128  -2.484  -3.242  1.00  0.00     0.026 A 
ATOM     13  C   UNL     1       0.008  -1.804  -2.302  1.00  0.00     0.119 A 
ATOM     14  C   UNL     1      -0.548  -3.017  -2.722  1.00  0.00     0.046 A 
ATOM     15  C   UNL     1       1.337  -1.514  -2.616  1.00  0.00     0.058 A 
ATOM     16  C   UNL     1       0.202  -3.933  -3.454  1.00  0.00     0.005 A 
ATOM     17  C   UNL     1       1.544  -3.670  -3.710  1.00  0.00     0.012 A 
BRANCH  13  18
ATOM     18  O   UNL     1      -0.861  -1.041  -1.580  1.00  0.00    -0.497 OA
ATOM     19  C   UNL     1      -0.490   0.257  -1.162  1.00  0.00     0.278 C 
ENDBRANCH  13  18
ENDBRANCH  10  12
ENDBRANCH   9  10
BRANCH   8  20
ATOM     20  N   UNL     1       5.867  -1.269  -0.572  1.00  0.00    -0.345 N 
ATOM     21  H   UNL     1       6.652  -1.308  -1.165  1.00  0.00     0.167 HD
BRANCH  20  22
ATOM     22  C   UNL     1       6.148  -0.893   0.758  1.00  0.00     0.118 A 
ATOM     23  C   UNL     1       6.801   0.347   0.923  1.00  0.00     0.037 A 
ATOM     24  C   UNL     1       5.675  -1.513   1.921  1.00  0.00     0.292 A 
ATOM     25  C   UNL     1       6.860   1.018   2.164  1.00  0.00    -0.046 A 
ATOM     26  C   UNL     1       5.743  -0.874   3.174  1.00  0.00     0.091 A 
ATOM     27  C   UNL     1       7.473   2.393   2.182  1.00  0.00     0.045 C 
ATOM     28  C   UNL     1       6.288   0.414   3.297  1.00  0.00    -0.041 A 
ATOM     29  C   UNL     1       6.233   1.097   4.637  1.00  0.00     0.045 C 
BRANCH  24  30
ATOM     30  N   UNL     1       5.151  -2.873   1.901  1.00  0.00     0.064 N 
ATOM     31  O   UNL     1       4.170  -3.106   2.624  1.00  0.00    -0.258 OA
ATOM     32  O   UNL     1       5.766  -3.714   1.232  1.00  0.00    -0.258 OA
ENDBRANCH  24  30
ENDBRANCH  20  22
ENDBRANCH   8  20
ENDBRANCH   5   8
ENDBRANCH   3   4
ENDBRANCH   2   3
ENDBRANCH   1   2
BRANCH   1  33
ATOM     33  C   UNL     1       1.619   1.455   2.730  1.00  0.00     0.002 C 
BRANCH  33  34
ATOM     34  C   UNL     1       2.767   1.938   3.609  1.00  0.00     0.021 C 
BRANCH  34  35
ATOM     35  C   UNL     1       2.835   3.435   3.866  1.00  0.00     0.116 C 
BRANCH  35  36
ATOM     36  N   UNL     1       1.697   3.940   4.611  1.00  0.00    -0.352 N 
ATOM     37  C   UNL     1       1.668   4.756   5.712  1.00  0.00     0.251 C 
ATOM     38  H   UNL     1       0.816   3.655   4.276  1.00  0.00     0.163 HD
ATOM     39  O   UNL     1       0.595   4.974   6.281  1.00  0.00    -0.269 OA
BRANCH  37  40
ATOM     40  C   UNL     1       2.910   5.359   6.248  1.00  0.00     0.039 A 
ATOM     41  C   UNL     1       3.082   5.417   7.635  1.00  0.00     0.014 A 
ATOM     42  C   UNL     1       3.888   5.900   5.408  1.00  0.00     0.014 A 
ATOM     43  C   UNL     1       4.246   5.971   8.174  1.00  0.00     0.010 A 
ATOM     44  C   UNL     1       5.082   6.382   5.943  1.00  0.00     0.010 A 
ATOM     45  C   UNL     1       5.269   6.436   7.333  1.00  0.00    -0.014 A 
BRANCH  45  46
ATOM     46  C   UNL     1       6.518   7.018   7.892  1.00  0.00     0.031 A 
ATOM     47  C   UNL     1       6.847   8.468   7.655  1.00  0.00     0.074 A 
ATOM     48  C   UNL     1       7.373   6.240   8.584  1.00  0.00     0.049 A 
ATOM     49  N   UNL     1       7.911   9.146   8.005  1.00  0.00    -0.248 NA
ATOM     50  C   UNL     1       5.856   9.257   6.904  1.00  0.00     0.031 C 
ATOM     51  C   UNL     1       7.187   4.815   8.860  1.00  0.00     0.029 A 
ATOM     52  N   UNL     1       8.575   6.538   9.178  1.00  0.00    -0.354 N 
ATOM     53  C   UNL     1       7.717  10.433   7.520  1.00  0.00     0.074 A 
ATOM     54  C   UNL     1       6.467  10.427   6.793  1.00  0.00     0.031 C 
ATOM     55  C   UNL     1       8.225   4.368   9.586  1.00  0.00     0.029 A 
ATOM     56  C   UNL     1       9.168   5.463   9.795  1.00  0.00     0.049 A 
ATOM     57  H   UNL     1       8.974   7.438   9.164  1.00  0.00     0.167 HD
ATOM     58  C   UNL     1       8.494  11.530   7.690  1.00  0.00     0.037 A 
ATOM     59  C   UNL     1      10.342   5.371  10.449  1.00  0.00     0.037 A 
ATOM     60  C   UNL     1       9.730  11.543   8.427  1.00  0.00     0.049 A 
ATOM     61  C   UNL     1      11.201   6.600  10.597  1.00  0.00     0.074 A 
ATOM     62  C   UNL     1      10.581  12.608   8.668  1.00  0.00     0.029 A 
ATOM     63  N   UNL     1      10.289  10.437   9.049  1.00  0.00    -0.354 N 
ATOM     64  N   UNL     1      10.983   7.820  10.169  1.00  0.00    -0.248 NA
ATOM     65  C   UNL     1      12.466   6.440  11.328  1.00  0.00     0.031 C 
ATOM     66  C   UNL     1      11.674  12.138   9.404  1.00  0.00     0.029 A 
ATOM     67  C   UNL     1      11.478  10.792   9.665  1.00  0.00     0.049 A 
ATOM     68  H   UNL     1       9.899   9.533   9.053  1.00  0.00     0.167 HD
ATOM     69  C   UNL     1      12.060   8.577  10.612  1.00  0.00     0.074 A 
ATOM     70  C   UNL     1      12.924   7.683  11.353  1.00  0.00     0.031 C 
ATOM     71  C   UNL     1      12.314   9.895  10.421  1.00  0.00     0.037 A 
BRANCH  58  72
ATOM     72  C   UNL     1       8.018  12.819   7.082  1.00  0.00     0.064 A 
ATOM     73  C   UNL     1       6.902  13.499   7.593  1.00  0.00     0.173 A 
ATOM     74  C   UNL     1       8.709  13.405   6.011  1.00  0.00     0.173 A 
ATOM     75  F   UNL     1       6.199  12.975   8.609  1.00  0.00    -0.203 F 
ATOM     76  C   UNL     1       6.481  14.704   7.038  1.00  0.00     0.198 A 
ATOM     77  C   UNL     1       8.303  14.626   5.479  1.00  0.00     0.198 A 
ATOM     78  F   UNL     1       9.786  12.799   5.488  1.00  0.00    -0.203 F 
ATOM     79  F   UNL     1       5.384  15.311   7.513  1.00  0.00    -0.200 F 
ATOM     80  C   UNL     1       7.186  15.271   5.987  1.00  0.00     0.200 A 
ATOM     81  F   UNL     1       8.993  15.179   4.472  1.00  0.00    -0.200 F 
ATOM     82  F   UNL     1       6.785  16.436   5.461  1.00  0.00    -0.200 F 
ENDBRANCH  58  72
BRANCH  59  83
ATOM     83  C   UNL     1      10.780   4.073  11.029  1.00  0.00     0.064 A 
ATOM     84  C   UNL     1      10.883   3.900  12.417  1.00  0.00     0.173 A 
ATOM     85  C   UNL     1      11.144   2.994  10.210  1.00  0.00     0.173 A 
ATOM     86  F   UNL     1      10.567   4.909  13.242  1.00  0.00    -0.203 F 
ATOM     87  C   UNL     1      11.368   2.712  12.962  1.00  0.00     0.198 A 
ATOM     88  C   UNL     1      11.597   1.795  10.757  1.00  0.00     0.198 A 
ATOM     89  F   UNL     1      11.058   3.104   8.876  1.00  0.00    -0.203 F 
ATOM     90  F   UNL     1      11.518   2.599  14.288  1.00  0.00    -0.200 F 
ATOM     91  C   UNL     1      11.722   1.660  12.131  1.00  0.00     0.200 A 
ATOM     92  F   UNL     1      11.924   0.776   9.951  1.00  0.00    -0.200 F 
ATOM     93  F   UNL     1      12.195   0.520  12.654  1.00  0.00    -0.200 F 
ENDBRANCH  59  83
BRANCH  71  94
ATOM     94  C   UNL     1      13.544  10.463  11.068  1.00  0.00     0.064 A 
ATOM     95  C   UNL     1      14.832  10.153  10.608  1.00  0.00     0.173 A 
ATOM     96  C   UNL     1      13.428  11.357  12.144  1.00  0.00     0.173 A 
ATOM     97  F   UNL     1      14.997   9.292   9.592  1.00  0.00    -0.203 F 
ATOM     98  C   UNL     1      15.960  10.694  11.220  1.00  0.00     0.198 A 
ATOM     99  C   UNL     1      14.556  11.920  12.733  1.00  0.00     0.198 A 
ATOM    100  F   UNL     1      12.218  11.693  12.617  1.00  0.00    -0.203 F 
ATOM    101  F   UNL     1      17.182  10.342  10.798  1.00  0.00    -0.200 F 
ATOM    102  C   UNL     1      15.821  11.582  12.277  1.00  0.00     0.200 A 
ATOM    103  F   UNL     1      14.419  12.790  13.744  1.00  0.00    -0.200 F 
ATOM    104  F   UNL     1      16.907  12.106  12.861  1.00  0.00    -0.200 F 
ENDBRANCH  71  94
ENDBRANCH  45  46
ENDBRANCH  37  40
ENDBRANCH  35  36
ENDBRANCH  34  35
ENDBRANCH  33  34
ENDBRANCH   1  33
TORSDOF 19
