REMARK SMILES COc1cc(S(=O)(=O)Nc2cccc(C(=O)NCCCCCCNC(=O)c3ccc(-c4c5nc(c(-c6c(F)c(F)c(F)c(F)c6F)c6ccc([nH]6)c(-c6c(F)c(F)c(F)c(F)c6F)c6nc(c(-c7c(F)c(F)c(F)c(F)c7F)c7ccc4[nH]7)C=C6)C=C5)cc3)c2)c(OC)cc1C
REMARK SMILES IDX 19 1 18 2 17 3 15 4 16 5 14 7 10 8 11 9 90 10 12 11 13 12
REMARK SMILES IDX 9 13 6 15 7 16 8 17 5 18 3 19 4 20 95 21 94 22 96 23 91 24
REMARK SMILES IDX 2 25 1 26 92 27 93 28 20 29 21 30 22 31 23 32 24 33 25 34
REMARK SMILES IDX 26 36 27 37 28 38 89 39 29 40 88 41 30 42 31 43 32 44 82 45
REMARK SMILES IDX 33 46 87 47 81 48 83 49 34 50 86 51 80 52 79 53 35 55 67 56
REMARK SMILES IDX 47 57 66 58 48 59 51 60 65 61 84 62 49 63 50 64 64 66 85 67
REMARK SMILES IDX 52 68 36 69 37 70 45 71 38 72 39 73 43 74 46 75 40 76 41 77
REMARK SMILES IDX 44 78 42 79 68 80 69 81 77 82 70 83 71 84 75 85 78 86 72 87
REMARK SMILES IDX 73 88 76 89 74 90 53 91 54 92 62 93 55 94 56 95 60 96 63 97
REMARK SMILES IDX 57 98 58 99 61 100 59 101
REMARK H PARENT 17 6 9 14 24 35 83 54 51 65
REMARK Flexibility Score: inf
ROOT
ATOM      1  C   UNL     1       6.697  -2.857   9.449  1.00  0.00     0.021 C 
ENDROOT
BRANCH   1   2
ATOM      2  C   UNL     1       5.524  -3.222   8.538  1.00  0.00     0.116 C 
BRANCH   2   3
ATOM      3  N   UNL     1       4.417  -3.758   9.307  1.00  0.00    -0.352 N 
ATOM      4  C   UNL     1       3.166  -3.266   9.572  1.00  0.00     0.251 C 
ATOM      5  O   UNL     1       2.377  -3.972  10.197  1.00  0.00    -0.269 OA
ATOM      6  H   UNL     1       4.598  -4.636   9.714  1.00  0.00     0.163 HD
BRANCH   4   7
ATOM      7  C   UNL     1       2.698  -1.962   9.046  1.00  0.00     0.041 A 
ATOM      8  C   UNL     1       0.934  -0.808   7.832  1.00  0.00     0.050 A 
ATOM      9  C   UNL     1       1.681   0.367   7.869  1.00  0.00     0.027 A 
ATOM     10  C   UNL     1       1.418  -1.948   8.480  1.00  0.00     0.040 A 
ATOM     11  C   UNL     1       2.937   0.376   8.491  1.00  0.00     0.003 A 
ATOM     12  C   UNL     1       3.450  -0.788   9.074  1.00  0.00     0.014 A 
BRANCH   8  13
ATOM     13  N   UNL     1      -0.293  -0.963   7.134  1.00  0.00    -0.279 N 
ATOM     14  H   UNL     1      -0.918  -1.641   7.479  1.00  0.00     0.180 HD
BRANCH  13  15
ATOM     15  S   UNL     1      -0.777  -0.110   5.788  1.00  0.00     0.265 S 
ATOM     16  O   UNL     1      -0.835   1.294   6.147  1.00  0.00    -0.201 OA
ATOM     17  O   UNL     1      -1.969  -0.794   5.324  1.00  0.00    -0.201 OA
BRANCH  15  18
ATOM     18  C   UNL     1       0.400  -0.233   4.460  1.00  0.00     0.133 A 
ATOM     19  C   UNL     1       0.959   0.654   2.266  1.00  0.00     0.123 A 
ATOM     20  C   UNL     1       0.065   0.529   3.325  1.00  0.00     0.073 A 
ATOM     21  C   UNL     1       2.251   0.147   2.381  1.00  0.00    -0.005 A 
ATOM     22  C   UNL     1       2.542  -0.691   3.468  1.00  0.00     0.055 A 
ATOM     23  C   UNL     1       3.324   0.433   1.371  1.00  0.00     0.048 C 
ATOM     24  C   UNL     1       1.603  -0.943   4.482  1.00  0.00     0.139 A 
BRANCH  19  25
ATOM     25  O   UNL     1       0.527   1.331   1.160  1.00  0.00    -0.496 OA
ATOM     26  C   UNL     1       0.411   0.450   0.036  1.00  0.00     0.278 C 
ENDBRANCH  19  25
BRANCH  24  27
ATOM     27  O   UNL     1       1.801  -1.892   5.439  1.00  0.00    -0.495 OA
ATOM     28  C   UNL     1       3.059  -2.558   5.480  1.00  0.00     0.278 C 
ENDBRANCH  24  27
ENDBRANCH  15  18
ENDBRANCH  13  15
ENDBRANCH   8  13
ENDBRANCH   4   7
ENDBRANCH   2   3
ENDBRANCH   1   2
BRANCH   1  29
ATOM     29  C   UNL     1       7.448  -4.056  10.051  1.00  0.00     0.002 C 
BRANCH  29  30
ATOM     30  C   UNL     1       8.050  -5.064   9.058  1.00  0.00     0.002 C 
BRANCH  30  31
ATOM     31  C   UNL     1       8.872  -4.478   7.907  1.00  0.00     0.021 C 
BRANCH  31  32
ATOM     32  C   UNL     1      10.169  -3.801   8.344  1.00  0.00     0.116 C 
BRANCH  32  33
ATOM     33  N   UNL     1      11.376  -4.516   7.934  1.00  0.00    -0.352 N 
ATOM     34  C   UNL     1      12.702  -4.206   8.198  1.00  0.00     0.251 C 
ATOM     35  H   UNL     1      11.227  -5.328   7.399  1.00  0.00     0.163 HD
ATOM     36  O   UNL     1      13.607  -4.916   7.803  1.00  0.00    -0.269 OA
BRANCH  34  37
ATOM     37  C   UNL     1      12.985  -3.058   9.089  1.00  0.00     0.039 A 
ATOM     38  C   UNL     1      13.701  -3.313  10.263  1.00  0.00     0.014 A 
ATOM     39  C   UNL     1      12.328  -1.845   8.899  1.00  0.00     0.014 A 
ATOM     40  C   UNL     1      13.530  -2.466  11.352  1.00  0.00     0.010 A 
ATOM     41  C   UNL     1      12.090  -1.049  10.001  1.00  0.00     0.010 A 
ATOM     42  C   UNL     1      12.621  -1.414  11.243  1.00  0.00    -0.014 A 
BRANCH  42  43
ATOM     43  C   UNL     1      12.058  -0.746  12.409  1.00  0.00     0.031 A 
ATOM     44  C   UNL     1      12.530   0.593  12.806  1.00  0.00     0.074 A 
ATOM     45  C   UNL     1      11.066  -1.357  13.097  1.00  0.00     0.049 A 
ATOM     46  N   UNL     1      12.405   1.083  13.993  1.00  0.00    -0.248 NA
ATOM     47  C   UNL     1      13.276   1.461  11.903  1.00  0.00     0.031 C 
ATOM     48  C   UNL     1      10.212  -0.773  14.127  1.00  0.00     0.029 A 
ATOM     49  N   UNL     1      10.776  -2.734  13.141  1.00  0.00    -0.354 N 
ATOM     50  C   UNL     1      12.764   2.410  13.936  1.00  0.00     0.074 A 
ATOM     51  C   UNL     1      13.438   2.543  12.671  1.00  0.00     0.031 C 
ATOM     52  C   UNL     1       9.732  -1.760  14.898  1.00  0.00     0.029 A 
ATOM     53  C   UNL     1      10.374  -2.991  14.472  1.00  0.00     0.049 A 
ATOM     54  H   UNL     1      10.840  -3.380  12.401  1.00  0.00     0.167 HD
ATOM     55  C   UNL     1      12.295   3.252  14.903  1.00  0.00     0.037 A 
ATOM     56  C   UNL     1      11.093  -3.818  15.285  1.00  0.00     0.037 A 
ATOM     57  C   UNL     1      11.753   2.485  16.032  1.00  0.00     0.049 A 
ATOM     58  C   UNL     1      11.623  -3.151  16.533  1.00  0.00     0.074 A 
ATOM     59  C   UNL     1      10.467   2.212  16.467  1.00  0.00     0.029 A 
ATOM     60  N   UNL     1      12.594   1.625  16.739  1.00  0.00    -0.354 N 
ATOM     61  N   UNL     1      11.684  -1.859  16.693  1.00  0.00    -0.248 NA
ATOM     62  C   UNL     1      12.164  -3.881  17.677  1.00  0.00     0.031 C 
ATOM     63  C   UNL     1      10.531   1.115  17.366  1.00  0.00     0.029 A 
ATOM     64  C   UNL     1      11.858   0.747  17.510  1.00  0.00     0.049 A 
ATOM     65  H   UNL     1      13.578   1.643  16.695  1.00  0.00     0.167 HD
ATOM     66  C   UNL     1      12.275  -1.574  17.894  1.00  0.00     0.074 A 
ATOM     67  C   UNL     1      12.538  -2.874  18.485  1.00  0.00     0.031 C 
ATOM     68  C   UNL     1      12.514  -0.291  18.294  1.00  0.00     0.037 A 
BRANCH  55  69
ATOM     69  C   UNL     1      12.056   4.751  14.727  1.00  0.00     0.064 A 
ATOM     70  C   UNL     1      11.300   5.466  15.688  1.00  0.00     0.173 A 
ATOM     71  C   UNL     1      12.406   5.521  13.596  1.00  0.00     0.173 A 
ATOM     72  F   UNL     1      10.941   4.905  16.851  1.00  0.00    -0.203 F 
ATOM     73  C   UNL     1      10.864   6.784  15.489  1.00  0.00     0.198 A 
ATOM     74  C   UNL     1      11.984   6.842  13.404  1.00  0.00     0.198 A 
ATOM     75  F   UNL     1      13.163   5.049  12.607  1.00  0.00    -0.203 F 
ATOM     76  F   UNL     1      10.101   7.380  16.415  1.00  0.00    -0.200 F 
ATOM     77  C   UNL     1      11.194   7.467  14.339  1.00  0.00     0.200 A 
ATOM     78  F   UNL     1      12.338   7.489  12.284  1.00  0.00    -0.200 F 
ATOM     79  F   UNL     1      10.761   8.718  14.133  1.00  0.00    -0.200 F 
ENDBRANCH  55  69
BRANCH  56  80
ATOM     80  C   UNL     1      11.752  -4.932  14.558  1.00  0.00     0.064 A 
ATOM     81  C   UNL     1      10.932  -5.893  13.935  1.00  0.00     0.173 A 
ATOM     82  C   UNL     1      13.091  -4.866  14.159  1.00  0.00     0.173 A 
ATOM     83  F   UNL     1       9.639  -5.996  14.282  1.00  0.00    -0.203 F 
ATOM     84  C   UNL     1      11.401  -6.672  12.880  1.00  0.00     0.198 A 
ATOM     85  C   UNL     1      13.561  -5.658  13.108  1.00  0.00     0.198 A 
ATOM     86  F   UNL     1      13.915  -3.958  14.699  1.00  0.00    -0.203 F 
ATOM     87  F   UNL     1      10.564  -7.498  12.235  1.00  0.00    -0.200 F 
ATOM     88  C   UNL     1      12.709  -6.533  12.448  1.00  0.00     0.200 A 
ATOM     89  F   UNL     1      14.820  -5.508  12.674  1.00  0.00    -0.200 F 
ATOM     90  F   UNL     1      13.136  -7.212  11.375  1.00  0.00    -0.200 F 
ENDBRANCH  56  80
BRANCH  68  91
ATOM     91  C   UNL     1      13.321   0.105  19.503  1.00  0.00     0.064 A 
ATOM     92  C   UNL     1      14.438  -0.610  19.964  1.00  0.00     0.173 A 
ATOM     93  C   UNL     1      13.063   1.332  20.158  1.00  0.00     0.173 A 
ATOM     94  F   UNL     1      14.845  -1.732  19.353  1.00  0.00    -0.203 F 
ATOM     95  C   UNL     1      15.209  -0.160  21.040  1.00  0.00     0.198 A 
ATOM     96  C   UNL     1      13.865   1.804  21.196  1.00  0.00     0.198 A 
ATOM     97  F   UNL     1      12.037   2.113  19.792  1.00  0.00    -0.203 F 
ATOM     98  F   UNL     1      16.244  -0.896  21.469  1.00  0.00    -0.200 F 
ATOM     99  C   UNL     1      14.929   1.051  21.647  1.00  0.00     0.200 A 
ATOM    100  F   UNL     1      13.610   3.001  21.743  1.00  0.00    -0.200 F 
ATOM    101  F   UNL     1      15.696   1.499  22.649  1.00  0.00    -0.200 F 
ENDBRANCH  68  91
ENDBRANCH  42  43
ENDBRANCH  34  37
ENDBRANCH  32  33
ENDBRANCH  31  32
ENDBRANCH  30  31
ENDBRANCH  29  30
ENDBRANCH   1  29
TORSDOF 18
