REMARK SMILES Cc1cccc(-n2ncc(C(=O)Nc3cccc(C(=O)NCCCCCCNC(=O)c4ccc(-c5c6nc(c(-c7c(F)c(F)c(F)c(F)c7F)c7ccc([nH]7)c(-c7c(F)c(F)c(F)c(F)c7F)c7nc(c(-c8c(F)c(F)c(F)c(F)c8F)c8ccc5[nH]8)C=C7)C=C6)cc4)c3C)c2C)c1
REMARK SMILES IDX 24 1 23 2 22 3 21 4 19 5 20 6 18 8 14 9 15 10 94 11 16 12
REMARK SMILES IDX 95 13 17 14 13 15 11 16 12 17 10 19 7 20 8 21 96 22 9 23
REMARK SMILES IDX 97 24 6 25 1 26 2 27 3 28 98 29 4 30 5 31 25 32 26 33 27 34
REMARK SMILES IDX 28 35 29 36 30 38 31 39 32 40 93 41 33 42 92 43 34 44 35 45
REMARK SMILES IDX 36 46 86 47 37 48 91 49 85 50 87 51 38 52 90 53 84 54 83 55
REMARK SMILES IDX 39 57 71 58 51 59 70 60 52 61 55 62 69 63 88 64 53 65 54 66
REMARK SMILES IDX 68 68 89 69 56 70 40 71 41 72 49 73 42 74 43 75 47 76 50 77
REMARK SMILES IDX 44 78 45 79 48 80 46 81 72 82 73 83 81 84 74 85 75 86 79 87
REMARK SMILES IDX 82 88 76 89 77 90 80 91 78 92 57 93 58 94 66 95 59 96 60 97
REMARK SMILES IDX 64 98 67 99 61 100 62 101 65 102 63 103
REMARK H PARENT 21 7 13 18 28 37 87 56 55 67
REMARK Flexibility Score: inf
ROOT
ATOM      1  C   UNL     1      -1.236  11.834  -5.464  1.00  0.00     0.002 C 
ENDROOT
BRANCH   1   2
ATOM      2  C   UNL     1      -2.258  10.716  -5.253  1.00  0.00     0.021 C 
BRANCH   2   3
ATOM      3  C   UNL     1      -1.992   9.657  -4.189  1.00  0.00     0.116 C 
BRANCH   3   4
ATOM      4  N   UNL     1      -1.851  10.129  -2.827  1.00  0.00    -0.352 N 
ATOM      5  C   UNL     1      -2.122   9.514  -1.617  1.00  0.00     0.251 C 
ATOM      6  O   UNL     1      -1.689  10.069  -0.608  1.00  0.00    -0.269 OA
ATOM      7  H   UNL     1      -1.502  11.046  -2.748  1.00  0.00     0.163 HD
BRANCH   5   8
ATOM      8  C   UNL     1      -2.904   8.230  -1.490  1.00  0.00     0.044 A 
ATOM      9  C   UNL     1      -4.191   6.614  -0.210  1.00  0.00     0.045 A 
ATOM     10  C   UNL     1      -4.284   5.779  -1.327  1.00  0.00     0.026 A 
ATOM     11  C   UNL     1      -3.638   7.913  -0.313  1.00  0.00    -0.015 A 
ATOM     12  C   UNL     1      -3.582   6.093  -2.474  1.00  0.00     0.003 A 
ATOM     13  C   UNL     1      -3.705   8.836   0.881  1.00  0.00     0.047 C 
ATOM     14  C   UNL     1      -2.817   7.255  -2.500  1.00  0.00     0.014 A 
BRANCH   9  15
ATOM     15  N   UNL     1      -4.528   6.082   1.047  1.00  0.00    -0.322 N 
ATOM     16  C   UNL     1      -4.190   4.837   1.559  1.00  0.00     0.259 C 
ATOM     17  O   UNL     1      -4.779   4.450   2.566  1.00  0.00    -0.269 OA
ATOM     18  H   UNL     1      -5.067   6.661   1.633  1.00  0.00     0.170 HD
BRANCH  16  19
ATOM     19  C   UNL     1      -3.085   4.063   0.970  1.00  0.00     0.081 A 
ATOM     20  N   UNL     1      -1.682   2.405   0.427  1.00  0.00    -0.237 N 
ATOM     21  N   UNL     1      -1.144   3.516  -0.130  1.00  0.00    -0.175 NA
ATOM     22  C   UNL     1      -2.783   2.723   1.215  1.00  0.00     0.054 A 
ATOM     23  C   UNL     1      -1.984   4.492   0.197  1.00  0.00     0.149 A 
ATOM     24  C   UNL     1      -3.371   1.821   2.244  1.00  0.00     0.068 C 
BRANCH  20  25
ATOM     25  C   UNL     1      -1.046   1.153   0.214  1.00  0.00     0.065 A 
ATOM     26  C   UNL     1       2.529  -0.107  -0.161  1.00  0.00     0.044 C 
ATOM     27  C   UNL     1       1.031  -0.082  -0.080  1.00  0.00    -0.049 A 
ATOM     28  C   UNL     1       0.304  -1.277  -0.052  1.00  0.00     0.003 A 
ATOM     29  C   UNL     1       0.344   1.133   0.016  1.00  0.00     0.031 A 
ATOM     30  C   UNL     1      -1.086  -1.259   0.074  1.00  0.00     0.002 A 
ATOM     31  C   UNL     1      -1.765  -0.046   0.214  1.00  0.00     0.028 A 
ENDBRANCH  20  25
ENDBRANCH  16  19
ENDBRANCH   9  15
ENDBRANCH   5   8
ENDBRANCH   3   4
ENDBRANCH   2   3
ENDBRANCH   1   2
BRANCH   1  32
ATOM     32  C   UNL     1       0.247  11.469  -5.607  1.00  0.00     0.002 C 
BRANCH  32  33
ATOM     33  C   UNL     1       0.615  10.304  -6.524  1.00  0.00     0.021 C 
BRANCH  33  34
ATOM     34  C   UNL     1       0.286  10.495  -7.998  1.00  0.00     0.116 C 
BRANCH  34  35
ATOM     35  N   UNL     1       1.416  10.905  -8.830  1.00  0.00    -0.352 N 
ATOM     36  C   UNL     1       1.472  11.069 -10.208  1.00  0.00     0.251 C 
ATOM     37  H   UNL     1       2.253  11.092  -8.347  1.00  0.00     0.163 HD
ATOM     38  O   UNL     1       2.509  11.406 -10.763  1.00  0.00    -0.269 OA
BRANCH  36  39
ATOM     39  C   UNL     1       0.211  10.986 -10.982  1.00  0.00     0.039 A 
ATOM     40  C   UNL     1      -0.151  12.110 -11.731  1.00  0.00     0.014 A 
ATOM     41  C   UNL     1      -0.726  10.007 -10.676  1.00  0.00     0.014 A 
ATOM     42  C   UNL     1      -1.499  12.414 -11.877  1.00  0.00     0.010 A 
ATOM     43  C   UNL     1      -2.055  10.363 -10.704  1.00  0.00     0.010 A 
ATOM     44  C   UNL     1      -2.428  11.607 -11.227  1.00  0.00    -0.014 A 
BRANCH  44  45
ATOM     45  C   UNL     1      -3.822  11.972 -11.046  1.00  0.00     0.031 A 
ATOM     46  C   UNL     1      -4.817  11.413 -11.973  1.00  0.00     0.074 A 
ATOM     47  C   UNL     1      -4.206  12.730  -9.995  1.00  0.00     0.049 A 
ATOM     48  N   UNL     1      -5.996  11.896 -12.154  1.00  0.00    -0.248 NA
ATOM     49  C   UNL     1      -4.519  10.276 -12.831  1.00  0.00     0.031 C 
ATOM     50  C   UNL     1      -5.566  12.953  -9.513  1.00  0.00     0.029 A 
ATOM     51  N   UNL     1      -3.426  13.625  -9.249  1.00  0.00    -0.354 N 
ATOM     52  C   UNL     1      -6.703  10.998 -12.919  1.00  0.00     0.074 A 
ATOM     53  C   UNL     1      -5.711  10.063 -13.392  1.00  0.00     0.031 C 
ATOM     54  C   UNL     1      -5.595  14.092  -8.804  1.00  0.00     0.029 A 
ATOM     55  C   UNL     1      -4.289  14.707  -8.926  1.00  0.00     0.049 A 
ATOM     56  H   UNL     1      -2.479  13.525  -9.001  1.00  0.00     0.167 HD
ATOM     57  C   UNL     1      -8.064  11.100 -12.939  1.00  0.00     0.037 A 
ATOM     58  C   UNL     1      -4.044  15.959  -9.419  1.00  0.00     0.037 A 
ATOM     59  C   UNL     1      -8.501  12.334 -12.270  1.00  0.00     0.049 A 
ATOM     60  C   UNL     1      -5.093  16.453 -10.395  1.00  0.00     0.074 A 
ATOM     61  C   UNL     1      -9.008  12.639 -11.017  1.00  0.00     0.029 A 
ATOM     62  N   UNL     1      -8.119  13.547 -12.821  1.00  0.00    -0.354 N 
ATOM     63  N   UNL     1      -6.156  15.780 -10.743  1.00  0.00    -0.248 NA
ATOM     64  C   UNL     1      -4.959  17.703 -11.141  1.00  0.00     0.031 C 
ATOM     65  C   UNL     1      -8.897  14.050 -10.821  1.00  0.00     0.029 A 
ATOM     66  C   UNL     1      -8.346  14.606 -11.961  1.00  0.00     0.049 A 
ATOM     67  H   UNL     1      -7.730  13.644 -13.721  1.00  0.00     0.167 HD
ATOM     68  C   UNL     1      -6.803  16.435 -11.756  1.00  0.00     0.074 A 
ATOM     69  C   UNL     1      -6.003  17.628 -11.981  1.00  0.00     0.031 C 
ATOM     70  C   UNL     1      -7.923  15.941 -12.365  1.00  0.00     0.037 A 
BRANCH  57  71
ATOM     71  C   UNL     1      -9.005   9.975 -13.335  1.00  0.00     0.064 A 
ATOM     72  C   UNL     1     -10.334   9.959 -12.857  1.00  0.00     0.173 A 
ATOM     73  C   UNL     1      -8.658   8.845 -14.104  1.00  0.00     0.173 A 
ATOM     74  F   UNL     1     -10.852  11.003 -12.199  1.00  0.00    -0.203 F 
ATOM     75  C   UNL     1     -11.189   8.864 -13.035  1.00  0.00     0.198 A 
ATOM     76  C   UNL     1      -9.492   7.731 -14.241  1.00  0.00     0.198 A 
ATOM     77  F   UNL     1      -7.531   8.791 -14.815  1.00  0.00    -0.203 F 
ATOM     78  F   UNL     1     -12.435   8.909 -12.544  1.00  0.00    -0.200 F 
ATOM     79  C   UNL     1     -10.755   7.734 -13.696  1.00  0.00     0.200 A 
ATOM     80  F   UNL     1      -9.056   6.656 -14.915  1.00  0.00    -0.200 F 
ATOM     81  F   UNL     1     -11.557   6.670 -13.832  1.00  0.00    -0.200 F 
ENDBRANCH  57  71
BRANCH  58  82
ATOM     82  C   UNL     1      -2.578  16.224  -9.507  1.00  0.00     0.064 A 
ATOM     83  C   UNL     1      -1.848  16.103  -8.306  1.00  0.00     0.173 A 
ATOM     84  C   UNL     1      -1.892  16.031 -10.710  1.00  0.00     0.173 A 
ATOM     85  F   UNL     1      -2.452  16.330  -7.128  1.00  0.00    -0.203 F 
ATOM     86  C   UNL     1      -0.576  15.542  -8.304  1.00  0.00     0.198 A 
ATOM     87  C   UNL     1      -0.592  15.530 -10.702  1.00  0.00     0.198 A 
ATOM     88  F   UNL     1      -2.519  16.176 -11.885  1.00  0.00    -0.203 F 
ATOM     89  F   UNL     1       0.005  15.210  -7.141  1.00  0.00    -0.200 F 
ATOM     90  C   UNL     1       0.031  15.211  -9.503  1.00  0.00     0.200 A 
ATOM     91  F   UNL     1       0.011  15.242 -11.864  1.00  0.00    -0.200 F 
ATOM     92  F   UNL     1       1.188  14.534  -9.502  1.00  0.00    -0.200 F 
ENDBRANCH  58  82
BRANCH  70  93
ATOM     93  C   UNL     1      -8.687  16.693 -13.428  1.00  0.00     0.064 A 
ATOM     94  C   UNL     1      -8.874  18.086 -13.379  1.00  0.00     0.173 A 
ATOM     95  C   UNL     1      -9.346  16.031 -14.488  1.00  0.00     0.173 A 
ATOM     96  F   UNL     1      -8.414  18.809 -12.347  1.00  0.00    -0.203 F 
ATOM     97  C   UNL     1      -9.565  18.776 -14.377  1.00  0.00     0.198 A 
ATOM     98  C   UNL     1     -10.089  16.715 -15.448  1.00  0.00     0.198 A 
ATOM     99  F   UNL     1      -9.277  14.703 -14.645  1.00  0.00    -0.203 F 
ATOM    100  F   UNL     1      -9.641  20.113 -14.329  1.00  0.00    -0.200 F 
ATOM    101  C   UNL     1     -10.175  18.090 -15.410  1.00  0.00     0.200 A 
ATOM    102  F   UNL     1     -10.712  16.028 -16.417  1.00  0.00    -0.200 F 
ATOM    103  F   UNL     1     -10.848  18.751 -16.361  1.00  0.00    -0.200 F 
ENDBRANCH  70  93
ENDBRANCH  44  45
ENDBRANCH  36  39
ENDBRANCH  34  35
ENDBRANCH  33  34
ENDBRANCH  32  33
ENDBRANCH   1  32
TORSDOF 16
