REMARK SMILES COc1ccc(CCN2C(=O)C[C@@H](C(=O)NCCCCCCNC(=O)c3ccc(-c4c5nc(c(-c6c(F)c(F)c(F)c(F)c6F)c6ccc([nH]6)c(-c6c(F)c(F)c(F)c(F)c6F)c6nc(c(-c7c(F)c(F)c(F)c(F)c7F)c7ccc4[nH]7)C=C6)C=C5)cc3)S/C2=[NH+]\c2ccc(F)cc2)cc1OC
REMARK SMILES IDX 18 1 17 2 16 3 14 4 15 5 13 7 9 8 10 9 90 10 11 11 12 12
REMARK SMILES IDX 89 13 91 14 8 16 7 17 6 18 3 19 4 20 100 21 5 22 99 23 2 24
REMARK SMILES IDX 1 25 101 26 102 27 92 28 93 29 98 30 94 31 97 32 95 33 96 34
REMARK SMILES IDX 19 35 20 36 21 37 22 38 23 39 24 40 25 42 26 43 27 44 88 45
REMARK SMILES IDX 28 46 87 47 29 48 30 49 31 50 81 51 32 52 86 53 80 54 82 55
REMARK SMILES IDX 33 56 85 57 79 58 78 59 34 61 66 62 46 63 65 64 47 65 50 66
REMARK SMILES IDX 64 67 83 68 48 69 49 70 63 72 84 73 51 74 35 75 36 76 44 77
REMARK SMILES IDX 37 78 38 79 42 80 45 81 39 82 40 83 43 84 41 85 67 86 68 87
REMARK SMILES IDX 76 88 69 89 70 90 74 91 77 92 71 93 72 94 75 95 73 96 52 97
REMARK SMILES IDX 53 98 61 99 54 100 55 101 59 102 62 103 56 104 57 105 60 106
REMARK SMILES IDX 58 107
REMARK H PARENT 16 6 91 15 23 41 82 60 50 71
REMARK Flexibility Score: inf
ROOT
ATOM      1  C   UNL     1      -2.421  -7.289  -0.526  1.00  0.00     0.021 C 
ENDROOT
BRANCH   1   2
ATOM      2  C   UNL     1      -2.266  -6.092   0.408  1.00  0.00     0.116 C 
BRANCH   2   3
ATOM      3  N   UNL     1      -3.514  -5.667   1.015  1.00  0.00    -0.355 N 
ATOM      4  C   UNL     1      -3.920  -5.598   2.317  1.00  0.00     0.234 C 
ATOM      5  O   UNL     1      -5.055  -5.156   2.521  1.00  0.00    -0.274 OA
ATOM      6  H   UNL     1      -4.195  -5.375   0.367  1.00  0.00     0.163 HD
BRANCH   4   7
ATOM      7  C   UNL     1      -3.017  -5.961   3.503  1.00  0.00     0.160 C 
ATOM      8  N   UNL     1      -0.085  -6.442   3.704  1.00  0.00    -0.191 N 
ATOM      9  C   UNL     1      -0.600  -5.232   4.126  1.00  0.00     0.311 C 
ATOM     10  C   UNL     1      -0.809  -7.598   3.953  1.00  0.00     0.319 C 
ATOM     11  O   UNL     1       0.081  -4.400   4.734  1.00  0.00    -0.247 OA
ATOM     12  C   UNL     1      -2.018  -4.869   3.777  1.00  0.00     0.153 C 
ATOM     13  S   UNL     1      -2.439  -7.633   3.326  1.00  0.00    -0.024 SA
ATOM     14  N   UNL     1      -0.274  -8.625   4.547  1.00  0.00    -0.235 N 
ATOM     15  H   UNL     1       0.683  -8.632   4.777  1.00  0.00     0.313 HD
BRANCH   8  16
ATOM     16  C   UNL     1       1.388  -6.502   3.558  1.00  0.00     0.251 C 
BRANCH  16  17
ATOM     17  C   UNL     1       1.908  -6.080   2.147  1.00  0.00     0.082 C 
BRANCH  17  18
ATOM     18  C   UNL     1       1.761  -4.626   1.730  1.00  0.00    -0.040 A 
ATOM     19  C   UNL     1       1.393  -1.889   1.065  1.00  0.00     0.160 A 
ATOM     20  C   UNL     1       0.302  -2.742   1.180  1.00  0.00     0.051 A 
ATOM     21  C   UNL     1       2.687  -2.412   1.208  1.00  0.00     0.160 A 
ATOM     22  C   UNL     1       0.502  -4.093   1.460  1.00  0.00     0.008 A 
ATOM     23  C   UNL     1       2.858  -3.769   1.563  1.00  0.00     0.054 A 
BRANCH  19  24
ATOM     24  O   UNL     1       1.208  -0.540   0.929  1.00  0.00    -0.493 OA
ATOM     25  C   UNL     1       0.289  -0.159  -0.090  1.00  0.00     0.278 C 
ENDBRANCH  19  24
BRANCH  21  26
ATOM     26  O   UNL     1       3.866  -1.726   1.044  1.00  0.00    -0.493 OA
ATOM     27  C   UNL     1       3.809  -0.525   0.278  1.00  0.00     0.278 C 
ENDBRANCH  21  26
ENDBRANCH  17  18
ENDBRANCH  16  17
ENDBRANCH   8  16
BRANCH  14  28
ATOM     28  C   UNL     1      -1.100  -9.730   4.853  1.00  0.00     0.125 A 
ATOM     29  C   UNL     1      -1.770  -9.777   6.086  1.00  0.00     0.055 A 
ATOM     30  C   UNL     1      -1.367 -10.716   3.894  1.00  0.00     0.055 A 
ATOM     31  C   UNL     1      -2.756 -10.739   6.320  1.00  0.00     0.043 A 
ATOM     32  C   UNL     1      -2.363 -11.670   4.122  1.00  0.00     0.043 A 
ATOM     33  C   UNL     1      -3.057 -11.663   5.326  1.00  0.00     0.123 A 
ATOM     34  F   UNL     1      -4.043 -12.548   5.524  1.00  0.00    -0.207 F 
ENDBRANCH  14  28
ENDBRANCH   4   7
ENDBRANCH   2   3
ENDBRANCH   1   2
BRANCH   1  35
ATOM     35  C   UNL     1      -3.240  -7.005  -1.787  1.00  0.00     0.002 C 
BRANCH  35  36
ATOM     36  C   UNL     1      -2.735  -5.847  -2.654  1.00  0.00     0.002 C 
BRANCH  36  37
ATOM     37  C   UNL     1      -1.286  -5.967  -3.135  1.00  0.00     0.021 C 
BRANCH  37  38
ATOM     38  C   UNL     1      -0.977  -7.225  -3.941  1.00  0.00     0.116 C 
BRANCH  38  39
ATOM     39  N   UNL     1      -1.777  -7.318  -5.151  1.00  0.00    -0.352 N 
ATOM     40  C   UNL     1      -1.384  -7.497  -6.455  1.00  0.00     0.251 C 
ATOM     41  H   UNL     1      -2.749  -7.241  -5.016  1.00  0.00     0.163 HD
ATOM     42  O   UNL     1      -2.194  -7.369  -7.365  1.00  0.00    -0.269 OA
BRANCH  40  43
ATOM     43  C   UNL     1       0.025  -7.825  -6.766  1.00  0.00     0.039 A 
ATOM     44  C   UNL     1       0.647  -7.173  -7.834  1.00  0.00     0.014 A 
ATOM     45  C   UNL     1       0.726  -8.778  -6.023  1.00  0.00     0.014 A 
ATOM     46  C   UNL     1       1.990  -7.432  -8.117  1.00  0.00     0.010 A 
ATOM     47  C   UNL     1       2.083  -8.980  -6.258  1.00  0.00     0.010 A 
ATOM     48  C   UNL     1       2.730  -8.311  -7.309  1.00  0.00    -0.014 A 
BRANCH  48  49
ATOM     49  C   UNL     1       4.180  -8.534  -7.544  1.00  0.00     0.031 A 
ATOM     50  C   UNL     1       4.686  -9.897  -7.929  1.00  0.00     0.074 A 
ATOM     51  C   UNL     1       5.048  -7.522  -7.347  1.00  0.00     0.049 A 
ATOM     52  N   UNL     1       5.918 -10.302  -8.112  1.00  0.00    -0.248 NA
ATOM     53  C   UNL     1       3.676 -10.953  -8.106  1.00  0.00     0.031 C 
ATOM     54  C   UNL     1       4.686  -6.168  -6.927  1.00  0.00     0.029 A 
ATOM     55  N   UNL     1       6.416  -7.479  -7.461  1.00  0.00    -0.354 N 
ATOM     56  C   UNL     1       5.831 -11.656  -8.406  1.00  0.00     0.074 A 
ATOM     57  C   UNL     1       4.433 -12.017  -8.330  1.00  0.00     0.031 C 
ATOM     58  C   UNL     1       5.799  -5.422  -6.838  1.00  0.00     0.029 A 
ATOM     59  C   UNL     1       6.957  -6.254  -7.152  1.00  0.00     0.049 A 
ATOM     60  H   UNL     1       6.958  -8.252  -7.738  1.00  0.00     0.167 HD
ATOM     61  C   UNL     1       6.828 -12.515  -8.729  1.00  0.00     0.037 A 
ATOM     62  C   UNL     1       8.241  -5.851  -7.112  1.00  0.00     0.037 A 
ATOM     63  C   UNL     1       8.215 -12.143  -8.832  1.00  0.00     0.049 A 
ATOM     64  C   UNL     1       9.328  -6.831  -7.469  1.00  0.00     0.074 A 
ATOM     65  C   UNL     1       9.288 -12.922  -9.229  1.00  0.00     0.029 A 
ATOM     66  N   UNL     1       8.723 -10.889  -8.528  1.00  0.00    -0.354 N 
ATOM     67  N   UNL     1       9.226  -8.087  -7.830  1.00  0.00    -0.248 NA
ATOM     68  C   UNL     1      10.710  -6.333  -7.420  1.00  0.00     0.031 C 
ATOM     69  C   UNL     1      10.453 -12.158  -9.105  1.00  0.00     0.029 A 
ATOM     70  C   UNL     1      10.098 -10.883  -8.695  1.00  0.00     0.049 A 
ATOM     71  H   UNL     1       8.185 -10.117  -8.236  1.00  0.00     0.167 HD
ATOM     72  C   UNL     1      10.521  -8.519  -8.082  1.00  0.00     0.074 A 
ATOM     73  C   UNL     1      11.391  -7.385  -7.849  1.00  0.00     0.031 C 
ATOM     74  C   UNL     1      10.952  -9.744  -8.470  1.00  0.00     0.037 A 
BRANCH  61  75
ATOM     75  C   UNL     1       6.461 -13.948  -8.992  1.00  0.00     0.064 A 
ATOM     76  C   UNL     1       5.734 -14.330 -10.130  1.00  0.00     0.173 A 
ATOM     77  C   UNL     1       6.894 -14.961  -8.122  1.00  0.00     0.173 A 
ATOM     78  F   UNL     1       5.288 -13.402 -10.990  1.00  0.00    -0.203 F 
ATOM     79  C   UNL     1       5.431 -15.668 -10.372  1.00  0.00     0.198 A 
ATOM     80  C   UNL     1       6.618 -16.300  -8.384  1.00  0.00     0.198 A 
ATOM     81  F   UNL     1       7.598 -14.653  -7.022  1.00  0.00    -0.203 F 
ATOM     82  F   UNL     1       4.696 -16.003 -11.441  1.00  0.00    -0.200 F 
ATOM     83  C   UNL     1       5.881 -16.652  -9.505  1.00  0.00     0.200 A 
ATOM     84  F   UNL     1       7.067 -17.251  -7.553  1.00  0.00    -0.200 F 
ATOM     85  F   UNL     1       5.601 -17.940  -9.747  1.00  0.00    -0.200 F 
ENDBRANCH  61  75
BRANCH  62  86
ATOM     86  C   UNL     1       8.576  -4.453  -6.729  1.00  0.00     0.064 A 
ATOM     87  C   UNL     1       9.135  -3.564  -7.659  1.00  0.00     0.173 A 
ATOM     88  C   UNL     1       8.370  -3.984  -5.423  1.00  0.00     0.173 A 
ATOM     89  F   UNL     1       9.370  -3.970  -8.915  1.00  0.00    -0.203 F 
ATOM     90  C   UNL     1       9.504  -2.272  -7.289  1.00  0.00     0.198 A 
ATOM     91  C   UNL     1       8.707  -2.681  -5.064  1.00  0.00     0.198 A 
ATOM     92  F   UNL     1       7.832  -4.791  -4.497  1.00  0.00    -0.203 F 
ATOM     93  F   UNL     1      10.091  -1.464  -8.183  1.00  0.00    -0.200 F 
ATOM     94  C   UNL     1       9.285  -1.830  -5.994  1.00  0.00     0.200 A 
ATOM     95  F   UNL     1       8.478  -2.252  -3.815  1.00  0.00    -0.200 F 
ATOM     96  F   UNL     1       9.640  -0.588  -5.638  1.00  0.00    -0.200 F 
ENDBRANCH  62  86
BRANCH  74  97
ATOM     97  C   UNL     1      12.425  -9.914  -8.713  1.00  0.00     0.064 A 
ATOM     98  C   UNL     1      13.353  -9.908  -7.661  1.00  0.00     0.173 A 
ATOM     99  C   UNL     1      12.909 -10.125 -10.013  1.00  0.00     0.173 A 
ATOM    100  F   UNL     1      12.945  -9.696  -6.401  1.00  0.00    -0.203 F 
ATOM    101  C   UNL     1      14.713 -10.077  -7.906  1.00  0.00     0.198 A 
ATOM    102  C   UNL     1      14.264 -10.330 -10.251  1.00  0.00     0.198 A 
ATOM    103  F   UNL     1      12.063 -10.149 -11.054  1.00  0.00    -0.203 F 
ATOM    104  F   UNL     1      15.588 -10.014  -6.893  1.00  0.00    -0.200 F 
ATOM    105  C   UNL     1      15.167 -10.296  -9.199  1.00  0.00     0.200 A 
ATOM    106  F   UNL     1      14.698 -10.559 -11.498  1.00  0.00    -0.200 F 
ATOM    107  F   UNL     1      16.475 -10.469  -9.431  1.00  0.00    -0.200 F 
ENDBRANCH  74  97
ENDBRANCH  48  49
ENDBRANCH  40  43
ENDBRANCH  38  39
ENDBRANCH  37  38
ENDBRANCH  36  37
ENDBRANCH  35  36
ENDBRANCH   1  35
TORSDOF 19
