REMARK SMILES CCc1ccc(C(=O)NCCCCCCNC(=O)c2ccc(-c3c4nc(c(-c5c(F)c(F)c(F)c(F)c5F)c5ccc([nH]5)c(-c5c(F)c(F)c(F)c(F)c5F)c5nc(c(-c6c(F)c(F)c(F)c(F)c6F)c6ccc3[nH]6)C=C5)C=C4)cc2)cc1S(=O)(=O)Nc1ccc(F)c(F)c1F
REMARK SMILES IDX 12 1 11 2 10 3 9 4 7 5 8 6 6 8 3 9 4 10 83 11 5 12 82 13
REMARK SMILES IDX 2 14 1 15 84 16 85 17 86 18 87 19 88 21 89 22 95 23 90 24
REMARK SMILES IDX 93 25 96 26 91 27 94 28 92 29 13 30 14 31 15 32 16 33 17 34
REMARK SMILES IDX 18 36 19 37 20 38 81 39 21 40 80 41 22 42 23 43 24 44 74 45
REMARK SMILES IDX 25 46 79 47 73 48 75 49 26 50 78 51 72 52 71 53 27 55 59 56
REMARK SMILES IDX 39 57 58 58 40 59 43 60 57 61 76 62 41 63 42 64 56 66 77 67
REMARK SMILES IDX 44 68 28 69 29 70 37 71 30 72 31 73 35 74 38 75 32 76 33 77
REMARK SMILES IDX 36 78 34 79 60 80 61 81 69 82 62 83 63 84 67 85 70 86 64 87
REMARK SMILES IDX 65 88 68 89 66 90 45 91 46 92 54 93 47 94 48 95 52 96 55 97
REMARK SMILES IDX 49 98 50 99 53 100 51 101
REMARK H PARENT 9 7 87 20 16 35 75 54 43 65
REMARK Flexibility Score: inf
ROOT
ATOM      1  C   UNL     1       1.607   9.114  -3.907  1.00  0.00     0.002 C 
ENDROOT
BRANCH   1   2
ATOM      2  C   UNL     1       1.284   7.987  -2.913  1.00  0.00     0.021 C 
BRANCH   2   3
ATOM      3  C   UNL     1       0.711   6.747  -3.600  1.00  0.00     0.116 C 
BRANCH   3   4
ATOM      4  N   UNL     1       1.779   6.100  -4.339  1.00  0.00    -0.352 N 
ATOM      5  C   UNL     1       2.562   5.013  -4.058  1.00  0.00     0.251 C 
ATOM      6  O   UNL     1       3.554   4.808  -4.755  1.00  0.00    -0.269 OA
ATOM      7  H   UNL     1       1.978   6.521  -5.206  1.00  0.00     0.163 HD
BRANCH   5   8
ATOM      8  C   UNL     1       2.139   3.989  -3.074  1.00  0.00     0.041 A 
ATOM      9  C   UNL     1       0.804   1.926  -1.666  1.00  0.00    -0.028 A 
ATOM     10  C   UNL     1       1.586   1.664  -2.815  1.00  0.00     0.006 A 
ATOM     11  C   UNL     1       0.861   3.233  -1.129  1.00  0.00     0.091 A 
ATOM     12  C   UNL     1       2.237   2.675  -3.510  1.00  0.00     0.014 A 
ATOM     13  C   UNL     1       1.560   4.247  -1.834  1.00  0.00     0.036 A 
BRANCH   9  14
ATOM     14  C   UNL     1      -0.161   0.828  -1.283  1.00  0.00     0.033 C 
ATOM     15  C   UNL     1       0.389  -0.598  -1.362  1.00  0.00     0.009 C 
ENDBRANCH   9  14
BRANCH  11  16
ATOM     16  S   UNL     1       0.038   3.884   0.331  1.00  0.00     0.262 S 
ATOM     17  O   UNL     1       1.006   4.639   1.087  1.00  0.00    -0.201 OA
ATOM     18  O   UNL     1      -1.149   4.550  -0.183  1.00  0.00    -0.201 OA
BRANCH  16  19
ATOM     19  N   UNL     1      -0.564   2.681   1.305  1.00  0.00    -0.277 N 
ATOM     20  H   UNL     1      -1.529   2.718   1.497  1.00  0.00     0.180 HD
BRANCH  19  21
ATOM     21  C   UNL     1       0.155   1.602   1.896  1.00  0.00     0.088 A 
ATOM     22  C   UNL     1      -0.645   0.534   2.343  1.00  0.00     0.033 A 
ATOM     23  C   UNL     1       1.545   1.450   1.885  1.00  0.00     0.185 A 
ATOM     24  C   UNL     1      -0.071  -0.699   2.654  1.00  0.00     0.045 A 
ATOM     25  C   UNL     1       2.115   0.226   2.219  1.00  0.00     0.196 A 
ATOM     26  F   UNL     1       2.350   2.436   1.471  1.00  0.00    -0.201 F 
ATOM     27  C   UNL     1       1.307  -0.848   2.570  1.00  0.00     0.162 A 
ATOM     28  F   UNL     1       3.442   0.063   2.137  1.00  0.00    -0.200 F 
ATOM     29  F   UNL     1       1.846  -2.053   2.796  1.00  0.00    -0.204 F 
ENDBRANCH  19  21
ENDBRANCH  16  19
ENDBRANCH  11  16
ENDBRANCH   5   8
ENDBRANCH   3   4
ENDBRANCH   2   3
ENDBRANCH   1   2
BRANCH   1  30
ATOM     30  C   UNL     1       0.383   9.693  -4.625  1.00  0.00     0.002 C 
BRANCH  30  31
ATOM     31  C   UNL     1      -0.712  10.213  -3.692  1.00  0.00     0.021 C 
BRANCH  31  32
ATOM     32  C   UNL     1      -0.243  11.300  -2.732  1.00  0.00     0.116 C 
BRANCH  32  33
ATOM     33  N   UNL     1       0.166  12.501  -3.443  1.00  0.00    -0.352 N 
ATOM     34  C   UNL     1      -0.248  13.794  -3.258  1.00  0.00     0.251 C 
ATOM     35  H   UNL     1       0.833  12.367  -4.154  1.00  0.00     0.163 HD
ATOM     36  O   UNL     1       0.018  14.658  -4.088  1.00  0.00    -0.269 OA
BRANCH  34  37
ATOM     37  C   UNL     1      -1.031  14.143  -2.056  1.00  0.00     0.039 A 
ATOM     38  C   UNL     1      -2.154  14.961  -2.195  1.00  0.00     0.014 A 
ATOM     39  C   UNL     1      -0.647  13.677  -0.795  1.00  0.00     0.014 A 
ATOM     40  C   UNL     1      -2.919  15.277  -1.072  1.00  0.00     0.010 A 
ATOM     41  C   UNL     1      -1.450  13.934   0.312  1.00  0.00     0.010 A 
ATOM     42  C   UNL     1      -2.586  14.747   0.186  1.00  0.00    -0.014 A 
BRANCH  42  43
ATOM     43  C   UNL     1      -3.413  15.043   1.381  1.00  0.00     0.031 A 
ATOM     44  C   UNL     1      -2.837  15.836   2.520  1.00  0.00     0.074 A 
ATOM     45  C   UNL     1      -4.662  14.547   1.462  1.00  0.00     0.049 A 
ATOM     46  N   UNL     1      -3.386  16.163   3.662  1.00  0.00    -0.248 NA
ATOM     47  C   UNL     1      -1.449  16.300   2.367  1.00  0.00     0.031 C 
ATOM     48  C   UNL     1      -5.307  13.714   0.447  1.00  0.00     0.029 A 
ATOM     49  N   UNL     1      -5.608  14.663   2.449  1.00  0.00    -0.354 N 
ATOM     50  C   UNL     1      -2.409  16.853   4.367  1.00  0.00     0.074 A 
ATOM     51  C   UNL     1      -1.217  16.853   3.548  1.00  0.00     0.031 C 
ATOM     52  C   UNL     1      -6.550  13.411   0.853  1.00  0.00     0.029 A 
ATOM     53  C   UNL     1      -6.777  14.001   2.169  1.00  0.00     0.049 A 
ATOM     54  H   UNL     1      -5.462  15.172   3.279  1.00  0.00     0.167 HD
ATOM     55  C   UNL     1      -2.506  17.451   5.578  1.00  0.00     0.037 A 
ATOM     56  C   UNL     1      -7.905  13.881   2.895  1.00  0.00     0.037 A 
ATOM     57  C   UNL     1      -3.704  17.471   6.376  1.00  0.00     0.049 A 
ATOM     58  C   UNL     1      -7.994  14.572   4.228  1.00  0.00     0.074 A 
ATOM     59  C   UNL     1      -3.929  18.111   7.582  1.00  0.00     0.029 A 
ATOM     60  N   UNL     1      -4.881  16.812   6.047  1.00  0.00    -0.354 N 
ATOM     61  N   UNL     1      -7.092  15.291   4.849  1.00  0.00    -0.248 NA
ATOM     62  C   UNL     1      -9.263  14.442   4.956  1.00  0.00     0.031 C 
ATOM     63  C   UNL     1      -5.226  17.802   8.006  1.00  0.00     0.029 A 
ATOM     64  C   UNL     1      -5.828  17.012   7.040  1.00  0.00     0.049 A 
ATOM     65  H   UNL     1      -5.022  16.282   5.230  1.00  0.00     0.167 HD
ATOM     66  C   UNL     1      -7.689  15.720   6.027  1.00  0.00     0.074 A 
ATOM     67  C   UNL     1      -9.038  15.194   6.024  1.00  0.00     0.031 C 
ATOM     68  C   UNL     1      -7.167  16.480   7.021  1.00  0.00     0.037 A 
BRANCH  55  69
ATOM     69  C   UNL     1      -1.281  18.136   6.114  1.00  0.00     0.064 A 
ATOM     70  C   UNL     1      -0.782  19.314   5.536  1.00  0.00     0.173 A 
ATOM     71  C   UNL     1      -0.614  17.624   7.237  1.00  0.00     0.173 A 
ATOM     72  F   UNL     1      -1.376  19.839   4.454  1.00  0.00    -0.203 F 
ATOM     73  C   UNL     1       0.357  19.935   6.043  1.00  0.00     0.198 A 
ATOM     74  C   UNL     1       0.506  18.265   7.760  1.00  0.00     0.198 A 
ATOM     75  F   UNL     1      -1.052  16.504   7.832  1.00  0.00    -0.203 F 
ATOM     76  F   UNL     1       0.844  21.029   5.442  1.00  0.00    -0.200 F 
ATOM     77  C   UNL     1       0.996  19.414   7.158  1.00  0.00     0.200 A 
ATOM     78  F   UNL     1       1.114  17.769   8.846  1.00  0.00    -0.200 F 
ATOM     79  F   UNL     1       2.088  20.016   7.648  1.00  0.00    -0.200 F 
ENDBRANCH  55  69
BRANCH  56  80
ATOM     80  C   UNL     1      -9.049  13.100   2.358  1.00  0.00     0.064 A 
ATOM     81  C   UNL     1     -10.225  13.739   1.942  1.00  0.00     0.173 A 
ATOM     82  C   UNL     1      -8.987  11.704   2.241  1.00  0.00     0.173 A 
ATOM     83  F   UNL     1     -10.338  15.071   2.052  1.00  0.00    -0.203 F 
ATOM     84  C   UNL     1     -11.303  13.009   1.446  1.00  0.00     0.198 A 
ATOM     85  C   UNL     1     -10.056  10.978   1.720  1.00  0.00     0.198 A 
ATOM     86  F   UNL     1      -7.882  11.046   2.620  1.00  0.00    -0.203 F 
ATOM     87  F   UNL     1     -12.432  13.641   1.095  1.00  0.00    -0.200 F 
ATOM     88  C   UNL     1     -11.216  11.630   1.330  1.00  0.00     0.200 A 
ATOM     89  F   UNL     1      -9.962   9.647   1.595  1.00  0.00    -0.200 F 
ATOM     90  F   UNL     1     -12.251  10.930   0.848  1.00  0.00    -0.200 F 
ENDBRANCH  56  80
BRANCH  68  91
ATOM     91  C   UNL     1      -8.067  16.809   8.176  1.00  0.00     0.064 A 
ATOM     92  C   UNL     1      -8.444  15.838   9.116  1.00  0.00     0.173 A 
ATOM     93  C   UNL     1      -8.534  18.119   8.361  1.00  0.00     0.173 A 
ATOM     94  F   UNL     1      -8.036  14.567   8.974  1.00  0.00    -0.203 F 
ATOM     95  C   UNL     1      -9.278  16.160  10.182  1.00  0.00     0.198 A 
ATOM     96  C   UNL     1      -9.343  18.445   9.446  1.00  0.00     0.198 A 
ATOM     97  F   UNL     1      -8.197  19.086   7.495  1.00  0.00    -0.203 F 
ATOM     98  F   UNL     1      -9.668  15.206  11.038  1.00  0.00    -0.200 F 
ATOM     99  C   UNL     1      -9.721  17.464  10.351  1.00  0.00     0.200 A 
ATOM    100  F   UNL     1      -9.759  19.707   9.615  1.00  0.00    -0.200 F 
ATOM    101  F   UNL     1     -10.521  17.773  11.380  1.00  0.00    -0.200 F 
ENDBRANCH  68  91
ENDBRANCH  42  43
ENDBRANCH  34  37
ENDBRANCH  32  33
ENDBRANCH  31  32
ENDBRANCH  30  31
ENDBRANCH   1  30
TORSDOF 17
