REMARK SMILES NS(=O)(=O)c1ccc(-n2nc(C(=O)NCCCCCCCCCCC(=O)NCCCCCCNC(=O)c3ccc(-c4c5nc(c(-c6c(F)c(F)c(F)c(F)c6F)c6ccc([nH]6)c(-c6c(F)c(F)c(F)c(F)c6F)c6nc(c(-c7c(F)c(F)c(F)c(F)c7F)c7ccc4[nH]7)C=C6)C=C5)cc3)cc2-c2ccccc2)cc1
REMARK SMILES IDX 22 1 21 2 20 3 19 4 18 5 17 6 16 7 15 8 14 9 12 10 13 11
REMARK SMILES IDX 11 13 9 14 10 15 101 16 100 17 8 18 5 19 6 20 109 21 7 22
REMARK SMILES IDX 108 23 2 24 3 25 4 26 1 27 102 30 103 31 107 32 104 33
REMARK SMILES IDX 106 34 105 35 23 36 24 37 25 38 26 39 27 40 28 42 29 43
REMARK SMILES IDX 30 44 31 45 32 46 33 47 34 48 35 49 36 51 37 52 38 53 99 54
REMARK SMILES IDX 39 55 98 56 40 57 41 58 42 59 92 60 43 61 97 62 91 63 93 64
REMARK SMILES IDX 44 65 96 66 90 67 89 68 45 70 77 71 57 72 76 73 58 74 61 75
REMARK SMILES IDX 75 76 94 77 59 78 60 79 74 81 95 82 62 83 46 84 47 85 55 86
REMARK SMILES IDX 48 87 49 88 53 89 56 90 50 91 51 92 54 93 52 94 78 95 79 96
REMARK SMILES IDX 87 97 80 98 81 99 85 100 88 101 82 102 83 103 86 104 84 105
REMARK SMILES IDX 63 106 64 107 72 108 65 109 66 110 70 111 73 112 67 113
REMARK SMILES IDX 68 114 71 115 69 116
REMARK H PARENT 14 12 1 28 1 29 27 41 34 50 93 69 61 80
REMARK Flexibility Score: inf
ROOT
ATOM      1  C   UNL     1       1.183 -11.418 -13.110  1.00  0.00     0.001 C 
ENDROOT
BRANCH   1   2
ATOM      2  C   UNL     1       1.538  -9.934 -12.954  1.00  0.00     0.000 C 
BRANCH   2   3
ATOM      3  C   UNL     1       0.967  -9.318 -11.685  1.00  0.00     0.000 C 
BRANCH   3   4
ATOM      4  C   UNL     1       1.542  -9.940 -10.413  1.00  0.00     0.000 C 
BRANCH   4   5
ATOM      5  C   UNL     1       3.075  -9.876 -10.334  1.00  0.00     0.000 C 
BRANCH   5   6
ATOM      6  C   UNL     1       3.634  -8.447 -10.263  1.00  0.00     0.002 C 
BRANCH   6   7
ATOM      7  C   UNL     1       2.940  -7.573  -9.216  1.00  0.00     0.021 C 
BRANCH   7   8
ATOM      8  C   UNL     1       2.925  -8.243  -7.847  1.00  0.00     0.116 C 
BRANCH   8   9
ATOM      9  N   UNL     1       4.037  -7.809  -7.048  1.00  0.00    -0.351 N 
ATOM     10  C   UNL     1       4.139  -6.938  -5.993  1.00  0.00     0.271 C 
ATOM     11  O   UNL     1       5.289  -6.745  -5.585  1.00  0.00    -0.267 OA
ATOM     12  H   UNL     1       4.895  -8.216  -7.309  1.00  0.00     0.163 HD
BRANCH  10  13
ATOM     13  C   UNL     1       2.954  -6.314  -5.365  1.00  0.00     0.151 A 
ATOM     14  N   UNL     1       1.896  -5.215  -3.852  1.00  0.00    -0.232 N 
ATOM     15  N   UNL     1       3.128  -5.443  -4.350  1.00  0.00    -0.162 NA
ATOM     16  C   UNL     1       0.901  -5.773  -4.625  1.00  0.00     0.075 A 
ATOM     17  C   UNL     1       1.569  -6.439  -5.625  1.00  0.00     0.065 A 
BRANCH  14  18
ATOM     18  C   UNL     1       1.715  -4.402  -2.718  1.00  0.00     0.065 A 
ATOM     19  C   UNL     1       1.026  -2.614  -0.734  1.00  0.00     0.082 A 
ATOM     20  C   UNL     1       0.463  -3.894  -0.727  1.00  0.00     0.024 A 
ATOM     21  C   UNL     1       1.969  -2.241  -1.700  1.00  0.00     0.024 A 
ATOM     22  C   UNL     1       0.802  -4.792  -1.730  1.00  0.00     0.030 A 
ATOM     23  C   UNL     1       2.341  -3.153  -2.684  1.00  0.00     0.030 A 
BRANCH  19  24
ATOM     24  S   UNL     1       0.461  -1.479   0.492  1.00  0.00     0.238 S 
ATOM     25  O   UNL     1       1.076  -1.834   1.752  1.00  0.00    -0.207 OA
ATOM     26  O   UNL     1      -0.961  -1.312   0.332  1.00  0.00    -0.207 OA
BRANCH  24  27
ATOM     27  N   UNL     1       1.137  -0.006   0.052  1.00  0.00    -0.225 NA
ATOM     28  H   UNL     1       0.854   0.711   0.720  1.00  0.00     0.137 HD
ATOM     29  H   UNL     1       0.813   0.252  -0.881  1.00  0.00     0.137 HD
ENDBRANCH  24  27
ENDBRANCH  19  24
ENDBRANCH  14  18
BRANCH  16  30
ATOM     30  C   UNL     1      -0.540  -5.584  -4.492  1.00  0.00     0.000 A 
ATOM     31  C   UNL     1      -1.099  -4.300  -4.492  1.00  0.00     0.010 A 
ATOM     32  C   UNL     1      -1.383  -6.699  -4.419  1.00  0.00     0.010 A 
ATOM     33  C   UNL     1      -2.479  -4.135  -4.391  1.00  0.00     0.001 A 
ATOM     34  C   UNL     1      -2.764  -6.532  -4.324  1.00  0.00     0.001 A 
ATOM     35  C   UNL     1      -3.311  -5.250  -4.307  1.00  0.00     0.000 A 
ENDBRANCH  16  30
ENDBRANCH  10  13
ENDBRANCH   8   9
ENDBRANCH   7   8
ENDBRANCH   6   7
ENDBRANCH   5   6
ENDBRANCH   4   5
ENDBRANCH   3   4
ENDBRANCH   2   3
ENDBRANCH   1   2
BRANCH   1  36
ATOM     36  C   UNL     1       0.098 -11.687 -14.145  1.00  0.00     0.010 C 
BRANCH  36  37
ATOM     37  C   UNL     1       0.407 -11.215 -15.566  1.00  0.00     0.100 C 
BRANCH  37  38
ATOM     38  C   UNL     1       1.248 -12.180 -16.378  1.00  0.00     0.219 C 
ATOM     39  O   UNL     1       0.712 -13.019 -17.104  1.00  0.00    -0.275 OA
ATOM     40  N   UNL     1       2.608 -12.134 -16.347  1.00  0.00    -0.356 N 
ATOM     41  H   UNL     1       3.053 -12.773 -16.949  1.00  0.00     0.163 HD
BRANCH  40  42
ATOM     42  C   UNL     1       3.510 -11.302 -15.575  1.00  0.00     0.116 C 
BRANCH  42  43
ATOM     43  C   UNL     1       4.346 -12.142 -14.599  1.00  0.00     0.021 C 
BRANCH  43  44
ATOM     44  C   UNL     1       5.643 -12.694 -15.194  1.00  0.00     0.002 C 
BRANCH  44  45
ATOM     45  C   UNL     1       6.654 -11.640 -15.671  1.00  0.00     0.002 C 
BRANCH  45  46
ATOM     46  C   UNL     1       7.101 -10.593 -14.640  1.00  0.00     0.021 C 
BRANCH  46  47
ATOM     47  C   UNL     1       7.869 -11.175 -13.465  1.00  0.00     0.116 C 
BRANCH  47  48
ATOM     48  N   UNL     1       9.106 -11.851 -13.875  1.00  0.00    -0.352 N 
ATOM     49  C   UNL     1      10.019 -12.559 -13.115  1.00  0.00     0.251 C 
ATOM     50  H   UNL     1       9.318 -11.791 -14.835  1.00  0.00     0.163 HD
ATOM     51  O   UNL     1      11.154 -12.769 -13.526  1.00  0.00    -0.269 OA
BRANCH  49  52
ATOM     52  C   UNL     1       9.605 -13.070 -11.798  1.00  0.00     0.039 A 
ATOM     53  C   UNL     1      10.480 -13.166 -10.713  1.00  0.00     0.014 A 
ATOM     54  C   UNL     1       8.278 -13.452 -11.665  1.00  0.00     0.014 A 
ATOM     55  C   UNL     1       9.976 -13.610  -9.492  1.00  0.00     0.010 A 
ATOM     56  C   UNL     1       7.737 -13.601 -10.427  1.00  0.00     0.010 A 
ATOM     57  C   UNL     1       8.595 -13.822  -9.368  1.00  0.00    -0.014 A 
BRANCH  57  58
ATOM     58  C   UNL     1       7.969 -14.226  -8.123  1.00  0.00     0.031 A 
ATOM     59  C   UNL     1       8.190 -13.275  -7.014  1.00  0.00     0.074 A 
ATOM     60  C   UNL     1       7.065 -15.231  -8.063  1.00  0.00     0.049 A 
ATOM     61  N   UNL     1       8.919 -13.455  -5.966  1.00  0.00    -0.248 NA
ATOM     62  C   UNL     1       7.682 -11.902  -7.163  1.00  0.00     0.031 C 
ATOM     63  C   UNL     1       6.500 -16.029  -9.161  1.00  0.00     0.029 A 
ATOM     64  N   UNL     1       6.373 -15.689  -6.987  1.00  0.00    -0.354 N 
ATOM     65  C   UNL     1       8.780 -12.297  -5.210  1.00  0.00     0.074 A 
ATOM     66  C   UNL     1       8.203 -11.312  -6.085  1.00  0.00     0.031 C 
ATOM     67  C   UNL     1       5.408 -16.697  -8.728  1.00  0.00     0.029 A 
ATOM     68  C   UNL     1       5.297 -16.516  -7.294  1.00  0.00     0.049 A 
ATOM     69  H   UNL     1       6.614 -15.454  -6.062  1.00  0.00     0.167 HD
ATOM     70  C   UNL     1       8.881 -12.349  -3.854  1.00  0.00     0.037 A 
ATOM     71  C   UNL     1       4.372 -16.987  -6.420  1.00  0.00     0.037 A 
ATOM     72  C   UNL     1       9.499 -13.586  -3.433  1.00  0.00     0.049 A 
ATOM     73  C   UNL     1       4.960 -16.868  -5.061  1.00  0.00     0.074 A 
ATOM     74  C   UNL     1      10.712 -14.200  -3.682  1.00  0.00     0.029 A 
ATOM     75  N   UNL     1       8.677 -14.578  -2.954  1.00  0.00    -0.354 N 
ATOM     76  N   UNL     1       5.984 -17.567  -4.654  1.00  0.00    -0.248 NA
ATOM     77  C   UNL     1       4.718 -15.631  -4.333  1.00  0.00     0.031 C 
ATOM     78  C   UNL     1      10.406 -15.588  -3.810  1.00  0.00     0.029 A 
ATOM     79  C   UNL     1       9.044 -15.755  -3.554  1.00  0.00     0.049 A 
ATOM     80  H   UNL     1       7.953 -14.464  -2.297  1.00  0.00     0.167 HD
ATOM     81  C   UNL     1       6.760 -16.668  -3.937  1.00  0.00     0.074 A 
ATOM     82  C   UNL     1       5.892 -15.515  -3.706  1.00  0.00     0.031 C 
ATOM     83  C   UNL     1       8.116 -16.817  -3.862  1.00  0.00     0.037 A 
BRANCH  70  84
ATOM     84  C   UNL     1       8.054 -11.508  -2.908  1.00  0.00     0.064 A 
ATOM     85  C   UNL     1       8.318 -11.600  -1.527  1.00  0.00     0.173 A 
ATOM     86  C   UNL     1       6.834 -10.884  -3.253  1.00  0.00     0.173 A 
ATOM     87  F   UNL     1       9.441 -12.184  -1.083  1.00  0.00    -0.203 F 
ATOM     88  C   UNL     1       7.383 -11.200  -0.569  1.00  0.00     0.198 A 
ATOM     89  C   UNL     1       5.929 -10.435  -2.294  1.00  0.00     0.198 A 
ATOM     90  F   UNL     1       6.399 -10.799  -4.515  1.00  0.00    -0.203 F 
ATOM     91  F   UNL     1       7.612 -11.453   0.726  1.00  0.00    -0.200 F 
ATOM     92  C   UNL     1       6.185 -10.627  -0.954  1.00  0.00     0.200 A 
ATOM     93  F   UNL     1       4.758  -9.915  -2.689  1.00  0.00    -0.200 F 
ATOM     94  F   UNL     1       5.252 -10.322  -0.043  1.00  0.00    -0.200 F 
ENDBRANCH  70  84
BRANCH  71  95
ATOM     95  C   UNL     1       2.923 -17.214  -6.640  1.00  0.00     0.064 A 
ATOM     96  C   UNL     1       2.162 -17.973  -5.735  1.00  0.00     0.173 A 
ATOM     97  C   UNL     1       2.199 -16.449  -7.576  1.00  0.00     0.173 A 
ATOM     98  F   UNL     1       2.770 -18.694  -4.782  1.00  0.00    -0.203 F 
ATOM     99  C   UNL     1       0.762 -17.944  -5.746  1.00  0.00     0.198 A 
ATOM    100  C   UNL     1       0.803 -16.423  -7.588  1.00  0.00     0.198 A 
ATOM    101  F   UNL     1       2.832 -15.631  -8.430  1.00  0.00    -0.203 F 
ATOM    102  F   UNL     1       0.071 -18.628  -4.823  1.00  0.00    -0.200 F 
ATOM    103  C   UNL     1       0.085 -17.159  -6.664  1.00  0.00     0.200 A 
ATOM    104  F   UNL     1       0.161 -15.625  -8.454  1.00  0.00    -0.200 F 
ATOM    105  F   UNL     1      -1.253 -17.074  -6.630  1.00  0.00    -0.200 F 
ENDBRANCH  71  95
BRANCH  83 106
ATOM    106  C   UNL     1       8.705 -18.116  -4.343  1.00  0.00     0.064 A 
ATOM    107  C   UNL     1       8.644 -18.572  -5.672  1.00  0.00     0.173 A 
ATOM    108  C   UNL     1       9.481 -18.859  -3.446  1.00  0.00     0.173 A 
ATOM    109  F   UNL     1       8.004 -17.870  -6.615  1.00  0.00    -0.203 F 
ATOM    110  C   UNL     1       9.294 -19.740  -6.069  1.00  0.00     0.198 A 
ATOM    111  C   UNL     1      10.160 -20.005  -3.852  1.00  0.00     0.198 A 
ATOM    112  F   UNL     1       9.620 -18.445  -2.176  1.00  0.00    -0.203 F 
ATOM    113  F   UNL     1       9.209 -20.160  -7.340  1.00  0.00    -0.200 F 
ATOM    114  C   UNL     1      10.057 -20.451  -5.159  1.00  0.00     0.200 A 
ATOM    115  F   UNL     1      10.935 -20.663  -2.978  1.00  0.00    -0.200 F 
ATOM    116  F   UNL     1      10.715 -21.553  -5.547  1.00  0.00    -0.200 F 
ENDBRANCH  83 106
ENDBRANCH  57  58
ENDBRANCH  49  52
ENDBRANCH  47  48
ENDBRANCH  46  47
ENDBRANCH  45  46
ENDBRANCH  44  45
ENDBRANCH  43  44
ENDBRANCH  42  43
ENDBRANCH  40  42
ENDBRANCH  37  38
ENDBRANCH  36  37
ENDBRANCH   1  36
TORSDOF 28
