REMARK SMILES Cc1nc(-c2ccc3c(c2)CCN3S(=O)(=O)c2ccc(F)c(C(=O)NCCCCCCNC(=O)c3ccc(-c4c5nc(c(-c6c(F)c(F)c(F)c(F)c6F)c6ccc([nH]6)c(-c6c(F)c(F)c(F)c(F)c6F)c6nc(c(-c7c(F)c(F)c(F)c(F)c7F)c7ccc4[nH]7)C=C6)C=C5)cc3)c2)cs1
REMARK SMILES IDX 28 1 27 2 26 3 25 4 23 5 24 6 22 8 17 9 18 10 98 11 19 12
REMARK SMILES IDX 20 13 21 14 14 15 15 16 16 17 13 18 5 19 6 20 10 21 7 22
REMARK SMILES IDX 9 23 8 24 11 25 12 26 4 27 1 28 2 29 3 30 100 31 99 32 29 33
REMARK SMILES IDX 30 34 31 35 32 36 33 37 34 39 35 40 36 41 97 42 37 43 96 44
REMARK SMILES IDX 38 45 39 46 40 47 90 48 41 49 95 50 89 51 91 52 42 53 94 54
REMARK SMILES IDX 88 55 87 56 43 58 75 59 55 60 74 61 56 62 59 63 73 64 92 65
REMARK SMILES IDX 57 66 58 67 72 69 93 70 60 71 44 72 45 73 53 74 46 75 47 76
REMARK SMILES IDX 51 77 54 78 48 79 49 80 52 81 50 82 76 83 77 84 85 85 78 86
REMARK SMILES IDX 79 87 83 88 86 89 80 90 81 91 84 92 82 93 61 94 62 95 70 96
REMARK SMILES IDX 63 97 64 98 68 99 71 100 65 101 66 102 69 103 67 104
REMARK H PARENT 25 7 32 38 91 57 59 68
REMARK Flexibility Score: inf
ROOT
ATOM      1  C   UNL     1      -1.416  -9.729  -7.316  1.00  0.00     0.002 C 
ENDROOT
BRANCH   1   2
ATOM      2  C   UNL     1      -0.127  -8.926  -7.173  1.00  0.00     0.021 C 
BRANCH   2   3
ATOM      3  C   UNL     1       0.021  -8.074  -5.921  1.00  0.00     0.116 C 
BRANCH   3   4
ATOM      4  N   UNL     1       0.125  -8.819  -4.682  1.00  0.00    -0.352 N 
ATOM      5  C   UNL     1       0.903  -8.617  -3.565  1.00  0.00     0.254 C 
ATOM      6  O   UNL     1       0.748  -9.389  -2.617  1.00  0.00    -0.269 OA
ATOM      7  H   UNL     1      -0.463  -9.607  -4.631  1.00  0.00     0.163 HD
BRANCH   5   8
ATOM      8  C   UNL     1       1.963  -7.574  -3.461  1.00  0.00     0.076 A 
ATOM      9  C   UNL     1       4.016  -6.824  -2.404  1.00  0.00     0.089 A 
ATOM     10  C   UNL     1       4.112  -5.755  -3.303  1.00  0.00     0.025 A 
ATOM     11  C   UNL     1       3.004  -7.785  -2.534  1.00  0.00     0.039 A 
ATOM     12  C   UNL     1       3.052  -5.506  -4.160  1.00  0.00     0.041 A 
ATOM     13  C   UNL     1       1.952  -6.362  -4.160  1.00  0.00     0.136 A 
ATOM     14  F   UNL     1       0.849  -5.908  -4.769  1.00  0.00    -0.206 F 
BRANCH   9  15
ATOM     15  S   UNL     1       5.144  -6.837  -1.034  1.00  0.00     0.264 S 
ATOM     16  O   UNL     1       6.335  -6.146  -1.487  1.00  0.00    -0.201 OA
ATOM     17  O   UNL     1       5.243  -8.202  -0.553  1.00  0.00    -0.201 OA
BRANCH  15  18
ATOM     18  N   UNL     1       4.424  -5.907   0.220  1.00  0.00    -0.266 N 
ATOM     19  C   UNL     1       2.085  -2.384   0.075  1.00  0.00     0.001 A 
ATOM     20  C   UNL     1       1.758  -3.428  -0.802  1.00  0.00     0.012 A 
ATOM     21  C   UNL     1       3.152  -2.555   0.967  1.00  0.00     0.016 A 
ATOM     22  C   UNL     1       2.493  -4.618  -0.811  1.00  0.00     0.028 A 
ATOM     23  C   UNL     1       3.886  -3.744   0.919  1.00  0.00    -0.021 A 
ATOM     24  C   UNL     1       3.615  -4.742  -0.015  1.00  0.00     0.055 A 
ATOM     25  C   UNL     1       4.886  -4.220   1.924  1.00  0.00     0.060 C 
ATOM     26  C   UNL     1       5.440  -5.490   1.261  1.00  0.00     0.140 C 
BRANCH  19  27
ATOM     27  C   UNL     1       1.221  -1.214   0.105  1.00  0.00     0.081 A 
ATOM     28  C   UNL     1      -2.208   0.033  -0.008  1.00  0.00     0.079 C 
ATOM     29  C   UNL     1      -0.736  -0.176   0.046  1.00  0.00     0.090 A 
ATOM     30  N   UNL     1      -0.154  -1.354  -0.005  1.00  0.00    -0.242 NA
ATOM     31  S   UNL     1       0.331   1.165   0.177  1.00  0.00    -0.127 S 
ATOM     32  C   UNL     1       1.669   0.088   0.198  1.00  0.00     0.095 A 
ENDBRANCH  19  27
ENDBRANCH  15  18
ENDBRANCH   9  15
ENDBRANCH   5   8
ENDBRANCH   3   4
ENDBRANCH   2   3
ENDBRANCH   1   2
BRANCH   1  33
ATOM     33  C   UNL     1      -2.728  -8.950  -7.184  1.00  0.00     0.002 C 
BRANCH  33  34
ATOM     34  C   UNL     1      -2.857  -7.684  -8.032  1.00  0.00     0.021 C 
BRANCH  34  35
ATOM     35  C   UNL     1      -2.608  -7.860  -9.525  1.00  0.00     0.116 C 
BRANCH  35  36
ATOM     36  N   UNL     1      -3.559  -8.762 -10.153  1.00  0.00    -0.352 N 
ATOM     37  C   UNL     1      -4.349  -8.557 -11.258  1.00  0.00     0.251 C 
ATOM     38  H   UNL     1      -3.650  -9.644  -9.726  1.00  0.00     0.163 HD
ATOM     39  O   UNL     1      -5.217  -9.369 -11.563  1.00  0.00    -0.269 OA
BRANCH  37  40
ATOM     40  C   UNL     1      -4.166  -7.337 -12.072  1.00  0.00     0.039 A 
ATOM     41  C   UNL     1      -5.290  -6.595 -12.448  1.00  0.00     0.014 A 
ATOM     42  C   UNL     1      -2.889  -6.923 -12.458  1.00  0.00     0.014 A 
ATOM     43  C   UNL     1      -5.127  -5.400 -13.154  1.00  0.00     0.010 A 
ATOM     44  C   UNL     1      -2.724  -5.698 -13.097  1.00  0.00     0.010 A 
ATOM     45  C   UNL     1      -3.840  -4.923 -13.451  1.00  0.00    -0.014 A 
BRANCH  45  46
ATOM     46  C   UNL     1      -3.621  -3.627 -14.143  1.00  0.00     0.031 A 
ATOM     47  C   UNL     1      -2.958  -3.609 -15.492  1.00  0.00     0.074 A 
ATOM     48  C   UNL     1      -3.944  -2.471 -13.530  1.00  0.00     0.049 A 
ATOM     49  N   UNL     1      -2.527  -2.589 -16.189  1.00  0.00    -0.248 NA
ATOM     50  C   UNL     1      -2.727  -4.914 -16.135  1.00  0.00     0.031 C 
ATOM     51  C   UNL     1      -4.588  -2.357 -12.220  1.00  0.00     0.029 A 
ATOM     52  N   UNL     1      -3.760  -1.166 -13.920  1.00  0.00    -0.354 N 
ATOM     53  C   UNL     1      -1.969  -3.128 -17.340  1.00  0.00     0.074 A 
ATOM     54  C   UNL     1      -2.067  -4.566 -17.230  1.00  0.00     0.031 C 
ATOM     55  C   UNL     1      -4.761  -1.059 -11.925  1.00  0.00     0.029 A 
ATOM     56  C   UNL     1      -4.191  -0.245 -12.995  1.00  0.00     0.049 A 
ATOM     57  H   UNL     1      -3.357  -0.914 -14.783  1.00  0.00     0.167 HD
ATOM     58  C   UNL     1      -1.445  -2.477 -18.403  1.00  0.00     0.037 A 
ATOM     59  C   UNL     1      -4.115   1.101 -12.999  1.00  0.00     0.037 A 
ATOM     60  C   UNL     1      -1.380  -1.045 -18.521  1.00  0.00     0.049 A 
ATOM     61  C   UNL     1      -3.469   1.796 -14.172  1.00  0.00     0.074 A 
ATOM     62  C   UNL     1      -0.889  -0.293 -19.574  1.00  0.00     0.029 A 
ATOM     63  N   UNL     1      -1.826  -0.151 -17.561  1.00  0.00    -0.354 N 
ATOM     64  N   UNL     1      -2.967   1.276 -15.265  1.00  0.00    -0.248 NA
ATOM     65  C   UNL     1      -3.374   3.263 -14.112  1.00  0.00     0.031 C 
ATOM     66  C   UNL     1      -0.996   1.055 -19.233  1.00  0.00     0.029 A 
ATOM     67  C   UNL     1      -1.608   1.145 -17.993  1.00  0.00     0.049 A 
ATOM     68  H   UNL     1      -2.237  -0.401 -16.701  1.00  0.00     0.167 HD
ATOM     69  C   UNL     1      -2.542   2.348 -16.038  1.00  0.00     0.074 A 
ATOM     70  C   UNL     1      -2.841   3.550 -15.291  1.00  0.00     0.031 C 
ATOM     71  C   UNL     1      -1.956   2.333 -17.258  1.00  0.00     0.037 A 
BRANCH  58  72
ATOM     72  C   UNL     1      -0.923  -3.288 -19.551  1.00  0.00     0.064 A 
ATOM     73  C   UNL     1       0.447  -3.299 -19.852  1.00  0.00     0.173 A 
ATOM     74  C   UNL     1      -1.796  -3.946 -20.430  1.00  0.00     0.173 A 
ATOM     75  F   UNL     1       1.321  -2.677 -19.046  1.00  0.00    -0.203 F 
ATOM     76  C   UNL     1       0.921  -3.912 -21.008  1.00  0.00     0.198 A 
ATOM     77  C   UNL     1      -1.315  -4.582 -21.571  1.00  0.00     0.198 A 
ATOM     78  F   UNL     1      -3.114  -3.971 -20.180  1.00  0.00    -0.203 F 
ATOM     79  F   UNL     1       2.227  -3.864 -21.303  1.00  0.00    -0.200 F 
ATOM     80  C   UNL     1       0.039  -4.551 -21.867  1.00  0.00     0.200 A 
ATOM     81  F   UNL     1      -2.166  -5.215 -22.391  1.00  0.00    -0.200 F 
ATOM     82  F   UNL     1       0.495  -5.132 -22.985  1.00  0.00    -0.200 F 
ENDBRANCH  58  72
BRANCH  59  83
ATOM     83  C   UNL     1      -4.673   1.889 -11.867  1.00  0.00     0.064 A 
ATOM     84  C   UNL     1      -4.111   1.836 -10.583  1.00  0.00     0.173 A 
ATOM     85  C   UNL     1      -5.779   2.731 -12.056  1.00  0.00     0.173 A 
ATOM     86  F   UNL     1      -3.053   1.047 -10.343  1.00  0.00    -0.203 F 
ATOM     87  C   UNL     1      -4.639   2.585  -9.532  1.00  0.00     0.198 A 
ATOM     88  C   UNL     1      -6.285   3.505 -11.014  1.00  0.00     0.198 A 
ATOM     89  F   UNL     1      -6.340   2.834 -13.270  1.00  0.00    -0.203 F 
ATOM     90  F   UNL     1      -4.098   2.495  -8.310  1.00  0.00    -0.200 F 
ATOM     91  C   UNL     1      -5.718   3.427  -9.751  1.00  0.00     0.200 A 
ATOM     92  F   UNL     1      -7.308   4.341 -11.239  1.00  0.00    -0.200 F 
ATOM     93  F   UNL     1      -6.206   4.170  -8.748  1.00  0.00    -0.200 F 
ENDBRANCH  59  83
BRANCH  71  94
ATOM     94  C   UNL     1      -1.647   3.645 -17.917  1.00  0.00     0.064 A 
ATOM     95  C   UNL     1      -2.354   4.036 -19.065  1.00  0.00     0.173 A 
ATOM     96  C   UNL     1      -0.565   4.435 -17.508  1.00  0.00     0.173 A 
ATOM     97  F   UNL     1      -3.391   3.305 -19.502  1.00  0.00    -0.203 F 
ATOM     98  C   UNL     1      -1.964   5.151 -19.801  1.00  0.00     0.198 A 
ATOM     99  C   UNL     1      -0.195   5.566 -18.230  1.00  0.00     0.198 A 
ATOM    100  F   UNL     1       0.135   4.106 -16.411  1.00  0.00    -0.203 F 
ATOM    101  F   UNL     1      -2.616   5.471 -20.927  1.00  0.00    -0.200 F 
ATOM    102  C   UNL     1      -0.884   5.913 -19.384  1.00  0.00     0.200 A 
ATOM    103  F   UNL     1       0.837   6.314 -17.817  1.00  0.00    -0.200 F 
ATOM    104  F   UNL     1      -0.501   6.980 -20.099  1.00  0.00    -0.200 F 
ENDBRANCH  71  94
ENDBRANCH  45  46
ENDBRANCH  37  40
ENDBRANCH  35  36
ENDBRANCH  34  35
ENDBRANCH  33  34
ENDBRANCH   1  33
TORSDOF 16
