REMARK SMILES O=C(NCCCCCCNC(=O)c1nc(/N=C/c2cccc([N+](=O)[O-])c2)n[nH]1)c1ccc(-c2c3nc(c(-c4c(F)c(F)c(F)c(F)c4F)c4ccc([nH]4)c(-c4c(F)c(F)c(F)c(F)c4F)c4nc(c(-c5c(F)c(F)c(F)c(F)c5F)c5ccc2[nH]5)C=C4)C=C3)cc1
REMARK SMILES IDX 7 1 6 2 5 3 4 4 3 5 1 6 2 7 29 9 30 10 91 11 31 12 90 13
REMARK SMILES IDX 32 14 33 15 34 16 84 17 35 18 89 19 83 20 85 21 36 22 88 23
REMARK SMILES IDX 82 24 81 25 37 27 69 28 49 29 68 30 50 31 53 32 67 33 86 34
REMARK SMILES IDX 51 35 52 36 66 38 87 39 54 40 38 41 39 42 47 43 40 44 41 45
REMARK SMILES IDX 45 46 48 47 42 48 43 49 46 50 44 51 70 52 71 53 79 54 72 55
REMARK SMILES IDX 73 56 77 57 80 58 74 59 75 60 78 61 76 62 55 63 56 64 64 65
REMARK SMILES IDX 57 66 58 67 62 68 65 69 59 70 60 71 63 72 61 73 8 74 9 75
REMARK SMILES IDX 10 76 11 77 12 79 13 80 14 81 28 82 15 83 27 84 16 86 17 87
REMARK SMILES IDX 18 88 19 89 26 90 20 91 22 92 21 93 23 94 24 95 25 96
REMARK H PARENT 3 8 85 26 53 37 10 78 28 85
REMARK Flexibility Score: inf
ROOT
ATOM      1  C   UNL     1       4.790  -1.854  -4.005  1.00  0.00     0.002 C 
ENDROOT
BRANCH   1   2
ATOM      2  C   UNL     1       4.155  -2.647  -2.857  1.00  0.00     0.002 C 
BRANCH   2   3
ATOM      3  C   UNL     1       4.602  -2.235  -1.455  1.00  0.00     0.021 C 
BRANCH   3   4
ATOM      4  C   UNL     1       4.391  -0.763  -1.125  1.00  0.00     0.116 C 
BRANCH   4   5
ATOM      5  N   UNL     1       2.985  -0.397  -1.066  1.00  0.00    -0.352 N 
ATOM      6  O   UNL     1       1.061   0.293  -0.104  1.00  0.00    -0.269 OA
ATOM      7  C   UNL     1       2.283   0.198  -0.045  1.00  0.00     0.251 C 
ATOM      8  H   UNL     1       2.461  -0.606  -1.873  1.00  0.00     0.163 HD
BRANCH   7   9
ATOM      9  C   UNL     1       3.005   0.698   1.145  1.00  0.00     0.039 A 
ATOM     10  C   UNL     1       4.188   1.425   1.005  1.00  0.00     0.014 A 
ATOM     11  C   UNL     1       2.495   0.426   2.418  1.00  0.00     0.014 A 
ATOM     12  C   UNL     1       4.943   1.736   2.130  1.00  0.00     0.010 A 
ATOM     13  C   UNL     1       3.208   0.826   3.552  1.00  0.00     0.010 A 
ATOM     14  C   UNL     1       4.458   1.450   3.417  1.00  0.00    -0.014 A 
BRANCH  14  15
ATOM     15  C   UNL     1       5.259   1.860   4.599  1.00  0.00     0.031 A 
ATOM     16  C   UNL     1       5.831   0.843   5.547  1.00  0.00     0.074 A 
ATOM     17  C   UNL     1       5.504   3.172   4.787  1.00  0.00     0.049 A 
ATOM     18  N   UNL     1       6.593   1.030   6.597  1.00  0.00    -0.248 NA
ATOM     19  C   UNL     1       5.500  -0.567   5.293  1.00  0.00     0.031 C 
ATOM     20  C   UNL     1       4.992   4.251   3.940  1.00  0.00     0.029 A 
ATOM     21  N   UNL     1       6.261   3.820   5.729  1.00  0.00    -0.354 N 
ATOM     22  C   UNL     1       6.812  -0.229   7.140  1.00  0.00     0.074 A 
ATOM     23  C   UNL     1       6.082  -1.172   6.320  1.00  0.00     0.031 C 
ATOM     24  C   UNL     1       5.497   5.418   4.362  1.00  0.00     0.029 A 
ATOM     25  C   UNL     1       6.314   5.179   5.546  1.00  0.00     0.049 A 
ATOM     26  H   UNL     1       6.721   3.355   6.465  1.00  0.00     0.167 HD
ATOM     27  C   UNL     1       7.560  -0.565   8.220  1.00  0.00     0.037 A 
ATOM     28  C   UNL     1       6.944   6.132   6.257  1.00  0.00     0.037 A 
ATOM     29  C   UNL     1       8.301   0.379   9.020  1.00  0.00     0.049 A 
ATOM     30  C   UNL     1       7.748   5.731   7.460  1.00  0.00     0.074 A 
ATOM     31  C   UNL     1       9.128   0.132  10.103  1.00  0.00     0.029 A 
ATOM     32  N   UNL     1       8.298   1.753   8.828  1.00  0.00    -0.354 N 
ATOM     33  N   UNL     1       7.984   4.532   7.936  1.00  0.00    -0.248 NA
ATOM     34  C   UNL     1       8.369   6.817   8.227  1.00  0.00     0.031 C 
ATOM     35  C   UNL     1       9.581   1.359  10.599  1.00  0.00     0.029 A 
ATOM     36  C   UNL     1       9.084   2.369   9.791  1.00  0.00     0.049 A 
ATOM     37  H   UNL     1       7.809   2.223   8.114  1.00  0.00     0.167 HD
ATOM     38  C   UNL     1       8.800   4.717   9.042  1.00  0.00     0.074 A 
ATOM     39  C   UNL     1       9.033   6.143   9.155  1.00  0.00     0.031 C 
ATOM     40  C   UNL     1       9.309   3.789   9.890  1.00  0.00     0.037 A 
BRANCH  27  41
ATOM     41  C   UNL     1       7.599  -2.013   8.619  1.00  0.00     0.064 A 
ATOM     42  C   UNL     1       8.269  -2.978   7.851  1.00  0.00     0.173 A 
ATOM     43  C   UNL     1       6.991  -2.435   9.812  1.00  0.00     0.173 A 
ATOM     44  F   UNL     1       8.860  -2.632   6.697  1.00  0.00    -0.203 F 
ATOM     45  C   UNL     1       8.303  -4.313   8.246  1.00  0.00     0.198 A 
ATOM     46  C   UNL     1       7.052  -3.766  10.219  1.00  0.00     0.198 A 
ATOM     47  F   UNL     1       6.344  -1.554  10.589  1.00  0.00    -0.203 F 
ATOM     48  F   UNL     1       8.907  -5.225   7.471  1.00  0.00    -0.200 F 
ATOM     49  C   UNL     1       7.700  -4.705   9.433  1.00  0.00     0.200 A 
ATOM     50  F   UNL     1       6.481  -4.139  11.373  1.00  0.00    -0.200 F 
ATOM     51  F   UNL     1       7.739  -5.989   9.814  1.00  0.00    -0.200 F 
ENDBRANCH  27  41
BRANCH  28  52
ATOM     52  C   UNL     1       6.845   7.553   5.838  1.00  0.00     0.064 A 
ATOM     53  C   UNL     1       7.963   8.236   5.341  1.00  0.00     0.173 A 
ATOM     54  C   UNL     1       5.632   8.254   5.914  1.00  0.00     0.173 A 
ATOM     55  F   UNL     1       9.149   7.614   5.267  1.00  0.00    -0.203 F 
ATOM     56  C   UNL     1       7.875   9.570   4.950  1.00  0.00     0.198 A 
ATOM     57  C   UNL     1       5.537   9.578   5.493  1.00  0.00     0.198 A 
ATOM     58  F   UNL     1       4.531   7.643   6.378  1.00  0.00    -0.203 F 
ATOM     59  F   UNL     1       8.968  10.212   4.517  1.00  0.00    -0.200 F 
ATOM     60  C   UNL     1       6.661  10.237   5.019  1.00  0.00     0.200 A 
ATOM     61  F   UNL     1       4.359  10.212   5.544  1.00  0.00    -0.200 F 
ATOM     62  F   UNL     1       6.575  11.518   4.633  1.00  0.00    -0.200 F 
ENDBRANCH  28  52
BRANCH  40  63
ATOM     63  C   UNL     1      10.198   4.289  10.991  1.00  0.00     0.064 A 
ATOM     64  C   UNL     1       9.690   5.016  12.078  1.00  0.00     0.173 A 
ATOM     65  C   UNL     1      11.576   4.025  10.964  1.00  0.00     0.173 A 
ATOM     66  F   UNL     1       8.382   5.310  12.140  1.00  0.00    -0.203 F 
ATOM     67  C   UNL     1      10.533   5.490  13.079  1.00  0.00     0.198 A 
ATOM     68  C   UNL     1      12.411   4.472  11.984  1.00  0.00     0.198 A 
ATOM     69  F   UNL     1      12.112   3.328   9.951  1.00  0.00    -0.203 F 
ATOM     70  F   UNL     1      10.034   6.233  14.076  1.00  0.00    -0.200 F 
ATOM     71  C   UNL     1      11.892   5.212  13.035  1.00  0.00     0.200 A 
ATOM     72  F   UNL     1      13.721   4.192  11.946  1.00  0.00    -0.200 F 
ATOM     73  F   UNL     1      12.701   5.668  14.000  1.00  0.00    -0.200 F 
ENDBRANCH  40  63
ENDBRANCH  14  15
ENDBRANCH   7   9
ENDBRANCH   4   5
ENDBRANCH   3   4
ENDBRANCH   2   3
ENDBRANCH   1   2
BRANCH   1  74
ATOM     74  C   UNL     1       6.320  -1.785  -3.986  1.00  0.00     0.021 C 
BRANCH  74  75
ATOM     75  C   UNL     1       7.019  -3.145  -3.982  1.00  0.00     0.116 C 
BRANCH  75  76
ATOM     76  N   UNL     1       6.790  -3.854  -5.230  1.00  0.00    -0.349 N 
ATOM     77  C   UNL     1       7.703  -4.195  -6.196  1.00  0.00     0.288 C 
ATOM     78  H   UNL     1       5.859  -4.125  -5.404  1.00  0.00     0.163 HD
ATOM     79  O   UNL     1       7.278  -4.536  -7.306  1.00  0.00    -0.266 OA
BRANCH  77  80
ATOM     80  C   UNL     1       9.110  -4.125  -5.908  1.00  0.00     0.216 A 
ATOM     81  N   UNL     1       9.687  -4.252  -4.727  1.00  0.00    -0.185 NA
ATOM     82  N   UNL     1      10.080  -3.948  -6.849  1.00  0.00    -0.253 N 
ATOM     83  C   UNL     1      11.010  -4.075  -5.005  1.00  0.00     0.268 A 
ATOM     84  N   UNL     1      11.298  -3.873  -6.290  1.00  0.00    -0.132 NA
ATOM     85  H   UNL     1       9.909  -3.883  -7.816  1.00  0.00     0.192 HD
BRANCH  83  86
ATOM     86  N   UNL     1      12.022  -4.001  -4.056  1.00  0.00    -0.218 NA
ATOM     87  C   UNL     1      11.826  -4.830  -3.084  1.00  0.00     0.123 C 
BRANCH  87  88
ATOM     88  C   UNL     1      12.755  -4.888  -1.938  1.00  0.00    -0.000 A 
ATOM     89  C   UNL     1      12.665  -5.964  -1.048  1.00  0.00     0.010 A 
ATOM     90  C   UNL     1      13.704  -3.880  -1.744  1.00  0.00     0.095 A 
ATOM     91  C   UNL     1      13.543  -6.046   0.035  1.00  0.00     0.008 A 
ATOM     92  C   UNL     1      14.571  -3.965  -0.649  1.00  0.00     0.270 A 
ATOM     93  C   UNL     1      14.499  -5.048   0.239  1.00  0.00     0.085 A 
BRANCH  92  94
ATOM     94  N   UNL     1      15.560  -2.905  -0.423  1.00  0.00     0.062 N 
ATOM     95  O   UNL     1      16.383  -3.072   0.489  1.00  0.00    -0.258 OA
ATOM     96  O   UNL     1      15.510  -1.903  -1.149  1.00  0.00    -0.258 OA
ENDBRANCH  92  94
ENDBRANCH  87  88
ENDBRANCH  83  86
ENDBRANCH  77  80
ENDBRANCH  75  76
ENDBRANCH  74  75
ENDBRANCH   1  74
TORSDOF 16
