REMARK SMILES CNc1nccc(-c2cc(C(=O)NCCCCCCNC(=O)c3ccc(-c4c5nc(c(-c6c(F)c(F)c(F)c(F)c6F)c6ccc([nH]6)c(-c6c(F)c(F)c(F)c(F)c6F)c6nc(c(-c7c(F)c(F)c(F)c(F)c7F)c7ccc4[nH]7)C=C6)C=C5)cc3)ccn2)n1
REMARK SMILES IDX 16 1 15 2 14 3 13 4 11 5 12 6 10 8 8 9 9 10 88 11 87 12
REMARK SMILES IDX 86 13 7 14 3 15 4 16 89 17 5 18 6 19 2 20 1 21 17 23 18 24
REMARK SMILES IDX 19 25 20 26 21 27 22 29 23 30 24 31 85 32 25 33 84 34 26 35
REMARK SMILES IDX 27 36 28 37 78 38 29 39 83 40 77 41 79 42 30 43 82 44 76 45
REMARK SMILES IDX 75 46 31 48 63 49 43 50 62 51 44 52 47 53 61 54 80 55 45 56
REMARK SMILES IDX 46 57 60 59 81 60 48 61 32 62 33 63 41 64 34 65 35 66 39 67
REMARK SMILES IDX 42 68 36 69 37 70 40 71 38 72 64 73 65 74 73 75 66 76 67 77
REMARK SMILES IDX 71 78 74 79 68 80 69 81 72 82 70 83 49 84 50 85 58 86 51 87
REMARK SMILES IDX 52 88 56 89 59 90 53 91 54 92 57 93 55 94
REMARK H PARENT 13 7 2 22 20 28 79 47 47 58
REMARK Flexibility Score: inf
ROOT
ATOM      1  C   UNL     1      -0.805   8.129   2.334  1.00  0.00     0.002 C 
ENDROOT
BRANCH   1   2
ATOM      2  C   UNL     1      -1.109   6.624   2.282  1.00  0.00     0.021 C 
BRANCH   2   3
ATOM      3  C   UNL     1      -2.426   6.255   2.967  1.00  0.00     0.116 C 
BRANCH   3   4
ATOM      4  N   UNL     1      -3.539   6.517   2.073  1.00  0.00    -0.352 N 
ATOM      5  C   UNL     1      -4.317   5.716   1.280  1.00  0.00     0.251 C 
ATOM      6  O   UNL     1      -5.191   6.263   0.605  1.00  0.00    -0.269 OA
ATOM      7  H   UNL     1      -3.786   7.469   2.026  1.00  0.00     0.163 HD
BRANCH   5   8
ATOM      8  C   UNL     1      -4.222   4.232   1.257  1.00  0.00     0.043 A 
ATOM      9  C   UNL     1      -3.172   2.122   1.689  1.00  0.00     0.090 A 
ATOM     10  C   UNL     1      -3.072   3.504   1.548  1.00  0.00     0.044 A 
ATOM     11  N   UNL     1      -4.319   1.444   1.437  1.00  0.00    -0.255 NA
ATOM     12  C   UNL     1      -5.386   2.157   1.025  1.00  0.00     0.112 A 
ATOM     13  C   UNL     1      -5.393   3.535   0.946  1.00  0.00     0.034 A 
BRANCH   9  14
ATOM     14  C   UNL     1      -2.088   1.358   2.316  1.00  0.00     0.094 A 
ATOM     15  C   UNL     1      -0.144   0.162   2.094  1.00  0.00     0.222 A 
ATOM     16  N   UNL     1      -0.032  -0.015   3.418  1.00  0.00    -0.222 NA
ATOM     17  N   UNL     1      -1.131   0.853   1.508  1.00  0.00    -0.211 NA
ATOM     18  C   UNL     1      -0.982   0.530   4.193  1.00  0.00     0.117 A 
ATOM     19  C   UNL     1      -2.045   1.231   3.692  1.00  0.00     0.051 A 
BRANCH  15  20
ATOM     20  N   UNL     1       0.863  -0.378   1.348  1.00  0.00    -0.357 N 
ATOM     21  C   UNL     1       0.975  -0.144  -0.059  1.00  0.00     0.143 C 
ATOM     22  H   UNL     1       1.534  -0.945   1.792  1.00  0.00     0.163 HD
ENDBRANCH  15  20
ENDBRANCH   9  14
ENDBRANCH   5   8
ENDBRANCH   3   4
ENDBRANCH   2   3
ENDBRANCH   1   2
BRANCH   1  23
ATOM     23  C   UNL     1      -0.549   8.686   3.740  1.00  0.00     0.002 C 
BRANCH  23  24
ATOM     24  C   UNL     1       0.569   7.990   4.522  1.00  0.00     0.021 C 
BRANCH  24  25
ATOM     25  C   UNL     1       1.943   8.062   3.861  1.00  0.00     0.116 C 
BRANCH  25  26
ATOM     26  N   UNL     1       2.436   9.428   3.788  1.00  0.00    -0.352 N 
ATOM     27  C   UNL     1       3.607   9.961   4.264  1.00  0.00     0.251 C 
ATOM     28  H   UNL     1       1.841  10.065   3.330  1.00  0.00     0.163 HD
ATOM     29  O   UNL     1       3.756  11.178   4.306  1.00  0.00    -0.269 OA
BRANCH  27  30
ATOM     30  C   UNL     1       4.689   9.073   4.740  1.00  0.00     0.039 A 
ATOM     31  C   UNL     1       5.364   9.406   5.917  1.00  0.00     0.014 A 
ATOM     32  C   UNL     1       5.061   7.937   4.015  1.00  0.00     0.014 A 
ATOM     33  C   UNL     1       6.376   8.572   6.396  1.00  0.00     0.010 A 
ATOM     34  C   UNL     1       6.026   7.072   4.526  1.00  0.00     0.010 A 
ATOM     35  C   UNL     1       6.695   7.383   5.720  1.00  0.00    -0.014 A 
BRANCH  35  36
ATOM     36  C   UNL     1       7.720   6.453   6.255  1.00  0.00     0.031 A 
ATOM     37  C   UNL     1       9.000   6.215   5.504  1.00  0.00     0.074 A 
ATOM     38  C   UNL     1       7.471   5.779   7.395  1.00  0.00     0.049 A 
ATOM     39  N   UNL     1       9.990   5.408   5.790  1.00  0.00    -0.248 NA
ATOM     40  C   UNL     1       9.180   6.966   4.251  1.00  0.00     0.031 C 
ATOM     41  C   UNL     1       6.244   5.885   8.187  1.00  0.00     0.029 A 
ATOM     42  N   UNL     1       8.231   4.865   8.080  1.00  0.00    -0.354 N 
ATOM     43  C   UNL     1      10.902   5.545   4.752  1.00  0.00     0.074 A 
ATOM     44  C   UNL     1      10.327   6.475   3.804  1.00  0.00     0.031 C 
ATOM     45  C   UNL     1       6.343   5.084   9.259  1.00  0.00     0.029 A 
ATOM     46  C   UNL     1       7.624   4.384   9.214  1.00  0.00     0.049 A 
ATOM     47  H   UNL     1       9.126   4.580   7.786  1.00  0.00     0.167 HD
ATOM     48  C   UNL     1      12.118   4.963   4.614  1.00  0.00     0.037 A 
ATOM     49  C   UNL     1       8.051   3.478  10.114  1.00  0.00     0.037 A 
ATOM     50  C   UNL     1      12.698   4.059   5.572  1.00  0.00     0.049 A 
ATOM     51  C   UNL     1       9.408   2.854   9.939  1.00  0.00     0.074 A 
ATOM     52  C   UNL     1      13.951   3.470   5.555  1.00  0.00     0.029 A 
ATOM     53  N   UNL     1      12.061   3.611   6.720  1.00  0.00    -0.354 N 
ATOM     54  N   UNL     1      10.292   3.048   8.992  1.00  0.00    -0.248 NA
ATOM     55  C   UNL     1       9.829   1.890  10.966  1.00  0.00     0.031 C 
ATOM     56  C   UNL     1      14.056   2.632   6.670  1.00  0.00     0.029 A 
ATOM     57  C   UNL     1      12.887   2.735   7.407  1.00  0.00     0.049 A 
ATOM     58  H   UNL     1      11.157   3.875   7.004  1.00  0.00     0.167 HD
ATOM     59  C   UNL     1      11.381   2.251   9.318  1.00  0.00     0.074 A 
ATOM     60  C   UNL     1      11.055   1.587  10.562  1.00  0.00     0.031 C 
ATOM     61  C   UNL     1      12.546   2.083   8.646  1.00  0.00     0.037 A 
BRANCH  48  62
ATOM     62  C   UNL     1      12.911   5.293   3.382  1.00  0.00     0.064 A 
ATOM     63  C   UNL     1      13.488   6.559   3.197  1.00  0.00     0.173 A 
ATOM     64  C   UNL     1      13.136   4.319   2.398  1.00  0.00     0.173 A 
ATOM     65  F   UNL     1      13.293   7.528   4.104  1.00  0.00    -0.203 F 
ATOM     66  C   UNL     1      14.240   6.844   2.061  1.00  0.00     0.198 A 
ATOM     67  C   UNL     1      13.913   4.599   1.276  1.00  0.00     0.198 A 
ATOM     68  F   UNL     1      12.612   3.091   2.528  1.00  0.00    -0.203 F 
ATOM     69  F   UNL     1      14.745   8.073   1.885  1.00  0.00    -0.200 F 
ATOM     70  C   UNL     1      14.458   5.863   1.105  1.00  0.00     0.200 A 
ATOM     71  F   UNL     1      14.133   3.646   0.360  1.00  0.00    -0.200 F 
ATOM     72  F   UNL     1      15.191   6.136   0.017  1.00  0.00    -0.200 F 
ENDBRANCH  48  62
BRANCH  49  73
ATOM     73  C   UNL     1       7.194   3.125  11.275  1.00  0.00     0.064 A 
ATOM     74  C   UNL     1       7.547   3.516  12.574  1.00  0.00     0.173 A 
ATOM     75  C   UNL     1       6.013   2.388  11.114  1.00  0.00     0.173 A 
ATOM     76  F   UNL     1       8.679   4.206  12.781  1.00  0.00    -0.203 F 
ATOM     77  C   UNL     1       6.762   3.165  13.670  1.00  0.00     0.198 A 
ATOM     78  C   UNL     1       5.214   2.061  12.207  1.00  0.00     0.198 A 
ATOM     79  F   UNL     1       5.627   1.995   9.891  1.00  0.00    -0.203 F 
ATOM     80  F   UNL     1       7.147   3.512  14.906  1.00  0.00    -0.200 F 
ATOM     81  C   UNL     1       5.594   2.442  13.485  1.00  0.00     0.200 A 
ATOM     82  F   UNL     1       4.077   1.375  12.023  1.00  0.00    -0.200 F 
ATOM     83  F   UNL     1       4.837   2.106  14.539  1.00  0.00    -0.200 F 
ENDBRANCH  49  73
BRANCH  61  84
ATOM     84  C   UNL     1      13.562   1.162   9.257  1.00  0.00     0.064 A 
ATOM     85  C   UNL     1      13.377  -0.229   9.270  1.00  0.00     0.173 A 
ATOM     86  C   UNL     1      14.744   1.674   9.811  1.00  0.00     0.173 A 
ATOM     87  F   UNL     1      12.255  -0.765   8.767  1.00  0.00    -0.203 F 
ATOM     88  C   UNL     1      14.327  -1.070   9.842  1.00  0.00     0.198 A 
ATOM     89  C   UNL     1      15.705   0.828  10.355  1.00  0.00     0.198 A 
ATOM     90  F   UNL     1      14.971   2.997   9.817  1.00  0.00    -0.203 F 
ATOM     91  F   UNL     1      14.107  -2.391   9.889  1.00  0.00    -0.200 F 
ATOM     92  C   UNL     1      15.493  -0.542  10.378  1.00  0.00     0.200 A 
ATOM     93  F   UNL     1      16.836   1.338  10.862  1.00  0.00    -0.200 F 
ATOM     94  F   UNL     1      16.407  -1.355  10.925  1.00  0.00    -0.200 F 
ENDBRANCH  61  84
ENDBRANCH  35  36
ENDBRANCH  27  30
ENDBRANCH  25  26
ENDBRANCH  24  25
ENDBRANCH  23  24
ENDBRANCH   1  23
TORSDOF 15
