REMARK SMILES CC(=O)Nc1ccc(/C=C2/CCc3oc(C(=O)NCCCCCCNC(=O)c4ccc(-c5c6nc(c(-c7c(F)c(F)c(F)c(F)c7F)c7ccc([nH]7)c(-c7c(F)c(F)c(F)c(F)c7F)c7nc(c(-c8c(F)c(F)c(F)c(F)c8F)c8ccc5[nH]8)C=C7)C=C6)cc4)c(C)c3C2=O)cc1
REMARK SMILES IDX 21 1 20 2 19 3 18 4 16 5 17 6 15 8 9 9 10 10 11 11 94 12
REMARK SMILES IDX 12 13 93 14 95 15 13 16 91 17 14 18 92 19 8 20 5 21 6 22
REMARK SMILES IDX 97 23 7 24 96 25 4 26 1 27 2 28 3 29 22 31 23 32 24 33 25 34
REMARK SMILES IDX 26 35 27 37 28 38 29 39 90 40 30 41 89 42 31 43 32 44 33 45
REMARK SMILES IDX 83 46 34 47 88 48 82 49 84 50 35 51 87 52 81 53 80 54 36 56
REMARK SMILES IDX 68 57 48 58 67 59 49 60 52 61 66 62 85 63 50 64 51 65 65 67
REMARK SMILES IDX 86 68 53 69 37 70 38 71 46 72 39 73 40 74 44 75 47 76 41 77
REMARK SMILES IDX 42 78 45 79 43 80 69 81 70 82 78 83 71 84 72 85 76 86 79 87
REMARK SMILES IDX 73 88 74 89 77 90 75 91 54 92 55 93 63 94 56 95 57 96 61 97
REMARK SMILES IDX 64 98 58 99 59 100 62 101 60 102
REMARK H PARENT 18 7 4 30 25 36 84 55 52 66
REMARK Flexibility Score: inf
ROOT
ATOM      1  C   UNL     1       1.630 -11.927  -9.358  1.00  0.00     0.002 C 
ENDROOT
BRANCH   1   2
ATOM      2  C   UNL     1       2.333 -11.177  -8.224  1.00  0.00     0.021 C 
BRANCH   2   3
ATOM      3  C   UNL     1       1.488 -10.085  -7.571  1.00  0.00     0.116 C 
BRANCH   3   4
ATOM      4  N   UNL     1       0.455 -10.634  -6.707  1.00  0.00    -0.349 N 
ATOM      5  C   UNL     1       0.166 -10.453  -5.369  1.00  0.00     0.287 C 
ATOM      6  O   UNL     1      -0.825 -11.059  -4.952  1.00  0.00    -0.266 OA
ATOM      7  H   UNL     1      -0.157 -11.256  -7.164  1.00  0.00     0.163 HD
BRANCH   5   8
ATOM      8  C   UNL     1       0.984  -9.599  -4.519  1.00  0.00     0.195 A 
ATOM      9  C   UNL     1       3.738  -5.470  -1.546  1.00  0.00     0.016 C 
ATOM     10  C   UNL     1       3.598  -6.721  -2.027  1.00  0.00     0.001 C 
ATOM     11  C   UNL     1       4.587  -7.230  -3.076  1.00  0.00     0.048 C 
ATOM     12  C   UNL     1       2.487  -7.706  -1.704  1.00  0.00     0.192 C 
ATOM     13  C   UNL     1       3.871  -7.484  -4.410  1.00  0.00     0.081 C 
ATOM     14  C   UNL     1       2.000  -8.378  -2.902  1.00  0.00     0.067 A 
ATOM     15  O   UNL     1       2.107  -7.964  -0.581  1.00  0.00    -0.289 OA
ATOM     16  C   UNL     1       2.647  -8.245  -4.102  1.00  0.00     0.116 A 
ATOM     17  C   UNL     1       0.909  -9.274  -3.158  1.00  0.00     0.012 A 
ATOM     18  O   UNL     1       2.055  -8.952  -5.067  1.00  0.00    -0.455 OA
ATOM     19  C   UNL     1      -0.083  -9.742  -2.153  1.00  0.00     0.049 C 
BRANCH   9  20
ATOM     20  C   UNL     1       2.930  -4.592  -0.679  1.00  0.00    -0.025 A 
ATOM     21  C   UNL     1       1.453  -2.686   0.815  1.00  0.00     0.041 A 
ATOM     22  C   UNL     1       1.044  -4.016   0.750  1.00  0.00     0.027 A 
ATOM     23  C   UNL     1       2.639  -2.320   0.190  1.00  0.00     0.027 A 
ATOM     24  C   UNL     1       1.758  -4.950  -0.013  1.00  0.00     0.010 A 
ATOM     25  C   UNL     1       3.369  -3.264  -0.542  1.00  0.00     0.010 A 
BRANCH  21  26
ATOM     26  N   UNL     1       0.657  -1.796   1.548  1.00  0.00    -0.326 N 
ATOM     27  C   UNL     1       0.886   0.223   0.116  1.00  0.00     0.114 C 
ATOM     28  C   UNL     1       0.451  -0.455   1.389  1.00  0.00     0.221 C 
ATOM     29  O   UNL     1      -0.163   0.167   2.257  1.00  0.00    -0.275 OA
ATOM     30  H   UNL     1       0.168  -2.203   2.300  1.00  0.00     0.169 HD
ENDBRANCH  21  26
ENDBRANCH   9  20
ENDBRANCH   5   8
ENDBRANCH   3   4
ENDBRANCH   2   3
ENDBRANCH   1   2
BRANCH   1  31
ATOM     31  C   UNL     1       1.049 -11.055 -10.484  1.00  0.00     0.002 C 
BRANCH  31  32
ATOM     32  C   UNL     1       1.991 -10.024 -11.123  1.00  0.00     0.021 C 
BRANCH  32  33
ATOM     33  C   UNL     1       3.173 -10.636 -11.857  1.00  0.00     0.116 C 
BRANCH  33  34
ATOM     34  N   UNL     1       2.777 -11.394 -13.047  1.00  0.00    -0.352 N 
ATOM     35  C   UNL     1       3.584 -12.111 -13.912  1.00  0.00     0.251 C 
ATOM     36  H   UNL     1       1.816 -11.393 -13.258  1.00  0.00     0.163 HD
ATOM     37  O   UNL     1       3.216 -12.394 -15.045  1.00  0.00    -0.269 OA
BRANCH  35  38
ATOM     38  C   UNL     1       4.908 -12.540 -13.434  1.00  0.00     0.039 A 
ATOM     39  C   UNL     1       6.049 -12.492 -14.241  1.00  0.00     0.014 A 
ATOM     40  C   UNL     1       4.988 -12.957 -12.111  1.00  0.00     0.014 A 
ATOM     41  C   UNL     1       7.284 -12.795 -13.670  1.00  0.00     0.010 A 
ATOM     42  C   UNL     1       6.209 -13.038 -11.507  1.00  0.00     0.010 A 
ATOM     43  C   UNL     1       7.353 -13.051 -12.292  1.00  0.00    -0.014 A 
BRANCH  43  44
ATOM     44  C   UNL     1       8.621 -13.270 -11.610  1.00  0.00     0.031 A 
ATOM     45  C   UNL     1       9.612 -12.172 -11.758  1.00  0.00     0.074 A 
ATOM     46  C   UNL     1       8.777 -14.266 -10.709  1.00  0.00     0.049 A 
ATOM     47  N   UNL     1      10.778 -12.228 -12.311  1.00  0.00    -0.248 NA
ATOM     48  C   UNL     1       9.215 -10.817 -11.344  1.00  0.00     0.031 C 
ATOM     49  C   UNL     1       7.774 -15.228 -10.227  1.00  0.00     0.029 A 
ATOM     50  N   UNL     1       9.856 -14.561  -9.937  1.00  0.00    -0.354 N 
ATOM     51  C   UNL     1      11.344 -10.966 -12.145  1.00  0.00     0.074 A 
ATOM     52  C   UNL     1      10.279 -10.101 -11.713  1.00  0.00     0.031 C 
ATOM     53  C   UNL     1       8.215 -15.823  -9.098  1.00  0.00     0.029 A 
ATOM     54  C   UNL     1       9.593 -15.431  -8.886  1.00  0.00     0.049 A 
ATOM     55  H   UNL     1      10.751 -14.189 -10.108  1.00  0.00     0.167 HD
ATOM     56  C   UNL     1      12.697 -10.806 -12.134  1.00  0.00     0.037 A 
ATOM     57  C   UNL     1      10.445 -15.793  -7.896  1.00  0.00     0.037 A 
ATOM     58  C   UNL     1      13.354 -11.952 -12.716  1.00  0.00     0.049 A 
ATOM     59  C   UNL     1      11.817 -15.492  -8.371  1.00  0.00     0.074 A 
ATOM     60  C   UNL     1      13.325 -12.564 -13.954  1.00  0.00     0.029 A 
ATOM     61  N   UNL     1      13.906 -12.877 -11.864  1.00  0.00    -0.354 N 
ATOM     62  N   UNL     1      12.389 -16.115  -9.365  1.00  0.00    -0.248 NA
ATOM     63  C   UNL     1      12.366 -14.183  -8.055  1.00  0.00     0.031 C 
ATOM     64  C   UNL     1      13.391 -13.963 -13.677  1.00  0.00     0.029 A 
ATOM     65  C   UNL     1      13.527 -14.120 -12.297  1.00  0.00     0.049 A 
ATOM     66  H   UNL     1      14.473 -12.681 -11.083  1.00  0.00     0.167 HD
ATOM     67  C   UNL     1      13.058 -15.122 -10.065  1.00  0.00     0.074 A 
ATOM     68  C   UNL     1      13.083 -13.973  -9.162  1.00  0.00     0.031 C 
ATOM     69  C   UNL     1      13.267 -15.231 -11.411  1.00  0.00     0.037 A 
BRANCH  56  70
ATOM     70  C   UNL     1      13.439  -9.825 -11.250  1.00  0.00     0.064 A 
ATOM     71  C   UNL     1      14.841  -9.727 -11.373  1.00  0.00     0.173 A 
ATOM     72  C   UNL     1      12.893  -9.224 -10.094  1.00  0.00     0.173 A 
ATOM     73  F   UNL     1      15.474 -10.259 -12.430  1.00  0.00    -0.203 F 
ATOM     74  C   UNL     1      15.637  -9.175 -10.366  1.00  0.00     0.198 A 
ATOM     75  C   UNL     1      13.688  -8.627  -9.116  1.00  0.00     0.198 A 
ATOM     76  F   UNL     1      11.591  -9.282  -9.799  1.00  0.00    -0.203 F 
ATOM     77  F   UNL     1      16.972  -9.238 -10.464  1.00  0.00    -0.200 F 
ATOM     78  C   UNL     1      15.060  -8.637  -9.231  1.00  0.00     0.200 A 
ATOM     79  F   UNL     1      13.108  -8.121  -8.018  1.00  0.00    -0.200 F 
ATOM     80  F   UNL     1      15.821  -8.176  -8.231  1.00  0.00    -0.200 F 
ENDBRANCH  56  70
BRANCH  57  81
ATOM     81  C   UNL     1      10.124 -16.090  -6.482  1.00  0.00     0.064 A 
ATOM     82  C   UNL     1      11.015 -16.801  -5.663  1.00  0.00     0.173 A 
ATOM     83  C   UNL     1       9.052 -15.447  -5.833  1.00  0.00     0.173 A 
ATOM     84  F   UNL     1      12.090 -17.398  -6.198  1.00  0.00    -0.203 F 
ATOM     85  C   UNL     1      10.851 -16.852  -4.274  1.00  0.00     0.198 A 
ATOM     86  C   UNL     1       8.886 -15.502  -4.448  1.00  0.00     0.198 A 
ATOM     87  F   UNL     1       8.198 -14.673  -6.520  1.00  0.00    -0.203 F 
ATOM     88  F   UNL     1      11.753 -17.493  -3.517  1.00  0.00    -0.200 F 
ATOM     89  C   UNL     1       9.792 -16.196  -3.667  1.00  0.00     0.200 A 
ATOM     90  F   UNL     1       7.882 -14.826  -3.871  1.00  0.00    -0.200 F 
ATOM     91  F   UNL     1       9.669 -16.194  -2.333  1.00  0.00    -0.200 F 
ENDBRANCH  57  81
BRANCH  69  92
ATOM     92  C   UNL     1      12.981 -16.561 -12.056  1.00  0.00     0.064 A 
ATOM     93  C   UNL     1      11.703 -17.145 -12.126  1.00  0.00     0.173 A 
ATOM     94  C   UNL     1      14.014 -17.200 -12.752  1.00  0.00     0.173 A 
ATOM     95  F   UNL     1      10.641 -16.550 -11.574  1.00  0.00    -0.203 F 
ATOM     96  C   UNL     1      11.483 -18.333 -12.822  1.00  0.00     0.198 A 
ATOM     97  C   UNL     1      13.785 -18.367 -13.477  1.00  0.00     0.198 A 
ATOM     98  F   UNL     1      15.243 -16.661 -12.771  1.00  0.00    -0.203 F 
ATOM     99  F   UNL     1      10.255 -18.872 -12.861  1.00  0.00    -0.200 F 
ATOM    100  C   UNL     1      12.523 -18.939 -13.503  1.00  0.00     0.200 A 
ATOM    101  F   UNL     1      14.785 -18.922 -14.176  1.00  0.00    -0.200 F 
ATOM    102  F   UNL     1      12.306 -20.059 -14.206  1.00  0.00    -0.200 F 
ENDBRANCH  69  92
ENDBRANCH  43  44
ENDBRANCH  35  38
ENDBRANCH  33  34
ENDBRANCH  32  33
ENDBRANCH  31  32
ENDBRANCH   1  31
TORSDOF 15
