REMARK SMILES CC(C)(C)c1ccc(C(=O)C[C@H](C(=O)NCCCCCCNC(=O)c2ccc(-c3c4nc(c(-c5c(F)c(F)c(F)c(F)c5F)c5ccc([nH]5)c(-c5c(F)c(F)c(F)c(F)c5F)c5nc(c(-c6c(F)c(F)c(F)c(F)c6F)c6ccc3[nH]6)C=C5)C=C4)cc2)[NH+]2CCCC2)cc1
REMARK SMILES IDX 17 1 16 2 15 3 13 4 14 5 12 7 11 8 9 9 10 10 8 11 5 12 6 13
REMARK SMILES IDX 94 14 7 15 93 16 2 17 1 18 3 19 4 20 88 21 89 22 92 23 90 25
REMARK SMILES IDX 91 26 18 27 19 28 20 29 21 30 22 31 23 32 24 34 25 35 26 36
REMARK SMILES IDX 87 37 27 38 86 39 28 40 29 41 30 42 80 43 31 44 85 45 79 46
REMARK SMILES IDX 81 47 32 48 84 49 78 50 77 51 33 53 65 54 45 55 64 56 46 57
REMARK SMILES IDX 49 58 63 59 82 60 47 61 48 62 62 64 83 65 50 66 34 67 35 68
REMARK SMILES IDX 43 69 36 70 37 71 41 72 44 73 38 74 39 75 42 76 40 77 66 78
REMARK SMILES IDX 67 79 75 80 68 81 69 82 73 83 76 84 70 85 71 86 74 87 72 88
REMARK SMILES IDX 51 89 52 90 60 91 53 92 54 93 58 94 61 95 55 96 56 97 59 98
REMARK SMILES IDX 57 99
REMARK H PARENT 15 6 88 24 22 33 81 52 49 63
REMARK Flexibility Score: inf
ROOT
ATOM      1  C   UNL     1       6.665  -4.549   0.074  1.00  0.00     0.021 C 
ENDROOT
BRANCH   1   2
ATOM      2  C   UNL     1       6.333  -5.684  -0.861  1.00  0.00     0.116 C 
BRANCH   2   3
ATOM      3  N   UNL     1       5.126  -6.410  -0.577  1.00  0.00    -0.351 N 
ATOM      4  C   UNL     1       4.034  -6.596  -1.359  1.00  0.00     0.278 C 
ATOM      5  O   UNL     1       3.305  -7.555  -1.065  1.00  0.00    -0.268 OA
ATOM      6  H   UNL     1       5.086  -6.832   0.312  1.00  0.00     0.163 HD
BRANCH   4   7
ATOM      7  C   UNL     1       3.619  -5.651  -2.500  1.00  0.00     0.281 C 
BRANCH   7   8
ATOM      8  C   UNL     1       3.054  -4.260  -2.110  1.00  0.00     0.156 C 
BRANCH   8   9
ATOM      9  C   UNL     1       3.357  -3.505  -0.810  1.00  0.00     0.169 C 
ATOM     10  O   UNL     1       3.792  -2.350  -0.889  1.00  0.00    -0.294 OA
BRANCH   9  11
ATOM     11  C   UNL     1       3.146  -4.061   0.574  1.00  0.00     0.018 A 
ATOM     12  C   UNL     1       3.654  -5.391   3.034  1.00  0.00    -0.043 A 
ATOM     13  C   UNL     1       3.987  -4.040   2.866  1.00  0.00     0.005 A 
ATOM     14  C   UNL     1       2.813  -5.945   2.051  1.00  0.00     0.005 A 
ATOM     15  C   UNL     1       3.753  -3.389   1.646  1.00  0.00     0.012 A 
ATOM     16  C   UNL     1       2.529  -5.272   0.845  1.00  0.00     0.012 A 
BRANCH  12  17
ATOM     17  C   UNL     1       4.222  -6.216   4.213  1.00  0.00    -0.013 C 
ATOM     18  C   UNL     1       4.135  -7.740   3.962  1.00  0.00     0.016 C 
ATOM     19  C   UNL     1       3.472  -5.869   5.506  1.00  0.00     0.016 C 
ATOM     20  C   UNL     1       5.724  -5.938   4.473  1.00  0.00     0.016 C 
ENDBRANCH  12  17
ENDBRANCH   9  11
ENDBRANCH   8   9
ENDBRANCH   7   8
BRANCH   7  21
ATOM     21  N   UNL     1       4.389  -5.787  -3.776  1.00  0.00    -0.324 N 
ATOM     22  C   UNL     1       4.695  -7.163  -4.184  1.00  0.00     0.263 C 
ATOM     23  C   UNL     1       5.582  -4.993  -4.052  1.00  0.00     0.263 C 
ATOM     24  H   UNL     1       3.653  -5.351  -4.332  1.00  0.00     0.348 HD
ATOM     25  C   UNL     1       6.164  -7.349  -3.858  1.00  0.00     0.067 C 
ATOM     26  C   UNL     1       6.765  -5.976  -4.117  1.00  0.00     0.067 C 
ENDBRANCH   7  21
ENDBRANCH   4   7
ENDBRANCH   2   3
ENDBRANCH   1   2
BRANCH   1  27
ATOM     27  C   UNL     1       6.982  -5.058   1.464  1.00  0.00     0.002 C 
BRANCH  27  28
ATOM     28  C   UNL     1       8.476  -5.173   1.734  1.00  0.00     0.002 C 
BRANCH  28  29
ATOM     29  C   UNL     1       9.197  -3.825   1.778  1.00  0.00     0.021 C 
BRANCH  29  30
ATOM     30  C   UNL     1       8.517  -2.776   2.651  1.00  0.00     0.116 C 
BRANCH  30  31
ATOM     31  N   UNL     1       8.318  -3.251   4.016  1.00  0.00    -0.352 N 
ATOM     32  C   UNL     1       8.808  -2.749   5.195  1.00  0.00     0.251 C 
ATOM     33  H   UNL     1       7.747  -4.048   4.104  1.00  0.00     0.163 HD
ATOM     34  O   UNL     1       8.669  -3.334   6.253  1.00  0.00    -0.269 OA
BRANCH  32  35
ATOM     35  C   UNL     1       9.555  -1.487   5.118  1.00  0.00     0.039 A 
ATOM     36  C   UNL     1      10.900  -1.481   5.487  1.00  0.00     0.014 A 
ATOM     37  C   UNL     1       8.950  -0.382   4.517  1.00  0.00     0.014 A 
ATOM     38  C   UNL     1      11.674  -0.367   5.179  1.00  0.00     0.010 A 
ATOM     39  C   UNL     1       9.745   0.681   4.126  1.00  0.00     0.010 A 
ATOM     40  C   UNL     1      11.110   0.698   4.458  1.00  0.00    -0.014 A 
BRANCH  40  41
ATOM     41  C   UNL     1      11.919   1.866   4.053  1.00  0.00     0.031 A 
ATOM     42  C   UNL     1      11.565   3.217   4.600  1.00  0.00     0.074 A 
ATOM     43  C   UNL     1      12.893   1.717   3.136  1.00  0.00     0.049 A 
ATOM     44  N   UNL     1      12.061   4.388   4.302  1.00  0.00    -0.248 NA
ATOM     45  C   UNL     1      10.468   3.261   5.583  1.00  0.00     0.031 C 
ATOM     46  C   UNL     1      13.267   0.456   2.491  1.00  0.00     0.029 A 
ATOM     47  N   UNL     1      13.738   2.639   2.575  1.00  0.00    -0.354 N 
ATOM     48  C   UNL     1      11.319   5.303   5.035  1.00  0.00     0.074 A 
ATOM     49  C   UNL     1      10.297   4.564   5.738  1.00  0.00     0.031 C 
ATOM     50  C   UNL     1      14.284   0.680   1.643  1.00  0.00     0.029 A 
ATOM     51  C   UNL     1      14.611   2.102   1.661  1.00  0.00     0.049 A 
ATOM     52  H   UNL     1      13.722   3.595   2.807  1.00  0.00     0.167 HD
ATOM     53  C   UNL     1      11.500   6.640   5.136  1.00  0.00     0.037 A 
ATOM     54  C   UNL     1      15.566   2.700   0.924  1.00  0.00     0.037 A 
ATOM     55  C   UNL     1      12.550   7.351   4.462  1.00  0.00     0.049 A 
ATOM     56  C   UNL     1      15.774   4.181   1.087  1.00  0.00     0.074 A 
ATOM     57  C   UNL     1      12.875   8.692   4.538  1.00  0.00     0.029 A 
ATOM     58  N   UNL     1      13.455   6.765   3.587  1.00  0.00    -0.354 N 
ATOM     59  N   UNL     1      15.117   5.031   1.840  1.00  0.00    -0.248 NA
ATOM     60  C   UNL     1      16.863   4.786   0.309  1.00  0.00     0.031 C 
ATOM     61  C   UNL     1      13.956   8.925   3.682  1.00  0.00     0.029 A 
ATOM     62  C   UNL     1      14.335   7.721   3.108  1.00  0.00     0.049 A 
ATOM     63  H   UNL     1      13.469   5.811   3.343  1.00  0.00     0.167 HD
ATOM     64  C   UNL     1      15.729   6.262   1.652  1.00  0.00     0.074 A 
ATOM     65  C   UNL     1      16.820   6.044   0.723  1.00  0.00     0.031 C 
ATOM     66  C   UNL     1      15.420   7.465   2.196  1.00  0.00     0.037 A 
BRANCH  53  67
ATOM     67  C   UNL     1      10.550   7.401   6.015  1.00  0.00     0.064 A 
ATOM     68  C   UNL     1      10.544   7.235   7.409  1.00  0.00     0.173 A 
ATOM     69  C   UNL     1       9.637   8.309   5.460  1.00  0.00     0.173 A 
ATOM     70  F   UNL     1      11.385   6.365   7.990  1.00  0.00    -0.203 F 
ATOM     71  C   UNL     1       9.635   7.922   8.210  1.00  0.00     0.198 A 
ATOM     72  C   UNL     1       8.752   9.019   6.267  1.00  0.00     0.198 A 
ATOM     73  F   UNL     1       9.599   8.506   4.134  1.00  0.00    -0.203 F 
ATOM     74  F   UNL     1       9.608   7.699   9.531  1.00  0.00    -0.200 F 
ATOM     75  C   UNL     1       8.745   8.818   7.639  1.00  0.00     0.200 A 
ATOM     76  F   UNL     1       7.898   9.893   5.716  1.00  0.00    -0.200 F 
ATOM     77  F   UNL     1       7.873   9.481   8.412  1.00  0.00    -0.200 F 
ENDBRANCH  53  67
BRANCH  54  78
ATOM     78  C   UNL     1      16.422   1.894   0.015  1.00  0.00     0.064 A 
ATOM     79  C   UNL     1      17.776   1.679   0.310  1.00  0.00     0.173 A 
ATOM     80  C   UNL     1      15.912   1.317  -1.156  1.00  0.00     0.173 A 
ATOM     81  F   UNL     1      18.315   2.221   1.412  1.00  0.00    -0.203 F 
ATOM     82  C   UNL     1      18.591   0.936  -0.542  1.00  0.00     0.198 A 
ATOM     83  C   UNL     1      16.721   0.552  -1.994  1.00  0.00     0.198 A 
ATOM     84  F   UNL     1      14.621   1.483  -1.480  1.00  0.00    -0.203 F 
ATOM     85  F   UNL     1      19.891   0.782  -0.256  1.00  0.00    -0.200 F 
ATOM     86  C   UNL     1      18.062   0.369  -1.691  1.00  0.00     0.200 A 
ATOM     87  F   UNL     1      16.203  -0.008  -3.095  1.00  0.00    -0.200 F 
ATOM     88  F   UNL     1      18.845  -0.349  -2.508  1.00  0.00    -0.200 F 
ENDBRANCH  54  78
BRANCH  66  89
ATOM     89  C   UNL     1      16.299   8.624   1.833  1.00  0.00     0.064 A 
ATOM     90  C   UNL     1      16.251   9.214   0.562  1.00  0.00     0.173 A 
ATOM     91  C   UNL     1      17.163   9.180   2.788  1.00  0.00     0.173 A 
ATOM     92  F   UNL     1      15.450   8.708  -0.387  1.00  0.00    -0.203 F 
ATOM     93  C   UNL     1      17.056  10.305   0.253  1.00  0.00     0.198 A 
ATOM     94  C   UNL     1      17.944  10.290   2.485  1.00  0.00     0.198 A 
ATOM     95  F   UNL     1      17.238   8.654   4.021  1.00  0.00    -0.203 F 
ATOM     96  F   UNL     1      17.029  10.826  -0.982  1.00  0.00    -0.200 F 
ATOM     97  C   UNL     1      17.896  10.847   1.216  1.00  0.00     0.200 A 
ATOM     98  F   UNL     1      18.744  10.821   3.420  1.00  0.00    -0.200 F 
ATOM     99  F   UNL     1      18.663  11.904   0.918  1.00  0.00    -0.200 F 
ENDBRANCH  66  89
ENDBRANCH  40  41
ENDBRANCH  32  35
ENDBRANCH  30  31
ENDBRANCH  29  30
ENDBRANCH  28  29
ENDBRANCH  27  28
ENDBRANCH   1  27
TORSDOF 18
