REMARK SMILES O=C(NCCCCCCNC(=O)c1cccc2nc(Cl)c(Cl)nc12)c1ccc(-c2c3nc(c(-c4c(F)c(F)c(F)c(F)c4F)c4ccc([nH]4)c(-c4c(F)c(F)c(F)c(F)c4F)c4nc(c(-c5c(F)c(F)c(F)c(F)c5F)c5ccc2[nH]5)C=C4)C=C3)cc1
REMARK SMILES IDX 5 1 4 2 3 3 1 4 2 5 25 7 26 8 87 9 27 10 86 11 28 12 29 13
REMARK SMILES IDX 30 14 80 15 31 16 85 17 79 18 81 19 32 20 84 21 78 22 77 23
REMARK SMILES IDX 33 25 65 26 45 27 64 28 46 29 49 30 63 31 82 32 47 33 48 34
REMARK SMILES IDX 62 36 83 37 50 38 34 39 35 40 43 41 36 42 37 43 41 44 44 45
REMARK SMILES IDX 38 46 39 47 42 48 40 49 66 50 67 51 75 52 68 53 69 54 73 55
REMARK SMILES IDX 76 56 70 57 71 58 74 59 72 60 51 61 52 62 60 63 53 64 54 65
REMARK SMILES IDX 58 66 61 67 55 68 56 69 59 70 57 71 6 72 7 73 8 74 9 75
REMARK SMILES IDX 10 76 11 77 12 79 13 80 14 81 24 82 15 83 17 84 23 85 16 86
REMARK SMILES IDX 18 87 21 88 19 89 22 90 20 91
REMARK H PARENT 3 6 81 24 49 35 10 78
REMARK Flexibility Score: inf
ROOT
ATOM      1  C   UNL     1       4.753   2.159  -1.822  1.00  0.00     0.021 C 
ENDROOT
BRANCH   1   2
ATOM      2  C   UNL     1       4.490   1.297  -0.590  1.00  0.00     0.116 C 
BRANCH   2   3
ATOM      3  N   UNL     1       3.080   1.181  -0.269  1.00  0.00    -0.352 N 
ATOM      4  O   UNL     1       1.119   0.184   0.184  1.00  0.00    -0.269 OA
ATOM      5  C   UNL     1       2.337   0.077   0.065  1.00  0.00     0.251 C 
ATOM      6  H   UNL     1       2.578   2.027  -0.296  1.00  0.00     0.163 HD
BRANCH   5   7
ATOM      7  C   UNL     1       2.970  -1.248   0.267  1.00  0.00     0.039 A 
ATOM      8  C   UNL     1       2.294  -2.380  -0.202  1.00  0.00     0.014 A 
ATOM      9  C   UNL     1       4.168  -1.403   0.972  1.00  0.00     0.014 A 
ATOM     10  C   UNL     1       2.825  -3.655   0.008  1.00  0.00     0.010 A 
ATOM     11  C   UNL     1       4.727  -2.672   1.136  1.00  0.00     0.010 A 
ATOM     12  C   UNL     1       4.052  -3.811   0.671  1.00  0.00    -0.014 A 
BRANCH  12  13
ATOM     13  C   UNL     1       4.603  -5.165   0.933  1.00  0.00     0.031 A 
ATOM     14  C   UNL     1       4.642  -5.702   2.337  1.00  0.00     0.074 A 
ATOM     15  C   UNL     1       5.074  -5.911  -0.084  1.00  0.00     0.049 A 
ATOM     16  N   UNL     1       5.106  -6.846   2.774  1.00  0.00    -0.248 NA
ATOM     17  C   UNL     1       4.101  -4.832   3.394  1.00  0.00     0.031 C 
ATOM     18  C   UNL     1       5.109  -5.500  -1.487  1.00  0.00     0.029 A 
ATOM     19  N   UNL     1       5.611  -7.175  -0.092  1.00  0.00    -0.354 N 
ATOM     20  C   UNL     1       4.925  -6.827   4.150  1.00  0.00     0.074 A 
ATOM     21  C   UNL     1       4.345  -5.544   4.484  1.00  0.00     0.031 C 
ATOM     22  C   UNL     1       5.610  -6.504  -2.225  1.00  0.00     0.029 A 
ATOM     23  C   UNL     1       5.955  -7.618  -1.345  1.00  0.00     0.049 A 
ATOM     24  H   UNL     1       5.737  -7.712   0.723  1.00  0.00     0.167 HD
ATOM     25  C   UNL     1       5.198  -7.799   5.052  1.00  0.00     0.037 A 
ATOM     26  C   UNL     1       6.483  -8.793  -1.740  1.00  0.00     0.037 A 
ATOM     27  C   UNL     1       5.737  -9.090   4.722  1.00  0.00     0.049 A 
ATOM     28  C   UNL     1       6.771  -9.859  -0.718  1.00  0.00     0.074 A 
ATOM     29  C   UNL     1       6.014 -10.151   5.566  1.00  0.00     0.029 A 
ATOM     30  N   UNL     1       6.071  -9.499   3.440  1.00  0.00    -0.354 N 
ATOM     31  N   UNL     1       6.574  -9.835   0.577  1.00  0.00    -0.248 NA
ATOM     32  C   UNL     1       7.354 -11.115  -1.214  1.00  0.00     0.031 C 
ATOM     33  C   UNL     1       6.536 -11.197   4.798  1.00  0.00     0.029 A 
ATOM     34  C   UNL     1       6.556 -10.796   3.472  1.00  0.00     0.049 A 
ATOM     35  H   UNL     1       5.976  -8.950   2.628  1.00  0.00     0.167 HD
ATOM     36  C   UNL     1       6.986 -11.074   1.047  1.00  0.00     0.074 A 
ATOM     37  C   UNL     1       7.438 -11.831  -0.101  1.00  0.00     0.031 C 
ATOM     38  C   UNL     1       6.989 -11.540   2.319  1.00  0.00     0.037 A 
BRANCH  25  39
ATOM     39  C   UNL     1       4.901  -7.511   6.492  1.00  0.00     0.064 A 
ATOM     40  C   UNL     1       3.586  -7.513   6.979  1.00  0.00     0.173 A 
ATOM     41  C   UNL     1       5.943  -7.288   7.404  1.00  0.00     0.173 A 
ATOM     42  F   UNL     1       2.557  -7.710   6.142  1.00  0.00    -0.203 F 
ATOM     43  C   UNL     1       3.324  -7.287   8.328  1.00  0.00     0.198 A 
ATOM     44  C   UNL     1       5.678  -7.084   8.756  1.00  0.00     0.198 A 
ATOM     45  F   UNL     1       7.218  -7.281   6.987  1.00  0.00    -0.203 F 
ATOM     46  F   UNL     1       2.058  -7.264   8.767  1.00  0.00    -0.200 F 
ATOM     47  C   UNL     1       4.369  -7.081   9.215  1.00  0.00     0.200 A 
ATOM     48  F   UNL     1       6.689  -6.894   9.615  1.00  0.00    -0.200 F 
ATOM     49  F   UNL     1       4.115  -6.874  10.515  1.00  0.00    -0.200 F 
ENDBRANCH  25  39
BRANCH  26  50
ATOM     50  C   UNL     1       6.733  -9.039  -3.182  1.00  0.00     0.064 A 
ATOM     51  C   UNL     1       5.905  -9.902  -3.913  1.00  0.00     0.173 A 
ATOM     52  C   UNL     1       7.789  -8.414  -3.858  1.00  0.00     0.173 A 
ATOM     53  F   UNL     1       4.896 -10.538  -3.300  1.00  0.00    -0.203 F 
ATOM     54  C   UNL     1       6.128 -10.135  -5.267  1.00  0.00     0.198 A 
ATOM     55  C   UNL     1       8.000  -8.633  -5.218  1.00  0.00     0.198 A 
ATOM     56  F   UNL     1       8.607  -7.580  -3.200  1.00  0.00    -0.203 F 
ATOM     57  F   UNL     1       5.339 -10.986  -5.937  1.00  0.00    -0.200 F 
ATOM     58  C   UNL     1       7.172  -9.496  -5.920  1.00  0.00     0.200 A 
ATOM     59  F   UNL     1       9.004  -8.008  -5.848  1.00  0.00    -0.200 F 
ATOM     60  F   UNL     1       7.383  -9.717  -7.225  1.00  0.00    -0.200 F 
ENDBRANCH  26  50
BRANCH  38  61
ATOM     61  C   UNL     1       7.472 -12.939   2.545  1.00  0.00     0.064 A 
ATOM     62  C   UNL     1       8.840 -13.244   2.551  1.00  0.00     0.173 A 
ATOM     63  C   UNL     1       6.563 -13.966   2.836  1.00  0.00     0.173 A 
ATOM     64  F   UNL     1       9.744 -12.295   2.266  1.00  0.00    -0.203 F 
ATOM     65  C   UNL     1       9.281 -14.533   2.837  1.00  0.00     0.198 A 
ATOM     66  C   UNL     1       7.009 -15.249   3.140  1.00  0.00     0.198 A 
ATOM     67  F   UNL     1       5.245 -13.719   2.847  1.00  0.00    -0.203 F 
ATOM     68  F   UNL     1      10.593 -14.810   2.819  1.00  0.00    -0.200 F 
ATOM     69  C   UNL     1       8.367 -15.532   3.139  1.00  0.00     0.200 A 
ATOM     70  F   UNL     1       6.125 -16.211   3.440  1.00  0.00    -0.200 F 
ATOM     71  F   UNL     1       8.795 -16.768   3.428  1.00  0.00    -0.200 F 
ENDBRANCH  38  61
ENDBRANCH  12  13
ENDBRANCH   5   7
ENDBRANCH   2   3
ENDBRANCH   1   2
BRANCH   1  72
ATOM     72  C   UNL     1       4.291   3.616  -1.732  1.00  0.00     0.002 C 
BRANCH  72  73
ATOM     73  C   UNL     1       4.813   4.419  -0.538  1.00  0.00     0.002 C 
BRANCH  73  74
ATOM     74  C   UNL     1       6.334   4.449  -0.351  1.00  0.00     0.021 C 
BRANCH  74  75
ATOM     75  C   UNL     1       7.148   4.901  -1.562  1.00  0.00     0.116 C 
BRANCH  75  76
ATOM     76  N   UNL     1       6.803   6.240  -2.003  1.00  0.00    -0.352 N 
ATOM     77  C   UNL     1       7.629   7.284  -2.336  1.00  0.00     0.253 C 
ATOM     78  H   UNL     1       5.839   6.426  -2.072  1.00  0.00     0.163 HD
ATOM     79  O   UNL     1       7.159   8.344  -2.737  1.00  0.00    -0.269 OA
BRANCH  77  80
ATOM     80  C   UNL     1       9.090   7.106  -2.291  1.00  0.00     0.067 A 
ATOM     81  C   UNL     1       9.674   6.223  -3.211  1.00  0.00     0.016 A 
ATOM     82  C   UNL     1       9.850   7.870  -1.397  1.00  0.00     0.103 A 
ATOM     83  C   UNL     1      11.051   6.072  -3.229  1.00  0.00     0.003 A 
ATOM     84  C   UNL     1      11.261   7.716  -1.448  1.00  0.00     0.091 A 
ATOM     85  N   UNL     1       9.294   8.723  -0.497  1.00  0.00    -0.230 NA
ATOM     86  C   UNL     1      11.829   6.821  -2.348  1.00  0.00     0.031 A 
ATOM     87  N   UNL     1      12.088   8.412  -0.646  1.00  0.00    -0.231 NA
ATOM     88  C   UNL     1      10.135   9.431   0.289  1.00  0.00     0.167 A 
ATOM     89  C   UNL     1      11.507   9.280   0.214  1.00  0.00     0.167 A 
ATOM     90  Cl  UNL     1       9.341  10.500   1.371  1.00  0.00    -0.059 Cl
ATOM     91  Cl  UNL     1      12.629  10.144   1.184  1.00  0.00    -0.059 Cl
ENDBRANCH  77  80
ENDBRANCH  75  76
ENDBRANCH  74  75
ENDBRANCH  73  74
ENDBRANCH  72  73
ENDBRANCH   1  72
TORSDOF 13
