REMARK SMILES C[C@H](c1ccccc1F)N(C)c1cccc(F)c1C(=O)NCCCCCCNC(=O)c1ccc(-c2c3nc(c(-c4c(F)c(F)c(F)c(F)c4F)c4ccc([nH]4)c(-c4c(F)c(F)c(F)c(F)c4F)c4nc(c(-c5c(F)c(F)c(F)c(F)c5F)c5ccc2[nH]5)C=C4)C=C3)cc1
REMARK SMILES IDX 24 1 23 2 22 3 21 4 19 5 20 6 18 8 12 9 13 10 14 11 16 12
REMARK SMILES IDX 15 13 17 14 10 15 11 16 2 17 1 18 3 19 4 20 8 21 5 22 7 23
REMARK SMILES IDX 9 24 6 25 25 26 26 27 27 28 28 29 29 30 30 32 31 33 32 34
REMARK SMILES IDX 93 35 33 36 92 37 34 38 35 39 36 40 86 41 37 42 91 43 85 44
REMARK SMILES IDX 87 45 38 46 90 47 84 48 83 49 39 51 71 52 51 53 70 54 52 55
REMARK SMILES IDX 55 56 69 57 88 58 53 59 54 60 68 62 89 63 56 64 40 65 41 66
REMARK SMILES IDX 49 67 42 68 43 69 47 70 50 71 44 72 45 73 48 74 46 75 72 76
REMARK SMILES IDX 73 77 81 78 74 79 75 80 79 81 82 82 76 83 77 84 80 85 78 86
REMARK SMILES IDX 57 87 58 88 66 89 59 90 60 91 64 92 67 93 61 94 62 95 65 96
REMARK SMILES IDX 63 97
REMARK H PARENT 21 7 28 31 87 50 55 61
REMARK Flexibility Score: inf
ROOT
ATOM      1  C   UNL     1      -7.134   1.674  -4.418  1.00  0.00     0.002 C 
ENDROOT
BRANCH   1   2
ATOM      2  C   UNL     1      -6.662   0.577  -3.461  1.00  0.00     0.021 C 
BRANCH   2   3
ATOM      3  C   UNL     1      -5.252   0.030  -3.667  1.00  0.00     0.116 C 
BRANCH   3   4
ATOM      4  N   UNL     1      -4.185   1.010  -3.562  1.00  0.00    -0.352 N 
ATOM      5  C   UNL     1      -2.875   0.867  -3.129  1.00  0.00     0.256 C 
ATOM      6  O   UNL     1      -2.110   1.805  -3.346  1.00  0.00    -0.269 OA
ATOM      7  H   UNL     1      -4.431   1.922  -3.842  1.00  0.00     0.163 HD
BRANCH   5   8
ATOM      8  C   UNL     1      -2.422  -0.344  -2.383  1.00  0.00     0.098 A 
ATOM      9  C   UNL     1      -1.649  -0.277  -1.196  1.00  0.00     0.053 A 
ATOM     10  C   UNL     1      -1.469  -1.482  -0.477  1.00  0.00     0.027 A 
ATOM     11  C   UNL     1      -1.903  -2.717  -0.951  1.00  0.00     0.005 A 
ATOM     12  C   UNL     1      -2.743  -1.609  -2.900  1.00  0.00     0.138 A 
ATOM     13  C   UNL     1      -2.507  -2.784  -2.192  1.00  0.00     0.040 A 
ATOM     14  F   UNL     1      -3.285  -1.738  -4.121  1.00  0.00    -0.206 F 
BRANCH   9  15
ATOM     15  N   UNL     1      -0.996   0.852  -0.704  1.00  0.00    -0.367 N 
ATOM     16  C   UNL     1      -1.770   1.973  -0.199  1.00  0.00     0.144 C 
BRANCH  15  17
ATOM     17  C   UNL     1       0.480   0.999  -0.867  1.00  0.00     0.112 C 
ATOM     18  C   UNL     1       0.879   1.001  -2.347  1.00  0.00     0.036 C 
BRANCH  17  19
ATOM     19  C   UNL     1       1.235   0.034   0.044  1.00  0.00     0.010 A 
ATOM     20  C   UNL     1       1.053   0.141   1.440  1.00  0.00     0.009 A 
ATOM     21  C   UNL     1       2.061  -0.998  -0.418  1.00  0.00     0.128 A 
ATOM     22  C   UNL     1       1.629  -0.780   2.320  1.00  0.00     0.001 A 
ATOM     23  C   UNL     1       2.647  -1.913   0.458  1.00  0.00     0.039 A 
ATOM     24  F   UNL     1       2.305  -1.161  -1.725  1.00  0.00    -0.207 F 
ATOM     25  C   UNL     1       2.421  -1.813   1.828  1.00  0.00     0.003 A 
ENDBRANCH  17  19
ENDBRANCH  15  17
ENDBRANCH   9  15
ENDBRANCH   5   8
ENDBRANCH   3   4
ENDBRANCH   2   3
ENDBRANCH   1   2
BRANCH   1  26
ATOM     26  C   UNL     1      -7.002   1.393  -5.917  1.00  0.00     0.002 C 
BRANCH  26  27
ATOM     27  C   UNL     1      -7.617   0.089  -6.427  1.00  0.00     0.021 C 
BRANCH  27  28
ATOM     28  C   UNL     1      -9.084  -0.136  -6.080  1.00  0.00     0.116 C 
BRANCH  28  29
ATOM     29  N   UNL     1      -9.965   0.871  -6.648  1.00  0.00    -0.352 N 
ATOM     30  C   UNL     1     -11.098   0.714  -7.410  1.00  0.00     0.251 C 
ATOM     31  H   UNL     1      -9.713   1.803  -6.459  1.00  0.00     0.163 HD
ATOM     32  O   UNL     1     -11.637   1.687  -7.924  1.00  0.00    -0.269 OA
BRANCH  30  33
ATOM     33  C   UNL     1     -11.662  -0.637  -7.632  1.00  0.00     0.039 A 
ATOM     34  C   UNL     1     -12.072  -0.994  -8.920  1.00  0.00     0.014 A 
ATOM     35  C   UNL     1     -11.798  -1.545  -6.578  1.00  0.00     0.014 A 
ATOM     36  C   UNL     1     -12.560  -2.281  -9.162  1.00  0.00     0.010 A 
ATOM     37  C   UNL     1     -12.211  -2.849  -6.835  1.00  0.00     0.010 A 
ATOM     38  C   UNL     1     -12.601  -3.230  -8.128  1.00  0.00    -0.014 A 
BRANCH  38  39
ATOM     39  C   UNL     1     -13.057  -4.623  -8.374  1.00  0.00     0.031 A 
ATOM     40  C   UNL     1     -14.289  -5.145  -7.687  1.00  0.00     0.074 A 
ATOM     41  C   UNL     1     -12.332  -5.436  -9.167  1.00  0.00     0.049 A 
ATOM     42  N   UNL     1     -14.799  -6.350  -7.704  1.00  0.00    -0.248 NA
ATOM     43  C   UNL     1     -15.034  -4.192  -6.848  1.00  0.00     0.031 C 
ATOM     44  C   UNL     1     -11.103  -5.057  -9.864  1.00  0.00     0.029 A 
ATOM     45  N   UNL     1     -12.518  -6.752  -9.514  1.00  0.00    -0.354 N 
ATOM     46  C   UNL     1     -15.912  -6.302  -6.876  1.00  0.00     0.074 A 
ATOM     47  C   UNL     1     -15.973  -4.966  -6.325  1.00  0.00     0.031 C 
ATOM     48  C   UNL     1     -10.661  -6.104 -10.576  1.00  0.00     0.029 A 
ATOM     49  C   UNL     1     -11.546  -7.244 -10.350  1.00  0.00     0.049 A 
ATOM     50  H   UNL     1     -13.277  -7.291  -9.193  1.00  0.00     0.167 HD
ATOM     51  C   UNL     1     -16.816  -7.276  -6.621  1.00  0.00     0.037 A 
ATOM     52  C   UNL     1     -11.380  -8.476 -10.870  1.00  0.00     0.037 A 
ATOM     53  C   UNL     1     -16.765  -8.596  -7.193  1.00  0.00     0.049 A 
ATOM     54  C   UNL     1     -12.383  -9.551 -10.548  1.00  0.00     0.074 A 
ATOM     55  C   UNL     1     -17.661  -9.637  -7.032  1.00  0.00     0.029 A 
ATOM     56  N   UNL     1     -15.762  -9.056  -8.034  1.00  0.00    -0.354 N 
ATOM     57  N   UNL     1     -13.458  -9.481  -9.801  1.00  0.00    -0.248 NA
ATOM     58  C   UNL     1     -12.153 -10.877 -11.142  1.00  0.00     0.031 C 
ATOM     59  C   UNL     1     -17.173 -10.745  -7.729  1.00  0.00     0.029 A 
ATOM     60  C   UNL     1     -16.006 -10.375  -8.380  1.00  0.00     0.049 A 
ATOM     61  H   UNL     1     -14.992  -8.524  -8.340  1.00  0.00     0.167 HD
ATOM     62  C   UNL     1     -14.047 -10.736  -9.858  1.00  0.00     0.074 A 
ATOM     63  C   UNL     1     -13.216 -11.549 -10.720  1.00  0.00     0.031 C 
ATOM     64  C   UNL     1     -15.178 -11.171  -9.250  1.00  0.00     0.037 A 
BRANCH  51  65
ATOM     65  C   UNL     1     -17.952  -6.957  -5.692  1.00  0.00     0.064 A 
ATOM     66  C   UNL     1     -18.058  -7.599  -4.448  1.00  0.00     0.173 A 
ATOM     67  C   UNL     1     -18.977  -6.074  -6.062  1.00  0.00     0.173 A 
ATOM     68  F   UNL     1     -17.108  -8.458  -4.047  1.00  0.00    -0.203 F 
ATOM     69  C   UNL     1     -19.154  -7.380  -3.619  1.00  0.00     0.198 A 
ATOM     70  C   UNL     1     -20.056  -5.832  -5.215  1.00  0.00     0.198 A 
ATOM     71  F   UNL     1     -18.920  -5.426  -7.235  1.00  0.00    -0.203 F 
ATOM     72  F   UNL     1     -19.252  -8.034  -2.453  1.00  0.00    -0.200 F 
ATOM     73  C   UNL     1     -20.150  -6.494  -4.001  1.00  0.00     0.200 A 
ATOM     74  F   UNL     1     -21.004  -4.956  -5.575  1.00  0.00    -0.200 F 
ATOM     75  F   UNL     1     -21.200  -6.277  -3.197  1.00  0.00    -0.200 F 
ENDBRANCH  51  65
BRANCH  52  76
ATOM     76  C   UNL     1     -10.232  -8.742 -11.776  1.00  0.00     0.064 A 
ATOM     77  C   UNL     1      -8.911  -8.741 -11.305  1.00  0.00     0.173 A 
ATOM     78  C   UNL     1     -10.435  -8.966 -13.145  1.00  0.00     0.173 A 
ATOM     79  F   UNL     1      -8.661  -8.528 -10.005  1.00  0.00    -0.203 F 
ATOM     80  C   UNL     1      -7.836  -8.931 -12.172  1.00  0.00     0.198 A 
ATOM     81  C   UNL     1      -9.361  -9.186 -14.006  1.00  0.00     0.198 A 
ATOM     82  F   UNL     1     -11.680  -8.998 -13.641  1.00  0.00    -0.203 F 
ATOM     83  F   UNL     1      -6.582  -8.886 -11.701  1.00  0.00    -0.200 F 
ATOM     84  C   UNL     1      -8.062  -9.158 -13.521  1.00  0.00     0.200 A 
ATOM     85  F   UNL     1      -9.586  -9.429 -15.305  1.00  0.00    -0.200 F 
ATOM     86  F   UNL     1      -7.030  -9.351 -14.353  1.00  0.00    -0.200 F 
ENDBRANCH  52  76
BRANCH  64  87
ATOM     87  C   UNL     1     -15.619 -12.583  -9.511  1.00  0.00     0.064 A 
ATOM     88  C   UNL     1     -16.795 -12.833 -10.238  1.00  0.00     0.173 A 
ATOM     89  C   UNL     1     -14.943 -13.680  -8.960  1.00  0.00     0.173 A 
ATOM     90  F   UNL     1     -17.485 -11.817 -10.778  1.00  0.00    -0.203 F 
ATOM     91  C   UNL     1     -17.289 -14.126 -10.379  1.00  0.00     0.198 A 
ATOM     92  C   UNL     1     -15.423 -14.975  -9.131  1.00  0.00     0.198 A 
ATOM     93  F   UNL     1     -13.809 -13.495  -8.267  1.00  0.00    -0.203 F 
ATOM     94  F   UNL     1     -18.439 -14.334 -11.035  1.00  0.00    -0.200 F 
ATOM     95  C   UNL     1     -16.602 -15.196  -9.828  1.00  0.00     0.200 A 
ATOM     96  F   UNL     1     -14.746 -16.012  -8.617  1.00  0.00    -0.200 F 
ATOM     97  F   UNL     1     -17.077 -16.442  -9.967  1.00  0.00    -0.200 F 
ENDBRANCH  64  87
ENDBRANCH  38  39
ENDBRANCH  30  33
ENDBRANCH  28  29
ENDBRANCH  27  28
ENDBRANCH  26  27
ENDBRANCH   1  26
TORSDOF 16
