REMARK SMILES C=CCN1C(=O)/C(=C/c2ccc(OCC(=O)NCCCCCCNC(=O)c3ccc(-c4c5nc(c(-c6c(F)c(F)c(F)c(F)c6F)c6ccc([nH]6)c(-c6c(F)c(F)c(F)c(F)c6F)c6nc(c(-c7c(F)c(F)c(F)c(F)c7F)c7ccc4[nH]7)C=C6)C=C5)cc3)c(OC)c2)C(=O)[NH+]=C1S
REMARK SMILES IDX 19 1 18 2 17 3 15 4 16 5 14 7 13 8 12 9 9 10 10 11 93 12
REMARK SMILES IDX 11 13 90 14 8 15 4 16 5 17 97 18 6 19 7 20 96 21 94 22 95 24
REMARK SMILES IDX 3 25 2 26 1 27 98 28 91 30 92 31 20 32 21 33 22 34 23 35
REMARK SMILES IDX 24 36 25 37 26 39 27 40 28 41 89 42 29 43 88 44 30 45 31 46
REMARK SMILES IDX 32 47 82 48 33 49 87 50 81 51 83 52 34 53 86 54 80 55 79 56
REMARK SMILES IDX 35 58 67 59 47 60 66 61 48 62 51 63 65 64 84 65 49 66 50 67
REMARK SMILES IDX 64 69 85 70 52 71 36 72 37 73 45 74 38 75 39 76 43 77 46 78
REMARK SMILES IDX 40 79 41 80 44 81 42 82 68 83 69 84 77 85 70 86 71 87 75 88
REMARK SMILES IDX 78 89 72 90 73 91 76 92 74 93 53 94 54 95 62 96 55 97 56 98
REMARK SMILES IDX 60 99 63 100 57 101 58 102 61 103 59 104
REMARK H PARENT 17 6 96 23 98 29 24 38 83 57 51 68
REMARK Flexibility Score: inf
ROOT
ATOM      1  C   UNL     1      -2.446   1.154  10.830  1.00  0.00     0.021 C 
ENDROOT
BRANCH   1   2
ATOM      2  C   UNL     1      -3.810   0.868  11.456  1.00  0.00     0.116 C 
BRANCH   2   3
ATOM      3  N   UNL     1      -4.889   1.473  10.706  1.00  0.00    -0.353 N 
ATOM      4  C   UNL     1      -5.953   0.870  10.099  1.00  0.00     0.257 C 
ATOM      5  O   UNL     1      -6.824   1.594   9.610  1.00  0.00    -0.271 OA
ATOM      6  H   UNL     1      -4.851   2.454  10.622  1.00  0.00     0.163 HD
BRANCH   4   7
ATOM      7  C   UNL     1      -6.080  -0.662  10.134  1.00  0.00     0.329 C 
BRANCH   7   8
ATOM      8  O   UNL     1      -4.996  -1.456   9.679  1.00  0.00    -0.480 OA
BRANCH   8   9
ATOM      9  C   UNL     1      -4.556  -1.321   8.390  1.00  0.00     0.161 A 
ATOM     10  C   UNL     1      -3.280  -1.135   5.891  1.00  0.00    -0.021 A 
ATOM     11  C   UNL     1      -2.610  -1.709   6.967  1.00  0.00     0.012 A 
ATOM     12  C   UNL     1      -4.605  -0.711   6.052  1.00  0.00     0.058 A 
ATOM     13  C   UNL     1      -3.250  -1.803   8.206  1.00  0.00     0.051 A 
ATOM     14  C   UNL     1      -5.249  -0.790   7.294  1.00  0.00     0.161 A 
BRANCH  10  15
ATOM     15  C   UNL     1      -2.641  -1.008   4.578  1.00  0.00     0.032 C 
ATOM     16  N   UNL     1      -1.611   1.223   1.895  1.00  0.00    -0.183 N 
ATOM     17  C   UNL     1      -1.829   0.028   2.557  1.00  0.00     0.349 C 
ATOM     18  C   UNL     1      -1.834   2.416   2.538  1.00  0.00     0.318 C 
ATOM     19  O   UNL     1      -1.681  -1.075   2.030  1.00  0.00    -0.240 OA
ATOM     20  C   UNL     1      -2.308   0.145   3.956  1.00  0.00     0.154 C 
ATOM     21  N   UNL     1      -2.213   2.554   3.755  1.00  0.00    -0.200 N 
ATOM     22  C   UNL     1      -2.412   1.487   4.576  1.00  0.00     0.347 C 
ATOM     23  H   UNL     1      -2.365   3.461   4.107  1.00  0.00     0.316 HD
ATOM     24  O   UNL     1      -2.645   1.648   5.768  1.00  0.00    -0.241 OA
BRANCH  16  25
ATOM     25  C   UNL     1      -1.168   1.118   0.502  1.00  0.00     0.275 C 
BRANCH  25  26
ATOM     26  C   UNL     1       0.336   1.087   0.469  1.00  0.00     0.011 C 
ATOM     27  C   UNL     1       1.055   0.037   0.051  1.00  0.00     0.008 C 
ENDBRANCH  25  26
ENDBRANCH  16  25
BRANCH  18  28
ATOM     28  S   UNL     1      -1.593   3.920   1.678  1.00  0.00    -0.055 SA
ATOM     29  H   UNL     1      -1.195   3.656   0.405  1.00  0.00     0.116 HD
ENDBRANCH  18  28
ENDBRANCH  10  15
BRANCH  14  30
ATOM     30  O   UNL     1      -6.564  -0.445   7.440  1.00  0.00    -0.493 OA
ATOM     31  C   UNL     1      -7.033   0.612   6.606  1.00  0.00     0.278 C 
ENDBRANCH  14  30
ENDBRANCH   8   9
ENDBRANCH   7   8
ENDBRANCH   4   7
ENDBRANCH   2   3
ENDBRANCH   1   2
BRANCH   1  32
ATOM     32  C   UNL     1      -2.081   2.642  10.736  1.00  0.00     0.002 C 
BRANCH  32  33
ATOM     33  C   UNL     1      -2.152   3.422  12.053  1.00  0.00     0.002 C 
BRANCH  33  34
ATOM     34  C   UNL     1      -1.309   2.854  13.196  1.00  0.00     0.021 C 
BRANCH  34  35
ATOM     35  C   UNL     1       0.181   2.728  12.897  1.00  0.00     0.116 C 
BRANCH  35  36
ATOM     36  N   UNL     1       0.800   4.014  12.626  1.00  0.00    -0.352 N 
ATOM     37  C   UNL     1       1.912   4.594  13.182  1.00  0.00     0.251 C 
ATOM     38  H   UNL     1       0.352   4.554  11.935  1.00  0.00     0.163 HD
ATOM     39  O   UNL     1       2.165   5.772  12.949  1.00  0.00    -0.269 OA
BRANCH  37  40
ATOM     40  C   UNL     1       2.800   3.820  14.078  1.00  0.00     0.039 A 
ATOM     41  C   UNL     1       3.332   4.460  15.200  1.00  0.00     0.014 A 
ATOM     42  C   UNL     1       3.143   2.492  13.808  1.00  0.00     0.014 A 
ATOM     43  C   UNL     1       4.162   3.757  16.074  1.00  0.00     0.010 A 
ATOM     44  C   UNL     1       3.905   1.766  14.724  1.00  0.00     0.010 A 
ATOM     45  C   UNL     1       4.429   2.393  15.864  1.00  0.00    -0.014 A 
BRANCH  45  46
ATOM     46  C   UNL     1       5.236   1.625  16.849  1.00  0.00     0.031 A 
ATOM     47  C   UNL     1       6.561   1.027  16.463  1.00  0.00     0.074 A 
ATOM     48  C   UNL     1       4.758   1.452  18.097  1.00  0.00     0.049 A 
ATOM     49  N   UNL     1       7.412   0.357  17.202  1.00  0.00    -0.248 NA
ATOM     50  C   UNL     1       6.979   1.180  15.062  1.00  0.00     0.031 C 
ATOM     51  C   UNL     1       3.461   1.933  18.576  1.00  0.00     0.029 A 
ATOM     52  N   UNL     1       5.307   0.833  19.192  1.00  0.00    -0.354 N 
ATOM     53  C   UNL     1       8.459   0.012  16.357  1.00  0.00     0.074 A 
ATOM     54  C   UNL     1       8.110   0.490  15.037  1.00  0.00     0.031 C 
ATOM     55  C   UNL     1       3.333   1.630  19.877  1.00  0.00     0.029 A 
ATOM     56  C   UNL     1       4.517   0.898  20.314  1.00  0.00     0.049 A 
ATOM     57  H   UNL     1       6.184   0.385  19.175  1.00  0.00     0.167 HD
ATOM     58  C   UNL     1       9.618  -0.622  16.661  1.00  0.00     0.037 A 
ATOM     59  C   UNL     1       4.723   0.421  21.556  1.00  0.00     0.037 A 
ATOM     60  C   UNL     1       9.965  -1.091  17.979  1.00  0.00     0.049 A 
ATOM     61  C   UNL     1       6.013  -0.291  21.861  1.00  0.00     0.074 A 
ATOM     62  C   UNL     1      11.136  -1.698  18.399  1.00  0.00     0.029 A 
ATOM     63  N   UNL     1       9.136  -1.014  19.090  1.00  0.00    -0.354 N 
ATOM     64  N   UNL     1       7.032  -0.537  21.073  1.00  0.00    -0.248 NA
ATOM     65  C   UNL     1       6.186  -0.781  23.235  1.00  0.00     0.031 C 
ATOM     66  C   UNL     1      10.992  -2.044  19.747  1.00  0.00     0.029 A 
ATOM     67  C   UNL     1       9.759  -1.591  20.187  1.00  0.00     0.049 A 
ATOM     68  H   UNL     1       8.239  -0.609  19.098  1.00  0.00     0.167 HD
ATOM     69  C   UNL     1       7.975  -1.185  21.860  1.00  0.00     0.074 A 
ATOM     70  C   UNL     1       7.417  -1.267  23.194  1.00  0.00     0.031 C 
ATOM     71  C   UNL     1       9.191  -1.672  21.509  1.00  0.00     0.037 A 
BRANCH  58  72
ATOM     72  C   UNL     1      10.602  -0.849  15.546  1.00  0.00     0.064 A 
ATOM     73  C   UNL     1      11.288   0.214  14.939  1.00  0.00     0.173 A 
ATOM     74  C   UNL     1      10.898  -2.150  15.110  1.00  0.00     0.173 A 
ATOM     75  F   UNL     1      11.038   1.479  15.310  1.00  0.00    -0.203 F 
ATOM     76  C   UNL     1      12.210  -0.014  13.919  1.00  0.00     0.198 A 
ATOM     77  C   UNL     1      11.845  -2.377  14.115  1.00  0.00     0.198 A 
ATOM     78  F   UNL     1      10.278  -3.206  15.659  1.00  0.00    -0.203 F 
ATOM     79  F   UNL     1      12.814   1.022  13.321  1.00  0.00    -0.200 F 
ATOM     80  C   UNL     1      12.494  -1.309  13.514  1.00  0.00     0.200 A 
ATOM     81  F   UNL     1      12.130  -3.631  13.736  1.00  0.00    -0.200 F 
ATOM     82  F   UNL     1      13.389  -1.527  12.541  1.00  0.00    -0.200 F 
ENDBRANCH  58  72
BRANCH  59  83
ATOM     83  C   UNL     1       3.694   0.620  22.611  1.00  0.00     0.064 A 
ATOM     84  C   UNL     1       3.944   1.440  23.721  1.00  0.00     0.173 A 
ATOM     85  C   UNL     1       2.446  -0.017  22.542  1.00  0.00     0.173 A 
ATOM     86  F   UNL     1       5.129   2.057  23.845  1.00  0.00    -0.203 F 
ATOM     87  C   UNL     1       2.999   1.591  24.734  1.00  0.00     0.198 A 
ATOM     88  C   UNL     1       1.489   0.162  23.538  1.00  0.00     0.198 A 
ATOM     89  F   UNL     1       2.153  -0.808  21.499  1.00  0.00    -0.203 F 
ATOM     90  F   UNL     1       3.288   2.333  25.812  1.00  0.00    -0.200 F 
ATOM     91  C   UNL     1       1.770   0.957  24.639  1.00  0.00     0.200 A 
ATOM     92  F   UNL     1       0.295  -0.438  23.432  1.00  0.00    -0.200 F 
ATOM     93  F   UNL     1       0.860   1.103  25.611  1.00  0.00    -0.200 F 
ENDBRANCH  59  83
BRANCH  71  94
ATOM     94  C   UNL     1      10.011  -2.310  22.596  1.00  0.00     0.064 A 
ATOM     95  C   UNL     1       9.633  -3.523  23.194  1.00  0.00     0.173 A 
ATOM     96  C   UNL     1      11.194  -1.702  23.044  1.00  0.00     0.173 A 
ATOM     97  F   UNL     1       8.505  -4.141  22.813  1.00  0.00    -0.203 F 
ATOM     98  C   UNL     1      10.382  -4.076  24.230  1.00  0.00     0.198 A 
ATOM     99  C   UNL     1      11.962  -2.279  24.053  1.00  0.00     0.198 A 
ATOM    100  F   UNL     1      11.610  -0.547  22.502  1.00  0.00    -0.203 F 
ATOM    101  F   UNL     1       9.960  -5.196  24.834  1.00  0.00    -0.200 F 
ATOM    102  C   UNL     1      11.547  -3.457  24.654  1.00  0.00     0.200 A 
ATOM    103  F   UNL     1      13.098  -1.688  24.449  1.00  0.00    -0.200 F 
ATOM    104  F   UNL     1      12.266  -3.990  25.652  1.00  0.00    -0.200 F 
ENDBRANCH  71  94
ENDBRANCH  45  46
ENDBRANCH  37  40
ENDBRANCH  35  36
ENDBRANCH  34  35
ENDBRANCH  33  34
ENDBRANCH  32  33
ENDBRANCH   1  32
TORSDOF 20
