REMARK SMILES O=C(NCCCCCCNC(=O)[C@H]1C=C[C@H](NC(=O)[C@]23C[C@H]4C[C@H](C[C@H](C4)C2)C3)C1)c1ccc(-c2c3nc(c(-c4c(F)c(F)c(F)c(F)c4F)c4ccc([nH]4)c(-c4c(F)c(F)c(F)c(F)c4F)c4nc(c(-c5c(F)c(F)c(F)c(F)c5F)c5ccc2[nH]5)C=C4)C=C3)cc1
REMARK SMILES IDX 6 1 5 2 4 3 3 4 1 5 2 6 31 8 32 9 93 10 33 11 92 12 34 13
REMARK SMILES IDX 35 14 36 15 86 16 37 17 91 18 85 19 87 20 38 21 90 22 84 23
REMARK SMILES IDX 83 24 39 26 71 27 51 28 70 29 52 30 55 31 69 32 88 33 53 34
REMARK SMILES IDX 54 35 68 37 89 38 56 39 40 40 41 41 49 42 42 43 43 44 47 45
REMARK SMILES IDX 50 46 44 47 45 48 48 49 46 50 72 51 73 52 81 53 74 54 75 55
REMARK SMILES IDX 79 56 82 57 76 58 77 59 80 60 78 61 57 62 58 63 66 64 59 65
REMARK SMILES IDX 60 66 64 67 67 68 61 69 62 70 65 71 63 72 7 73 8 74 9 75
REMARK SMILES IDX 10 76 11 77 12 79 13 80 14 81 30 82 15 83 16 84 17 85 18 86
REMARK SMILES IDX 19 88 20 89 21 90 28 91 29 92 22 93 26 94 24 95 23 96 27 97
REMARK SMILES IDX 25 98
REMARK H PARENT 3 7 87 25 55 36 10 78 17 87
REMARK Flexibility Score: inf
ROOT
ATOM      1  C   UNL     1       3.736  -3.316  -1.605  1.00  0.00     0.002 C 
ENDROOT
BRANCH   1   2
ATOM      2  C   UNL     1       4.402  -2.463  -0.524  1.00  0.00     0.021 C 
BRANCH   2   3
ATOM      3  C   UNL     1       4.331  -0.966  -0.791  1.00  0.00     0.116 C 
BRANCH   3   4
ATOM      4  N   UNL     1       2.953  -0.497  -0.869  1.00  0.00    -0.352 N 
ATOM      5  O   UNL     1       1.039   0.416  -0.102  1.00  0.00    -0.269 OA
ATOM      6  C   UNL     1       2.255   0.338  -0.029  1.00  0.00     0.251 C 
ATOM      7  H   UNL     1       2.443  -0.830  -1.643  1.00  0.00     0.163 HD
BRANCH   6   8
ATOM      8  C   UNL     1       2.992   1.136   0.972  1.00  0.00     0.039 A 
ATOM      9  C   UNL     1       4.193   1.755   0.626  1.00  0.00     0.014 A 
ATOM     10  C   UNL     1       2.477   1.269   2.264  1.00  0.00     0.014 A 
ATOM     11  C   UNL     1       4.966   2.353   1.609  1.00  0.00     0.010 A 
ATOM     12  C   UNL     1       3.207   1.970   3.228  1.00  0.00     0.010 A 
ATOM     13  C   UNL     1       4.477   2.481   2.919  1.00  0.00    -0.014 A 
BRANCH  13  14
ATOM     14  C   UNL     1       5.308   3.188   3.927  1.00  0.00     0.031 A 
ATOM     15  C   UNL     1       5.822   2.478   5.147  1.00  0.00     0.074 A 
ATOM     16  C   UNL     1       5.637   4.475   3.701  1.00  0.00     0.049 A 
ATOM     17  N   UNL     1       6.601   2.931   6.099  1.00  0.00    -0.248 NA
ATOM     18  C   UNL     1       5.404   1.080   5.334  1.00  0.00     0.031 C 
ATOM     19  C   UNL     1       5.188   5.269   2.555  1.00  0.00     0.029 A 
ATOM     20  N   UNL     1       6.444   5.333   4.402  1.00  0.00    -0.354 N 
ATOM     21  C   UNL     1       6.745   1.888   7.004  1.00  0.00     0.074 A 
ATOM     22  C   UNL     1       5.950   0.786   6.506  1.00  0.00     0.031 C 
ATOM     23  C   UNL     1       5.772   6.474   2.597  1.00  0.00     0.029 A 
ATOM     24  C   UNL     1       6.577   6.565   3.809  1.00  0.00     0.049 A 
ATOM     25  H   UNL     1       6.885   5.090   5.248  1.00  0.00     0.167 HD
ATOM     26  C   UNL     1       7.481   1.854   8.142  1.00  0.00     0.037 A 
ATOM     27  C   UNL     1       7.261   7.654   4.204  1.00  0.00     0.037 A 
ATOM     28  C   UNL     1       8.282   2.952   8.621  1.00  0.00     0.049 A 
ATOM     29  C   UNL     1       8.046   7.592   5.483  1.00  0.00     0.074 A 
ATOM     30  C   UNL     1       9.095   3.004   9.740  1.00  0.00     0.029 A 
ATOM     31  N   UNL     1       8.363   4.198   8.013  1.00  0.00    -0.354 N 
ATOM     32  N   UNL     1       8.210   6.586   6.307  1.00  0.00    -0.248 NA
ATOM     33  C   UNL     1       8.743   8.819   5.885  1.00  0.00     0.031 C 
ATOM     34  C   UNL     1       9.618   4.297   9.843  1.00  0.00     0.029 A 
ATOM     35  C   UNL     1       9.191   5.032   8.749  1.00  0.00     0.049 A 
ATOM     36  H   UNL     1       7.902   4.451   7.181  1.00  0.00     0.167 HD
ATOM     37  C   UNL     1       9.054   7.047   7.307  1.00  0.00     0.074 A 
ATOM     38  C   UNL     1       9.381   8.418   6.975  1.00  0.00     0.031 C 
ATOM     39  C   UNL     1       9.516   6.393   8.402  1.00  0.00     0.037 A 
BRANCH  26  40
ATOM     40  C   UNL     1       7.434   0.598   8.969  1.00  0.00     0.064 A 
ATOM     41  C   UNL     1       8.012  -0.603   8.532  1.00  0.00     0.173 A 
ATOM     42  C   UNL     1       6.835   0.610  10.239  1.00  0.00     0.173 A 
ATOM     43  F   UNL     1       8.588  -0.675   7.322  1.00  0.00    -0.203 F 
ATOM     44  C   UNL     1       7.966  -1.751   9.320  1.00  0.00     0.198 A 
ATOM     45  C   UNL     1       6.821  -0.530  11.039  1.00  0.00     0.198 A 
ATOM     46  F   UNL     1       6.273   1.732  10.712  1.00  0.00    -0.203 F 
ATOM     47  F   UNL     1       8.479  -2.900   8.858  1.00  0.00    -0.200 F 
ATOM     48  C   UNL     1       7.378  -1.712  10.575  1.00  0.00     0.200 A 
ATOM     49  F   UNL     1       6.266  -0.485  12.258  1.00  0.00    -0.200 F 
ATOM     50  F   UNL     1       7.342  -2.815  11.336  1.00  0.00    -0.200 F 
ENDBRANCH  26  40
BRANCH  27  51
ATOM     51  C   UNL     1       7.234   8.888   3.376  1.00  0.00     0.064 A 
ATOM     52  C   UNL     1       8.391   9.352   2.735  1.00  0.00     0.173 A 
ATOM     53  C   UNL     1       6.055   9.629   3.211  1.00  0.00     0.173 A 
ATOM     54  F   UNL     1       9.547   8.687   2.875  1.00  0.00    -0.203 F 
ATOM     55  C   UNL     1       8.374  10.523   1.980  1.00  0.00     0.198 A 
ATOM     56  C   UNL     1       6.031  10.779   2.427  1.00  0.00     0.198 A 
ATOM     57  F   UNL     1       4.918   9.223   3.796  1.00  0.00    -0.203 F 
ATOM     58  F   UNL     1       9.505  10.972   1.421  1.00  0.00    -0.200 F 
ATOM     59  C   UNL     1       7.193  11.232   1.822  1.00  0.00     0.200 A 
ATOM     60  F   UNL     1       4.883  11.449   2.260  1.00  0.00    -0.200 F 
ATOM     61  F   UNL     1       7.176  12.355   1.091  1.00  0.00    -0.200 F 
ENDBRANCH  27  51
BRANCH  39  62
ATOM     62  C   UNL     1      10.473   7.138   9.288  1.00  0.00     0.064 A 
ATOM     63  C   UNL     1      10.068   8.231  10.069  1.00  0.00     0.173 A 
ATOM     64  C   UNL     1      11.818   6.742   9.364  1.00  0.00     0.173 A 
ATOM     65  F   UNL     1       8.797   8.661  10.022  1.00  0.00    -0.203 F 
ATOM     66  C   UNL     1      10.981   8.924  10.860  1.00  0.00     0.198 A 
ATOM     67  C   UNL     1      12.719   7.413  10.185  1.00  0.00     0.198 A 
ATOM     68  F   UNL     1      12.258   5.699   8.644  1.00  0.00    -0.203 F 
ATOM     69  F   UNL     1      10.585  10.006  11.544  1.00  0.00    -0.200 F 
ATOM     70  C   UNL     1      12.303   8.511  10.922  1.00  0.00     0.200 A 
ATOM     71  F   UNL     1      13.992   7.001  10.256  1.00  0.00    -0.200 F 
ATOM     72  F   UNL     1      13.180   9.177  11.686  1.00  0.00    -0.200 F 
ENDBRANCH  39  62
ENDBRANCH  13  14
ENDBRANCH   6   8
ENDBRANCH   3   4
ENDBRANCH   2   3
ENDBRANCH   1   2
BRANCH   1  73
ATOM     73  C   UNL     1       4.390  -3.234  -2.990  1.00  0.00     0.002 C 
BRANCH  73  74
ATOM     74  C   UNL     1       5.869  -3.626  -3.026  1.00  0.00     0.021 C 
BRANCH  74  75
ATOM     75  C   UNL     1       6.139  -5.050  -2.506  1.00  0.00     0.116 C 
BRANCH  75  76
ATOM     76  N   UNL     1       6.290  -6.046  -3.570  1.00  0.00    -0.356 N 
ATOM     77  C   UNL     1       7.363  -6.687  -4.140  1.00  0.00     0.227 C 
ATOM     78  H   UNL     1       5.430  -6.317  -3.964  1.00  0.00     0.163 HD
ATOM     79  O   UNL     1       7.099  -7.644  -4.878  1.00  0.00    -0.274 OA
BRANCH  77  80
ATOM     80  C   UNL     1       8.838  -6.266  -3.946  1.00  0.00     0.103 C 
ATOM     81  C   UNL     1       8.901  -5.041  -3.129  1.00  0.00    -0.016 C 
ATOM     82  C   UNL     1       9.698  -7.230  -3.097  1.00  0.00     0.047 C 
ATOM     83  C   UNL     1       9.594  -5.215  -1.999  1.00  0.00    -0.006 C 
ATOM     84  C   UNL     1      10.531  -6.327  -2.151  1.00  0.00     0.106 C 
BRANCH  84  85
ATOM     85  N   UNL     1      11.807  -5.860  -2.753  1.00  0.00    -0.349 N 
ATOM     86  C   UNL     1      12.634  -4.774  -2.576  1.00  0.00     0.226 C 
ATOM     87  H   UNL     1      12.142  -6.476  -3.445  1.00  0.00     0.164 HD
ATOM     88  O   UNL     1      13.825  -5.076  -2.401  1.00  0.00    -0.274 OA
BRANCH  86  89
ATOM     89  C   UNL     1      12.277  -3.262  -2.864  1.00  0.00     0.050 C 
ATOM     90  C   UNL     1      13.361  -2.305  -2.276  1.00  0.00     0.020 C 
ATOM     91  C   UNL     1      10.957  -2.747  -2.300  1.00  0.00     0.020 C 
ATOM     92  C   UNL     1      12.275  -3.039  -4.400  1.00  0.00     0.020 C 
ATOM     93  C   UNL     1      13.045  -0.821  -2.605  1.00  0.00    -0.010 C 
ATOM     94  C   UNL     1      10.609  -1.307  -2.640  1.00  0.00    -0.010 C 
ATOM     95  C   UNL     1      11.943  -1.570  -4.750  1.00  0.00    -0.010 C 
ATOM     96  C   UNL     1      12.996  -0.634  -4.132  1.00  0.00     0.007 C 
ATOM     97  C   UNL     1      11.679  -0.420  -2.027  1.00  0.00     0.007 C 
ATOM     98  C   UNL     1      10.569  -1.192  -4.173  1.00  0.00     0.007 C 
ENDBRANCH  86  89
ENDBRANCH  84  85
ENDBRANCH  77  80
ENDBRANCH  75  76
ENDBRANCH  74  75
ENDBRANCH  73  74
ENDBRANCH   1  73
TORSDOF 15
