REMARK SMILES O=C(CCNC(=O)C1CCCCC1)NCCCCCCNC(=O)c1ccc(-c2c3nc(c(-c4c(F)c(F)c(F)c(F)c4F)c4ccc([nH]4)c(-c4c(F)c(F)c(F)c(F)c4F)c4nc(c(-c5c(F)c(F)c(F)c(F)c5F)c5ccc2[nH]5)C=C4)C=C3)cc1
REMARK SMILES IDX 17 1 16 2 15 3 14 4 1 5 2 6 3 8 4 9 5 10 6 11 7 13 8 14 9 15
REMARK SMILES IDX 13 16 10 17 12 18 11 19 18 20 19 21 20 22 21 23 22 24 23 26
REMARK SMILES IDX 24 27 25 28 86 29 26 30 85 31 27 32 28 33 29 34 79 35 30 36
REMARK SMILES IDX 84 37 78 38 80 39 31 40 83 41 77 42 76 43 32 45 64 46 44 47
REMARK SMILES IDX 63 48 45 49 48 50 62 51 81 52 46 53 47 54 61 56 82 57 49 58
REMARK SMILES IDX 33 59 34 60 42 61 35 62 36 63 40 64 43 65 37 66 38 67 41 68
REMARK SMILES IDX 39 69 65 70 66 71 74 72 67 73 68 74 72 75 75 76 69 77 70 78
REMARK SMILES IDX 73 79 71 80 50 81 51 82 59 83 52 84 53 85 57 86 60 87 54 88
REMARK SMILES IDX 55 89 58 90 56 91
REMARK H PARENT 14 7 5 12 21 25 80 44 48 55
REMARK Flexibility Score: inf
ROOT
ATOM      1  C   UNL     1       4.096   2.154   3.067  1.00  0.00     0.002 C 
ENDROOT
BRANCH   1   2
ATOM      2  C   UNL     1       2.594   1.857   2.965  1.00  0.00     0.021 C 
BRANCH   2   3
ATOM      3  C   UNL     1       2.037   1.834   1.543  1.00  0.00     0.116 C 
BRANCH   3   4
ATOM      4  N   UNL     1       2.672   0.816   0.734  1.00  0.00    -0.356 N 
ATOM      5  O   UNL     1       0.764   0.066  -0.308  1.00  0.00    -0.275 OA
ATOM      6  C   UNL     1       1.978   0.020  -0.147  1.00  0.00     0.221 C 
ATOM      7  H   UNL     1       3.645   0.687   0.818  1.00  0.00     0.163 HD
BRANCH   6   8
ATOM      8  C   UNL     1       2.859  -0.933  -0.922  1.00  0.00     0.121 C 
BRANCH   8   9
ATOM      9  C   UNL     1       3.668  -0.196  -1.987  1.00  0.00     0.125 C 
BRANCH   9  10
ATOM     10  N   UNL     1       4.815   0.493  -1.413  1.00  0.00    -0.355 N 
ATOM     11  C   UNL     1       6.118   0.111  -1.301  1.00  0.00     0.223 C 
ATOM     12  H   UNL     1       4.616   1.383  -1.043  1.00  0.00     0.163 HD
ATOM     13  O   UNL     1       6.853   0.838  -0.631  1.00  0.00    -0.275 OA
BRANCH  11  14
ATOM     14  C   UNL     1       6.629  -1.136  -2.028  1.00  0.00     0.078 C 
ATOM     15  C   UNL     1       8.170  -1.170  -1.990  1.00  0.00     0.013 C 
ATOM     16  C   UNL     1       6.078  -2.447  -1.454  1.00  0.00     0.013 C 
ATOM     17  C   UNL     1       8.743  -2.390  -2.708  1.00  0.00     0.001 C 
ATOM     18  C   UNL     1       6.630  -3.660  -2.199  1.00  0.00     0.001 C 
ATOM     19  C   UNL     1       8.152  -3.690  -2.175  1.00  0.00     0.000 C 
ENDBRANCH  11  14
ENDBRANCH   9  10
ENDBRANCH   8   9
ENDBRANCH   6   8
ENDBRANCH   3   4
ENDBRANCH   2   3
ENDBRANCH   1   2
BRANCH   1  20
ATOM     20  C   UNL     1       4.547   3.489   2.467  1.00  0.00     0.002 C 
BRANCH  20  21
ATOM     21  C   UNL     1       3.873   4.731   3.055  1.00  0.00     0.021 C 
BRANCH  21  22
ATOM     22  C   UNL     1       4.005   4.888   4.568  1.00  0.00     0.116 C 
BRANCH  22  23
ATOM     23  N   UNL     1       5.386   5.022   5.002  1.00  0.00    -0.352 N 
ATOM     24  C   UNL     1       5.953   5.935   5.854  1.00  0.00     0.251 C 
ATOM     25  H   UNL     1       6.009   4.357   4.628  1.00  0.00     0.163 HD
ATOM     26  O   UNL     1       7.177   5.974   5.986  1.00  0.00    -0.269 OA
BRANCH  24  27
ATOM     27  C   UNL     1       5.111   6.899   6.595  1.00  0.00     0.039 A 
ATOM     28  C   UNL     1       5.534   8.229   6.680  1.00  0.00     0.014 A 
ATOM     29  C   UNL     1       3.922   6.506   7.217  1.00  0.00     0.014 A 
ATOM     30  C   UNL     1       4.736   9.173   7.329  1.00  0.00     0.010 A 
ATOM     31  C   UNL     1       3.092   7.462   7.801  1.00  0.00     0.010 A 
ATOM     32  C   UNL     1       3.489   8.806   7.862  1.00  0.00    -0.014 A 
BRANCH  32  33
ATOM     33  C   UNL     1       2.587   9.829   8.450  1.00  0.00     0.031 A 
ATOM     34  C   UNL     1       2.230   9.798   9.909  1.00  0.00     0.074 A 
ATOM     35  C   UNL     1       2.049  10.769   7.648  1.00  0.00     0.049 A 
ATOM     36  N   UNL     1       1.469  10.616  10.593  1.00  0.00    -0.248 NA
ATOM     37  C   UNL     1       2.780   8.688  10.701  1.00  0.00     0.031 C 
ATOM     38  C   UNL     1       2.268  10.872   6.205  1.00  0.00     0.029 A 
ATOM     39  N   UNL     1       1.211  11.818   7.932  1.00  0.00    -0.354 N 
ATOM     40  C   UNL     1       1.441  10.116  11.888  1.00  0.00     0.074 A 
ATOM     41  C   UNL     1       2.216   8.894  11.883  1.00  0.00     0.031 C 
ATOM     42  C   UNL     1       1.617  11.947   5.736  1.00  0.00     0.029 A 
ATOM     43  C   UNL     1       0.906  12.589   6.837  1.00  0.00     0.049 A 
ATOM     44  H   UNL     1       0.861  12.001   8.834  1.00  0.00     0.167 HD
ATOM     45  C   UNL     1       0.841  10.640  12.985  1.00  0.00     0.037 A 
ATOM     46  C   UNL     1       0.143  13.694   6.733  1.00  0.00     0.037 A 
ATOM     47  C   UNL     1       0.085  11.866  12.989  1.00  0.00     0.049 A 
ATOM     48  C   UNL     1      -0.512  14.254   7.965  1.00  0.00     0.074 A 
ATOM     49  C   UNL     1      -0.493  12.522  14.063  1.00  0.00     0.029 A 
ATOM     50  N   UNL     1      -0.210  12.617  11.860  1.00  0.00    -0.354 N 
ATOM     51  N   UNL     1      -0.455  13.825   9.202  1.00  0.00    -0.248 NA
ATOM     52  C   UNL     1      -1.334  15.458   7.784  1.00  0.00     0.031 C 
ATOM     53  C   UNL     1      -1.185  13.636  13.576  1.00  0.00     0.029 A 
ATOM     54  C   UNL     1      -0.992  13.710  12.206  1.00  0.00     0.049 A 
ATOM     55  H   UNL     1       0.091  12.406  10.947  1.00  0.00     0.167 HD
ATOM     56  C   UNL     1      -1.212  14.716   9.950  1.00  0.00     0.074 A 
ATOM     57  C   UNL     1      -1.698  15.723   9.030  1.00  0.00     0.031 C 
ATOM     58  C   UNL     1      -1.481  14.700  11.279  1.00  0.00     0.037 A 
BRANCH  45  59
ATOM     59  C   UNL     1       0.974   9.882  14.276  1.00  0.00     0.064 A 
ATOM     60  C   UNL     1       2.203   9.772  14.946  1.00  0.00     0.173 A 
ATOM     61  C   UNL     1      -0.147   9.277  14.864  1.00  0.00     0.173 A 
ATOM     62  F   UNL     1       3.309  10.324  14.424  1.00  0.00    -0.203 F 
ATOM     63  C   UNL     1       2.311   9.056  16.136  1.00  0.00     0.198 A 
ATOM     64  C   UNL     1      -0.042   8.589  16.071  1.00  0.00     0.198 A 
ATOM     65  F   UNL     1      -1.348   9.357  14.272  1.00  0.00    -0.203 F 
ATOM     66  F   UNL     1       3.506   8.917  16.726  1.00  0.00    -0.200 F 
ATOM     67  C   UNL     1       1.188   8.470  16.700  1.00  0.00     0.200 A 
ATOM     68  F   UNL     1      -1.131   8.037  16.622  1.00  0.00    -0.200 F 
ATOM     69  F   UNL     1       1.292   7.784  17.846  1.00  0.00    -0.200 F 
ENDBRANCH  45  59
BRANCH  46  70
ATOM     70  C   UNL     1      -0.005  14.368   5.417  1.00  0.00     0.064 A 
ATOM     71  C   UNL     1       0.584  15.618   5.182  1.00  0.00     0.173 A 
ATOM     72  C   UNL     1      -0.728  13.780   4.369  1.00  0.00     0.173 A 
ATOM     73  F   UNL     1       1.267  16.231   6.161  1.00  0.00    -0.203 F 
ATOM     74  C   UNL     1       0.443  16.262   3.955  1.00  0.00     0.198 A 
ATOM     75  C   UNL     1      -0.844  14.411   3.133  1.00  0.00     0.198 A 
ATOM     76  F   UNL     1      -1.306  12.582   4.542  1.00  0.00    -0.203 F 
ATOM     77  F   UNL     1       0.982  17.475   3.771  1.00  0.00    -0.200 F 
ATOM     78  C   UNL     1      -0.265  15.655   2.929  1.00  0.00     0.200 A 
ATOM     79  F   UNL     1      -1.516  13.814   2.139  1.00  0.00    -0.200 F 
ATOM     80  F   UNL     1      -0.394  16.270   1.746  1.00  0.00    -0.200 F 
ENDBRANCH  46  70
BRANCH  58  81
ATOM     81  C   UNL     1      -2.328  15.818  11.817  1.00  0.00     0.064 A 
ATOM     82  C   UNL     1      -3.694  15.918  11.512  1.00  0.00     0.173 A 
ATOM     83  C   UNL     1      -1.771  16.795  12.656  1.00  0.00     0.173 A 
ATOM     84  F   UNL     1      -4.273  15.020  10.701  1.00  0.00    -0.203 F 
ATOM     85  C   UNL     1      -4.461  16.976  11.995  1.00  0.00     0.198 A 
ATOM     86  C   UNL     1      -2.548  17.832  13.165  1.00  0.00     0.198 A 
ATOM     87  F   UNL     1      -0.471  16.743  12.986  1.00  0.00    -0.203 F 
ATOM     88  F   UNL     1      -5.748  17.085  11.639  1.00  0.00    -0.200 F 
ATOM     89  C   UNL     1      -3.889  17.928  12.826  1.00  0.00     0.200 A 
ATOM     90  F   UNL     1      -1.997  18.743  13.979  1.00  0.00    -0.200 F 
ATOM     91  F   UNL     1      -4.628  18.945  13.290  1.00  0.00    -0.200 F 
ENDBRANCH  58  81
ENDBRANCH  32  33
ENDBRANCH  24  27
ENDBRANCH  22  23
ENDBRANCH  21  22
ENDBRANCH  20  21
ENDBRANCH   1  20
TORSDOF 16
