REMARK SMILES Cc1ccc(NC(=O)c2csc(Br)c2)c(C(=O)NCCCCCCNC(=O)c2ccc(-c3c4nc(c(-c5c(F)c(F)c(F)c(F)c5F)c5ccc([nH]5)c(-c5c(F)c(F)c(F)c(F)c5F)c5nc(c(-c6c(F)c(F)c(F)c(F)c6F)c6ccc3[nH]6)C=C5)C=C4)cc2)c1
REMARK SMILES IDX 21 1 20 2 19 3 18 4 16 5 17 6 15 8 1 9 2 10 3 11 91 12 4 13
REMARK SMILES IDX 5 14 6 15 7 16 8 18 9 19 10 20 14 21 11 22 12 23 13 24 22 25
REMARK SMILES IDX 23 26 24 27 25 28 26 29 27 31 28 32 29 33 90 34 30 35 89 36
REMARK SMILES IDX 31 37 32 38 33 39 83 40 34 41 88 42 82 43 84 44 35 45 87 46
REMARK SMILES IDX 81 47 80 48 36 50 68 51 48 52 67 53 49 54 52 55 66 56 85 57
REMARK SMILES IDX 50 58 51 59 65 61 86 62 53 63 37 64 38 65 46 66 39 67 40 68
REMARK SMILES IDX 44 69 47 70 41 71 42 72 45 73 43 74 69 75 70 76 78 77 71 78
REMARK SMILES IDX 72 79 76 80 79 81 73 82 74 83 77 84 75 85 54 86 55 87 63 88
REMARK SMILES IDX 56 89 57 90 61 91 64 92 58 93 59 94 62 95 60 96
REMARK H PARENT 18 7 6 17 25 30 84 49 52 60
REMARK Flexibility Score: inf
ROOT
ATOM      1  C   UNL     1       0.216   6.141  -0.924  1.00  0.00     0.002 C 
ENDROOT
BRANCH   1   2
ATOM      2  C   UNL     1       0.630   4.682  -0.668  1.00  0.00     0.021 C 
BRANCH   2   3
ATOM      3  C   UNL     1      -0.039   4.029   0.547  1.00  0.00     0.116 C 
BRANCH   3   4
ATOM      4  N   UNL     1      -1.329   3.470   0.201  1.00  0.00    -0.352 N 
ATOM      5  C   UNL     1      -1.786   2.224  -0.140  1.00  0.00     0.253 C 
ATOM      6  O   UNL     1      -3.004   2.154  -0.338  1.00  0.00    -0.269 OA
ATOM      7  H   UNL     1      -2.047   4.144   0.212  1.00  0.00     0.163 HD
BRANCH   5   8
ATOM      8  C   UNL     1      -0.956   0.973  -0.274  1.00  0.00     0.063 A 
ATOM      9  C   UNL     1       2.714  -0.123  -0.386  1.00  0.00     0.044 C 
ATOM     10  C   UNL     1       1.216  -0.162  -0.450  1.00  0.00    -0.050 A 
ATOM     11  C   UNL     1       0.567  -1.381  -0.596  1.00  0.00     0.005 A 
ATOM     12  C   UNL     1       0.447   1.008  -0.364  1.00  0.00     0.019 A 
ATOM     13  C   UNL     1      -0.825  -1.435  -0.595  1.00  0.00     0.027 A 
ATOM     14  C   UNL     1      -1.605  -0.296  -0.353  1.00  0.00     0.054 A 
BRANCH  14  15
ATOM     15  N   UNL     1      -3.017  -0.376  -0.230  1.00  0.00    -0.321 N 
ATOM     16  C   UNL     1      -3.927  -1.402  -0.116  1.00  0.00     0.256 C 
ATOM     17  H   UNL     1      -3.445   0.510  -0.225  1.00  0.00     0.170 HD
ATOM     18  O   UNL     1      -5.125  -1.155  -0.255  1.00  0.00    -0.269 OA
BRANCH  16  19
ATOM     19  C   UNL     1      -3.491  -2.758   0.186  1.00  0.00     0.052 A 
ATOM     20  C   UNL     1      -3.911  -3.844  -0.566  1.00  0.00     0.080 A 
ATOM     21  C   UNL     1      -2.650  -3.186   1.273  1.00  0.00     0.041 A 
ATOM     22  S   UNL     1      -3.187  -5.312  -0.063  1.00  0.00    -0.136 S 
ATOM     23  C   UNL     1      -2.377  -4.529   1.201  1.00  0.00     0.071 A 
ATOM     24  Br  UNL     1      -1.203  -5.410   2.364  1.00  0.00    -0.039 Br
ENDBRANCH  16  19
ENDBRANCH  14  15
ENDBRANCH   5   8
ENDBRANCH   3   4
ENDBRANCH   2   3
ENDBRANCH   1   2
BRANCH   1  25
ATOM     25  C   UNL     1       0.391   7.122   0.250  1.00  0.00     0.002 C 
BRANCH  25  26
ATOM     26  C   UNL     1       1.724   7.044   1.001  1.00  0.00     0.021 C 
BRANCH  26  27
ATOM     27  C   UNL     1       2.905   7.601   0.215  1.00  0.00     0.116 C 
BRANCH  27  28
ATOM     28  N   UNL     1       3.408   8.869   0.737  1.00  0.00    -0.352 N 
ATOM     29  C   UNL     1       4.359   9.717   0.197  1.00  0.00     0.251 C 
ATOM     30  H   UNL     1       3.015   9.161   1.591  1.00  0.00     0.163 HD
ATOM     31  O   UNL     1       4.674  10.751   0.764  1.00  0.00    -0.269 OA
BRANCH  29  32
ATOM     32  C   UNL     1       4.896   9.408  -1.147  1.00  0.00     0.039 A 
ATOM     33  C   UNL     1       4.778  10.386  -2.140  1.00  0.00     0.014 A 
ATOM     34  C   UNL     1       5.290   8.112  -1.469  1.00  0.00     0.014 A 
ATOM     35  C   UNL     1       4.810  10.000  -3.477  1.00  0.00     0.010 A 
ATOM     36  C   UNL     1       5.243   7.712  -2.791  1.00  0.00     0.010 A 
ATOM     37  C   UNL     1       4.926   8.642  -3.787  1.00  0.00    -0.014 A 
BRANCH  37  38
ATOM     38  C   UNL     1       4.562   8.103  -5.093  1.00  0.00     0.031 A 
ATOM     39  C   UNL     1       5.585   7.656  -6.057  1.00  0.00     0.074 A 
ATOM     40  C   UNL     1       3.256   7.972  -5.420  1.00  0.00     0.049 A 
ATOM     41  N   UNL     1       5.401   7.652  -7.336  1.00  0.00    -0.248 NA
ATOM     42  C   UNL     1       6.911   7.194  -5.661  1.00  0.00     0.031 C 
ATOM     43  C   UNL     1       2.699   7.271  -6.575  1.00  0.00     0.029 A 
ATOM     44  N   UNL     1       2.158   8.651  -4.864  1.00  0.00    -0.354 N 
ATOM     45  C   UNL     1       6.446   6.973  -7.905  1.00  0.00     0.074 A 
ATOM     46  C   UNL     1       7.390   6.754  -6.830  1.00  0.00     0.031 C 
ATOM     47  C   UNL     1       1.489   7.782  -6.845  1.00  0.00     0.029 A 
ATOM     48  C   UNL     1       1.281   8.902  -5.947  1.00  0.00     0.049 A 
ATOM     49  H   UNL     1       2.026   8.899  -3.920  1.00  0.00     0.167 HD
ATOM     50  C   UNL     1       6.365   6.563  -9.202  1.00  0.00     0.037 A 
ATOM     51  C   UNL     1       0.975  10.176  -6.324  1.00  0.00     0.037 A 
ATOM     52  C   UNL     1       5.116   6.956  -9.841  1.00  0.00     0.049 A 
ATOM     53  C   UNL     1       1.379  10.538  -7.737  1.00  0.00     0.074 A 
ATOM     54  C   UNL     1       3.925   6.310 -10.127  1.00  0.00     0.029 A 
ATOM     55  N   UNL     1       4.868   8.303 -10.032  1.00  0.00    -0.354 N 
ATOM     56  N   UNL     1       2.012   9.742  -8.553  1.00  0.00    -0.248 NA
ATOM     57  C   UNL     1       1.196  11.878  -8.301  1.00  0.00     0.031 C 
ATOM     58  C   UNL     1       2.965   7.288 -10.513  1.00  0.00     0.029 A 
ATOM     59  C   UNL     1       3.575   8.526 -10.457  1.00  0.00     0.049 A 
ATOM     60  H   UNL     1       5.532   9.014  -9.883  1.00  0.00     0.167 HD
ATOM     61  C   UNL     1       2.375  10.439  -9.675  1.00  0.00     0.074 A 
ATOM     62  C   UNL     1       1.838  11.771  -9.475  1.00  0.00     0.031 C 
ATOM     63  C   UNL     1       3.134   9.892 -10.667  1.00  0.00     0.037 A 
BRANCH  50  64
ATOM     64  C   UNL     1       7.362   5.617  -9.806  1.00  0.00     0.064 A 
ATOM     65  C   UNL     1       6.955   4.572 -10.658  1.00  0.00     0.173 A 
ATOM     66  C   UNL     1       8.742   5.681  -9.540  1.00  0.00     0.173 A 
ATOM     67  F   UNL     1       5.680   4.439 -11.042  1.00  0.00    -0.203 F 
ATOM     68  C   UNL     1       7.848   3.607 -11.127  1.00  0.00     0.198 A 
ATOM     69  C   UNL     1       9.625   4.685  -9.963  1.00  0.00     0.198 A 
ATOM     70  F   UNL     1       9.265   6.719  -8.869  1.00  0.00    -0.203 F 
ATOM     71  F   UNL     1       7.406   2.626 -11.928  1.00  0.00    -0.200 F 
ATOM     72  C   UNL     1       9.175   3.642 -10.749  1.00  0.00     0.200 A 
ATOM     73  F   UNL     1      10.912   4.734  -9.591  1.00  0.00    -0.200 F 
ATOM     74  F   UNL     1      10.018   2.679 -11.148  1.00  0.00    -0.200 F 
ENDBRANCH  50  64
BRANCH  51  75
ATOM     75  C   UNL     1       0.936  11.121  -5.178  1.00  0.00     0.064 A 
ATOM     76  C   UNL     1      -0.010  10.899  -4.157  1.00  0.00     0.173 A 
ATOM     77  C   UNL     1       2.000  11.984  -4.898  1.00  0.00     0.173 A 
ATOM     78  F   UNL     1      -1.048  10.075  -4.372  1.00  0.00    -0.203 F 
ATOM     79  C   UNL     1       0.167  11.424  -2.880  1.00  0.00     0.198 A 
ATOM     80  C   UNL     1       2.163  12.525  -3.622  1.00  0.00     0.198 A 
ATOM     81  F   UNL     1       2.946  12.217  -5.820  1.00  0.00    -0.203 F 
ATOM     82  F   UNL     1      -0.688  11.100  -1.899  1.00  0.00    -0.200 F 
ATOM     83  C   UNL     1       1.268  12.217  -2.607  1.00  0.00     0.200 A 
ATOM     84  F   UNL     1       3.241  13.275  -3.353  1.00  0.00    -0.200 F 
ATOM     85  F   UNL     1       1.488  12.653  -1.360  1.00  0.00    -0.200 F 
ENDBRANCH  51  75
BRANCH  63  86
ATOM     86  C   UNL     1       3.533  10.617 -11.919  1.00  0.00     0.064 A 
ATOM     87  C   UNL     1       2.627  11.389 -12.663  1.00  0.00     0.173 A 
ATOM     88  C   UNL     1       4.818  10.456 -12.482  1.00  0.00     0.173 A 
ATOM     89  F   UNL     1       1.361  11.547 -12.251  1.00  0.00    -0.203 F 
ATOM     90  C   UNL     1       2.997  11.998 -13.865  1.00  0.00     0.198 A 
ATOM     91  C   UNL     1       5.168  11.021 -13.706  1.00  0.00     0.198 A 
ATOM     92  F   UNL     1       5.777   9.764 -11.849  1.00  0.00    -0.203 F 
ATOM     93  F   UNL     1       2.116  12.768 -14.518  1.00  0.00    -0.200 F 
ATOM     94  C   UNL     1       4.262  11.804 -14.392  1.00  0.00     0.200 A 
ATOM     95  F   UNL     1       6.391  10.804 -14.213  1.00  0.00    -0.200 F 
ATOM     96  F   UNL     1       4.608  12.371 -15.555  1.00  0.00    -0.200 F 
ENDBRANCH  63  86
ENDBRANCH  37  38
ENDBRANCH  29  32
ENDBRANCH  27  28
ENDBRANCH  26  27
ENDBRANCH  25  26
ENDBRANCH   1  25
TORSDOF 15
