REMARK SMILES CCCc1cc(S(F)(F)(F)(F)F)cc2c1O[C@@H](C(F)(F)F)C(C(=O)NCCCCCCNC(=O)c1ccc(-c3c4nc(c(-c5c(F)c(F)c(F)c(F)c5F)c5ccc([nH]5)c(-c5c(F)c(F)c(F)c(F)c5F)c5nc(c(-c6c(F)c(F)c(F)c(F)c6F)c6ccc3[nH]6)C=C5)C=C4)cc1)=C2
REMARK SMILES IDX 28 1 27 2 26 3 25 4 23 5 24 6 22 8 4 9 5 10 15 11 6 12 14 13
REMARK SMILES IDX 16 14 13 15 98 16 17 17 3 18 2 19 1 20 7 21 8 22 9 23 10 24
REMARK SMILES IDX 11 25 12 26 18 27 19 28 20 29 21 30 29 31 30 32 31 33 32 34
REMARK SMILES IDX 33 35 34 37 35 38 36 39 97 40 37 41 96 42 38 43 39 44 40 45
REMARK SMILES IDX 90 46 41 47 95 48 89 49 91 50 42 51 94 52 88 53 87 54 43 56
REMARK SMILES IDX 75 57 55 58 74 59 56 60 59 61 73 62 92 63 57 64 58 65 72 67
REMARK SMILES IDX 93 68 60 69 44 70 45 71 53 72 46 73 47 74 51 75 54 76 48 77
REMARK SMILES IDX 49 78 52 79 50 80 76 81 77 82 85 83 78 84 79 85 83 86 86 87
REMARK SMILES IDX 80 88 81 89 84 90 82 91 61 92 62 93 70 94 63 95 64 96 68 97
REMARK SMILES IDX 71 98 65 99 66 100 69 101 67 102
REMARK H PARENT 25 7 32 36 91 55 59 66
REMARK Flexibility Score: inf
ROOT
ATOM      1  C   UNL     1      -2.529   1.996  -7.918  1.00  0.00     0.002 C 
ENDROOT
BRANCH   1   2
ATOM      2  C   UNL     1      -1.745   2.523  -6.727  1.00  0.00     0.021 C 
BRANCH   2   3
ATOM      3  C   UNL     1      -2.446   2.121  -5.441  1.00  0.00     0.116 C 
BRANCH   3   4
ATOM      4  N   UNL     1      -2.528   0.655  -5.364  1.00  0.00    -0.352 N 
ATOM      5  C   UNL     1      -1.897  -0.059  -4.245  1.00  0.00     0.251 C 
ATOM      6  O   UNL     1      -1.967  -1.326  -4.179  1.00  0.00    -0.270 OA
ATOM      7  H   UNL     1      -3.005   0.151  -6.063  1.00  0.00     0.163 HD
BRANCH   5   8
ATOM      8  C   UNL     1      -1.160   0.719  -3.166  1.00  0.00     0.067 C 
ATOM      9  C   UNL     1       0.439   2.807   0.079  1.00  0.00    -0.004 A 
ATOM     10  C   UNL     1       0.712   4.157  -0.036  1.00  0.00     0.032 A 
ATOM     11  C   UNL     1      -0.136   2.156  -0.986  1.00  0.00     0.131 A 
ATOM     12  C   UNL     1       0.412   4.841  -1.185  1.00  0.00     0.108 A 
ATOM     13  C   UNL     1      -0.435   2.810  -2.167  1.00  0.00     0.019 A 
ATOM     14  O   UNL     1      -0.504   0.844  -0.817  1.00  0.00    -0.475 OA
ATOM     15  C   UNL     1      -0.152   4.168  -2.248  1.00  0.00     0.036 A 
ATOM     16  C   UNL     1      -1.078   2.043  -3.221  1.00  0.00     0.025 C 
ATOM     17  C   UNL     1      -0.500  -0.004  -2.000  1.00  0.00     0.314 C 
BRANCH   9  18
ATOM     18  C   UNL     1       0.946   2.081   1.315  1.00  0.00     0.039 C 
BRANCH  18  19
ATOM     19  C   UNL     1       0.439   0.648   1.305  1.00  0.00     0.001 C 
ATOM     20  C   UNL     1       0.946  -0.059   0.059  1.00  0.00     0.004 C 
ENDBRANCH  18  19
ENDBRANCH   9  18
BRANCH  12  21
ATOM     21  S   UNL     1       0.755   6.614  -1.306  1.00  0.00     0.310 S 
ATOM     22  F   UNL     1       1.516   6.633   0.085  1.00  0.00    -0.094 F 
ATOM     23  F   UNL     1      -0.574   6.886  -0.505  1.00  0.00    -0.094 F 
ATOM     24  F   UNL     1       1.037   8.140  -1.411  1.00  0.00    -0.094 F 
ATOM     25  F   UNL     1       2.151   6.318  -1.983  1.00  0.00    -0.094 F 
ATOM     26  F   UNL     1       0.538   5.061  -1.109  1.00  0.00    -0.094 F 
ENDBRANCH  12  21
BRANCH  17  27
ATOM     27  C   UNL     1      -1.277  -1.276  -1.701  1.00  0.00     0.429 C 
ATOM     28  F   UNL     1      -1.276  -2.059  -2.776  1.00  0.00    -0.167 F 
ATOM     29  F   UNL     1      -0.705  -1.916  -0.685  1.00  0.00    -0.167 F 
ATOM     30  F   UNL     1      -2.530  -0.965  -1.380  1.00  0.00    -0.167 F 
ENDBRANCH  17  27
ENDBRANCH   5   8
ENDBRANCH   3   4
ENDBRANCH   2   3
ENDBRANCH   1   2
BRANCH   1  31
ATOM     31  C   UNL     1      -3.931   2.583  -7.901  1.00  0.00     0.002 C 
BRANCH  31  32
ATOM     32  C   UNL     1      -3.847   4.099  -7.980  1.00  0.00     0.021 C 
BRANCH  32  33
ATOM     33  C   UNL     1      -3.145   4.501  -9.267  1.00  0.00     0.116 C 
BRANCH  33  34
ATOM     34  N   UNL     1      -3.903   3.992 -10.419  1.00  0.00    -0.352 N 
ATOM     35  C   UNL     1      -4.440   4.927 -11.417  1.00  0.00     0.251 C 
ATOM     36  H   UNL     1      -4.052   3.024 -10.521  1.00  0.00     0.163 HD
ATOM     37  O   UNL     1      -5.096   4.487 -12.413  1.00  0.00    -0.269 OA
BRANCH  35  38
ATOM     38  C   UNL     1      -4.211   6.422 -11.259  1.00  0.00     0.039 A 
ATOM     39  C   UNL     1      -5.268   7.295 -11.458  1.00  0.00     0.014 A 
ATOM     40  C   UNL     1      -3.003   6.865 -10.930  1.00  0.00     0.014 A 
ATOM     41  C   UNL     1      -4.878   8.650 -11.570  1.00  0.00     0.010 A 
ATOM     42  C   UNL     1      -2.729   8.211 -10.928  1.00  0.00     0.010 A 
ATOM     43  C   UNL     1      -3.712   9.130 -11.175  1.00  0.00    -0.014 A 
BRANCH  43  44
ATOM     44  C   UNL     1      -3.476  10.621 -11.003  1.00  0.00     0.031 A 
ATOM     45  C   UNL     1      -2.470  11.191 -11.785  1.00  0.00     0.074 A 
ATOM     46  C   UNL     1      -4.266  11.335 -10.118  1.00  0.00     0.049 A 
ATOM     47  N   UNL     1      -2.120  12.477 -11.850  1.00  0.00    -0.248 NA
ATOM     48  C   UNL     1      -1.607  10.430 -12.701  1.00  0.00     0.031 C 
ATOM     49  C   UNL     1      -5.289  10.768  -9.332  1.00  0.00     0.029 A 
ATOM     50  N   UNL     1      -4.216  12.682  -9.837  1.00  0.00    -0.354 N 
ATOM     51  C   UNL     1      -1.126  12.640 -12.726  1.00  0.00     0.074 A 
ATOM     52  C   UNL     1      -0.778  11.325 -13.281  1.00  0.00     0.031 C 
ATOM     53  C   UNL     1      -5.839  11.757  -8.580  1.00  0.00     0.029 A 
ATOM     54  C   UNL     1      -5.171  12.958  -8.884  1.00  0.00     0.049 A 
ATOM     55  H   UNL     1      -3.604  13.335 -10.247  1.00  0.00     0.167 HD
ATOM     56  C   UNL     1      -0.499  13.834 -13.085  1.00  0.00     0.037 A 
ATOM     57  C   UNL     1      -5.456  14.182  -8.298  1.00  0.00     0.037 A 
ATOM     58  C   UNL     1      -0.814  15.065 -12.531  1.00  0.00     0.049 A 
ATOM     59  C   UNL     1      -4.788  15.367  -8.614  1.00  0.00     0.074 A 
ATOM     60  C   UNL     1      -0.196  16.279 -12.887  1.00  0.00     0.029 A 
ATOM     61  N   UNL     1      -1.752  15.337 -11.559  1.00  0.00    -0.354 N 
ATOM     62  N   UNL     1      -3.822  15.537  -9.519  1.00  0.00    -0.248 NA
ATOM     63  C   UNL     1      -5.060  16.663  -7.978  1.00  0.00     0.031 C 
ATOM     64  C   UNL     1      -0.747  17.269 -12.134  1.00  0.00     0.029 A 
ATOM     65  C   UNL     1      -1.717  16.689 -11.295  1.00  0.00     0.049 A 
ATOM     66  H   UNL     1      -2.344  14.680 -11.128  1.00  0.00     0.167 HD
ATOM     67  C   UNL     1      -3.444  16.816  -9.553  1.00  0.00     0.074 A 
ATOM     68  C   UNL     1      -4.229  17.558  -8.557  1.00  0.00     0.031 C 
ATOM     69  C   UNL     1      -2.478  17.396 -10.377  1.00  0.00     0.037 A 
BRANCH  56  70
ATOM     70  C   UNL     1       0.591  13.782 -14.143  1.00  0.00     0.064 A 
ATOM     71  C   UNL     1       0.285  13.315 -15.411  1.00  0.00     0.173 A 
ATOM     72  C   UNL     1       1.818  14.185 -13.835  1.00  0.00     0.173 A 
ATOM     73  F   UNL     1      -0.962  13.142 -15.839  1.00  0.00    -0.203 F 
ATOM     74  C   UNL     1       1.421  13.039 -16.209  1.00  0.00     0.198 A 
ATOM     75  C   UNL     1       2.855  14.007 -14.718  1.00  0.00     0.198 A 
ATOM     76  F   UNL     1       2.045  14.767 -12.661  1.00  0.00    -0.203 F 
ATOM     77  F   UNL     1       1.252  12.265 -17.277  1.00  0.00    -0.200 F 
ATOM     78  C   UNL     1       2.636  13.496 -15.967  1.00  0.00     0.200 A 
ATOM     79  F   UNL     1       4.091  14.337 -14.353  1.00  0.00    -0.200 F 
ATOM     80  F   UNL     1       3.594  13.461 -16.889  1.00  0.00    -0.200 F 
ENDBRANCH  56  70
BRANCH  57  81
ATOM     81  C   UNL     1      -6.557  14.236  -7.252  1.00  0.00     0.064 A 
ATOM     82  C   UNL     1      -7.658  15.049  -7.467  1.00  0.00     0.173 A 
ATOM     83  C   UNL     1      -6.446  13.505  -6.149  1.00  0.00     0.173 A 
ATOM     84  F   UNL     1      -7.937  15.597  -8.646  1.00  0.00    -0.203 F 
ATOM     85  C   UNL     1      -8.460  15.245  -6.317  1.00  0.00     0.198 A 
ATOM     86  C   UNL     1      -7.344  13.650  -5.120  1.00  0.00     0.198 A 
ATOM     87  F   UNL     1      -5.455  12.624  -6.041  1.00  0.00    -0.203 F 
ATOM     88  F   UNL     1      -9.308  16.269  -6.321  1.00  0.00    -0.200 F 
ATOM     89  C   UNL     1      -8.423  14.481  -5.240  1.00  0.00     0.200 A 
ATOM     90  F   UNL     1      -7.161  12.973  -3.990  1.00  0.00    -0.200 F 
ATOM     91  F   UNL     1      -9.385  14.517  -4.322  1.00  0.00    -0.200 F 
ENDBRANCH  57  81
BRANCH  69  92
ATOM     92  C   UNL     1      -2.247  18.894 -10.262  1.00  0.00     0.064 A 
ATOM     93  C   UNL     1      -1.824  19.415  -9.050  1.00  0.00     0.173 A 
ATOM     94  C   UNL     1      -2.435  19.674 -11.319  1.00  0.00     0.173 A 
ATOM     95  F   UNL     1      -1.383  18.659  -8.049  1.00  0.00    -0.203 F 
ATOM     96  C   UNL     1      -1.905  20.826  -8.974  1.00  0.00     0.198 A 
ATOM     97  C   UNL     1      -2.365  21.041 -11.201  1.00  0.00     0.198 A 
ATOM     98  F   UNL     1      -2.694  19.127 -12.504  1.00  0.00    -0.203 F 
ATOM     99  F   UNL     1      -1.871  21.384  -7.767  1.00  0.00    -0.200 F 
ATOM    100  C   UNL     1      -2.011  21.628 -10.018  1.00  0.00     0.200 A 
ATOM    101  F   UNL     1      -2.645  21.805 -12.254  1.00  0.00    -0.200 F 
ATOM    102  F   UNL     1      -1.785  22.935  -9.924  1.00  0.00    -0.200 F 
ENDBRANCH  69  92
ENDBRANCH  43  44
ENDBRANCH  35  38
ENDBRANCH  33  34
ENDBRANCH  32  33
ENDBRANCH  31  32
ENDBRANCH   1  31
TORSDOF 17
