REMARK SMILES O=C(NCCCCCCNC(=O)[C@@H]1CCCC[C@@H]1NS(=O)(=O)c1ccc2ccccc2c1)c1ccc(-c2c3nc(c(-c4c(F)c(F)c(F)c(F)c4F)c4ccc([nH]4)c(-c4c(F)c(F)c(F)c(F)c4F)c4nc(c(-c5c(F)c(F)c(F)c(F)c5F)c5ccc2[nH]5)C=C4)C=C3)cc1
REMARK SMILES IDX 7 1 6 2 5 3 4 4 3 5 1 6 2 7 33 9 34 10 95 11 35 12 94 13
REMARK SMILES IDX 36 14 37 15 38 16 88 17 39 18 93 19 87 20 89 21 40 22 92 23
REMARK SMILES IDX 86 24 85 25 41 27 73 28 53 29 72 30 54 31 57 32 71 33 90 34
REMARK SMILES IDX 55 35 56 36 70 38 91 39 58 40 42 41 43 42 51 43 44 44 45 45
REMARK SMILES IDX 49 46 52 47 46 48 47 49 50 50 48 51 74 52 75 53 83 54 76 55
REMARK SMILES IDX 77 56 81 57 84 58 78 59 79 60 82 61 80 62 59 63 60 64 68 65
REMARK SMILES IDX 61 66 62 67 66 68 69 69 63 70 64 71 67 72 65 73 8 74 9 75
REMARK SMILES IDX 10 76 11 77 12 79 13 80 14 81 18 82 15 83 17 84 16 85 19 86
REMARK SMILES IDX 20 88 21 89 22 90 23 91 24 92 32 93 25 94 31 95 26 96 30 97
REMARK SMILES IDX 27 98 29 99 28 100
REMARK H PARENT 3 8 89 26 57 37 10 78 19 87
REMARK Flexibility Score: inf
ROOT
ATOM      1  C   UNL     1       4.678  -3.290   2.735  1.00  0.00     0.002 C 
ENDROOT
BRANCH   1   2
ATOM      2  C   UNL     1       4.043  -1.974   3.197  1.00  0.00     0.002 C 
BRANCH   2   3
ATOM      3  C   UNL     1       4.541  -0.715   2.481  1.00  0.00     0.021 C 
BRANCH   3   4
ATOM      4  C   UNL     1       4.387  -0.732   0.963  1.00  0.00     0.116 C 
BRANCH   4   5
ATOM      5  N   UNL     1       2.997  -0.839   0.556  1.00  0.00    -0.352 N 
ATOM      6  O   UNL     1       1.041  -0.167  -0.335  1.00  0.00    -0.269 OA
ATOM      7  C   UNL     1       2.256  -0.018  -0.254  1.00  0.00     0.251 C 
ATOM      8  H   UNL     1       2.515  -1.619   0.915  1.00  0.00     0.163 HD
BRANCH   7   9
ATOM      9  C   UNL     1       2.912   1.061  -1.022  1.00  0.00     0.039 A 
ATOM     10  C   UNL     1       4.077   0.821  -1.759  1.00  0.00     0.014 A 
ATOM     11  C   UNL     1       2.312   2.323  -1.046  1.00  0.00     0.014 A 
ATOM     12  C   UNL     1       4.690   1.866  -2.448  1.00  0.00     0.010 A 
ATOM     13  C   UNL     1       2.900   3.356  -1.776  1.00  0.00     0.010 A 
ATOM     14  C   UNL     1       4.102   3.140  -2.467  1.00  0.00    -0.014 A 
BRANCH  14  15
ATOM     15  C   UNL     1       4.715   4.240  -3.249  1.00  0.00     0.031 A 
ATOM     16  C   UNL     1       5.323   5.422  -2.556  1.00  0.00     0.074 A 
ATOM     17  C   UNL     1       4.681   4.186  -4.593  1.00  0.00     0.049 A 
ATOM     18  N   UNL     1       5.822   6.517  -3.071  1.00  0.00    -0.248 NA
ATOM     19  C   UNL     1       5.368   5.372  -1.087  1.00  0.00     0.031 C 
ATOM     20  C   UNL     1       4.107   3.092  -5.377  1.00  0.00     0.029 A 
ATOM     21  N   UNL     1       5.123   5.078  -5.536  1.00  0.00    -0.354 N 
ATOM     22  C   UNL     1       6.218   7.296  -1.994  1.00  0.00     0.074 A 
ATOM     23  C   UNL     1       5.889   6.556  -0.793  1.00  0.00     0.031 C 
ATOM     24  C   UNL     1       4.231   3.376  -6.682  1.00  0.00     0.029 A 
ATOM     25  C   UNL     1       4.851   4.691  -6.824  1.00  0.00     0.049 A 
ATOM     26  H   UNL     1       5.590   5.915  -5.311  1.00  0.00     0.167 HD
ATOM     27  C   UNL     1       6.804   8.517  -2.009  1.00  0.00     0.037 A 
ATOM     28  C   UNL     1       5.051   5.334  -7.989  1.00  0.00     0.037 A 
ATOM     29  C   UNL     1       7.143   9.242  -3.206  1.00  0.00     0.049 A 
ATOM     30  C   UNL     1       5.687   6.693  -7.980  1.00  0.00     0.074 A 
ATOM     31  C   UNL     1       7.783  10.463  -3.325  1.00  0.00     0.029 A 
ATOM     32  N   UNL     1       6.859   8.812  -4.494  1.00  0.00    -0.354 N 
ATOM     33  N   UNL     1       6.092   7.406  -6.957  1.00  0.00    -0.248 NA
ATOM     34  C   UNL     1       5.894   7.338  -9.283  1.00  0.00     0.031 C 
ATOM     35  C   UNL     1       7.856  10.789  -4.684  1.00  0.00     0.029 A 
ATOM     36  C   UNL     1       7.294   9.753  -5.413  1.00  0.00     0.049 A 
ATOM     37  H   UNL     1       6.415   7.963  -4.721  1.00  0.00     0.167 HD
ATOM     38  C   UNL     1       6.616   8.574  -7.490  1.00  0.00     0.074 A 
ATOM     39  C   UNL     1       6.484   8.473  -8.930  1.00  0.00     0.031 C 
ATOM     40  C   UNL     1       7.159   9.633  -6.843  1.00  0.00     0.037 A 
BRANCH  27  41
ATOM     41  C   UNL     1       7.099   9.157  -0.685  1.00  0.00     0.064 A 
ATOM     42  C   UNL     1       8.146   8.709   0.133  1.00  0.00     0.173 A 
ATOM     43  C   UNL     1       6.341  10.252  -0.243  1.00  0.00     0.173 A 
ATOM     44  F   UNL     1       8.891   7.657  -0.240  1.00  0.00    -0.203 F 
ATOM     45  C   UNL     1       8.407   9.317   1.358  1.00  0.00     0.198 A 
ATOM     46  C   UNL     1       6.619  10.872   0.972  1.00  0.00     0.198 A 
ATOM     47  F   UNL     1       5.331  10.721  -0.991  1.00  0.00    -0.203 F 
ATOM     48  F   UNL     1       9.385   8.844   2.144  1.00  0.00    -0.200 F 
ATOM     49  C   UNL     1       7.647  10.400   1.775  1.00  0.00     0.200 A 
ATOM     50  F   UNL     1       5.889  11.923   1.370  1.00  0.00    -0.200 F 
ATOM     51  F   UNL     1       7.900  10.983   2.954  1.00  0.00    -0.200 F 
ENDBRANCH  27  41
BRANCH  28  52
ATOM     52  C   UNL     1       4.631   4.683  -9.254  1.00  0.00     0.064 A 
ATOM     53  C   UNL     1       5.577   4.131 -10.126  1.00  0.00     0.173 A 
ATOM     54  C   UNL     1       3.275   4.550  -9.584  1.00  0.00     0.173 A 
ATOM     55  F   UNL     1       6.886   4.250  -9.857  1.00  0.00    -0.203 F 
ATOM     56  C   UNL     1       5.181   3.467 -11.285  1.00  0.00     0.198 A 
ATOM     57  C   UNL     1       2.880   3.868 -10.732  1.00  0.00     0.198 A 
ATOM     58  F   UNL     1       2.334   5.058  -8.775  1.00  0.00    -0.203 F 
ATOM     59  F   UNL     1       6.105   2.962 -12.113  1.00  0.00    -0.200 F 
ATOM     60  C   UNL     1       3.833   3.328 -11.582  1.00  0.00     0.200 A 
ATOM     61  F   UNL     1       1.576   3.723 -11.007  1.00  0.00    -0.200 F 
ATOM     62  F   UNL     1       3.453   2.673 -12.687  1.00  0.00    -0.200 F 
ENDBRANCH  28  52
BRANCH  40  63
ATOM     63  C   UNL     1       7.678  10.758  -7.684  1.00  0.00     0.064 A 
ATOM     64  C   UNL     1       6.813  11.689  -8.276  1.00  0.00     0.173 A 
ATOM     65  C   UNL     1       9.059  10.938  -7.853  1.00  0.00     0.173 A 
ATOM     66  F   UNL     1       5.485  11.548  -8.154  1.00  0.00    -0.203 F 
ATOM     67  C   UNL     1       7.314  12.757  -9.016  1.00  0.00     0.198 A 
ATOM     68  C   UNL     1       9.556  12.017  -8.577  1.00  0.00     0.198 A 
ATOM     69  F   UNL     1       9.925  10.073  -7.303  1.00  0.00    -0.203 F 
ATOM     70  F   UNL     1       6.470  13.621  -9.596  1.00  0.00    -0.200 F 
ATOM     71  C   UNL     1       8.684  12.924  -9.159  1.00  0.00     0.200 A 
ATOM     72  F   UNL     1      10.880  12.182  -8.708  1.00  0.00    -0.200 F 
ATOM     73  F   UNL     1       9.163  13.958  -9.864  1.00  0.00    -0.200 F 
ENDBRANCH  40  63
ENDBRANCH  14  15
ENDBRANCH   7   9
ENDBRANCH   4   5
ENDBRANCH   3   4
ENDBRANCH   2   3
ENDBRANCH   1   2
BRANCH   1  74
ATOM     74  C   UNL     1       6.209  -3.319   2.755  1.00  0.00     0.021 C 
BRANCH  74  75
ATOM     75  C   UNL     1       6.825  -3.000   4.116  1.00  0.00     0.116 C 
BRANCH  75  76
ATOM     76  N   UNL     1       6.591  -4.064   5.077  1.00  0.00    -0.356 N 
ATOM     77  C   UNL     1       7.467  -4.975   5.606  1.00  0.00     0.224 C 
ATOM     78  H   UNL     1       5.663  -4.141   5.397  1.00  0.00     0.163 HD
ATOM     79  O   UNL     1       7.005  -5.927   6.229  1.00  0.00    -0.275 OA
BRANCH  77  80
ATOM     80  C   UNL     1       8.951  -4.780   5.351  1.00  0.00     0.096 C 
ATOM     81  C   UNL     1       9.803  -6.045   5.428  1.00  0.00     0.015 C 
ATOM     82  C   UNL     1       9.569  -3.591   6.093  1.00  0.00     0.082 C 
ATOM     83  C   UNL     1      11.170  -5.771   4.804  1.00  0.00     0.001 C 
ATOM     84  C   UNL     1      11.011  -3.341   5.633  1.00  0.00     0.021 C 
ATOM     85  C   UNL     1      11.876  -4.589   5.458  1.00  0.00     0.002 C 
BRANCH  82  86
ATOM     86  N   UNL     1       9.381  -3.440   7.548  1.00  0.00    -0.207 NA
ATOM     87  H   UNL     1       8.402  -3.167   7.633  1.00  0.00     0.141 HD
BRANCH  86  88
ATOM     88  S   UNL     1       9.605  -4.486   8.830  1.00  0.00     0.240 S 
ATOM     89  O   UNL     1       9.211  -3.732  10.002  1.00  0.00    -0.207 OA
ATOM     90  O   UNL     1       9.007  -5.759   8.524  1.00  0.00    -0.207 OA
BRANCH  88  91
ATOM     91  C   UNL     1      11.358  -4.689   8.939  1.00  0.00     0.083 A 
ATOM     92  C   UNL     1      11.908  -5.971   8.960  1.00  0.00     0.022 A 
ATOM     93  C   UNL     1      12.174  -3.555   8.881  1.00  0.00     0.030 A 
ATOM     94  C   UNL     1      13.289  -6.122   8.828  1.00  0.00     0.010 A 
ATOM     95  C   UNL     1      13.553  -3.701   8.691  1.00  0.00    -0.017 A 
ATOM     96  C   UNL     1      14.116  -5.001   8.645  1.00  0.00    -0.018 A 
ATOM     97  C   UNL     1      14.372  -2.584   8.472  1.00  0.00     0.009 A 
ATOM     98  C   UNL     1      15.484  -5.141   8.365  1.00  0.00     0.009 A 
ATOM     99  C   UNL     1      15.725  -2.744   8.175  1.00  0.00     0.001 A 
ATOM    100  C   UNL     1      16.279  -4.021   8.118  1.00  0.00     0.001 A 
ENDBRANCH  88  91
ENDBRANCH  86  88
ENDBRANCH  82  86
ENDBRANCH  77  80
ENDBRANCH  75  76
ENDBRANCH  74  75
ENDBRANCH   1  74
TORSDOF 16
