REMARK SMILES O=C(NCCCCCCNC(=O)c1cc(S(=O)(=O)Nc2cccc(Cl)c2)ccc1O)c1ccc(-c2c3nc(c(-c4c(F)c(F)c(F)c(F)c4F)c4ccc([nH]4)c(-c4c(F)c(F)c(F)c(F)c4F)c4nc(c(-c5c(F)c(F)c(F)c(F)c5F)c5ccc2[nH]5)C=C4)C=C3)cc1
REMARK SMILES IDX 7 1 6 2 5 3 4 4 3 5 1 6 2 7 31 9 32 10 93 11 33 12 92 13
REMARK SMILES IDX 34 14 35 15 36 16 86 17 37 18 91 19 85 20 87 21 38 22 90 23
REMARK SMILES IDX 84 24 83 25 39 27 71 28 51 29 70 30 52 31 55 32 69 33 88 34
REMARK SMILES IDX 53 35 54 36 68 38 89 39 56 40 40 41 41 42 49 43 42 44 43 45
REMARK SMILES IDX 47 46 50 47 44 48 45 49 48 50 46 51 72 52 73 53 81 54 74 55
REMARK SMILES IDX 75 56 79 57 82 58 76 59 77 60 80 61 78 62 57 63 58 64 66 65
REMARK SMILES IDX 59 66 60 67 64 68 67 69 61 70 62 71 65 72 63 73 8 74 9 75
REMARK SMILES IDX 10 76 11 77 12 79 13 80 14 81 29 82 15 83 28 84 27 85 30 86
REMARK SMILES IDX 16 88 17 89 18 90 19 91 20 93 21 94 26 95 22 96 24 97 23 98
REMARK SMILES IDX 25 99
REMARK H PARENT 3 8 87 26 55 37 10 78 30 87 19 92
REMARK Flexibility Score: inf
ROOT
ATOM      1  C   UNL     1       4.615   1.647  -4.197  1.00  0.00     0.002 C 
ENDROOT
BRANCH   1   2
ATOM      2  C   UNL     1       4.132   0.204  -4.018  1.00  0.00     0.002 C 
BRANCH   2   3
ATOM      3  C   UNL     1       4.641  -0.513  -2.768  1.00  0.00     0.021 C 
BRANCH   3   4
ATOM      4  C   UNL     1       4.383   0.217  -1.459  1.00  0.00     0.116 C 
BRANCH   4   5
ATOM      5  N   UNL     1       2.967   0.366  -1.161  1.00  0.00    -0.352 N 
ATOM      6  O   UNL     1       1.053   0.077   0.008  1.00  0.00    -0.269 OA
ATOM      7  C   UNL     1       2.277   0.011  -0.026  1.00  0.00     0.251 C 
ATOM      8  H   UNL     1       2.426   0.778  -1.872  1.00  0.00     0.163 HD
BRANCH   7   9
ATOM      9  C   UNL     1       3.022  -0.479   1.154  1.00  0.00     0.039 A 
ATOM     10  C   UNL     1       4.187   0.169   1.569  1.00  0.00     0.014 A 
ATOM     11  C   UNL     1       2.562  -1.606   1.841  1.00  0.00     0.014 A 
ATOM     12  C   UNL     1       4.977  -0.404   2.556  1.00  0.00     0.010 A 
ATOM     13  C   UNL     1       3.305  -2.118   2.910  1.00  0.00     0.010 A 
ATOM     14  C   UNL     1       4.535  -1.540   3.256  1.00  0.00    -0.014 A 
BRANCH  14  15
ATOM     15  C   UNL     1       5.354  -2.039   4.391  1.00  0.00     0.031 A 
ATOM     16  C   UNL     1       5.978  -3.405   4.373  1.00  0.00     0.074 A 
ATOM     17  C   UNL     1       5.575  -1.206   5.428  1.00  0.00     0.049 A 
ATOM     18  N   UNL     1       6.762  -3.964   5.263  1.00  0.00    -0.248 NA
ATOM     19  C   UNL     1       5.685  -4.263   3.215  1.00  0.00     0.031 C 
ATOM     20  C   UNL     1       5.002   0.136   5.563  1.00  0.00     0.029 A 
ATOM     21  N   UNL     1       6.353  -1.347   6.548  1.00  0.00    -0.354 N 
ATOM     22  C   UNL     1       7.051  -5.232   4.778  1.00  0.00     0.074 A 
ATOM     23  C   UNL     1       6.327  -5.379   3.533  1.00  0.00     0.031 C 
ATOM     24  C   UNL     1       5.489   0.715   6.668  1.00  0.00     0.029 A 
ATOM     25  C   UNL     1       6.347  -0.239   7.359  1.00  0.00     0.049 A 
ATOM     26  H   UNL     1       6.865  -2.163   6.751  1.00  0.00     0.167 HD
ATOM     27  C   UNL     1       7.860  -6.178   5.316  1.00  0.00     0.037 A 
ATOM     28  C   UNL     1       6.947  -0.019   8.543  1.00  0.00     0.037 A 
ATOM     29  C   UNL     1       8.573  -6.025   6.561  1.00  0.00     0.049 A 
ATOM     30  C   UNL     1       7.808  -1.100   9.129  1.00  0.00     0.074 A 
ATOM     31  C   UNL     1       9.418  -6.923   7.189  1.00  0.00     0.029 A 
ATOM     32  N   UNL     1       8.520  -4.898   7.370  1.00  0.00    -0.354 N 
ATOM     33  N   UNL     1       8.098  -2.282   8.642  1.00  0.00    -0.248 NA
ATOM     34  C   UNL     1       8.427  -0.816  10.429  1.00  0.00     0.031 C 
ATOM     35  C   UNL     1       9.839  -6.361   8.399  1.00  0.00     0.029 A 
ATOM     36  C   UNL     1       9.305  -5.087   8.498  1.00  0.00     0.049 A 
ATOM     37  H   UNL     1       8.002  -4.085   7.173  1.00  0.00     0.167 HD
ATOM     38  C   UNL     1       8.945  -2.876   9.566  1.00  0.00     0.074 A 
ATOM     39  C   UNL     1       9.148  -1.910  10.625  1.00  0.00     0.031 C 
ATOM     40  C   UNL     1       9.497  -4.114   9.544  1.00  0.00     0.037 A 
BRANCH  27  41
ATOM     41  C   UNL     1       8.019  -7.472   4.568  1.00  0.00     0.064 A 
ATOM     42  C   UNL     1       8.731  -7.539   3.360  1.00  0.00     0.173 A 
ATOM     43  C   UNL     1       7.511  -8.671   5.093  1.00  0.00     0.173 A 
ATOM     44  F   UNL     1       9.231  -6.423   2.808  1.00  0.00    -0.203 F 
ATOM     45  C   UNL     1       8.909  -8.751   2.697  1.00  0.00     0.198 A 
ATOM     46  C   UNL     1       7.716  -9.885   4.443  1.00  0.00     0.198 A 
ATOM     47  F   UNL     1       6.829  -8.668   6.248  1.00  0.00    -0.203 F 
ATOM     48  F   UNL     1       9.559  -8.782   1.525  1.00  0.00    -0.200 F 
ATOM     49  C   UNL     1       8.410  -9.924   3.243  1.00  0.00     0.200 A 
ATOM     50  F   UNL     1       7.247 -11.020   4.980  1.00  0.00    -0.200 F 
ATOM     51  F   UNL     1       8.595 -11.091   2.611  1.00  0.00    -0.200 F 
ENDBRANCH  27  41
BRANCH  28  52
ATOM     52  C   UNL     1       6.732   1.268   9.256  1.00  0.00     0.064 A 
ATOM     53  C   UNL     1       7.784   2.171   9.463  1.00  0.00     0.173 A 
ATOM     54  C   UNL     1       5.467   1.615   9.754  1.00  0.00     0.173 A 
ATOM     55  F   UNL     1       9.015   1.878   9.019  1.00  0.00    -0.203 F 
ATOM     56  C   UNL     1       7.585   3.356  10.167  1.00  0.00     0.198 A 
ATOM     57  C   UNL     1       5.261   2.818  10.424  1.00  0.00     0.198 A 
ATOM     58  F   UNL     1       4.425   0.791   9.575  1.00  0.00    -0.203 F 
ATOM     59  F   UNL     1       8.620   4.174  10.402  1.00  0.00    -0.200 F 
ATOM     60  C   UNL     1       6.323   3.682  10.641  1.00  0.00     0.200 A 
ATOM     61  F   UNL     1       4.035   3.138  10.860  1.00  0.00    -0.200 F 
ATOM     62  F   UNL     1       6.132   4.824  11.315  1.00  0.00    -0.200 F 
ENDBRANCH  28  52
BRANCH  40  63
ATOM     63  C   UNL     1      10.401  -4.473  10.689  1.00  0.00     0.064 A 
ATOM     64  C   UNL     1       9.904  -4.678  11.985  1.00  0.00     0.173 A 
ATOM     65  C   UNL     1      11.782  -4.616  10.485  1.00  0.00     0.173 A 
ATOM     66  F   UNL     1       8.594  -4.535  12.236  1.00  0.00    -0.203 F 
ATOM     67  C   UNL     1      10.761  -4.972  13.042  1.00  0.00     0.198 A 
ATOM     68  C   UNL     1      12.631  -4.946  11.537  1.00  0.00     0.198 A 
ATOM     69  F   UNL     1      12.308  -4.437   9.264  1.00  0.00    -0.203 F 
ATOM     70  F   UNL     1      10.272  -5.096  14.284  1.00  0.00    -0.200 F 
ATOM     71  C   UNL     1      12.122  -5.112  12.816  1.00  0.00     0.200 A 
ATOM     72  F   UNL     1      13.944  -5.094  11.315  1.00  0.00    -0.200 F 
ATOM     73  F   UNL     1      12.946  -5.394  13.835  1.00  0.00    -0.200 F 
ENDBRANCH  40  63
ENDBRANCH  14  15
ENDBRANCH   7   9
ENDBRANCH   4   5
ENDBRANCH   3   4
ENDBRANCH   2   3
ENDBRANCH   1   2
BRANCH   1  74
ATOM     74  C   UNL     1       6.128   1.849  -4.145  1.00  0.00     0.021 C 
BRANCH  74  75
ATOM     75  C   UNL     1       6.926   1.002  -5.126  1.00  0.00     0.116 C 
BRANCH  75  76
ATOM     76  N   UNL     1       6.657   1.312  -6.521  1.00  0.00    -0.352 N 
ATOM     77  C   UNL     1       7.561   1.409  -7.559  1.00  0.00     0.255 C 
ATOM     78  H   UNL     1       5.714   1.474  -6.754  1.00  0.00     0.163 HD
ATOM     79  O   UNL     1       7.193   1.711  -8.689  1.00  0.00    -0.269 OA
BRANCH  77  80
ATOM     80  C   UNL     1       9.002   1.258  -7.262  1.00  0.00     0.082 A 
ATOM     81  C   UNL     1       9.848   2.332  -7.564  1.00  0.00     0.040 A 
ATOM     82  C   UNL     1       9.504   0.148  -6.579  1.00  0.00     0.128 A 
ATOM     83  C   UNL     1      11.137   2.369  -7.019  1.00  0.00     0.088 A 
ATOM     84  C   UNL     1      10.742   0.230  -5.957  1.00  0.00     0.048 A 
ATOM     85  C   UNL     1      11.511   1.385  -6.106  1.00  0.00     0.026 A 
BRANCH  82  86
ATOM     86  O   UNL     1       8.758  -0.988  -6.451  1.00  0.00    -0.507 OA
ATOM     87  H   UNL     1       7.922  -1.050  -6.869  1.00  0.00     0.293 HD
ENDBRANCH  82  86
BRANCH  83  88
ATOM     88  S   UNL     1      12.212   3.683  -7.554  1.00  0.00     0.261 S 
ATOM     89  O   UNL     1      11.953   3.881  -8.963  1.00  0.00    -0.201 OA
ATOM     90  O   UNL     1      12.023   4.763  -6.605  1.00  0.00    -0.201 OA
BRANCH  88  91
ATOM     91  N   UNL     1      13.862   3.296  -7.441  1.00  0.00    -0.280 N 
ATOM     92  H   UNL     1      14.522   3.986  -7.678  1.00  0.00     0.180 HD
BRANCH  91  93
ATOM     93  C   UNL     1      14.336   2.023  -7.020  1.00  0.00     0.050 A 
ATOM     94  C   UNL     1      14.082   0.870  -7.766  1.00  0.00     0.027 A 
ATOM     95  C   UNL     1      14.984   1.933  -5.783  1.00  0.00     0.047 A 
ATOM     96  C   UNL     1      14.399  -0.383  -7.231  1.00  0.00     0.004 A 
ATOM     97  C   UNL     1      15.300   0.681  -5.261  1.00  0.00     0.043 A 
ATOM     98  C   UNL     1      14.993  -0.478  -5.970  1.00  0.00     0.020 A 
ATOM     99  Cl  UNL     1      16.012   0.568  -3.699  1.00  0.00    -0.084 Cl
ENDBRANCH  91  93
ENDBRANCH  88  91
ENDBRANCH  83  88
ENDBRANCH  77  80
ENDBRANCH  75  76
ENDBRANCH  74  75
ENDBRANCH   1  74
TORSDOF 17
