REMARK SMILES C[C@H](NC(=O)N[C@H]1CCCC1(C)C)c1nc(C(=O)NCCCCCCNC(=O)c2ccc(-c3c4nc(c(-c5c(F)c(F)c(F)c(F)c5F)c5ccc([nH]5)c(-c5c(F)c(F)c(F)c(F)c5F)c5nc(c(-c6c(F)c(F)c(F)c(F)c6F)c6ccc3[nH]6)C=C5)C=C4)cc2)cs1
REMARK SMILES IDX 22 1 21 2 20 3 19 4 17 5 18 6 16 8 14 9 15 10 93 11 92 12
REMARK SMILES IDX 2 13 1 14 3 15 4 16 5 18 6 19 7 21 8 22 11 23 9 24 10 25
REMARK SMILES IDX 12 26 13 27 23 28 24 29 25 30 26 31 27 32 28 34 29 35 30 36
REMARK SMILES IDX 91 37 31 38 90 39 32 40 33 41 34 42 84 43 35 44 89 45 83 46
REMARK SMILES IDX 85 47 36 48 88 49 82 50 81 51 37 53 69 54 49 55 68 56 50 57
REMARK SMILES IDX 53 58 67 59 86 60 51 61 52 62 66 64 87 65 54 66 38 67 39 68
REMARK SMILES IDX 47 69 40 70 41 71 45 72 48 73 42 74 43 75 46 76 44 77 70 78
REMARK SMILES IDX 71 79 79 80 72 81 73 82 77 83 80 84 74 85 75 86 78 87 76 88
REMARK SMILES IDX 55 89 56 90 64 91 57 92 58 93 62 94 65 95 59 96 60 97 63 98
REMARK SMILES IDX 61 99
REMARK H PARENT 19 7 3 17 6 20 26 33 85 52 53 63
REMARK Flexibility Score: inf
ROOT
ATOM      1  C   UNL     1      -3.190   7.024  -0.544  1.00  0.00     0.002 C 
ENDROOT
BRANCH   1   2
ATOM      2  C   UNL     1      -2.416   5.704  -0.640  1.00  0.00     0.021 C 
BRANCH   2   3
ATOM      3  C   UNL     1      -2.607   4.765   0.552  1.00  0.00     0.116 C 
BRANCH   3   4
ATOM      4  N   UNL     1      -3.918   4.144   0.570  1.00  0.00    -0.351 N 
ATOM      5  C   UNL     1      -4.281   2.819   0.510  1.00  0.00     0.270 C 
ATOM      6  O   UNL     1      -5.475   2.553   0.720  1.00  0.00    -0.267 OA
ATOM      7  H   UNL     1      -4.671   4.774   0.636  1.00  0.00     0.163 HD
BRANCH   5   8
ATOM      8  C   UNL     1      -3.306   1.754   0.227  1.00  0.00     0.139 A 
ATOM      9  C   UNL     1      -1.362   0.855  -0.438  1.00  0.00     0.116 A 
ATOM     10  N   UNL     1      -2.046   1.978  -0.320  1.00  0.00    -0.234 NA
ATOM     11  S   UNL     1      -2.224  -0.559   0.010  1.00  0.00    -0.124 S 
ATOM     12  C   UNL     1      -3.571   0.411   0.445  1.00  0.00     0.101 A 
BRANCH   9  13
ATOM     13  C   UNL     1       0.075   0.834  -0.902  1.00  0.00     0.140 C 
ATOM     14  C   UNL     1       0.212   0.682  -2.406  1.00  0.00     0.039 C 
BRANCH  13  15
ATOM     15  N   UNL     1       0.910  -0.073  -0.149  1.00  0.00    -0.329 N 
ATOM     16  C   UNL     1       2.190   0.103   0.214  1.00  0.00     0.315 C 
ATOM     17  H   UNL     1       0.491  -0.920   0.129  1.00  0.00     0.166 HD
ATOM     18  O   UNL     1       2.876  -0.895   0.440  1.00  0.00    -0.249 OA
ATOM     19  N   UNL     1       2.800   1.298   0.147  1.00  0.00    -0.335 N 
ATOM     20  H   UNL     1       3.496   1.300  -0.549  1.00  0.00     0.165 HD
BRANCH  19  21
ATOM     21  C   UNL     1       2.723   2.622   0.828  1.00  0.00     0.089 C 
ATOM     22  C   UNL     1       3.327   3.631  -0.166  1.00  0.00     0.025 C 
ATOM     23  C   UNL     1       1.417   3.356   1.263  1.00  0.00    -0.015 C 
ATOM     24  C   UNL     1       2.128   4.131  -0.967  1.00  0.00     0.003 C 
ATOM     25  C   UNL     1       0.927   4.080  -0.017  1.00  0.00     0.008 C 
ATOM     26  C   UNL     1       0.417   2.490   2.033  1.00  0.00     0.013 C 
ATOM     27  C   UNL     1       1.746   4.516   2.256  1.00  0.00     0.013 C 
ENDBRANCH  19  21
ENDBRANCH  13  15
ENDBRANCH   9  13
ENDBRANCH   5   8
ENDBRANCH   3   4
ENDBRANCH   2   3
ENDBRANCH   1   2
BRANCH   1  28
ATOM     28  C   UNL     1      -2.839   7.918   0.653  1.00  0.00     0.002 C 
BRANCH  28  29
ATOM     29  C   UNL     1      -1.364   8.302   0.798  1.00  0.00     0.021 C 
BRANCH  29  30
ATOM     30  C   UNL     1      -0.758   9.047  -0.390  1.00  0.00     0.116 C 
BRANCH  30  31
ATOM     31  N   UNL     1      -1.381  10.342  -0.619  1.00  0.00    -0.352 N 
ATOM     32  C   UNL     1      -0.816  11.588  -0.730  1.00  0.00     0.251 C 
ATOM     33  H   UNL     1      -2.361  10.322  -0.709  1.00  0.00     0.163 HD
ATOM     34  O   UNL     1      -1.537  12.585  -0.771  1.00  0.00    -0.269 OA
BRANCH  32  35
ATOM     35  C   UNL     1       0.654  11.754  -0.775  1.00  0.00     0.039 A 
ATOM     36  C   UNL     1       1.238  12.789  -0.038  1.00  0.00     0.014 A 
ATOM     37  C   UNL     1       1.457  10.918  -1.554  1.00  0.00     0.014 A 
ATOM     38  C   UNL     1       2.627  12.941  -0.027  1.00  0.00     0.010 A 
ATOM     39  C   UNL     1       2.846  11.025  -1.487  1.00  0.00     0.010 A 
ATOM     40  C   UNL     1       3.447  12.036  -0.721  1.00  0.00    -0.014 A 
BRANCH  40  41
ATOM     41  C   UNL     1       4.930  12.124  -0.644  1.00  0.00     0.031 A 
ATOM     42  C   UNL     1       5.741  12.412  -1.878  1.00  0.00     0.074 A 
ATOM     43  C   UNL     1       5.552  11.882   0.526  1.00  0.00     0.049 A 
ATOM     44  N   UNL     1       7.042  12.458  -2.023  1.00  0.00    -0.248 NA
ATOM     45  C   UNL     1       4.992  12.658  -3.120  1.00  0.00     0.031 C 
ATOM     46  C   UNL     1       4.884  11.552   1.786  1.00  0.00     0.029 A 
ATOM     47  N   UNL     1       6.888  11.864   0.846  1.00  0.00    -0.354 N 
ATOM     48  C   UNL     1       7.266  12.722  -3.368  1.00  0.00     0.074 A 
ATOM     49  C   UNL     1       5.969  12.776  -4.008  1.00  0.00     0.031 C 
ATOM     50  C   UNL     1       5.809  11.388   2.745  1.00  0.00     0.029 A 
ATOM     51  C   UNL     1       7.136  11.557   2.162  1.00  0.00     0.049 A 
ATOM     52  H   UNL     1       7.601  12.054   0.194  1.00  0.00     0.167 HD
ATOM     53  C   UNL     1       8.444  12.922  -4.007  1.00  0.00     0.037 A 
ATOM     54  C   UNL     1       8.302  11.415   2.823  1.00  0.00     0.037 A 
ATOM     55  C   UNL     1       9.732  12.891  -3.363  1.00  0.00     0.049 A 
ATOM     56  C   UNL     1       9.596  11.624   2.082  1.00  0.00     0.074 A 
ATOM     57  C   UNL     1      10.977  13.143  -3.913  1.00  0.00     0.029 A 
ATOM     58  N   UNL     1       9.941  12.584  -2.027  1.00  0.00    -0.354 N 
ATOM     59  N   UNL     1       9.791  11.943   0.826  1.00  0.00    -0.248 NA
ATOM     60  C   UNL     1      10.835  11.456   2.856  1.00  0.00     0.031 C 
ATOM     61  C   UNL     1      11.944  12.934  -2.925  1.00  0.00     0.029 A 
ATOM     62  C   UNL     1      11.298  12.612  -1.743  1.00  0.00     0.049 A 
ATOM     63  H   UNL     1       9.232  12.377  -1.377  1.00  0.00     0.167 HD
ATOM     64  C   UNL     1      11.166  12.049   0.667  1.00  0.00     0.074 A 
ATOM     65  C   UNL     1      11.758  11.774   1.959  1.00  0.00     0.031 C 
ATOM     66  C   UNL     1      11.875  12.348  -0.449  1.00  0.00     0.037 A 
BRANCH  53  67
ATOM     67  C   UNL     1       8.400  13.192  -5.484  1.00  0.00     0.064 A 
ATOM     68  C   UNL     1       7.889  14.392  -6.001  1.00  0.00     0.173 A 
ATOM     69  C   UNL     1       8.925  12.259  -6.393  1.00  0.00     0.173 A 
ATOM     70  F   UNL     1       7.368  15.314  -5.178  1.00  0.00    -0.203 F 
ATOM     71  C   UNL     1       7.880  14.637  -7.372  1.00  0.00     0.198 A 
ATOM     72  C   UNL     1       8.944  12.521  -7.761  1.00  0.00     0.198 A 
ATOM     73  F   UNL     1       9.434  11.098  -5.953  1.00  0.00    -0.203 F 
ATOM     74  F   UNL     1       7.343  15.770  -7.845  1.00  0.00    -0.200 F 
ATOM     75  C   UNL     1       8.415  13.706  -8.249  1.00  0.00     0.200 A 
ATOM     76  F   UNL     1       9.476  11.627  -8.605  1.00  0.00    -0.200 F 
ATOM     77  F   UNL     1       8.415  13.948  -9.568  1.00  0.00    -0.200 F 
ENDBRANCH  53  67
BRANCH  54  78
ATOM     78  C   UNL     1       8.304  11.074   4.270  1.00  0.00     0.064 A 
ATOM     79  C   UNL     1       8.751  11.997   5.227  1.00  0.00     0.173 A 
ATOM     80  C   UNL     1       7.883   9.816   4.726  1.00  0.00     0.173 A 
ATOM     81  F   UNL     1       9.184  13.206   4.839  1.00  0.00    -0.203 F 
ATOM     82  C   UNL     1       8.802  11.666   6.580  1.00  0.00     0.198 A 
ATOM     83  C   UNL     1       7.904   9.498   6.083  1.00  0.00     0.198 A 
ATOM     84  F   UNL     1       7.443   8.898   3.854  1.00  0.00    -0.203 F 
ATOM     85  F   UNL     1       9.286  12.548   7.465  1.00  0.00    -0.200 F 
ATOM     86  C   UNL     1       8.374  10.419   7.007  1.00  0.00     0.200 A 
ATOM     87  F   UNL     1       7.475   8.297   6.493  1.00  0.00    -0.200 F 
ATOM     88  F   UNL     1       8.423  10.101   8.308  1.00  0.00    -0.200 F 
ENDBRANCH  54  78
BRANCH  66  89
ATOM     89  C   UNL     1      13.369  12.437  -0.316  1.00  0.00     0.064 A 
ATOM     90  C   UNL     1      14.163  11.299  -0.109  1.00  0.00     0.173 A 
ATOM     91  C   UNL     1      14.017  13.676  -0.437  1.00  0.00     0.173 A 
ATOM     92  F   UNL     1      13.591  10.093   0.028  1.00  0.00    -0.203 F 
ATOM     93  C   UNL     1      15.547  11.403   0.001  1.00  0.00     0.198 A 
ATOM     94  C   UNL     1      15.404  13.771  -0.360  1.00  0.00     0.198 A 
ATOM     95  F   UNL     1      13.306  14.795  -0.643  1.00  0.00    -0.203 F 
ATOM     96  F   UNL     1      16.280  10.309   0.252  1.00  0.00    -0.200 F 
ATOM     97  C   UNL     1      16.167  12.636  -0.133  1.00  0.00     0.200 A 
ATOM     98  F   UNL     1      16.002  14.962  -0.506  1.00  0.00    -0.200 F 
ATOM     99  F   UNL     1      17.500  12.732  -0.035  1.00  0.00    -0.200 F 
ENDBRANCH  66  89
ENDBRANCH  40  41
ENDBRANCH  32  35
ENDBRANCH  30  31
ENDBRANCH  29  30
ENDBRANCH  28  29
ENDBRANCH   1  28
TORSDOF 16
