REMARK SMILES CC/C=C/C/C=C/C/C=C/C/C=C/CCSCCCC(=O)NCCCCCCNC(=O)c1ccc(-c2c3nc(c(-c4c(F)c(F)c(F)c(F)c4F)c4ccc([nH]4)c(-c4c(F)c(F)c(F)c(F)c4F)c4nc(c(-c5c(F)c(F)c(F)c(F)c5F)c5ccc2[nH]5)C=C4)C=C3)cc1
REMARK SMILES IDX 18 1 17 2 16 3 15 4 14 5 13 6 12 7 11 8 10 9 9 10 8 11 7 12
REMARK SMILES IDX 6 13 5 14 4 15 3 16 2 17 1 18 19 19 20 20 21 21 22 22 23 24
REMARK SMILES IDX 24 25 25 26 26 27 27 28 28 29 29 30 30 31 31 33 32 34 33 35
REMARK SMILES IDX 94 36 34 37 93 38 35 39 36 40 37 41 87 42 38 43 92 44 86 45
REMARK SMILES IDX 88 46 39 47 91 48 85 49 84 50 40 52 72 53 52 54 71 55 53 56
REMARK SMILES IDX 56 57 70 58 89 59 54 60 55 61 69 63 90 64 57 65 41 66 42 67
REMARK SMILES IDX 50 68 43 69 44 70 48 71 51 72 45 73 46 74 49 75 47 76 73 77
REMARK SMILES IDX 74 78 82 79 75 80 76 81 80 82 83 83 77 84 78 85 81 86 79 87
REMARK SMILES IDX 58 88 59 89 67 90 60 91 61 92 65 93 68 94 62 95 63 96 66 97
REMARK SMILES IDX 64 98
REMARK H PARENT 22 23 29 32 88 51 56 62
REMARK Flexibility Score: inf
ROOT
ATOM      1  C   UNL     1      -4.829  -8.639  10.390  1.00  0.00     0.021 C 
ENDROOT
BRANCH   1   2
ATOM      2  C   UNL     1      -6.229  -9.185  10.123  1.00  0.00     0.070 C 
BRANCH   2   3
ATOM      3  S   UNL     1      -6.795 -10.280   8.740  1.00  0.00    -0.162 SA
BRANCH   3   4
ATOM      4  C   UNL     1      -5.688 -10.137   7.268  1.00  0.00     0.073 C 
BRANCH   4   5
ATOM      5  C   UNL     1      -6.138  -9.212   6.100  1.00  0.00     0.038 C 
BRANCH   5   6
ATOM      6  C   UNL     1      -5.404  -7.904   5.963  1.00  0.00    -0.030 C 
ATOM      7  C   UNL     1      -5.436  -7.036   4.935  1.00  0.00    -0.027 C 
BRANCH   7   8
ATOM      8  C   UNL     1      -4.963  -5.598   5.060  1.00  0.00     0.054 C 
BRANCH   8   9
ATOM      9  C   UNL     1      -3.524  -5.425   5.451  1.00  0.00    -0.027 C 
ATOM     10  C   UNL     1      -2.757  -4.414   5.007  1.00  0.00    -0.027 C 
BRANCH  10  11
ATOM     11  C   UNL     1      -1.298  -4.255   5.337  1.00  0.00     0.054 C 
BRANCH  11  12
ATOM     12  C   UNL     1      -0.499  -4.646   4.131  1.00  0.00    -0.027 C 
ATOM     13  C   UNL     1       0.293  -3.814   3.439  1.00  0.00    -0.027 C 
BRANCH  13  14
ATOM     14  C   UNL     1       0.886  -4.163   2.105  1.00  0.00     0.054 C 
BRANCH  14  15
ATOM     15  C   UNL     1       0.362  -3.208   1.072  1.00  0.00    -0.027 C 
ATOM     16  C   UNL     1       1.130  -2.372   0.357  1.00  0.00    -0.031 C 
BRANCH  16  17
ATOM     17  C   UNL     1       0.581  -1.345  -0.589  1.00  0.00     0.023 C 
ATOM     18  C   UNL     1       1.015   0.052  -0.169  1.00  0.00     0.008 C 
ENDBRANCH  16  17
ENDBRANCH  14  15
ENDBRANCH  13  14
ENDBRANCH  11  12
ENDBRANCH  10  11
ENDBRANCH   8   9
ENDBRANCH   7   8
ENDBRANCH   5   6
ENDBRANCH   4   5
ENDBRANCH   3   4
ENDBRANCH   2   3
ENDBRANCH   1   2
BRANCH   1  19
ATOM     19  C   UNL     1      -4.103  -7.859   9.318  1.00  0.00     0.101 C 
BRANCH  19  20
ATOM     20  C   UNL     1      -4.389  -6.374   9.160  1.00  0.00     0.220 C 
ATOM     21  O   UNL     1      -3.450  -5.573   9.220  1.00  0.00    -0.275 OA
ATOM     22  N   UNL     1      -5.608  -5.846   8.890  1.00  0.00    -0.356 N 
ATOM     23  H   UNL     1      -5.679  -4.888   9.106  1.00  0.00     0.163 HD
BRANCH  22  24
ATOM     24  C   UNL     1      -6.827  -6.411   8.347  1.00  0.00     0.116 C 
BRANCH  24  25
ATOM     25  C   UNL     1      -8.091  -5.758   8.891  1.00  0.00     0.021 C 
BRANCH  25  26
ATOM     26  C   UNL     1      -8.931  -5.139   7.765  1.00  0.00     0.002 C 
BRANCH  26  27
ATOM     27  C   UNL     1      -9.515  -6.138   6.754  1.00  0.00     0.002 C 
BRANCH  27  28
ATOM     28  C   UNL     1     -10.452  -7.197   7.336  1.00  0.00     0.021 C 
BRANCH  28  29
ATOM     29  C   UNL     1     -11.553  -6.653   8.236  1.00  0.00     0.116 C 
BRANCH  29  30
ATOM     30  N   UNL     1     -12.380  -5.655   7.578  1.00  0.00    -0.352 N 
ATOM     31  C   UNL     1     -13.734  -5.453   7.672  1.00  0.00     0.251 C 
ATOM     32  H   UNL     1     -11.901  -5.036   6.981  1.00  0.00     0.163 HD
ATOM     33  O   UNL     1     -14.288  -4.637   6.948  1.00  0.00    -0.269 OA
BRANCH  31  34
ATOM     34  C   UNL     1     -14.528  -6.244   8.637  1.00  0.00     0.039 A 
ATOM     35  C   UNL     1     -15.763  -6.752   8.229  1.00  0.00     0.014 A 
ATOM     36  C   UNL     1     -14.070  -6.467   9.938  1.00  0.00     0.014 A 
ATOM     37  C   UNL     1     -16.526  -7.508   9.119  1.00  0.00     0.010 A 
ATOM     38  C   UNL     1     -14.788  -7.294  10.794  1.00  0.00     0.010 A 
ATOM     39  C   UNL     1     -16.038  -7.798  10.404  1.00  0.00    -0.014 A 
BRANCH  39  40
ATOM     40  C   UNL     1     -16.851  -8.576  11.370  1.00  0.00     0.031 A 
ATOM     41  C   UNL     1     -17.330  -7.924  12.639  1.00  0.00     0.074 A 
ATOM     42  C   UNL     1     -17.130  -9.869  11.122  1.00  0.00     0.049 A 
ATOM     43  N   UNL     1     -18.041  -8.431  13.615  1.00  0.00    -0.248 NA
ATOM     44  C   UNL     1     -16.933  -6.524  12.856  1.00  0.00     0.031 C 
ATOM     45  C   UNL     1     -16.680 -10.621   9.950  1.00  0.00     0.029 A 
ATOM     46  N   UNL     1     -17.863 -10.779  11.841  1.00  0.00    -0.354 N 
ATOM     47  C   UNL     1     -18.158  -7.421  14.561  1.00  0.00     0.074 A 
ATOM     48  C   UNL     1     -17.392  -6.295  14.077  1.00  0.00     0.031 C 
ATOM     49  C   UNL     1     -17.178 -11.867  10.011  1.00  0.00     0.029 A 
ATOM     50  C   UNL     1     -17.950 -12.011  11.241  1.00  0.00     0.049 A 
ATOM     51  H   UNL     1     -18.285 -10.569  12.705  1.00  0.00     0.167 HD
ATOM     52  C   UNL     1     -18.864  -7.422  15.717  1.00  0.00     0.037 A 
ATOM     53  C   UNL     1     -18.588 -13.128  11.640  1.00  0.00     0.037 A 
ATOM     54  C   UNL     1     -19.648  -8.537  16.177  1.00  0.00     0.049 A 
ATOM     55  C   UNL     1     -19.367 -13.102  12.928  1.00  0.00     0.074 A 
ATOM     56  C   UNL     1     -20.452  -8.623  17.299  1.00  0.00     0.029 A 
ATOM     57  N   UNL     1     -19.722  -9.766  15.536  1.00  0.00    -0.354 N 
ATOM     58  N   UNL     1     -19.537 -12.117  13.777  1.00  0.00    -0.248 NA
ATOM     59  C   UNL     1     -20.056 -14.343  13.306  1.00  0.00     0.031 C 
ATOM     60  C   UNL     1     -20.966  -9.922  17.370  1.00  0.00     0.029 A 
ATOM     61  C   UNL     1     -20.539 -10.625  16.254  1.00  0.00     0.049 A 
ATOM     62  H   UNL     1     -19.263  -9.994  14.696  1.00  0.00     0.167 HD
ATOM     63  C   UNL     1     -20.383 -12.604  14.764  1.00  0.00     0.074 A 
ATOM     64  C   UNL     1     -20.701 -13.969  14.402  1.00  0.00     0.031 C 
ATOM     65  C   UNL     1     -20.857 -11.977  15.870  1.00  0.00     0.037 A 
BRANCH  52  66
ATOM     66  C   UNL     1     -18.815  -6.181  16.564  1.00  0.00     0.064 A 
ATOM     67  C   UNL     1     -19.395  -4.973  16.145  1.00  0.00     0.173 A 
ATOM     68  C   UNL     1     -18.200  -6.207  17.825  1.00  0.00     0.173 A 
ATOM     69  F   UNL     1     -19.986  -4.888  14.943  1.00  0.00    -0.203 F 
ATOM     70  C   UNL     1     -19.328  -3.830  16.938  1.00  0.00     0.198 A 
ATOM     71  C   UNL     1     -18.167  -5.072  18.632  1.00  0.00     0.198 A 
ATOM     72  F   UNL     1     -17.634  -7.335  18.279  1.00  0.00    -0.203 F 
ATOM     73  F   UNL     1     -19.835  -2.674  16.489  1.00  0.00    -0.200 F 
ATOM     74  C   UNL     1     -18.721  -3.883  18.184  1.00  0.00     0.200 A 
ATOM     75  F   UNL     1     -17.594  -5.129  19.842  1.00  0.00    -0.200 F 
ATOM     76  F   UNL     1     -18.663  -2.784  18.949  1.00  0.00    -0.200 F 
ENDBRANCH  52  66
BRANCH  53  77
ATOM     77  C   UNL     1     -18.555 -14.350  10.793  1.00  0.00     0.064 A 
ATOM     78  C   UNL     1     -19.715 -14.817  10.158  1.00  0.00     0.173 A 
ATOM     79  C   UNL     1     -17.373 -15.084  10.612  1.00  0.00     0.173 A 
ATOM     80  F   UNL     1     -20.874 -14.161  10.315  1.00  0.00    -0.203 F 
ATOM     81  C   UNL     1     -19.701 -15.986   9.399  1.00  0.00     0.198 A 
ATOM     82  C   UNL     1     -17.354 -16.235   9.826  1.00  0.00     0.198 A 
ATOM     83  F   UNL     1     -16.234 -14.678  11.192  1.00  0.00    -0.203 F 
ATOM     84  F   UNL     1     -20.836 -16.438   8.850  1.00  0.00    -0.200 F 
ATOM     85  C   UNL     1     -18.519 -16.691   9.230  1.00  0.00     0.200 A 
ATOM     86  F   UNL     1     -16.206 -16.904   9.652  1.00  0.00    -0.200 F 
ATOM     87  F   UNL     1     -18.506 -17.814   8.499  1.00  0.00    -0.200 F 
ENDBRANCH  53  77
BRANCH  65  88
ATOM     88  C   UNL     1     -21.819 -12.741  16.735  1.00  0.00     0.064 A 
ATOM     89  C   UNL     1     -21.415 -13.844  17.502  1.00  0.00     0.173 A 
ATOM     90  C   UNL     1     -23.163 -12.342  16.817  1.00  0.00     0.173 A 
ATOM     91  F   UNL     1     -20.145 -14.274  17.451  1.00  0.00    -0.203 F 
ATOM     92  C   UNL     1     -22.329 -14.542  18.288  1.00  0.00     0.198 A 
ATOM     93  C   UNL     1     -24.064 -13.018  17.633  1.00  0.00     0.198 A 
ATOM     94  F   UNL     1     -23.600 -11.287  16.113  1.00  0.00    -0.203 F 
ATOM     95  F   UNL     1     -21.934 -15.631  18.962  1.00  0.00    -0.200 F 
ATOM     96  C   UNL     1     -23.650 -14.124  18.358  1.00  0.00     0.200 A 
ATOM     97  F   UNL     1     -25.335 -12.601  17.715  1.00  0.00    -0.200 F 
ATOM     98  F   UNL     1     -24.526 -14.795  19.119  1.00  0.00    -0.200 F 
ENDBRANCH  65  88
ENDBRANCH  39  40
ENDBRANCH  31  34
ENDBRANCH  29  30
ENDBRANCH  28  29
ENDBRANCH  27  28
ENDBRANCH  26  27
ENDBRANCH  25  26
ENDBRANCH  24  25
ENDBRANCH  22  24
ENDBRANCH  19  20
ENDBRANCH   1  19
TORSDOF 26
