REMARK SMILES CCOc1cc(/C=C(\CC(=O)NCCCCCCNC(=O)c2ccc(-c3c4nc(c(-c5c(F)c(F)c(F)c(F)c5F)c5ccc([nH]5)c(-c5c(F)c(F)c(F)c(F)c5F)c5nc(c(-c6c(F)c(F)c(F)c(F)c6F)c6ccc3[nH]6)C=C5)C=C4)cc2)c2nc3ccccc3o2)cc(Br)c1OC
REMARK SMILES IDX 14 1 13 2 12 3 10 4 11 5 9 7 8 8 7 9 6 10 4 11 5 12 97 13
REMARK SMILES IDX 95 14 94 15 96 16 3 17 2 18 1 19 98 20 99 21 85 22 86 23
REMARK SMILES IDX 93 24 87 25 92 26 88 27 91 28 89 29 90 30 15 31 16 32 17 33
REMARK SMILES IDX 18 34 19 35 20 36 21 38 22 39 23 40 84 41 24 42 83 43 25 44
REMARK SMILES IDX 26 45 27 46 77 47 28 48 82 49 76 50 78 51 29 52 81 53 75 54
REMARK SMILES IDX 74 55 30 57 62 58 42 59 61 60 43 61 46 62 60 63 79 64 44 65
REMARK SMILES IDX 45 66 59 68 80 69 47 70 31 71 32 72 40 73 33 74 34 75 38 76
REMARK SMILES IDX 41 77 35 78 36 79 39 80 37 81 63 82 64 83 72 84 65 85 66 86
REMARK SMILES IDX 70 87 73 88 67 89 68 90 71 91 69 92 48 93 49 94 57 95 50 96
REMARK SMILES IDX 51 97 55 98 58 99 52 100 53 101 56 102 54 103
REMARK H PARENT 12 6 19 37 78 56 46 67
REMARK Flexibility Score: inf
ROOT
ATOM      1  C   UNL     1       4.739   4.335   1.882  1.00  0.00     0.021 C 
ENDROOT
BRANCH   1   2
ATOM      2  C   UNL     1       3.581   3.372   1.636  1.00  0.00     0.116 C 
BRANCH   2   3
ATOM      3  N   UNL     1       2.876   3.606   0.393  1.00  0.00    -0.356 N 
ATOM      4  C   UNL     1       2.809   2.917  -0.778  1.00  0.00     0.224 C 
ATOM      5  O   UNL     1       1.998   3.340  -1.613  1.00  0.00    -0.275 OA
ATOM      6  H   UNL     1       2.336   4.429   0.397  1.00  0.00     0.163 HD
BRANCH   4   7
ATOM      7  C   UNL     1       3.587   1.629  -1.085  1.00  0.00     0.141 C 
BRANCH   7   8
ATOM      8  C   UNL     1       5.011   1.522  -0.575  1.00  0.00     0.025 C 
ATOM      9  C   UNL     1       5.455   0.738   0.443  1.00  0.00     0.018 C 
BRANCH   9  10
ATOM     10  C   UNL     1       4.675  -0.090   1.425  1.00  0.00    -0.020 A 
ATOM     11  C   UNL     1       2.572  -0.790   2.481  1.00  0.00     0.162 A 
ATOM     12  C   UNL     1       3.286  -0.057   1.533  1.00  0.00     0.058 A 
ATOM     13  C   UNL     1       3.221  -1.529   3.476  1.00  0.00     0.174 A 
ATOM     14  C   UNL     1       4.624  -1.531   3.439  1.00  0.00     0.064 A 
ATOM     15  C   UNL     1       5.331  -0.835   2.414  1.00  0.00     0.028 A 
ATOM     16  Br  UNL     1       5.752  -2.410   4.696  1.00  0.00    -0.047 Br
BRANCH  11  17
ATOM     17  O   UNL     1       1.205  -0.619   2.509  1.00  0.00    -0.490 OA
BRANCH  17  18
ATOM     18  C   UNL     1       0.532  -1.327   1.457  1.00  0.00     0.226 C 
ATOM     19  C   UNL     1       0.350  -0.476   0.206  1.00  0.00     0.049 C 
ENDBRANCH  17  18
ENDBRANCH  11  17
BRANCH  13  20
ATOM     20  O   UNL     1       2.342  -2.156   4.310  1.00  0.00    -0.492 OA
ATOM     21  C   UNL     1       2.716  -2.613   5.593  1.00  0.00     0.278 C 
ENDBRANCH  13  20
ENDBRANCH   9  10
BRANCH   8  22
ATOM     22  C   UNL     1       5.932   2.367  -1.296  1.00  0.00     0.223 A 
ATOM     23  N   UNL     1       5.581   3.597  -1.651  1.00  0.00    -0.210 NA
ATOM     24  O   UNL     1       7.087   1.946  -1.939  1.00  0.00    -0.436 OA
ATOM     25  C   UNL     1       6.370   3.905  -2.711  1.00  0.00     0.110 A 
ATOM     26  C   UNL     1       7.321   2.918  -2.880  1.00  0.00     0.155 A 
ATOM     27  C   UNL     1       6.299   4.976  -3.608  1.00  0.00     0.032 A 
ATOM     28  C   UNL     1       8.273   2.930  -3.893  1.00  0.00     0.049 A 
ATOM     29  C   UNL     1       7.210   5.000  -4.669  1.00  0.00     0.003 A 
ATOM     30  C   UNL     1       8.184   4.000  -4.800  1.00  0.00     0.004 A 
ENDBRANCH   8  22
ENDBRANCH   7   8
ENDBRANCH   4   7
ENDBRANCH   2   3
ENDBRANCH   1   2
BRANCH   1  31
ATOM     31  C   UNL     1       4.307   5.759   2.232  1.00  0.00     0.002 C 
BRANCH  31  32
ATOM     32  C   UNL     1       3.378   5.878   3.444  1.00  0.00     0.002 C 
BRANCH  32  33
ATOM     33  C   UNL     1       3.900   5.259   4.745  1.00  0.00     0.021 C 
BRANCH  33  34
ATOM     34  C   UNL     1       5.232   5.816   5.242  1.00  0.00     0.116 C 
BRANCH  34  35
ATOM     35  N   UNL     1       5.178   7.249   5.479  1.00  0.00    -0.352 N 
ATOM     36  C   UNL     1       5.553   7.981   6.572  1.00  0.00     0.251 C 
ATOM     37  H   UNL     1       4.811   7.778   4.734  1.00  0.00     0.163 HD
ATOM     38  O   UNL     1       5.256   9.177   6.632  1.00  0.00    -0.269 OA
BRANCH  36  39
ATOM     39  C   UNL     1       6.298   7.364   7.690  1.00  0.00     0.039 A 
ATOM     40  C   UNL     1       5.985   7.757   8.995  1.00  0.00     0.014 A 
ATOM     41  C   UNL     1       7.335   6.452   7.470  1.00  0.00     0.014 A 
ATOM     42  C   UNL     1       6.681   7.210  10.075  1.00  0.00     0.010 A 
ATOM     43  C   UNL     1       7.982   5.854   8.552  1.00  0.00     0.010 A 
ATOM     44  C   UNL     1       7.670   6.236   9.865  1.00  0.00    -0.014 A 
BRANCH  44  45
ATOM     45  C   UNL     1       8.377   5.622  11.018  1.00  0.00     0.031 A 
ATOM     46  C   UNL     1       9.848   5.852  11.228  1.00  0.00     0.074 A 
ATOM     47  C   UNL     1       7.691   4.836  11.870  1.00  0.00     0.049 A 
ATOM     48  N   UNL     1      10.624   5.421  12.192  1.00  0.00    -0.248 NA
ATOM     49  C   UNL     1      10.548   6.649  10.209  1.00  0.00     0.031 C 
ATOM     50  C   UNL     1       6.276   4.487  11.741  1.00  0.00     0.029 A 
ATOM     51  N   UNL     1       8.090   4.190  13.013  1.00  0.00    -0.354 N 
ATOM     52  C   UNL     1      11.897   5.889  11.893  1.00  0.00     0.074 A 
ATOM     53  C   UNL     1      11.803   6.587  10.629  1.00  0.00     0.031 C 
ATOM     54  C   UNL     1       5.915   3.721  12.782  1.00  0.00     0.029 A 
ATOM     55  C   UNL     1       7.078   3.503  13.637  1.00  0.00     0.049 A 
ATOM     56  H   UNL     1       9.014   4.217  13.353  1.00  0.00     0.167 HD
ATOM     57  C   UNL     1      13.036   5.770  12.618  1.00  0.00     0.037 A 
ATOM     58  C   UNL     1       7.086   2.787  14.777  1.00  0.00     0.037 A 
ATOM     59  C   UNL     1      13.123   5.091  13.886  1.00  0.00     0.049 A 
ATOM     60  C   UNL     1       8.357   2.692  15.576  1.00  0.00     0.074 A 
ATOM     61  C   UNL     1      14.218   4.959  14.723  1.00  0.00     0.029 A 
ATOM     62  N   UNL     1      12.071   4.426  14.499  1.00  0.00    -0.354 N 
ATOM     63  N   UNL     1       9.536   3.204  15.321  1.00  0.00    -0.248 NA
ATOM     64  C   UNL     1       8.290   1.933  16.832  1.00  0.00     0.031 C 
ATOM     65  C   UNL     1      13.839   4.179  15.822  1.00  0.00     0.029 A 
ATOM     66  C   UNL     1      12.495   3.869  15.696  1.00  0.00     0.049 A 
ATOM     67  H   UNL     1      11.158   4.359  14.137  1.00  0.00     0.167 HD
ATOM     68  C   UNL     1      10.343   2.854  16.395  1.00  0.00     0.074 A 
ATOM     69  C   UNL     1       9.512   2.105  17.314  1.00  0.00     0.031 C 
ATOM     70  C   UNL     1      11.656   3.127  16.602  1.00  0.00     0.037 A 
BRANCH  57  71
ATOM     71  C   UNL     1      14.283   6.395  12.059  1.00  0.00     0.064 A 
ATOM     72  C   UNL     1      14.439   7.788  11.988  1.00  0.00     0.173 A 
ATOM     73  C   UNL     1      15.348   5.594  11.621  1.00  0.00     0.173 A 
ATOM     74  F   UNL     1      13.446   8.599  12.383  1.00  0.00    -0.203 F 
ATOM     75  C   UNL     1      15.601   8.355  11.472  1.00  0.00     0.198 A 
ATOM     76  C   UNL     1      16.522   6.165  11.134  1.00  0.00     0.198 A 
ATOM     77  F   UNL     1      15.256   4.257  11.672  1.00  0.00    -0.203 F 
ATOM     78  F   UNL     1      15.706   9.687  11.367  1.00  0.00    -0.200 F 
ATOM     79  C   UNL     1      16.644   7.544  11.052  1.00  0.00     0.200 A 
ATOM     80  F   UNL     1      17.535   5.380  10.742  1.00  0.00    -0.200 F 
ATOM     81  F   UNL     1      17.765   8.091  10.562  1.00  0.00    -0.200 F 
ENDBRANCH  57  71
BRANCH  58  82
ATOM     82  C   UNL     1       5.835   2.143  15.256  1.00  0.00     0.064 A 
ATOM     83  C   UNL     1       5.174   2.614  16.399  1.00  0.00     0.173 A 
ATOM     84  C   UNL     1       5.278   1.044  14.586  1.00  0.00     0.173 A 
ATOM     85  F   UNL     1       5.679   3.651  17.084  1.00  0.00    -0.203 F 
ATOM     86  C   UNL     1       4.018   1.995  16.869  1.00  0.00     0.198 A 
ATOM     87  C   UNL     1       4.106   0.444  15.040  1.00  0.00     0.198 A 
ATOM     88  F   UNL     1       5.868   0.559  13.484  1.00  0.00    -0.203 F 
ATOM     89  F   UNL     1       3.435   2.436  17.992  1.00  0.00    -0.200 F 
ATOM     90  C   UNL     1       3.481   0.914  16.186  1.00  0.00     0.200 A 
ATOM     91  F   UNL     1       3.582  -0.591  14.370  1.00  0.00    -0.200 F 
ATOM     92  F   UNL     1       2.368   0.321  16.637  1.00  0.00    -0.200 F 
ENDBRANCH  58  82
BRANCH  70  93
ATOM     93  C   UNL     1      12.259   2.640  17.888  1.00  0.00     0.064 A 
ATOM     94  C   UNL     1      12.479   1.276  18.130  1.00  0.00     0.173 A 
ATOM     95  C   UNL     1      12.625   3.552  18.890  1.00  0.00     0.173 A 
ATOM     96  F   UNL     1      12.133   0.362  17.210  1.00  0.00    -0.203 F 
ATOM     97  C   UNL     1      13.003   0.840  19.344  1.00  0.00     0.198 A 
ATOM     98  C   UNL     1      13.179   3.114  20.089  1.00  0.00     0.198 A 
ATOM     99  F   UNL     1      12.444   4.868  18.706  1.00  0.00    -0.203 F 
ATOM    100  F   UNL     1      13.143  -0.473  19.578  1.00  0.00    -0.200 F 
ATOM    101  C   UNL     1      13.356   1.759  20.321  1.00  0.00     0.200 A 
ATOM    102  F   UNL     1      13.533   4.005  21.026  1.00  0.00    -0.200 F 
ATOM    103  F   UNL     1      13.857   1.337  21.490  1.00  0.00    -0.200 F 
ENDBRANCH  70  93
ENDBRANCH  44  45
ENDBRANCH  36  39
ENDBRANCH  34  35
ENDBRANCH  33  34
ENDBRANCH  32  33
ENDBRANCH  31  32
ENDBRANCH   1  31
TORSDOF 19
