REMARK SMILES C[NH2+][C@@]1(C(=O)NCCCCCCNC(=O)c2ccc(-c3c4nc(c(-c5c(F)c(F)c(F)c(F)c5F)c5ccc([nH]5)c(-c5c(F)c(F)c(F)c(F)c5F)c5nc(c(-c6c(F)c(F)c(F)c(F)c6F)c6ccc3[nH]6)C=C5)C=C4)cc2)CC[C@H]([NH+]2CC[NH+](C)CC2)C1
REMARK SMILES IDX 10 1 9 2 8 3 7 4 6 5 4 6 5 7 3 9 79 10 89 11 80 12 81 13
REMARK SMILES IDX 2 14 1 15 82 18 83 19 88 20 84 22 87 23 85 24 86 25 11 27
REMARK SMILES IDX 12 28 13 29 14 30 15 32 16 33 17 34 78 35 18 36 77 37 19 38
REMARK SMILES IDX 20 39 21 40 71 41 22 42 76 43 70 44 72 45 23 46 75 47 69 48
REMARK SMILES IDX 68 49 24 51 56 52 36 53 55 54 37 55 40 56 54 57 73 58 38 59
REMARK SMILES IDX 39 60 53 62 74 63 41 64 25 65 26 66 34 67 27 68 28 69 32 70
REMARK SMILES IDX 35 71 29 72 30 73 33 74 31 75 57 76 58 77 66 78 59 79 60 80
REMARK SMILES IDX 64 81 67 82 61 83 62 84 65 85 63 86 42 87 43 88 51 89 44 90
REMARK SMILES IDX 45 91 49 92 52 93 46 94 47 95 50 96 48 97
REMARK H PARENT 6 8 2 16 2 17 82 21 85 26 13 31 72 50 40 61
REMARK Flexibility Score: inf
ROOT
ATOM      1  C   UNL     1      -6.671   0.793   4.176  1.00  0.00     0.002 C 
ENDROOT
BRANCH   1   2
ATOM      2  C   UNL     1      -5.607  -0.006   3.384  1.00  0.00     0.002 C 
BRANCH   2   3
ATOM      3  C   UNL     1      -4.982   0.598   1.903  1.00  0.00     0.021 C 
BRANCH   3   4
ATOM      4  C   UNL     1      -3.501   1.988   1.274  1.00  0.00     0.116 C 
BRANCH   4   5
ATOM      5  N   UNL     1      -1.977   2.233   1.736  1.00  0.00    -0.351 N 
ATOM      6  C   UNL     1      -0.714   1.857   1.426  1.00  0.00     0.281 C 
ATOM      7  O   UNL     1       0.141   2.197   2.262  1.00  0.00    -0.268 OA
ATOM      8  H   UNL     1      -1.958   2.864   2.492  1.00  0.00     0.163 HD
BRANCH   6   9
ATOM      9  C   UNL     1      -0.282   1.080   0.152  1.00  0.00     0.181 C 
ATOM     10  C   UNL     1      -0.855   1.822  -1.058  1.00  0.00     0.085 C 
ATOM     11  C   UNL     1      -0.862  -0.340   0.076  1.00  0.00     0.144 C 
ATOM     12  C   UNL     1      -1.987   0.940  -1.569  1.00  0.00     0.072 C 
ATOM     13  C   UNL     1      -2.257  -0.158  -0.499  1.00  0.00     0.191 C 
BRANCH   9  14
ATOM     14  N   UNL     1       1.206   1.205   0.091  1.00  0.00    -0.336 N 
ATOM     15  C   UNL     1       1.961  -0.011  -0.146  1.00  0.00     0.331 C 
ATOM     16  H   UNL     1       1.430   1.858  -0.660  1.00  0.00     0.346 HD
ATOM     17  H   UNL     1       1.484   1.510   1.024  1.00  0.00     0.346 HD
ENDBRANCH   9  14
BRANCH  13  18
ATOM     18  N   UNL     1      -3.340   0.018   0.478  1.00  0.00    -0.323 N 
ATOM     19  C   UNL     1      -4.776   0.915  -0.229  1.00  0.00     0.324 C 
ATOM     20  C   UNL     1      -2.982   0.204   2.305  1.00  0.00     0.324 C 
ATOM     21  H   UNL     1      -3.640  -0.945   0.631  1.00  0.00     0.348 HD
ATOM     22  C   UNL     1      -5.554   2.417   0.723  1.00  0.00     0.324 C 
ATOM     23  C   UNL     1      -3.827   1.708   3.308  1.00  0.00     0.324 C 
ATOM     24  N   UNL     1      -5.247   2.616   2.524  1.00  0.00    -0.328 N 
ATOM     25  C   UNL     1      -5.343   4.013   2.921  1.00  0.00     0.333 C 
ATOM     26  H   UNL     1      -6.016   2.089   2.937  1.00  0.00     0.348 HD
ENDBRANCH  13  18
ENDBRANCH   6   9
ENDBRANCH   4   5
ENDBRANCH   3   4
ENDBRANCH   2   3
ENDBRANCH   1   2
BRANCH   1  27
ATOM     27  C   UNL     1      -7.918   1.182   3.388  1.00  0.00     0.021 C 
BRANCH  27  28
ATOM     28  C   UNL     1      -8.699  -0.019   2.898  1.00  0.00     0.116 C 
BRANCH  28  29
ATOM     29  N   UNL     1      -9.438  -0.616   3.999  1.00  0.00    -0.352 N 
ATOM     30  C   UNL     1     -10.802  -0.674   4.125  1.00  0.00     0.251 C 
ATOM     31  H   UNL     1      -8.908  -1.018   4.725  1.00  0.00     0.163 HD
ATOM     32  O   UNL     1     -11.344  -0.837   5.210  1.00  0.00    -0.269 OA
BRANCH  30  33
ATOM     33  C   UNL     1     -11.602  -0.542   2.893  1.00  0.00     0.039 A 
ATOM     34  C   UNL     1     -12.690   0.328   2.859  1.00  0.00     0.014 A 
ATOM     35  C   UNL     1     -11.221  -1.267   1.758  1.00  0.00     0.014 A 
ATOM     36  C   UNL     1     -13.402   0.474   1.670  1.00  0.00     0.010 A 
ATOM     37  C   UNL     1     -11.870  -1.048   0.554  1.00  0.00     0.010 A 
ATOM     38  C   UNL     1     -12.993  -0.210   0.512  1.00  0.00    -0.014 A 
BRANCH  38  39
ATOM     39  C   UNL     1     -13.781  -0.143  -0.739  1.00  0.00     0.031 A 
ATOM     40  C   UNL     1     -14.442  -1.393  -1.253  1.00  0.00     0.074 A 
ATOM     41  C   UNL     1     -13.859   1.012  -1.425  1.00  0.00     0.049 A 
ATOM     42  N   UNL     1     -15.129  -1.576  -2.351  1.00  0.00    -0.248 NA
ATOM     43  C   UNL     1     -14.275  -2.611  -0.442  1.00  0.00     0.031 C 
ATOM     44  C   UNL     1     -13.213   2.268  -1.044  1.00  0.00     0.029 A 
ATOM     45  N   UNL     1     -14.513   1.312  -2.591  1.00  0.00    -0.354 N 
ATOM     46  C   UNL     1     -15.455  -2.926  -2.367  1.00  0.00     0.074 A 
ATOM     47  C   UNL     1     -14.832  -3.531  -1.213  1.00  0.00     0.031 C 
ATOM     48  C   UNL     1     -13.529   3.213  -1.944  1.00  0.00     0.029 A 
ATOM     49  C   UNL     1     -14.370   2.621  -2.980  1.00  0.00     0.049 A 
ATOM     50  H   UNL     1     -15.036   0.653  -3.101  1.00  0.00     0.167 HD
ATOM     51  C   UNL     1     -16.235  -3.595  -3.248  1.00  0.00     0.037 A 
ATOM     52  C   UNL     1     -14.867   3.263  -4.053  1.00  0.00     0.037 A 
ATOM     53  C   UNL     1     -16.881  -2.972  -4.371  1.00  0.00     0.049 A 
ATOM     54  C   UNL     1     -15.741   2.500  -5.013  1.00  0.00     0.074 A 
ATOM     55  C   UNL     1     -17.745  -3.535  -5.291  1.00  0.00     0.029 A 
ATOM     56  N   UNL     1     -16.733  -1.637  -4.720  1.00  0.00    -0.354 N 
ATOM     57  N   UNL     1     -16.104   1.241  -4.981  1.00  0.00    -0.248 NA
ATOM     58  C   UNL     1     -16.282   3.252  -6.154  1.00  0.00     0.031 C 
ATOM     59  C   UNL     1     -18.083  -2.552  -6.227  1.00  0.00     0.029 A 
ATOM     60  C   UNL     1     -17.473  -1.363  -5.857  1.00  0.00     0.049 A 
ATOM     61  H   UNL     1     -16.183  -0.983  -4.232  1.00  0.00     0.167 HD
ATOM     62  C   UNL     1     -16.937   1.054  -6.076  1.00  0.00     0.074 A 
ATOM     63  C   UNL     1     -17.038   2.337  -6.743  1.00  0.00     0.031 C 
ATOM     64  C   UNL     1     -17.562  -0.074  -6.495  1.00  0.00     0.037 A 
BRANCH  51  65
ATOM     65  C   UNL     1     -16.434  -5.066  -3.024  1.00  0.00     0.064 A 
ATOM     66  C   UNL     1     -17.166  -5.553  -1.929  1.00  0.00     0.173 A 
ATOM     67  C   UNL     1     -15.904  -6.002  -3.924  1.00  0.00     0.173 A 
ATOM     68  F   UNL     1     -17.681  -4.703  -1.028  1.00  0.00    -0.203 F 
ATOM     69  C   UNL     1     -17.330  -6.921  -1.727  1.00  0.00     0.198 A 
ATOM     70  C   UNL     1     -16.100  -7.368  -3.738  1.00  0.00     0.198 A 
ATOM     71  F   UNL     1     -15.198  -5.592  -4.989  1.00  0.00    -0.203 F 
ATOM     72  F   UNL     1     -17.983  -7.363  -0.643  1.00  0.00    -0.200 F 
ATOM     73  C   UNL     1     -16.804  -7.827  -2.635  1.00  0.00     0.200 A 
ATOM     74  F   UNL     1     -15.601  -8.241  -4.624  1.00  0.00    -0.200 F 
ATOM     75  F   UNL     1     -16.970  -9.143  -2.444  1.00  0.00    -0.200 F 
ENDBRANCH  51  65
BRANCH  52  76
ATOM     76  C   UNL     1     -14.581   4.707  -4.255  1.00  0.00     0.064 A 
ATOM     77  C   UNL     1     -15.595   5.667  -4.127  1.00  0.00     0.173 A 
ATOM     78  C   UNL     1     -13.293   5.160  -4.577  1.00  0.00     0.173 A 
ATOM     79  F   UNL     1     -16.847   5.283  -3.836  1.00  0.00    -0.203 F 
ATOM     80  C   UNL     1     -15.338   7.020  -4.335  1.00  0.00     0.198 A 
ATOM     81  C   UNL     1     -13.031   6.517  -4.756  1.00  0.00     0.198 A 
ATOM     82  F   UNL     1     -12.285   4.285  -4.702  1.00  0.00    -0.203 F 
ATOM     83  F   UNL     1     -16.336   7.910  -4.252  1.00  0.00    -0.200 F 
ATOM     84  C   UNL     1     -14.055   7.445  -4.645  1.00  0.00     0.200 A 
ATOM     85  F   UNL     1     -11.786   6.925  -5.038  1.00  0.00    -0.200 F 
ATOM     86  F   UNL     1     -13.807   8.747  -4.841  1.00  0.00    -0.200 F 
ENDBRANCH  52  76
BRANCH  64  87
ATOM     87  C   UNL     1     -18.437   0.037  -7.709  1.00  0.00     0.064 A 
ATOM     88  C   UNL     1     -17.896   0.207  -8.992  1.00  0.00     0.173 A 
ATOM     89  C   UNL     1     -19.830  -0.076  -7.590  1.00  0.00     0.173 A 
ATOM     90  F   UNL     1     -16.571   0.334  -9.155  1.00  0.00    -0.203 F 
ATOM     91  C   UNL     1     -18.722   0.287 -10.109  1.00  0.00     0.198 A 
ATOM     92  C   UNL     1     -20.650  -0.029  -8.713  1.00  0.00     0.198 A 
ATOM     93  F   UNL     1     -20.395  -0.250  -6.386  1.00  0.00    -0.203 F 
ATOM     94  F   UNL     1     -18.188   0.500 -11.320  1.00  0.00    -0.200 F 
ATOM     95  C   UNL     1     -20.096   0.161  -9.970  1.00  0.00     0.200 A 
ATOM     96  F   UNL     1     -21.976  -0.169  -8.579  1.00  0.00    -0.200 F 
ATOM     97  F   UNL     1     -20.889   0.229 -11.049  1.00  0.00    -0.200 F 
ENDBRANCH  64  87
ENDBRANCH  38  39
ENDBRANCH  30  33
ENDBRANCH  28  29
ENDBRANCH  27  28
ENDBRANCH   1  27
TORSDOF 15
