REMARK SMILES Cc1cc2c(N[C@@H]3CCCCC[C@@H]3C(=O)NCCCCCCNC(=O)c3ccc(-c4c5nc(c(-c6c(F)c(F)c(F)c(F)c6F)c6ccc([nH]6)c(-c6c(F)c(F)c(F)c(F)c6F)c6nc(c(-c7c(F)c(F)c(F)c(F)c7F)c7ccc4[nH]7)C=C6)C=C5)cc3)ncnc2s1
REMARK SMILES IDX 19 1 18 2 17 3 16 4 14 5 15 6 13 8 7 9 6 10 5 12 1 13 2 14
REMARK SMILES IDX 3 15 93 16 4 17 92 18 91 19 89 20 90 21 8 22 9 23 12 25
REMARK SMILES IDX 11 26 10 27 20 29 21 30 22 31 23 32 24 33 25 35 26 36 27 37
REMARK SMILES IDX 88 38 28 39 87 40 29 41 30 42 31 43 81 44 32 45 86 46 80 47
REMARK SMILES IDX 82 48 33 49 85 50 79 51 78 52 34 54 66 55 46 56 65 57 47 58
REMARK SMILES IDX 50 59 64 60 83 61 48 62 49 63 63 65 84 66 51 67 35 68 36 69
REMARK SMILES IDX 44 70 37 71 38 72 42 73 45 74 39 75 40 76 43 77 41 78 67 79
REMARK SMILES IDX 68 80 76 81 69 82 70 83 74 84 77 85 71 86 72 87 75 88 73 89
REMARK SMILES IDX 52 90 53 91 61 92 54 93 55 94 59 95 62 96 56 97 57 98 60 99
REMARK SMILES IDX 58 100
REMARK H PARENT 16 7 6 11 23 34 82 53 50 64
REMARK Flexibility Score: 100.00
ROOT
ATOM      1  C   UNL     1       5.012  -2.128  -6.506  1.00  0.00     0.002 C 
ENDROOT
BRANCH   1   2
ATOM      2  C   UNL     1       3.976  -2.928  -5.711  1.00  0.00     0.021 C 
BRANCH   2   3
ATOM      3  C   UNL     1       3.069  -2.101  -4.807  1.00  0.00     0.116 C 
BRANCH   3   4
ATOM      4  N   UNL     1       2.306  -1.111  -5.540  1.00  0.00    -0.356 N 
ATOM      5  C   UNL     1       1.013  -0.699  -5.407  1.00  0.00     0.225 C 
ATOM      6  O   UNL     1       0.586   0.028  -6.307  1.00  0.00    -0.275 OA
ATOM      7  H   UNL     1       2.807  -0.658  -6.256  1.00  0.00     0.163 HD
BRANCH   5   8
ATOM      8  C   UNL     1       0.124  -1.228  -4.269  1.00  0.00     0.101 C 
BRANCH   8   9
ATOM      9  C   UNL     1      -1.312  -0.628  -4.338  1.00  0.00     0.093 C 
BRANCH   9  10
ATOM     10  N   UNL     1      -1.436   0.821  -4.550  1.00  0.00    -0.366 N 
ATOM     11  H   UNL     1      -2.016   1.038  -5.315  1.00  0.00     0.162 HD
BRANCH  10  12
ATOM     12  C   UNL     1      -0.938   1.945  -3.938  1.00  0.00     0.138 A 
ATOM     13  C   UNL     1       0.805   0.937   0.679  1.00  0.00     0.056 C 
ATOM     14  C   UNL     1       0.313   1.751  -0.465  1.00  0.00     0.004 A 
ATOM     15  C   UNL     1      -0.660   1.418  -1.383  1.00  0.00     0.029 A 
ATOM     16  S   UNL     1       0.990   3.271  -0.839  1.00  0.00    -0.121 S 
ATOM     17  C   UNL     1      -0.520   2.145  -2.608  1.00  0.00     0.054 A 
ATOM     18  C   UNL     1       0.218   3.296  -2.365  1.00  0.00     0.129 A 
ATOM     19  N   UNL     1       0.421   4.315  -3.214  1.00  0.00    -0.225 NA
ATOM     20  N   UNL     1      -0.795   2.986  -4.796  1.00  0.00    -0.219 NA
ATOM     21  C   UNL     1      -0.158   4.096  -4.394  1.00  0.00     0.225 A 
ENDBRANCH  10  12
ENDBRANCH   9  10
BRANCH   9  22
ATOM     22  C   UNL     1      -2.361  -1.102  -3.320  1.00  0.00     0.026 C 
BRANCH  22  23
ATOM     23  C   UNL     1      -2.101  -2.432  -2.618  1.00  0.00     0.002 CG0
ATOM     24  G   UNL     1      -1.065  -2.366  -1.501  1.00  0.00     0.000 G0
ENDBRANCH  22  23
ENDBRANCH   9  22
ENDBRANCH   8   9
BRANCH   8  25
ATOM     25  C   UNL     1       0.769  -1.162  -2.883  1.00  0.00     0.015 C 
BRANCH  25  26
ATOM     26  C   UNL     1       0.388  -2.312  -1.954  1.00  0.00     0.001 C 
BRANCH  26  27
ATOM     27  C   UNL     1      -1.065  -2.366  -1.501  1.00  0.00     0.000 CG0
ATOM     28  G   UNL     1      -2.101  -2.432  -2.618  1.00  0.00     0.000 G0
ENDBRANCH  26  27
ENDBRANCH  25  26
ENDBRANCH   8  25
ENDBRANCH   5   8
ENDBRANCH   3   4
ENDBRANCH   2   3
ENDBRANCH   1   2
BRANCH   1  29
ATOM     29  C   UNL     1       5.904  -1.167  -5.705  1.00  0.00     0.002 C 
BRANCH  29  30
ATOM     30  C   UNL     1       6.682  -1.761  -4.523  1.00  0.00     0.021 C 
BRANCH  30  31
ATOM     31  C   UNL     1       7.634  -2.880  -4.904  1.00  0.00     0.116 C 
BRANCH  31  32
ATOM     32  N   UNL     1       8.732  -2.440  -5.766  1.00  0.00    -0.352 N 
ATOM     33  C   UNL     1       9.737  -3.220  -6.316  1.00  0.00     0.251 C 
ATOM     34  H   UNL     1       8.759  -1.479  -5.980  1.00  0.00     0.163 HD
ATOM     35  O   UNL     1      10.777  -2.745  -6.724  1.00  0.00    -0.269 OA
BRANCH  33  36
ATOM     36  C   UNL     1       9.486  -4.668  -6.410  1.00  0.00     0.039 A 
ATOM     37  C   UNL     1      10.438  -5.619  -6.035  1.00  0.00     0.014 A 
ATOM     38  C   UNL     1       8.216  -5.045  -6.832  1.00  0.00     0.014 A 
ATOM     39  C   UNL     1      10.067  -6.962  -6.024  1.00  0.00     0.010 A 
ATOM     40  C   UNL     1       7.796  -6.326  -6.624  1.00  0.00     0.010 A 
ATOM     41  C   UNL     1       8.738  -7.300  -6.313  1.00  0.00    -0.014 A 
BRANCH  41  42
ATOM     42  C   UNL     1       8.270  -8.675  -6.302  1.00  0.00     0.031 A 
ATOM     43  C   UNL     1       8.372  -9.399  -5.006  1.00  0.00     0.074 A 
ATOM     44  C   UNL     1       7.566  -9.163  -7.346  1.00  0.00     0.049 A 
ATOM     45  N   UNL     1       9.033 -10.480  -4.755  1.00  0.00    -0.248 NA
ATOM     46  C   UNL     1       7.728  -8.811  -3.822  1.00  0.00     0.031 C 
ATOM     47  C   UNL     1       7.112  -8.477  -8.565  1.00  0.00     0.029 A 
ATOM     48  N   UNL     1       7.011 -10.392  -7.479  1.00  0.00    -0.354 N 
ATOM     49  C   UNL     1       8.791 -10.796  -3.418  1.00  0.00     0.074 A 
ATOM     50  C   UNL     1       8.085  -9.669  -2.863  1.00  0.00     0.031 C 
ATOM     51  C   UNL     1       6.173  -9.224  -9.186  1.00  0.00     0.029 A 
ATOM     52  C   UNL     1       6.098 -10.507  -8.516  1.00  0.00     0.049 A 
ATOM     53  H   UNL     1       7.238 -11.145  -6.886  1.00  0.00     0.167 HD
ATOM     54  C   UNL     1       9.052 -12.039  -2.921  1.00  0.00     0.037 A 
ATOM     55  C   UNL     1       5.323 -11.584  -8.780  1.00  0.00     0.037 A 
ATOM     56  C   UNL     1       9.903 -12.781  -3.815  1.00  0.00     0.049 A 
ATOM     57  C   UNL     1       5.959 -12.746  -8.104  1.00  0.00     0.074 A 
ATOM     58  C   UNL     1      11.198 -12.611  -4.264  1.00  0.00     0.029 A 
ATOM     59  N   UNL     1       9.318 -13.660  -4.695  1.00  0.00    -0.354 N 
ATOM     60  N   UNL     1       7.117 -13.236  -8.459  1.00  0.00    -0.248 NA
ATOM     61  C   UNL     1       5.553 -13.032  -6.735  1.00  0.00     0.031 C 
ATOM     62  C   UNL     1      11.154 -12.969  -5.644  1.00  0.00     0.029 A 
ATOM     63  C   UNL     1       9.860 -13.408  -5.931  1.00  0.00     0.049 A 
ATOM     64  H   UNL     1       8.639 -14.340  -4.480  1.00  0.00     0.167 HD
ATOM     65  C   UNL     1       7.763 -13.530  -7.266  1.00  0.00     0.074 A 
ATOM     66  C   UNL     1       6.723 -13.450  -6.240  1.00  0.00     0.031 C 
ATOM     67  C   UNL     1       9.126 -13.520  -7.171  1.00  0.00     0.037 A 
BRANCH  54  68
ATOM     68  C   UNL     1       8.335 -12.700  -1.772  1.00  0.00     0.064 A 
ATOM     69  C   UNL     1       8.822 -13.921  -1.259  1.00  0.00     0.173 A 
ATOM     70  C   UNL     1       7.044 -12.333  -1.339  1.00  0.00     0.173 A 
ATOM     71  F   UNL     1      10.034 -14.377  -1.608  1.00  0.00    -0.203 F 
ATOM     72  C   UNL     1       8.044 -14.744  -0.439  1.00  0.00     0.198 A 
ATOM     73  C   UNL     1       6.291 -13.132  -0.478  1.00  0.00     0.198 A 
ATOM     74  F   UNL     1       6.418 -11.250  -1.812  1.00  0.00    -0.203 F 
ATOM     75  F   UNL     1       8.504 -15.949  -0.075  1.00  0.00    -0.200 F 
ATOM     76  C   UNL     1       6.776 -14.351  -0.054  1.00  0.00     0.200 A 
ATOM     77  F   UNL     1       5.057 -12.740  -0.127  1.00  0.00    -0.200 F 
ATOM     78  F   UNL     1       6.005 -15.162   0.682  1.00  0.00    -0.200 F 
ENDBRANCH  54  68
BRANCH  55  79
ATOM     79  C   UNL     1       3.945 -11.598  -9.319  1.00  0.00     0.064 A 
ATOM     80  C   UNL     1       3.389 -12.761  -9.871  1.00  0.00     0.173 A 
ATOM     81  C   UNL     1       3.053 -10.535  -9.066  1.00  0.00     0.173 A 
ATOM     82  F   UNL     1       4.161 -13.832 -10.100  1.00  0.00    -0.203 F 
ATOM     83  C   UNL     1       2.018 -12.862 -10.138  1.00  0.00     0.198 A 
ATOM     84  C   UNL     1       1.688 -10.635  -9.337  1.00  0.00     0.198 A 
ATOM     85  F   UNL     1       3.474  -9.412  -8.466  1.00  0.00    -0.203 F 
ATOM     86  F   UNL     1       1.513 -14.008 -10.615  1.00  0.00    -0.200 F 
ATOM     87  C   UNL     1       1.168 -11.803  -9.862  1.00  0.00     0.200 A 
ATOM     88  F   UNL     1       0.872  -9.616  -9.028  1.00  0.00    -0.200 F 
ATOM     89  F   UNL     1      -0.152 -11.921 -10.061  1.00  0.00    -0.200 F 
ENDBRANCH  55  79
BRANCH  67  90
ATOM     90  C   UNL     1       9.927 -13.353  -8.437  1.00  0.00     0.064 A 
ATOM     91  C   UNL     1       9.898 -12.193  -9.231  1.00  0.00     0.173 A 
ATOM     92  C   UNL     1      10.902 -14.310  -8.745  1.00  0.00     0.173 A 
ATOM     93  F   UNL     1       9.070 -11.184  -8.946  1.00  0.00    -0.203 F 
ATOM     94  C   UNL     1      10.779 -12.012 -10.296  1.00  0.00     0.198 A 
ATOM     95  C   UNL     1      11.806 -14.113  -9.788  1.00  0.00     0.198 A 
ATOM     96  F   UNL     1      11.024 -15.411  -7.989  1.00  0.00    -0.203 F 
ATOM     97  F   UNL     1      10.726 -10.890 -11.030  1.00  0.00    -0.200 F 
ATOM     98  C   UNL     1      11.741 -12.968 -10.567  1.00  0.00     0.200 A 
ATOM     99  F   UNL     1      12.770 -15.017 -10.012  1.00  0.00    -0.200 F 
ATOM    100  F   UNL     1      12.624 -12.773 -11.555  1.00  0.00    -0.200 F 
ENDBRANCH  67  90
ENDBRANCH  41  42
ENDBRANCH  33  36
ENDBRANCH  31  32
ENDBRANCH  30  31
ENDBRANCH  29  30
ENDBRANCH   1  29
TORSDOF 15
