REMARK SMILES Cc1ccc(C)c([C@H]2[NH2+][C@@H](C(=O)NCCCCCCNC(=O)c3ccc(-c4c5nc(c(-c6c(F)c(F)c(F)c(F)c6F)c6ccc([nH]6)c(-c6c(F)c(F)c(F)c(F)c6F)c6nc(c(-c7c(F)c(F)c(F)c(F)c7F)c7ccc4[nH]7)C=C6)C=C5)cc3)Cc3c2[nH]c2ccccc32)c1
REMARK SMILES IDX 17 1 16 2 15 3 14 4 13 5 11 6 12 7 10 9 8 10 9 11 88 12
REMARK SMILES IDX 87 15 89 16 86 17 95 18 90 19 94 21 91 22 93 23 92 24 7 25
REMARK SMILES IDX 1 26 2 27 3 28 96 29 4 30 5 31 6 32 18 33 19 34 20 35 21 36
REMARK SMILES IDX 22 38 23 39 24 40 85 41 25 42 84 43 26 44 27 45 28 46 78 47
REMARK SMILES IDX 29 48 83 49 77 50 79 51 30 52 82 53 76 54 75 55 31 57 63 58
REMARK SMILES IDX 43 59 62 60 44 61 47 62 61 63 80 64 45 65 46 66 60 68 81 69
REMARK SMILES IDX 48 70 32 71 33 72 41 73 34 74 35 75 39 76 42 77 36 78 37 79
REMARK SMILES IDX 40 80 38 81 64 82 65 83 73 84 66 85 67 86 71 87 74 88 68 89
REMARK SMILES IDX 69 90 72 91 70 92 49 93 50 94 58 95 51 96 52 97 56 98 59 99
REMARK SMILES IDX 53 100 54 101 57 102 55 103
REMARK H PARENT 13 8 9 13 9 14 89 20 20 37 79 56 47 67
REMARK Flexibility Score: inf
ROOT
ATOM      1  C   UNL     1      -4.897  10.110  -0.943  1.00  0.00     0.002 C 
ENDROOT
BRANCH   1   2
ATOM      2  C   UNL     1      -3.382  10.072  -0.672  1.00  0.00     0.002 C 
BRANCH   2   3
ATOM      3  C   UNL     1      -2.902   9.004   0.301  1.00  0.00     0.021 C 
BRANCH   3   4
ATOM      4  C   UNL     1      -3.193   7.595  -0.199  1.00  0.00     0.116 C 
BRANCH   4   5
ATOM      5  N   UNL     1      -2.212   7.175  -1.185  1.00  0.00    -0.351 N 
ATOM      6  C   UNL     1      -1.236   6.234  -1.234  1.00  0.00     0.278 C 
ATOM      7  O   UNL     1      -0.530   6.254  -2.255  1.00  0.00    -0.268 OA
ATOM      8  H   UNL     1      -2.269   7.698  -2.017  1.00  0.00     0.163 HD
BRANCH   6   9
ATOM      9  C   UNL     1      -1.016   5.097  -0.210  1.00  0.00     0.277 C 
ATOM     10  C   UNL     1      -1.339   2.583  -0.141  1.00  0.00     0.262 C 
ATOM     11  N   UNL     1      -1.477   3.861  -0.873  1.00  0.00    -0.325 N 
ATOM     12  C   UNL     1      -1.436   2.817   1.357  1.00  0.00     0.083 A 
ATOM     13  H   UNL     1      -2.467   3.983  -1.085  1.00  0.00     0.347 HD
ATOM     14  H   UNL     1      -0.859   3.760  -1.678  1.00  0.00     0.347 HD
ATOM     15  C   UNL     1      -1.518   4.055   1.957  1.00  0.00    -0.006 A 
ATOM     16  N   UNL     1      -1.370   1.898   2.380  1.00  0.00    -0.353 N 
ATOM     17  C   UNL     1      -1.689   5.264   1.139  1.00  0.00     0.114 C 
ATOM     18  C   UNL     1      -1.506   3.916   3.355  1.00  0.00     0.003 A 
ATOM     19  C   UNL     1      -1.435   2.547   3.608  1.00  0.00     0.046 A 
ATOM     20  H   UNL     1      -1.289   0.924   2.259  1.00  0.00     0.166 HD
ATOM     21  C   UNL     1      -1.574   4.832   4.422  1.00  0.00     0.010 A 
ATOM     22  C   UNL     1      -1.443   2.054   4.921  1.00  0.00     0.026 A 
ATOM     23  C   UNL     1      -1.578   4.354   5.730  1.00  0.00     0.001 A 
ATOM     24  C   UNL     1      -1.518   2.983   5.972  1.00  0.00     0.002 A 
BRANCH  10  25
ATOM     25  C   UNL     1      -2.374   1.655  -0.799  1.00  0.00     0.019 A 
ATOM     26  C   UNL     1      -5.998   0.532  -0.222  1.00  0.00     0.044 C 
ATOM     27  C   UNL     1      -4.664   0.759  -0.868  1.00  0.00    -0.051 A 
ATOM     28  C   UNL     1      -4.480   0.382  -2.199  1.00  0.00     0.004 A 
ATOM     29  C   UNL     1      -3.620   1.403  -0.184  1.00  0.00     0.014 A 
ATOM     30  C   UNL     1      -3.260   0.606  -2.827  1.00  0.00     0.004 A 
ATOM     31  C   UNL     1      -2.194   1.215  -2.143  1.00  0.00    -0.042 A 
ATOM     32  C   UNL     1      -0.954   1.495  -2.957  1.00  0.00     0.045 C 
ENDBRANCH  10  25
ENDBRANCH   6   9
ENDBRANCH   4   5
ENDBRANCH   3   4
ENDBRANCH   2   3
ENDBRANCH   1   2
BRANCH   1  33
ATOM     33  C   UNL     1      -5.914   9.811   0.180  1.00  0.00     0.021 C 
BRANCH  33  34
ATOM     34  C   UNL     1      -6.179  10.849   1.279  1.00  0.00     0.116 C 
BRANCH  34  35
ATOM     35  N   UNL     1      -6.458  12.194   0.767  1.00  0.00    -0.352 N 
ATOM     36  C   UNL     1      -5.981  13.451   1.108  1.00  0.00     0.251 C 
ATOM     37  H   UNL     1      -7.117  12.208   0.036  1.00  0.00     0.163 HD
ATOM     38  O   UNL     1      -6.588  14.447   0.750  1.00  0.00    -0.269 OA
BRANCH  36  39
ATOM     39  C   UNL     1      -4.724  13.599   1.878  1.00  0.00     0.039 A 
ATOM     40  C   UNL     1      -4.358  14.781   2.531  1.00  0.00     0.014 A 
ATOM     41  C   UNL     1      -3.852  12.528   1.901  1.00  0.00     0.014 A 
ATOM     42  C   UNL     1      -3.112  14.842   3.165  1.00  0.00     0.010 A 
ATOM     43  C   UNL     1      -2.768  12.492   2.715  1.00  0.00     0.010 A 
ATOM     44  C   UNL     1      -2.317  13.689   3.219  1.00  0.00    -0.014 A 
BRANCH  44  45
ATOM     45  C   UNL     1      -0.995  13.641   3.809  1.00  0.00     0.031 A 
ATOM     46  C   UNL     1      -0.965  13.872   5.264  1.00  0.00     0.074 A 
ATOM     47  C   UNL     1       0.072  13.107   3.174  1.00  0.00     0.049 A 
ATOM     48  N   UNL     1      -0.445  14.872   5.887  1.00  0.00    -0.248 NA
ATOM     49  C   UNL     1      -1.700  12.934   6.126  1.00  0.00     0.031 C 
ATOM     50  C   UNL     1       0.134  12.423   1.873  1.00  0.00     0.029 A 
ATOM     51  N   UNL     1       1.337  12.960   3.646  1.00  0.00    -0.354 N 
ATOM     52  C   UNL     1      -0.626  14.610   7.237  1.00  0.00     0.074 A 
ATOM     53  C   UNL     1      -1.558  13.514   7.318  1.00  0.00     0.031 C 
ATOM     54  C   UNL     1       1.307  11.760   1.768  1.00  0.00     0.029 A 
ATOM     55  C   UNL     1       2.136  12.099   2.910  1.00  0.00     0.049 A 
ATOM     56  H   UNL     1       1.661  13.429   4.448  1.00  0.00     0.167 HD
ATOM     57  C   UNL     1       0.194  15.163   8.171  1.00  0.00     0.037 A 
ATOM     58  C   UNL     1       3.372  11.666   3.258  1.00  0.00     0.037 A 
ATOM     59  C   UNL     1       0.961  16.253   7.617  1.00  0.00     0.049 A 
ATOM     60  C   UNL     1       3.895  12.609   4.284  1.00  0.00     0.074 A 
ATOM     61  C   UNL     1       0.629  17.429   6.966  1.00  0.00     0.029 A 
ATOM     62  N   UNL     1       2.285  16.036   7.316  1.00  0.00    -0.354 N 
ATOM     63  N   UNL     1       4.202  13.855   4.044  1.00  0.00    -0.248 NA
ATOM     64  C   UNL     1       3.642  12.289   5.682  1.00  0.00     0.031 C 
ATOM     65  C   UNL     1       1.589  17.552   5.916  1.00  0.00     0.029 A 
ATOM     66  C   UNL     1       2.482  16.486   6.033  1.00  0.00     0.049 A 
ATOM     67  H   UNL     1       2.963  15.635   7.907  1.00  0.00     0.167 HD
ATOM     68  C   UNL     1       3.768  14.549   5.165  1.00  0.00     0.074 A 
ATOM     69  C   UNL     1       3.518  13.524   6.175  1.00  0.00     0.031 C 
ATOM     70  C   UNL     1       3.371  15.854   5.086  1.00  0.00     0.037 A 
BRANCH  57  71
ATOM     71  C   UNL     1       0.550  14.506   9.477  1.00  0.00     0.064 A 
ATOM     72  C   UNL     1       1.231  15.255  10.455  1.00  0.00     0.173 A 
ATOM     73  C   UNL     1       0.496  13.113   9.703  1.00  0.00     0.173 A 
ATOM     74  F   UNL     1       1.365  16.584  10.326  1.00  0.00    -0.203 F 
ATOM     75  C   UNL     1       1.867  14.646  11.539  1.00  0.00     0.198 A 
ATOM     76  C   UNL     1       1.077  12.516  10.819  1.00  0.00     0.198 A 
ATOM     77  F   UNL     1      -0.014  12.263   8.804  1.00  0.00    -0.203 F 
ATOM     78  F   UNL     1       2.610  15.385  12.373  1.00  0.00    -0.200 F 
ATOM     79  C   UNL     1       1.790  13.277  11.719  1.00  0.00     0.200 A 
ATOM     80  F   UNL     1       1.008  11.185  10.964  1.00  0.00    -0.200 F 
ATOM     81  F   UNL     1       2.445  12.685  12.726  1.00  0.00    -0.200 F 
ENDBRANCH  57  71
BRANCH  58  82
ATOM     82  C   UNL     1       3.998  10.351   2.980  1.00  0.00     0.064 A 
ATOM     83  C   UNL     1       5.380  10.159   3.141  1.00  0.00     0.173 A 
ATOM     84  C   UNL     1       3.222   9.188   2.809  1.00  0.00     0.173 A 
ATOM     85  F   UNL     1       6.186  11.209   3.354  1.00  0.00    -0.203 F 
ATOM     86  C   UNL     1       5.947   8.879   3.155  1.00  0.00     0.198 A 
ATOM     87  C   UNL     1       3.789   7.912   2.812  1.00  0.00     0.198 A 
ATOM     88  F   UNL     1       1.885   9.256   2.730  1.00  0.00    -0.203 F 
ATOM     89  F   UNL     1       7.261   8.733   3.377  1.00  0.00    -0.200 F 
ATOM     90  C   UNL     1       5.150   7.757   3.000  1.00  0.00     0.200 A 
ATOM     91  F   UNL     1       3.000   6.835   2.697  1.00  0.00    -0.200 F 
ATOM     92  F   UNL     1       5.683   6.530   3.075  1.00  0.00    -0.200 F 
ENDBRANCH  58  82
BRANCH  70  93
ATOM     93  C   UNL     1       3.655  16.611   3.815  1.00  0.00     0.064 A 
ATOM     94  C   UNL     1       3.145  16.253   2.554  1.00  0.00     0.173 A 
ATOM     95  C   UNL     1       4.337  17.832   3.905  1.00  0.00     0.173 A 
ATOM     96  F   UNL     1       2.390  15.160   2.398  1.00  0.00    -0.203 F 
ATOM     97  C   UNL     1       3.349  17.056   1.433  1.00  0.00     0.198 A 
ATOM     98  C   UNL     1       4.507  18.652   2.792  1.00  0.00     0.198 A 
ATOM     99  F   UNL     1       4.799  18.258   5.091  1.00  0.00    -0.203 F 
ATOM    100  F   UNL     1       2.860  16.683   0.241  1.00  0.00    -0.200 F 
ATOM    101  C   UNL     1       4.023  18.259   1.554  1.00  0.00     0.200 A 
ATOM    102  F   UNL     1       5.115  19.838   2.925  1.00  0.00    -0.200 F 
ATOM    103  F   UNL     1       4.181  19.053   0.486  1.00  0.00    -0.200 F 
ENDBRANCH  70  93
ENDBRANCH  44  45
ENDBRANCH  36  39
ENDBRANCH  34  35
ENDBRANCH  33  34
ENDBRANCH   1  33
TORSDOF 14
