REMARK SMILES [N-]=[N+]=NC[C@@H](Nc1ccccc1Br)C(=O)NCCCCCCNC(=O)c1ccc(-c2c3nc(c(-c4c(F)c(F)c(F)c(F)c4F)c4ccc([nH]4)c(-c4c(F)c(F)c(F)c(F)c4F)c4nc(c(-c5c(F)c(F)c(F)c(F)c5F)c5ccc2[nH]5)C=C4)C=C3)cc1
REMARK SMILES IDX 19 1 18 2 17 3 16 4 14 5 15 6 5 8 4 9 3 10 1 11 2 12 6 13
REMARK SMILES IDX 7 15 8 16 12 17 9 18 11 19 13 20 10 21 20 22 21 23 22 24
REMARK SMILES IDX 23 25 24 26 25 28 26 29 27 30 88 31 28 32 87 33 29 34 30 35
REMARK SMILES IDX 31 36 81 37 32 38 86 39 80 40 82 41 33 42 85 43 79 44 78 45
REMARK SMILES IDX 34 47 66 48 46 49 65 50 47 51 50 52 64 53 83 54 48 55 49 56
REMARK SMILES IDX 63 58 84 59 51 60 35 61 36 62 44 63 37 64 38 65 42 66 45 67
REMARK SMILES IDX 39 68 40 69 43 70 41 71 67 72 68 73 76 74 69 75 70 76 74 77
REMARK SMILES IDX 77 78 71 79 72 80 75 81 73 82 52 83 53 84 61 85 54 86 55 87
REMARK SMILES IDX 59 88 62 89 56 90 57 91 60 92 58 93
REMARK H PARENT 16 7 6 14 23 27 82 46 50 57
REMARK Flexibility Score: inf
ROOT
ATOM      1  C   UNL     1       5.202   2.439  -5.504  1.00  0.00     0.002 C 
ENDROOT
BRANCH   1   2
ATOM      2  C   UNL     1       4.623   2.240  -4.098  1.00  0.00     0.021 C 
BRANCH   2   3
ATOM      3  C   UNL     1       3.865   0.927  -3.944  1.00  0.00     0.116 C 
BRANCH   3   4
ATOM      4  N   UNL     1       4.792  -0.185  -3.928  1.00  0.00    -0.354 N 
ATOM      5  C   UNL     1       4.898  -1.233  -3.064  1.00  0.00     0.242 C 
ATOM      6  O   UNL     1       5.890  -1.959  -3.194  1.00  0.00    -0.273 OA
ATOM      7  H   UNL     1       5.451  -0.185  -4.660  1.00  0.00     0.163 HD
BRANCH   5   8
ATOM      8  C   UNL     1       3.887  -1.473  -1.924  1.00  0.00     0.174 C 
BRANCH   8   9
ATOM      9  C   UNL     1       4.196  -0.443  -0.812  1.00  0.00     0.125 C 
BRANCH   9  10
ATOM     10  N   UNL     1       3.389  -0.688   0.401  1.00  0.00    -0.091 NA
ATOM     11  N   UNL     1       1.346   0.532   0.524  1.00  0.00    -0.003 NA
ATOM     12  N   UNL     1       2.330  -0.043   0.484  1.00  0.00     0.001 N 
ENDBRANCH   9  10
ENDBRANCH   8   9
BRANCH   8  13
ATOM     13  N   UNL     1       2.458  -1.434  -2.313  1.00  0.00    -0.373 N 
ATOM     14  H   UNL     1       1.816  -1.240  -1.592  1.00  0.00     0.161 HD
BRANCH  13  15
ATOM     15  C   UNL     1       1.919  -1.638  -3.572  1.00  0.00     0.049 A 
ATOM     16  C   UNL     1       0.905  -0.738  -3.959  1.00  0.00     0.027 A 
ATOM     17  C   UNL     1       2.346  -2.570  -4.533  1.00  0.00     0.041 A 
ATOM     18  C   UNL     1       0.434  -0.677  -5.272  1.00  0.00     0.002 A 
ATOM     19  C   UNL     1       1.885  -2.502  -5.856  1.00  0.00     0.018 A 
ATOM     20  Br  UNL     1       3.426  -4.076  -4.102  1.00  0.00    -0.049 Br
ATOM     21  C   UNL     1       0.949  -1.540  -6.231  1.00  0.00     0.001 A 
ENDBRANCH  13  15
ENDBRANCH   8  13
ENDBRANCH   5   8
ENDBRANCH   3   4
ENDBRANCH   2   3
ENDBRANCH   1   2
BRANCH   1  22
ATOM     22  C   UNL     1       4.160   2.460  -6.628  1.00  0.00     0.002 C 
BRANCH  22  23
ATOM     23  C   UNL     1       3.038   3.485  -6.441  1.00  0.00     0.021 C 
BRANCH  23  24
ATOM     24  C   UNL     1       3.525   4.917  -6.253  1.00  0.00     0.116 C 
BRANCH  24  25
ATOM     25  N   UNL     1       4.295   5.383  -7.394  1.00  0.00    -0.352 N 
ATOM     26  C   UNL     1       4.141   6.518  -8.145  1.00  0.00     0.251 C 
ATOM     27  H   UNL     1       5.037   4.796  -7.668  1.00  0.00     0.163 HD
ATOM     28  O   UNL     1       4.747   6.647  -9.204  1.00  0.00    -0.269 OA
BRANCH  26  29
ATOM     29  C   UNL     1       3.225   7.582  -7.687  1.00  0.00     0.039 A 
ATOM     30  C   UNL     1       2.380   8.187  -8.620  1.00  0.00     0.014 A 
ATOM     31  C   UNL     1       3.204   7.989  -6.349  1.00  0.00     0.014 A 
ATOM     32  C   UNL     1       1.476   9.162  -8.200  1.00  0.00     0.010 A 
ATOM     33  C   UNL     1       2.249   8.905  -5.918  1.00  0.00     0.010 A 
ATOM     34  C   UNL     1       1.378   9.503  -6.840  1.00  0.00    -0.014 A 
BRANCH  34  35
ATOM     35  C   UNL     1       0.352  10.470  -6.376  1.00  0.00     0.031 A 
ATOM     36  C   UNL     1       0.757  11.777  -5.756  1.00  0.00     0.074 A 
ATOM     37  C   UNL     1      -0.951  10.143  -6.475  1.00  0.00     0.049 A 
ATOM     38  N   UNL     1       0.002  12.738  -5.285  1.00  0.00    -0.248 NA
ATOM     39  C   UNL     1       2.200  12.031  -5.624  1.00  0.00     0.031 C 
ATOM     40  C   UNL     1      -1.465   8.879  -7.004  1.00  0.00     0.029 A 
ATOM     41  N   UNL     1      -2.080  10.843  -6.132  1.00  0.00    -0.354 N 
ATOM     42  C   UNL     1       0.875  13.701  -4.797  1.00  0.00     0.074 A 
ATOM     43  C   UNL     1       2.215  13.186  -4.975  1.00  0.00     0.031 C 
ATOM     44  C   UNL     1      -2.806   8.904  -6.979  1.00  0.00     0.029 A 
ATOM     45  C   UNL     1      -3.247  10.167  -6.396  1.00  0.00     0.049 A 
ATOM     46  H   UNL     1      -2.057  11.744  -5.736  1.00  0.00     0.167 HD
ATOM     47  C   UNL     1       0.584  14.915  -4.271  1.00  0.00     0.037 A 
ATOM     48  C   UNL     1      -4.528  10.523  -6.185  1.00  0.00     0.037 A 
ATOM     49  C   UNL     1      -0.753  15.427  -4.110  1.00  0.00     0.049 A 
ATOM     50  C   UNL     1      -4.823  11.874  -5.593  1.00  0.00     0.074 A 
ATOM     51  C   UNL     1      -1.151  16.670  -3.651  1.00  0.00     0.029 A 
ATOM     52  N   UNL     1      -1.912  14.717  -4.393  1.00  0.00    -0.354 N 
ATOM     53  N   UNL     1      -3.990  12.813  -5.216  1.00  0.00    -0.248 NA
ATOM     54  C   UNL     1      -6.239  12.218  -5.404  1.00  0.00     0.031 C 
ATOM     55  C   UNL     1      -2.549  16.690  -3.595  1.00  0.00     0.029 A 
ATOM     56  C   UNL     1      -3.025  15.484  -4.084  1.00  0.00     0.049 A 
ATOM     57  H   UNL     1      -1.939  13.803  -4.759  1.00  0.00     0.167 HD
ATOM     58  C   UNL     1      -4.776  13.866  -4.769  1.00  0.00     0.074 A 
ATOM     59  C   UNL     1      -6.155  13.458  -4.944  1.00  0.00     0.031 C 
ATOM     60  C   UNL     1      -4.392  15.062  -4.258  1.00  0.00     0.037 A 
BRANCH  47  61
ATOM     61  C   UNL     1       1.732  15.775  -3.823  1.00  0.00     0.064 A 
ATOM     62  C   UNL     1       2.636  16.338  -4.738  1.00  0.00     0.173 A 
ATOM     63  C   UNL     1       1.910  16.073  -2.463  1.00  0.00     0.173 A 
ATOM     64  F   UNL     1       2.520  16.078  -6.049  1.00  0.00    -0.203 F 
ATOM     65  C   UNL     1       3.691  17.138  -4.306  1.00  0.00     0.198 A 
ATOM     66  C   UNL     1       2.944  16.902  -2.038  1.00  0.00     0.198 A 
ATOM     67  F   UNL     1       1.072  15.568  -1.545  1.00  0.00    -0.203 F 
ATOM     68  F   UNL     1       4.572  17.620  -5.194  1.00  0.00    -0.200 F 
ATOM     69  C   UNL     1       3.839  17.427  -2.958  1.00  0.00     0.200 A 
ATOM     70  F   UNL     1       3.077  17.192  -0.736  1.00  0.00    -0.200 F 
ATOM     71  F   UNL     1       4.849  18.205  -2.545  1.00  0.00    -0.200 F 
ENDBRANCH  47  61
BRANCH  48  72
ATOM     72  C   UNL     1      -5.626   9.591  -6.554  1.00  0.00     0.064 A 
ATOM     73  C   UNL     1      -6.504   9.886  -7.606  1.00  0.00     0.173 A 
ATOM     74  C   UNL     1      -5.819   8.386  -5.863  1.00  0.00     0.173 A 
ATOM     75  F   UNL     1      -6.371  11.035  -8.286  1.00  0.00    -0.203 F 
ATOM     76  C   UNL     1      -7.546   9.024  -7.939  1.00  0.00     0.198 A 
ATOM     77  C   UNL     1      -6.841   7.508  -6.218  1.00  0.00     0.198 A 
ATOM     78  F   UNL     1      -5.003   8.051  -4.853  1.00  0.00    -0.203 F 
ATOM     79  F   UNL     1      -8.400   9.354  -8.917  1.00  0.00    -0.200 F 
ATOM     80  C   UNL     1      -7.710   7.832  -7.248  1.00  0.00     0.200 A 
ATOM     81  F   UNL     1      -6.984   6.349  -5.560  1.00  0.00    -0.200 F 
ATOM     82  F   UNL     1      -8.708   6.999  -7.573  1.00  0.00    -0.200 F 
ENDBRANCH  48  72
BRANCH  60  83
ATOM     83  C   UNL     1      -5.480  16.025  -3.873  1.00  0.00     0.064 A 
ATOM     84  C   UNL     1      -6.321  15.789  -2.774  1.00  0.00     0.173 A 
ATOM     85  C   UNL     1      -5.667  17.212  -4.597  1.00  0.00     0.173 A 
ATOM     86  F   UNL     1      -6.194  14.662  -2.057  1.00  0.00    -0.203 F 
ATOM     87  C   UNL     1      -7.329  16.689  -2.437  1.00  0.00     0.198 A 
ATOM     88  C   UNL     1      -6.652  18.127  -4.235  1.00  0.00     0.198 A 
ATOM     89  F   UNL     1      -4.886  17.492  -5.652  1.00  0.00    -0.203 F 
ATOM     90  F   UNL     1      -8.158  16.412  -1.421  1.00  0.00    -0.200 F 
ATOM     91  C   UNL     1      -7.489  17.860  -3.163  1.00  0.00     0.200 A 
ATOM     92  F   UNL     1      -6.793  19.266  -4.927  1.00  0.00    -0.200 F 
ATOM     93  F   UNL     1      -8.456  18.727  -2.833  1.00  0.00    -0.200 F 
ENDBRANCH  60  83
ENDBRANCH  34  35
ENDBRANCH  26  29
ENDBRANCH  24  25
ENDBRANCH  23  24
ENDBRANCH  22  23
ENDBRANCH   1  22
TORSDOF 17
