REMARK SMILES CC[NH+]1CCC2(CC1)OC[C@@H](C(=O)NCCCCCCNC(=O)c1ccc(-c3c4nc(c(-c5c(F)c(F)c(F)c(F)c5F)c5ccc([nH]5)c(-c5c(F)c(F)c(F)c(F)c5F)c5nc(c(-c6c(F)c(F)c(F)c(F)c6F)c6ccc3[nH]6)C=C5)C=C4)cc1)N2C(=O)c1ccc(Cl)c([N+](=O)[O-])c1
REMARK SMILES IDX 17 1 16 2 15 3 14 4 12 5 13 6 11 8 3 9 4 10 8 11 5 13 7 14
REMARK SMILES IDX 6 15 9 16 87 17 10 18 2 19 1 20 88 21 89 22 90 23 91 24
REMARK SMILES IDX 99 25 92 26 95 27 93 28 94 29 96 30 97 31 98 32 18 33 19 34
REMARK SMILES IDX 20 35 21 36 22 37 23 39 24 40 25 41 86 42 26 43 85 44 27 45
REMARK SMILES IDX 28 46 29 47 79 48 30 49 84 50 78 51 80 52 31 53 83 54 77 55
REMARK SMILES IDX 76 56 32 58 64 59 44 60 63 61 45 62 48 63 62 64 81 65 46 66
REMARK SMILES IDX 47 67 61 69 82 70 49 71 33 72 34 73 42 74 35 75 36 76 40 77
REMARK SMILES IDX 43 78 37 79 38 80 41 81 39 82 65 83 66 84 74 85 67 86 68 87
REMARK SMILES IDX 72 88 75 89 69 90 70 91 73 92 71 93 50 94 51 95 59 96 52 97
REMARK SMILES IDX 53 98 57 99 60 100 54 101 55 102 58 103 56 104
REMARK H PARENT 14 7 3 12 21 38 80 57 48 68
REMARK Flexibility Score: inf
ROOT
ATOM      1  C   UNL     1      -1.804  -4.635  -7.637  1.00  0.00     0.002 C 
ENDROOT
BRANCH   1   2
ATOM      2  C   UNL     1      -1.444  -3.790  -6.413  1.00  0.00     0.021 C 
BRANCH   2   3
ATOM      3  C   UNL     1      -1.306  -4.582  -5.119  1.00  0.00     0.116 C 
BRANCH   3   4
ATOM      4  N   UNL     1      -0.181  -5.481  -5.196  1.00  0.00    -0.354 N 
ATOM      5  C   UNL     1       1.025  -5.427  -4.569  1.00  0.00     0.245 C 
ATOM      6  O   UNL     1       1.787  -6.383  -4.753  1.00  0.00    -0.273 OA
ATOM      7  H   UNL     1      -0.304  -6.253  -5.795  1.00  0.00     0.163 HD
BRANCH   5   8
ATOM      8  C   UNL     1       1.332  -4.398  -3.469  1.00  0.00     0.203 C 
ATOM      9  N   UNL     1       0.817   0.307  -1.520  1.00  0.00    -0.335 N 
ATOM     10  C   UNL     1       1.917  -0.637  -1.423  1.00  0.00     0.267 C 
ATOM     11  C   UNL     1      -0.394  -0.084  -2.224  1.00  0.00     0.267 C 
ATOM     12  H   UNL     1       1.219   0.922  -2.227  1.00  0.00     0.348 HD
ATOM     13  C   UNL     1       1.509  -2.086  -1.278  1.00  0.00     0.120 C 
ATOM     14  C   UNL     1      -0.743  -1.561  -2.253  1.00  0.00     0.120 C 
ATOM     15  C   UNL     1       0.439  -2.524  -2.289  1.00  0.00     0.155 C 
ATOM     16  O   UNL     1      -0.124  -3.743  -1.723  1.00  0.00    -0.352 OA
ATOM     17  N   UNL     1       0.971  -2.982  -3.589  1.00  0.00    -0.295 N 
ATOM     18  C   UNL     1       0.591  -4.871  -2.229  1.00  0.00     0.198 C 
BRANCH   9  19
ATOM     19  C   UNL     1       0.614   1.175  -0.361  1.00  0.00     0.258 C 
ATOM     20  C   UNL     1       0.583   0.453   0.980  1.00  0.00     0.071 C 
ENDBRANCH   9  19
BRANCH  17  21
ATOM     21  C   UNL     1       1.498  -2.323  -4.699  1.00  0.00     0.257 C 
ATOM     22  O   UNL     1       2.150  -2.907  -5.563  1.00  0.00    -0.269 OA
BRANCH  21  23
ATOM     23  C   UNL     1       1.269  -0.894  -4.971  1.00  0.00     0.047 A 
ATOM     24  C   UNL     1       0.158  -0.471  -5.701  1.00  0.00     0.016 A 
ATOM     25  C   UNL     1       2.243   0.039  -4.616  1.00  0.00     0.101 A 
ATOM     26  C   UNL     1      -0.039   0.893  -5.952  1.00  0.00     0.028 A 
ATOM     27  C   UNL     1       1.978   1.417  -4.739  1.00  0.00     0.288 A 
ATOM     28  C   UNL     1       0.844   1.853  -5.433  1.00  0.00     0.118 A 
ATOM     29  Cl  UNL     1       0.437   3.500  -5.754  1.00  0.00    -0.077 Cl
BRANCH  27  30
ATOM     30  N   UNL     1       2.866   2.331  -4.011  1.00  0.00     0.064 N 
ATOM     31  O   UNL     1       2.434   3.436  -3.665  1.00  0.00    -0.258 OA
ATOM     32  O   UNL     1       3.996   1.908  -3.722  1.00  0.00    -0.258 OA
ENDBRANCH  27  30
ENDBRANCH  21  23
ENDBRANCH  17  21
ENDBRANCH   5   8
ENDBRANCH   3   4
ENDBRANCH   2   3
ENDBRANCH   1   2
BRANCH   1  33
ATOM     33  C   UNL     1      -3.071  -5.478  -7.488  1.00  0.00     0.002 C 
BRANCH  33  34
ATOM     34  C   UNL     1      -4.319  -4.694  -7.074  1.00  0.00     0.021 C 
BRANCH  34  35
ATOM     35  C   UNL     1      -4.663  -3.521  -7.986  1.00  0.00     0.116 C 
BRANCH  35  36
ATOM     36  N   UNL     1      -4.899  -3.944  -9.354  1.00  0.00    -0.352 N 
ATOM     37  C   UNL     1      -5.991  -3.737 -10.157  1.00  0.00     0.251 C 
ATOM     38  H   UNL     1      -4.166  -4.456  -9.767  1.00  0.00     0.163 HD
ATOM     39  O   UNL     1      -6.104  -4.346 -11.214  1.00  0.00    -0.269 OA
BRANCH  37  40
ATOM     40  C   UNL     1      -7.045  -2.789  -9.737  1.00  0.00     0.039 A 
ATOM     41  C   UNL     1      -8.381  -3.159  -9.900  1.00  0.00     0.014 A 
ATOM     42  C   UNL     1      -6.721  -1.539  -9.200  1.00  0.00     0.014 A 
ATOM     43  C   UNL     1      -9.393  -2.298  -9.475  1.00  0.00     0.010 A 
ATOM     44  C   UNL     1      -7.730  -0.714  -8.707  1.00  0.00     0.010 A 
ATOM     45  C   UNL     1      -9.076  -1.084  -8.843  1.00  0.00    -0.014 A 
BRANCH  45  46
ATOM     46  C   UNL     1     -10.148  -0.206  -8.306  1.00  0.00     0.031 A 
ATOM     47  C   UNL     1     -10.361   1.172  -8.870  1.00  0.00     0.074 A 
ATOM     48  C   UNL     1     -10.899  -0.639  -7.274  1.00  0.00     0.049 A 
ATOM     49  N   UNL     1     -11.227   2.086  -8.512  1.00  0.00    -0.248 NA
ATOM     50  C   UNL     1      -9.470   1.591  -9.965  1.00  0.00     0.031 C 
ATOM     51  C   UNL     1     -10.751  -1.934  -6.605  1.00  0.00     0.029 A 
ATOM     52  N   UNL     1     -11.933  -0.037  -6.601  1.00  0.00    -0.354 N 
ATOM     53  C   UNL     1     -10.977   3.186  -9.322  1.00  0.00     0.074 A 
ATOM     54  C   UNL     1      -9.850   2.845 -10.162  1.00  0.00     0.031 C 
ATOM     55  C   UNL     1     -11.674  -2.038  -5.636  1.00  0.00     0.029 A 
ATOM     56  C   UNL     1     -12.452  -0.805  -5.586  1.00  0.00     0.049 A 
ATOM     57  H   UNL     1     -12.271   0.860  -6.824  1.00  0.00     0.167 HD
ATOM     58  C   UNL     1     -11.641   4.364  -9.370  1.00  0.00     0.037 A 
ATOM     59  C   UNL     1     -13.438  -0.540  -4.707  1.00  0.00     0.037 A 
ATOM     60  C   UNL     1     -12.787   4.683  -8.558  1.00  0.00     0.049 A 
ATOM     61  C   UNL     1     -14.157   0.781  -4.794  1.00  0.00     0.074 A 
ATOM     62  C   UNL     1     -13.583   5.815  -8.601  1.00  0.00     0.029 A 
ATOM     63  N   UNL     1     -13.295   3.875  -7.554  1.00  0.00    -0.354 N 
ATOM     64  N   UNL     1     -13.976   1.771  -5.633  1.00  0.00    -0.248 NA
ATOM     65  C   UNL     1     -15.227   1.017  -3.814  1.00  0.00     0.031 C 
ATOM     66  C   UNL     1     -14.532   5.721  -7.580  1.00  0.00     0.029 A 
ATOM     67  C   UNL     1     -14.371   4.501  -6.944  1.00  0.00     0.049 A 
ATOM     68  H   UNL     1     -12.944   2.988  -7.310  1.00  0.00     0.167 HD
ATOM     69  C   UNL     1     -14.926   2.729  -5.304  1.00  0.00     0.074 A 
ATOM     70  C   UNL     1     -15.698   2.191  -4.205  1.00  0.00     0.031 C 
ATOM     71  C   UNL     1     -15.137   3.948  -5.858  1.00  0.00     0.037 A 
BRANCH  58  72
ATOM     72  C   UNL     1     -11.161   5.412 -10.333  1.00  0.00     0.064 A 
ATOM     73  C   UNL     1     -11.337   5.279 -11.717  1.00  0.00     0.173 A 
ATOM     74  C   UNL     1     -10.603   6.607  -9.853  1.00  0.00     0.173 A 
ATOM     75  F   UNL     1     -11.856   4.153 -12.228  1.00  0.00    -0.203 F 
ATOM     76  C   UNL     1     -10.965   6.302 -12.588  1.00  0.00     0.198 A 
ATOM     77  C   UNL     1     -10.260   7.638 -10.723  1.00  0.00     0.198 A 
ATOM     78  F   UNL     1     -10.418   6.787  -8.537  1.00  0.00    -0.203 F 
ATOM     79  F   UNL     1     -11.119   6.143 -13.909  1.00  0.00    -0.200 F 
ATOM     80  C   UNL     1     -10.439   7.484 -12.089  1.00  0.00     0.200 A 
ATOM     81  F   UNL     1      -9.767   8.786 -10.238  1.00  0.00    -0.200 F 
ATOM     82  F   UNL     1     -10.106   8.476 -12.926  1.00  0.00    -0.200 F 
ENDBRANCH  58  72
BRANCH  59  83
ATOM     83  C   UNL     1     -13.810  -1.534  -3.664  1.00  0.00     0.064 A 
ATOM     84  C   UNL     1     -15.075  -2.141  -3.660  1.00  0.00     0.173 A 
ATOM     85  C   UNL     1     -12.931  -1.858  -2.620  1.00  0.00     0.173 A 
ATOM     86  F   UNL     1     -15.959  -1.851  -4.626  1.00  0.00    -0.203 F 
ATOM     87  C   UNL     1     -15.462  -2.995  -2.629  1.00  0.00     0.198 A 
ATOM     88  C   UNL     1     -13.306  -2.741  -1.610  1.00  0.00     0.198 A 
ATOM     89  F   UNL     1     -11.706  -1.313  -2.578  1.00  0.00    -0.203 F 
ATOM     90  F   UNL     1     -16.703  -3.499  -2.612  1.00  0.00    -0.200 F 
ATOM     91  C   UNL     1     -14.576  -3.296  -1.606  1.00  0.00     0.200 A 
ATOM     92  F   UNL     1     -12.440  -3.043  -0.633  1.00  0.00    -0.200 F 
ATOM     93  F   UNL     1     -14.952  -4.109  -0.610  1.00  0.00    -0.200 F 
ENDBRANCH  59  83
BRANCH  71  94
ATOM     94  C   UNL     1     -16.273   4.764  -5.311  1.00  0.00     0.064 A 
ATOM     95  C   UNL     1     -16.228   5.325  -4.026  1.00  0.00     0.173 A 
ATOM     96  C   UNL     1     -17.412   5.010  -6.094  1.00  0.00     0.173 A 
ATOM     97  F   UNL     1     -15.169   5.109  -3.232  1.00  0.00    -0.203 F 
ATOM     98  C   UNL     1     -17.296   6.070  -3.532  1.00  0.00     0.198 A 
ATOM     99  C   UNL     1     -18.461   5.786  -5.611  1.00  0.00     0.198 A 
ATOM    100  F   UNL     1     -17.503   4.505  -7.334  1.00  0.00    -0.203 F 
ATOM    101  F   UNL     1     -17.256   6.544  -2.279  1.00  0.00    -0.200 F 
ATOM    102  C   UNL     1     -18.407   6.306  -4.327  1.00  0.00     0.200 A 
ATOM    103  F   UNL     1     -19.527   6.028  -6.388  1.00  0.00    -0.200 F 
ATOM    104  F   UNL     1     -19.431   7.028  -3.852  1.00  0.00    -0.200 F 
ENDBRANCH  71  94
ENDBRANCH  45  46
ENDBRANCH  37  40
ENDBRANCH  35  36
ENDBRANCH  34  35
ENDBRANCH  33  34
ENDBRANCH   1  33
TORSDOF 17
