REMARK SMILES CCCc1nnc(SCC(=O)NCCCCCCNC(=O)c2ccc(-c3c4nc(c(-c5c(F)c(F)c(F)c(F)c5F)c5ccc([nH]5)c(-c5c(F)c(F)c(F)c(F)c5F)c5nc(c(-c6c(F)c(F)c(F)c(F)c6F)c6ccc3[nH]6)C=C5)C=C4)cc2)n1C[C@H]1CCCO1
REMARK SMILES IDX 14 1 13 2 12 3 10 4 11 5 9 7 8 8 7 9 4 10 5 11 85 12 6 13
REMARK SMILES IDX 3 14 2 15 1 16 86 17 87 18 88 19 91 20 89 21 90 22 15 23
REMARK SMILES IDX 16 24 17 25 18 26 19 27 20 28 21 30 22 31 23 32 84 33 24 34
REMARK SMILES IDX 83 35 25 36 26 37 27 38 77 39 28 40 82 41 76 42 78 43 29 44
REMARK SMILES IDX 81 45 75 46 74 47 30 49 62 50 42 51 61 52 43 53 46 54 60 55
REMARK SMILES IDX 79 56 44 57 45 58 59 60 80 61 47 62 31 63 32 64 40 65 33 66
REMARK SMILES IDX 34 67 38 68 41 69 35 70 36 71 39 72 37 73 63 74 64 75 72 76
REMARK SMILES IDX 65 77 66 78 70 79 73 80 67 81 68 82 71 83 69 84 48 85 49 86
REMARK SMILES IDX 57 87 50 88 51 89 55 90 58 91 52 92 53 93 56 94 54 95
REMARK H PARENT 12 6 19 29 78 48 46 59
REMARK Flexibility Score: inf
ROOT
ATOM      1  C   UNL     1       7.634   8.758   3.067  1.00  0.00     0.021 C 
ENDROOT
BRANCH   1   2
ATOM      2  C   UNL     1       7.086   8.316   1.713  1.00  0.00     0.116 C 
BRANCH   2   3
ATOM      3  N   UNL     1       7.230   6.889   1.581  1.00  0.00    -0.355 N 
ATOM      4  C   UNL     1       6.332   5.972   2.012  1.00  0.00     0.230 C 
ATOM      5  O   UNL     1       6.705   4.815   2.190  1.00  0.00    -0.274 OA
ATOM      6  H   UNL     1       8.046   6.554   1.144  1.00  0.00     0.163 HD
BRANCH   4   7
ATOM      7  C   UNL     1       4.895   6.396   2.103  1.00  0.00     0.178 C 
BRANCH   7   8
ATOM      8  S   UNL     1       4.351   7.133   3.617  1.00  0.00    -0.076 SA
BRANCH   8   9
ATOM      9  C   UNL     1       3.974   5.893   4.749  1.00  0.00     0.191 A 
ATOM     10  C   UNL     1       3.886   4.065   5.925  1.00  0.00     0.133 A 
ATOM     11  N   UNL     1       3.759   5.086   6.746  1.00  0.00    -0.134 NA
ATOM     12  N   UNL     1       3.831   4.529   4.611  1.00  0.00    -0.303 N 
ATOM     13  N   UNL     1       3.798   6.223   6.009  1.00  0.00    -0.123 NA
BRANCH  10  14
ATOM     14  C   UNL     1       4.174   2.668   6.373  1.00  0.00     0.077 C 
BRANCH  14  15
ATOM     15  C   UNL     1       3.598   2.350   7.755  1.00  0.00     0.005 C 
ATOM     16  C   UNL     1       2.076   2.393   7.770  1.00  0.00     0.004 C 
ENDBRANCH  14  15
ENDBRANCH  10  14
BRANCH  12  17
ATOM     17  C   UNL     1       3.873   3.684   3.439  1.00  0.00     0.158 C 
BRANCH  17  18
ATOM     18  C   UNL     1       2.669   3.567   2.464  1.00  0.00     0.138 C 
ATOM     19  C   UNL     1       2.031   4.768   1.769  1.00  0.00     0.036 C 
ATOM     20  O   UNL     1       3.101   2.702   1.386  1.00  0.00    -0.376 OA
ATOM     21  C   UNL     1       2.568   4.789   0.350  1.00  0.00     0.031 C 
ATOM     22  C   UNL     1       3.146   3.411   0.143  1.00  0.00     0.160 C 
ENDBRANCH  17  18
ENDBRANCH  12  17
ENDBRANCH   8   9
ENDBRANCH   7   8
ENDBRANCH   4   7
ENDBRANCH   2   3
ENDBRANCH   1   2
BRANCH   1  23
ATOM     23  C   UNL     1       9.095   8.358   3.293  1.00  0.00     0.002 C 
BRANCH  23  24
ATOM     24  C   UNL     1      10.042   8.661   2.124  1.00  0.00     0.002 C 
BRANCH  24  25
ATOM     25  C   UNL     1       9.940  10.070   1.524  1.00  0.00     0.021 C 
BRANCH  25  26
ATOM     26  C   UNL     1      10.182  11.166   2.536  1.00  0.00     0.116 C 
BRANCH  26  27
ATOM     27  N   UNL     1      11.553  11.147   3.020  1.00  0.00    -0.352 N 
ATOM     28  C   UNL     1      12.117  11.991   3.939  1.00  0.00     0.251 C 
ATOM     29  H   UNL     1      12.141  10.451   2.647  1.00  0.00     0.163 HD
ATOM     30  O   UNL     1      13.341  12.142   4.001  1.00  0.00    -0.269 OA
BRANCH  28  31
ATOM     31  C   UNL     1      11.232  12.720   4.853  1.00  0.00     0.039 A 
ATOM     32  C   UNL     1      11.449  14.071   5.127  1.00  0.00     0.014 A 
ATOM     33  C   UNL     1      10.154  12.032   5.412  1.00  0.00     0.014 A 
ATOM     34  C   UNL     1      10.541  14.738   5.937  1.00  0.00     0.010 A 
ATOM     35  C   UNL     1       9.180  12.725   6.081  1.00  0.00     0.010 A 
ATOM     36  C   UNL     1       9.403  14.058   6.403  1.00  0.00    -0.014 A 
BRANCH  36  37
ATOM     37  C   UNL     1       8.392  14.766   7.171  1.00  0.00     0.031 A 
ATOM     38  C   UNL     1       7.832  15.973   6.506  1.00  0.00     0.074 A 
ATOM     39  C   UNL     1       7.866  14.265   8.308  1.00  0.00     0.049 A 
ATOM     40  N   UNL     1       7.927  17.201   6.895  1.00  0.00    -0.248 NA
ATOM     41  C   UNL     1       7.196  15.814   5.188  1.00  0.00     0.031 C 
ATOM     42  C   UNL     1       8.082  12.952   8.925  1.00  0.00     0.029 A 
ATOM     43  N   UNL     1       6.919  14.815   9.111  1.00  0.00    -0.354 N 
ATOM     44  C   UNL     1       7.215  17.959   5.970  1.00  0.00     0.074 A 
ATOM     45  C   UNL     1       6.922  17.081   4.867  1.00  0.00     0.031 C 
ATOM     46  C   UNL     1       7.117  12.719   9.842  1.00  0.00     0.029 A 
ATOM     47  C   UNL     1       6.327  13.925   9.996  1.00  0.00     0.049 A 
ATOM     48  H   UNL     1       6.673  15.767   9.068  1.00  0.00     0.167 HD
ATOM     49  C   UNL     1       6.736  19.192   6.294  1.00  0.00     0.037 A 
ATOM     50  C   UNL     1       5.228  14.166  10.753  1.00  0.00     0.037 A 
ATOM     51  C   UNL     1       7.400  19.718   7.461  1.00  0.00     0.049 A 
ATOM     52  C   UNL     1       5.078  15.643  10.848  1.00  0.00     0.074 A 
ATOM     53  C   UNL     1       8.720  19.992   7.770  1.00  0.00     0.029 A 
ATOM     54  N   UNL     1       6.748  19.655   8.669  1.00  0.00    -0.354 N 
ATOM     55  N   UNL     1       5.920  16.413  11.484  1.00  0.00    -0.248 NA
ATOM     56  C   UNL     1       4.282  16.303   9.821  1.00  0.00     0.031 C 
ATOM     57  C   UNL     1       8.879  19.542   9.114  1.00  0.00     0.029 A 
ATOM     58  C   UNL     1       7.632  19.111   9.568  1.00  0.00     0.049 A 
ATOM     59  H   UNL     1       5.825  19.945   8.855  1.00  0.00     0.167 HD
ATOM     60  C   UNL     1       6.075  17.521  10.663  1.00  0.00     0.074 A 
ATOM     61  C   UNL     1       4.990  17.428   9.686  1.00  0.00     0.031 C 
ATOM     62  C   UNL     1       7.232  18.247  10.654  1.00  0.00     0.037 A 
BRANCH  49  63
ATOM     63  C   UNL     1       5.441  19.767   5.778  1.00  0.00     0.064 A 
ATOM     64  C   UNL     1       5.117  21.108   6.066  1.00  0.00     0.173 A 
ATOM     65  C   UNL     1       4.380  18.980   5.279  1.00  0.00     0.173 A 
ATOM     66  F   UNL     1       6.043  21.943   6.564  1.00  0.00    -0.203 F 
ATOM     67  C   UNL     1       3.815  21.598   5.939  1.00  0.00     0.198 A 
ATOM     68  C   UNL     1       3.095  19.487   5.102  1.00  0.00     0.198 A 
ATOM     69  F   UNL     1       4.512  17.668   5.051  1.00  0.00    -0.203 F 
ATOM     70  F   UNL     1       3.529  22.842   6.346  1.00  0.00    -0.200 F 
ATOM     71  C   UNL     1       2.803  20.785   5.463  1.00  0.00     0.200 A 
ATOM     72  F   UNL     1       2.124  18.676   4.655  1.00  0.00    -0.200 F 
ATOM     73  F   UNL     1       1.542  21.231   5.398  1.00  0.00    -0.200 F 
ENDBRANCH  49  63
BRANCH  50  74
ATOM     74  C   UNL     1       4.139  13.215  11.087  1.00  0.00     0.064 A 
ATOM     75  C   UNL     1       3.208  13.502  12.097  1.00  0.00     0.173 A 
ATOM     76  C   UNL     1       3.829  12.128  10.244  1.00  0.00     0.173 A 
ATOM     77  F   UNL     1       3.399  14.552  12.910  1.00  0.00    -0.203 F 
ATOM     78  C   UNL     1       2.031  12.759  12.244  1.00  0.00     0.198 A 
ATOM     79  C   UNL     1       2.659  11.383  10.395  1.00  0.00     0.198 A 
ATOM     80  F   UNL     1       4.607  11.826   9.194  1.00  0.00    -0.203 F 
ATOM     81  F   UNL     1       1.136  13.102  13.181  1.00  0.00    -0.200 F 
ATOM     82  C   UNL     1       1.753  11.706  11.387  1.00  0.00     0.200 A 
ATOM     83  F   UNL     1       2.383  10.395   9.532  1.00  0.00    -0.200 F 
ATOM     84  F   UNL     1       0.598  11.035  11.489  1.00  0.00    -0.200 F 
ENDBRANCH  50  74
BRANCH  62  85
ATOM     85  C   UNL     1       8.270  17.962  11.706  1.00  0.00     0.064 A 
ATOM     86  C   UNL     1       8.913  16.721  11.866  1.00  0.00     0.173 A 
ATOM     87  C   UNL     1       8.754  19.034  12.468  1.00  0.00     0.173 A 
ATOM     88  F   UNL     1       8.590  15.671  11.103  1.00  0.00    -0.203 F 
ATOM     89  C   UNL     1       9.958  16.556  12.774  1.00  0.00     0.198 A 
ATOM     90  C   UNL     1       9.823  18.876  13.346  1.00  0.00     0.198 A 
ATOM     91  F   UNL     1       8.222  20.258  12.319  1.00  0.00    -0.203 F 
ATOM     92  F   UNL     1      10.548  15.358  12.911  1.00  0.00    -0.200 F 
ATOM     93  C   UNL     1      10.418  17.636  13.508  1.00  0.00     0.200 A 
ATOM     94  F   UNL     1      10.298  19.937  14.013  1.00  0.00    -0.200 F 
ATOM     95  F   UNL     1      11.452  17.489  14.348  1.00  0.00    -0.200 F 
ENDBRANCH  62  85
ENDBRANCH  36  37
ENDBRANCH  28  31
ENDBRANCH  26  27
ENDBRANCH  25  26
ENDBRANCH  24  25
ENDBRANCH  23  24
ENDBRANCH   1  23
TORSDOF 19
