REMARK SMILES O=C(NCCCCCCNC(=O)[C@@]1([NH2+]C2CC2)CCC[C@H]1CCn1ccnc1)c1ccc(-c2c3nc(c(-c4c(F)c(F)c(F)c(F)c4F)c4ccc([nH]4)c(-c4c(F)c(F)c(F)c(F)c4F)c4nc(c(-c5c(F)c(F)c(F)c(F)c5F)c5ccc2[nH]5)C=C4)C=C3)cc1
REMARK SMILES IDX 7 1 6 2 5 3 4 4 3 5 1 6 2 7 29 9 30 10 91 11 31 12 90 13
REMARK SMILES IDX 32 14 33 15 34 16 84 17 35 18 89 19 83 20 85 21 36 22 88 23
REMARK SMILES IDX 82 24 81 25 37 27 69 28 49 29 68 30 50 31 53 32 67 33 86 34
REMARK SMILES IDX 51 35 52 36 66 38 87 39 54 40 38 41 39 42 47 43 40 44 41 45
REMARK SMILES IDX 45 46 48 47 42 48 43 49 46 50 44 51 70 52 71 53 79 54 72 55
REMARK SMILES IDX 73 56 77 57 80 58 74 59 75 60 78 61 76 62 55 63 56 64 64 65
REMARK SMILES IDX 57 66 58 67 62 68 65 69 59 70 60 71 63 72 61 73 8 74 9 75
REMARK SMILES IDX 10 76 11 77 12 79 13 80 18 81 21 82 19 83 20 84 14 85 15 88
REMARK SMILES IDX 16 89 17 90 22 91 23 92 24 93 25 94 28 95 26 96 27 97
REMARK H PARENT 3 8 85 26 53 37 10 78 14 86 14 87
REMARK Flexibility Score: inf
ROOT
ATOM      1  C   UNL     1       3.624  -3.964   1.399  1.00  0.00     0.002 C 
ENDROOT
BRANCH   1   2
ATOM      2  C   UNL     1       3.369  -2.669   2.172  1.00  0.00     0.002 C 
BRANCH   2   3
ATOM      3  C   UNL     1       4.223  -1.454   1.792  1.00  0.00     0.021 C 
BRANCH   3   4
ATOM      4  C   UNL     1       4.280  -1.082   0.310  1.00  0.00     0.116 C 
BRANCH   4   5
ATOM      5  N   UNL     1       3.008  -0.829  -0.340  1.00  0.00    -0.352 N 
ATOM      6  O   UNL     1       1.111   0.125  -1.011  1.00  0.00    -0.269 OA
ATOM      7  C   UNL     1       2.066   0.156  -0.230  1.00  0.00     0.251 C 
ATOM      8  H   UNL     1       2.772  -1.515  -1.005  1.00  0.00     0.163 HD
BRANCH   7   9
ATOM      9  C   UNL     1       2.093   1.206   0.814  1.00  0.00     0.039 A 
ATOM     10  C   UNL     1       3.259   1.752   1.352  1.00  0.00     0.014 A 
ATOM     11  C   UNL     1       0.845   1.693   1.239  1.00  0.00     0.014 A 
ATOM     12  C   UNL     1       3.180   2.700   2.366  1.00  0.00     0.010 A 
ATOM     13  C   UNL     1       0.762   2.668   2.224  1.00  0.00     0.010 A 
ATOM     14  C   UNL     1       1.932   3.157   2.803  1.00  0.00    -0.014 A 
BRANCH  14  15
ATOM     15  C   UNL     1       1.903   4.330   3.679  1.00  0.00     0.031 A 
ATOM     16  C   UNL     1       2.446   5.571   3.048  1.00  0.00     0.074 A 
ATOM     17  C   UNL     1       1.270   4.369   4.868  1.00  0.00     0.049 A 
ATOM     18  N   UNL     1       3.373   6.361   3.485  1.00  0.00    -0.248 NA
ATOM     19  C   UNL     1       1.946   5.925   1.707  1.00  0.00     0.031 C 
ATOM     20  C   UNL     1       0.432   3.323   5.455  1.00  0.00     0.029 A 
ATOM     21  N   UNL     1       1.137   5.406   5.751  1.00  0.00    -0.354 N 
ATOM     22  C   UNL     1       3.455   7.402   2.561  1.00  0.00     0.074 A 
ATOM     23  C   UNL     1       2.667   7.010   1.426  1.00  0.00     0.031 C 
ATOM     24  C   UNL     1      -0.291   3.849   6.468  1.00  0.00     0.029 A 
ATOM     25  C   UNL     1       0.110   5.232   6.671  1.00  0.00     0.049 A 
ATOM     26  H   UNL     1       1.716   6.202   5.735  1.00  0.00     0.167 HD
ATOM     27  C   UNL     1       3.957   8.618   2.911  1.00  0.00     0.037 A 
ATOM     28  C   UNL     1      -0.427   6.173   7.487  1.00  0.00     0.037 A 
ATOM     29  C   UNL     1       4.814   8.517   4.064  1.00  0.00     0.049 A 
ATOM     30  C   UNL     1       0.529   7.301   7.577  1.00  0.00     0.074 A 
ATOM     31  C   UNL     1       5.978   7.839   4.368  1.00  0.00     0.029 A 
ATOM     32  N   UNL     1       4.321   8.962   5.261  1.00  0.00    -0.354 N 
ATOM     33  N   UNL     1       1.669   7.255   8.204  1.00  0.00    -0.248 NA
ATOM     34  C   UNL     1       0.368   8.415   6.655  1.00  0.00     0.031 C 
ATOM     35  C   UNL     1       5.878   7.525   5.756  1.00  0.00     0.029 A 
ATOM     36  C   UNL     1       4.681   8.065   6.227  1.00  0.00     0.049 A 
ATOM     37  H   UNL     1       3.799   9.785   5.402  1.00  0.00     0.167 HD
ATOM     38  C   UNL     1       2.515   8.040   7.439  1.00  0.00     0.074 A 
ATOM     39  C   UNL     1       1.632   8.838   6.597  1.00  0.00     0.031 C 
ATOM     40  C   UNL     1       3.846   7.750   7.361  1.00  0.00     0.037 A 
BRANCH  27  41
ATOM     41  C   UNL     1       3.322   9.934   2.497  1.00  0.00     0.064 A 
ATOM     42  C   UNL     1       3.930  11.139   2.911  1.00  0.00     0.173 A 
ATOM     43  C   UNL     1       1.994  10.060   2.031  1.00  0.00     0.173 A 
ATOM     44  F   UNL     1       5.189  11.146   3.375  1.00  0.00    -0.203 F 
ATOM     45  C   UNL     1       3.221  12.342   2.973  1.00  0.00     0.198 A 
ATOM     46  C   UNL     1       1.309  11.274   2.044  1.00  0.00     0.198 A 
ATOM     47  F   UNL     1       1.262   9.008   1.652  1.00  0.00    -0.203 F 
ATOM     48  F   UNL     1       3.793  13.422   3.523  1.00  0.00    -0.200 F 
ATOM     49  C   UNL     1       1.907  12.405   2.553  1.00  0.00     0.200 A 
ATOM     50  F   UNL     1       0.030  11.310   1.644  1.00  0.00    -0.200 F 
ATOM     51  F   UNL     1       1.201  13.535   2.686  1.00  0.00    -0.200 F 
ENDBRANCH  27  41
BRANCH  28  52
ATOM     52  C   UNL     1      -1.814   6.291   8.004  1.00  0.00     0.064 A 
ATOM     53  C   UNL     1      -2.119   7.155   9.070  1.00  0.00     0.173 A 
ATOM     54  C   UNL     1      -2.911   5.772   7.290  1.00  0.00     0.173 A 
ATOM     55  F   UNL     1      -1.136   7.731   9.778  1.00  0.00    -0.203 F 
ATOM     56  C   UNL     1      -3.438   7.501   9.382  1.00  0.00     0.198 A 
ATOM     57  C   UNL     1      -4.227   6.107   7.611  1.00  0.00     0.198 A 
ATOM     58  F   UNL     1      -2.729   5.007   6.205  1.00  0.00    -0.203 F 
ATOM     59  F   UNL     1      -3.685   8.384  10.361  1.00  0.00    -0.200 F 
ATOM     60  C   UNL     1      -4.491   6.984   8.646  1.00  0.00     0.200 A 
ATOM     61  F   UNL     1      -5.234   5.625   6.869  1.00  0.00    -0.200 F 
ATOM     62  F   UNL     1      -5.750   7.362   8.904  1.00  0.00    -0.200 F 
ENDBRANCH  28  52
BRANCH  40  63
ATOM     63  C   UNL     1       4.422   6.843   8.407  1.00  0.00     0.064 A 
ATOM     64  C   UNL     1       4.020   5.514   8.618  1.00  0.00     0.173 A 
ATOM     65  C   UNL     1       5.500   7.322   9.166  1.00  0.00     0.173 A 
ATOM     66  F   UNL     1       3.067   4.949   7.863  1.00  0.00    -0.203 F 
ATOM     67  C   UNL     1       4.630   4.724   9.591  1.00  0.00     0.198 A 
ATOM     68  C   UNL     1       6.136   6.517  10.104  1.00  0.00     0.198 A 
ATOM     69  F   UNL     1       5.961   8.568   8.969  1.00  0.00    -0.203 F 
ATOM     70  F   UNL     1       4.208   3.468   9.799  1.00  0.00    -0.200 F 
ATOM     71  C   UNL     1       5.691   5.224  10.328  1.00  0.00     0.200 A 
ATOM     72  F   UNL     1       7.192   6.990  10.780  1.00  0.00    -0.200 F 
ATOM     73  F   UNL     1       6.299   4.454  11.240  1.00  0.00    -0.200 F 
ENDBRANCH  40  63
ENDBRANCH  14  15
ENDBRANCH   7   9
ENDBRANCH   4   5
ENDBRANCH   3   4
ENDBRANCH   2   3
ENDBRANCH   1   2
BRANCH   1  74
ATOM     74  C   UNL     1       5.059  -4.489   1.434  1.00  0.00     0.021 C 
BRANCH  74  75
ATOM     75  C   UNL     1       5.562  -5.139   2.752  1.00  0.00     0.116 C 
BRANCH  75  76
ATOM     76  N   UNL     1       6.240  -6.410   2.455  1.00  0.00    -0.351 N 
ATOM     77  C   UNL     1       7.423  -7.006   2.211  1.00  0.00     0.281 C 
ATOM     78  H   UNL     1       5.549  -7.110   2.423  1.00  0.00     0.163 HD
ATOM     79  O   UNL     1       7.187  -8.097   1.641  1.00  0.00    -0.268 OA
BRANCH  77  80
ATOM     80  C   UNL     1       8.957  -6.687   2.562  1.00  0.00     0.178 C 
ATOM     81  C   UNL     1       9.764  -7.670   1.649  1.00  0.00     0.079 C 
ATOM     82  C   UNL     1       9.801  -5.377   2.277  1.00  0.00     0.062 C 
ATOM     83  C   UNL     1      11.232  -7.327   1.740  1.00  0.00     0.008 C 
ATOM     84  C   UNL     1      11.273  -5.851   2.061  1.00  0.00     0.011 C 
BRANCH  80  85
ATOM     85  N   UNL     1       9.218  -6.929   4.012  1.00  0.00    -0.331 N 
ATOM     86  H   UNL     1       8.812  -6.129   4.498  1.00  0.00     0.347 HD
ATOM     87  H   UNL     1      10.224  -7.095   3.990  1.00  0.00     0.347 HD
BRANCH  85  88
ATOM     88  C   UNL     1       8.778  -8.102   4.762  1.00  0.00     0.183 C 
ATOM     89  C   UNL     1       8.373  -9.450   4.264  1.00  0.00     0.071 C 
ATOM     90  C   UNL     1       9.745  -9.267   4.830  1.00  0.00     0.071 C 
ENDBRANCH  85  88
ENDBRANCH  80  85
BRANCH  82  91
ATOM     91  C   UNL     1       9.464  -4.437   1.119  1.00  0.00     0.032 C 
BRANCH  91  92
ATOM     92  C   UNL     1       8.251  -3.579   1.382  1.00  0.00     0.123 C 
BRANCH  92  93
ATOM     93  N   UNL     1       8.252  -2.659   2.499  1.00  0.00    -0.337 N 
ATOM     94  C   UNL     1       8.118  -2.963   3.829  1.00  0.00     0.107 A 
ATOM     95  C   UNL     1       8.071  -1.306   2.389  1.00  0.00     0.199 A 
ATOM     96  C   UNL     1       7.816  -1.777   4.453  1.00  0.00     0.130 A 
ATOM     97  N   UNL     1       7.791  -0.753   3.548  1.00  0.00    -0.245 NA
ENDBRANCH  92  93
ENDBRANCH  91  92
ENDBRANCH  82  91
ENDBRANCH  77  80
ENDBRANCH  75  76
ENDBRANCH  74  75
ENDBRANCH   1  74
TORSDOF 18
