REMARK SMILES O=C(Cc1csc(N2C(=O)C[C@H](Nc3cccc(F)c3)C2=O)n1)NCCCCCCNC(=O)c1ccc(-c2c3nc(c(-c4c(F)c(F)c(F)c(F)c4F)c4ccc([nH]4)c(-c4c(F)c(F)c(F)c(F)c4F)c4nc(c(-c5c(F)c(F)c(F)c(F)c5F)c5ccc2[nH]5)C=C4)C=C3)cc1
REMARK SMILES IDX 26 1 25 2 24 3 1 4 2 5 3 7 4 8 5 9 23 10 6 11 7 12 8 13 9 14
REMARK SMILES IDX 21 15 10 16 11 17 12 18 22 19 13 20 14 22 15 23 20 24 16 25
REMARK SMILES IDX 18 26 17 27 19 28 27 29 28 30 29 31 30 32 31 33 32 34 33 36
REMARK SMILES IDX 34 37 35 38 96 39 36 40 95 41 37 42 38 43 39 44 89 45 40 46
REMARK SMILES IDX 94 47 88 48 90 49 41 50 93 51 87 52 86 53 42 55 74 56 54 57
REMARK SMILES IDX 73 58 55 59 58 60 72 61 91 62 56 63 57 64 71 66 92 67 59 68
REMARK SMILES IDX 43 69 44 70 52 71 45 72 46 73 50 74 53 75 47 76 48 77 51 78
REMARK SMILES IDX 49 79 75 80 76 81 84 82 77 83 78 84 82 85 85 86 79 87 80 88
REMARK SMILES IDX 83 89 81 90 60 91 61 92 69 93 62 94 63 95 67 96 70 97 64 98
REMARK SMILES IDX 65 99 68 100 66 101
REMARK H PARENT 24 6 13 21 31 35 90 54 58 65
REMARK Flexibility Score: inf
ROOT
ATOM      1  C   UNL     1       2.643   1.650   2.994  1.00  0.00     0.021 C 
ENDROOT
BRANCH   1   2
ATOM      2  C   UNL     1       2.097   1.907   1.588  1.00  0.00     0.116 C 
BRANCH   2   3
ATOM      3  N   UNL     1       2.779   1.111   0.594  1.00  0.00    -0.356 N 
ATOM      4  O   UNL     1       1.151  -0.484   0.355  1.00  0.00    -0.275 OA
ATOM      5  C   UNL     1       2.262  -0.048   0.062  1.00  0.00     0.226 C 
ATOM      6  H   UNL     1       3.661   1.414   0.280  1.00  0.00     0.163 HD
BRANCH   5   7
ATOM      7  C   UNL     1       3.223  -0.838  -0.810  1.00  0.00     0.157 C 
BRANCH   7   8
ATOM      8  C   UNL     1       3.798  -0.090  -1.973  1.00  0.00     0.063 A 
ATOM      9  C   UNL     1       4.259  -0.666  -3.141  1.00  0.00     0.093 A 
ATOM     10  N   UNL     1       3.961   1.288  -1.925  1.00  0.00    -0.224 NA
ATOM     11  S   UNL     1       4.735   0.546  -4.246  1.00  0.00    -0.104 S 
ATOM     12  C   UNL     1       4.344   1.758  -3.095  1.00  0.00     0.199 A 
BRANCH  12  13
ATOM     13  N   UNL     1       4.504   3.090  -3.412  1.00  0.00    -0.223 N 
ATOM     14  C   UNL     1       4.663   4.034  -2.432  1.00  0.00     0.238 C 
ATOM     15  C   UNL     1       4.446   3.618  -4.677  1.00  0.00     0.258 C 
ATOM     16  O   UNL     1       4.719   3.897  -1.221  1.00  0.00    -0.274 OA
ATOM     17  C   UNL     1       4.873   5.368  -3.086  1.00  0.00     0.136 C 
ATOM     18  C   UNL     1       4.583   5.128  -4.557  1.00  0.00     0.179 C 
ATOM     19  O   UNL     1       4.260   3.045  -5.744  1.00  0.00    -0.272 OA
BRANCH  18  20
ATOM     20  N   UNL     1       3.359   5.835  -4.950  1.00  0.00    -0.373 N 
ATOM     21  H   UNL     1       2.540   5.744  -4.411  1.00  0.00     0.161 HD
BRANCH  20  22
ATOM     22  C   UNL     1       3.364   6.631  -6.087  1.00  0.00     0.038 A 
ATOM     23  C   UNL     1       3.787   6.147  -7.332  1.00  0.00     0.026 A 
ATOM     24  C   UNL     1       3.029   7.985  -5.982  1.00  0.00     0.065 A 
ATOM     25  C   UNL     1       3.850   6.986  -8.451  1.00  0.00     0.005 A 
ATOM     26  C   UNL     1       3.114   8.819  -7.094  1.00  0.00     0.125 A 
ATOM     27  C   UNL     1       3.518   8.332  -8.329  1.00  0.00     0.039 A 
ATOM     28  F   UNL     1       2.816  10.119  -6.964  1.00  0.00    -0.207 F 
ENDBRANCH  20  22
ENDBRANCH  18  20
ENDBRANCH  12  13
ENDBRANCH   7   8
ENDBRANCH   5   7
ENDBRANCH   2   3
ENDBRANCH   1   2
BRANCH   1  29
ATOM     29  C   UNL     1       4.147   1.905   3.160  1.00  0.00     0.002 C 
BRANCH  29  30
ATOM     30  C   UNL     1       4.632   3.304   2.769  1.00  0.00     0.002 C 
BRANCH  30  31
ATOM     31  C   UNL     1       3.959   4.467   3.500  1.00  0.00     0.021 C 
BRANCH  31  32
ATOM     32  C   UNL     1       4.064   4.436   5.023  1.00  0.00     0.116 C 
BRANCH  32  33
ATOM     33  N   UNL     1       5.436   4.504   5.498  1.00  0.00    -0.352 N 
ATOM     34  C   UNL     1       5.994   5.283   6.481  1.00  0.00     0.251 C 
ATOM     35  H   UNL     1       6.063   3.896   5.044  1.00  0.00     0.163 HD
ATOM     36  O   UNL     1       7.212   5.281   6.642  1.00  0.00    -0.269 OA
BRANCH  34  37
ATOM     37  C   UNL     1       5.150   6.154   7.332  1.00  0.00     0.039 A 
ATOM     38  C   UNL     1       5.606   7.444   7.619  1.00  0.00     0.014 A 
ATOM     39  C   UNL     1       3.938   5.710   7.869  1.00  0.00     0.014 A 
ATOM     40  C   UNL     1       4.821   8.308   8.386  1.00  0.00     0.010 A 
ATOM     41  C   UNL     1       3.126   6.593   8.583  1.00  0.00     0.010 A 
ATOM     42  C   UNL     1       3.557   7.901   8.844  1.00  0.00    -0.014 A 
BRANCH  42  43
ATOM     43  C   UNL     1       2.673   8.854   9.563  1.00  0.00     0.031 A 
ATOM     44  C   UNL     1       2.326   8.647  11.009  1.00  0.00     0.074 A 
ATOM     45  C   UNL     1       2.151   9.899   8.893  1.00  0.00     0.049 A 
ATOM     46  N   UNL     1       1.577   9.383  11.792  1.00  0.00    -0.248 NA
ATOM     47  C   UNL     1       2.875   7.447  11.657  1.00  0.00     0.031 C 
ATOM     48  C   UNL     1       2.367  10.181   7.473  1.00  0.00     0.029 A 
ATOM     49  N   UNL     1       1.335  10.919   9.315  1.00  0.00    -0.354 N 
ATOM     50  C   UNL     1       1.563   8.737  13.020  1.00  0.00     0.074 A 
ATOM     51  C   UNL     1       2.334   7.521  12.866  1.00  0.00     0.031 C 
ATOM     52  C   UNL     1       1.732  11.319   7.151  1.00  0.00     0.029 A 
ATOM     53  C   UNL     1       1.042  11.831   8.331  1.00  0.00     0.049 A 
ATOM     54  H   UNL     1       0.992  10.990  10.235  1.00  0.00     0.167 HD
ATOM     55  C   UNL     1       0.980   9.133  14.177  1.00  0.00     0.037 A 
ATOM     56  C   UNL     1       0.306  12.958   8.374  1.00  0.00     0.037 A 
ATOM     57  C   UNL     1       0.227  10.350  14.336  1.00  0.00     0.049 A 
ATOM     58  C   UNL     1      -0.329  13.378   9.668  1.00  0.00     0.074 A 
ATOM     59  C   UNL     1      -0.349  10.865  15.485  1.00  0.00     0.029 A 
ATOM     60  N   UNL     1      -0.060  11.242  13.313  1.00  0.00    -0.354 N 
ATOM     61  N   UNL     1      -0.284  12.790  10.838  1.00  0.00    -0.248 NA
ATOM     62  C   UNL     1      -1.115  14.620   9.649  1.00  0.00     0.031 C 
ATOM     63  C   UNL     1      -1.019  12.046  15.149  1.00  0.00     0.029 A 
ATOM     64  C   UNL     1      -0.824  12.291  13.799  1.00  0.00     0.049 A 
ATOM     65  H   UNL     1       0.236  11.144  12.379  1.00  0.00     0.167 HD
ATOM     66  C   UNL     1      -1.026  13.589  11.696  1.00  0.00     0.074 A 
ATOM     67  C   UNL     1      -1.492  14.718  10.917  1.00  0.00     0.031 C 
ATOM     68  C   UNL     1      -1.299  13.400  13.010  1.00  0.00     0.037 A 
BRANCH  55  69
ATOM     69  C   UNL     1       1.145   8.244  15.376  1.00  0.00     0.064 A 
ATOM     70  C   UNL     1       0.050   7.543  15.902  1.00  0.00     0.173 A 
ATOM     71  C   UNL     1       2.378   8.125  16.034  1.00  0.00     0.173 A 
ATOM     72  F   UNL     1      -1.153   7.627  15.315  1.00  0.00    -0.203 F 
ATOM     73  C   UNL     1       0.184   6.757  17.044  1.00  0.00     0.198 A 
ATOM     74  C   UNL     1       2.515   7.318  17.159  1.00  0.00     0.198 A 
ATOM     75  F   UNL     1       3.458   8.769  15.565  1.00  0.00    -0.203 F 
ATOM     76  F   UNL     1      -0.880   6.113  17.542  1.00  0.00    -0.200 F 
ATOM     77  C   UNL     1       1.417   6.641  17.668  1.00  0.00     0.200 A 
ATOM     78  F   UNL     1       3.713   7.188  17.747  1.00  0.00    -0.200 F 
ATOM     79  F   UNL     1       1.549   5.871  18.757  1.00  0.00    -0.200 F 
ENDBRANCH  55  69
BRANCH  56  80
ATOM     80  C   UNL     1       0.181  13.789   7.151  1.00  0.00     0.064 A 
ATOM     81  C   UNL     1      -0.590  13.369   6.058  1.00  0.00     0.173 A 
ATOM     82  C   UNL     1       0.876  15.000   7.036  1.00  0.00     0.173 A 
ATOM     83  F   UNL     1      -1.268  12.214   6.119  1.00  0.00    -0.203 F 
ATOM     84  C   UNL     1      -0.640  14.119   4.885  1.00  0.00     0.198 A 
ATOM     85  C   UNL     1       0.807  15.760   5.871  1.00  0.00     0.198 A 
ATOM     86  F   UNL     1       1.610  15.450   8.065  1.00  0.00    -0.203 F 
ATOM     87  F   UNL     1      -1.355  13.678   3.840  1.00  0.00    -0.200 F 
ATOM     88  C   UNL     1       0.057  15.315   4.793  1.00  0.00     0.200 A 
ATOM     89  F   UNL     1       1.467  16.924   5.793  1.00  0.00    -0.200 F 
ATOM     90  F   UNL     1       0.006  16.037   3.666  1.00  0.00    -0.200 F 
ENDBRANCH  56  80
BRANCH  68  91
ATOM     91  C   UNL     1      -2.150  14.431  13.692  1.00  0.00     0.064 A 
ATOM     92  C   UNL     1      -1.593  15.307  14.635  1.00  0.00     0.173 A 
ATOM     93  C   UNL     1      -3.528  14.517  13.446  1.00  0.00     0.173 A 
ATOM     94  F   UNL     1      -0.281  15.262  14.910  1.00  0.00    -0.203 F 
ATOM     95  C   UNL     1      -2.389  16.227  15.314  1.00  0.00     0.198 A 
ATOM     96  C   UNL     1      -4.316  15.455  14.108  1.00  0.00     0.198 A 
ATOM     97  F   UNL     1      -4.104  13.710  12.542  1.00  0.00    -0.203 F 
ATOM     98  F   UNL     1      -1.841  17.038  16.229  1.00  0.00    -0.200 F 
ATOM     99  C   UNL     1      -3.747  16.303  15.046  1.00  0.00     0.200 A 
ATOM    100  F   UNL     1      -5.623  15.544  13.830  1.00  0.00    -0.200 F 
ATOM    101  F   UNL     1      -4.509  17.200  15.689  1.00  0.00    -0.200 F 
ENDBRANCH  68  91
ENDBRANCH  42  43
ENDBRANCH  34  37
ENDBRANCH  32  33
ENDBRANCH  31  32
ENDBRANCH  30  31
ENDBRANCH  29  30
ENDBRANCH   1  29
TORSDOF 17
