REMARK SMILES Cc1nccn1C1(C(=O)NCCCCCCNC(=O)c2ccc(-c3c4nc(c(-c5c(F)c(F)c(F)c(F)c5F)c5ccc([nH]5)c(-c5c(F)c(F)c(F)c(F)c5F)c5nc(c(-c6c(F)c(F)c(F)c(F)c6F)c6ccc3[nH]6)C=C5)C=C4)cc2)CCN(C(=O)[C@@H]2C[C@H]2c2ccccc2)CC1
REMARK SMILES IDX 13 1 12 2 11 3 10 4 8 5 9 6 7 8 83 9 98 10 84 11 97 12 85 13
REMARK SMILES IDX 86 14 87 15 6 16 1 17 2 18 3 19 4 20 5 21 88 22 89 23 90 24
REMARK SMILES IDX 91 25 92 26 96 27 93 28 95 29 94 30 14 31 15 32 16 33 17 34
REMARK SMILES IDX 18 35 19 37 20 38 21 39 82 40 22 41 81 42 23 43 24 44 25 45
REMARK SMILES IDX 75 46 26 47 80 48 74 49 76 50 27 51 79 52 73 53 72 54 28 56
REMARK SMILES IDX 60 57 40 58 59 59 41 60 44 61 58 62 77 63 42 64 43 65 57 67
REMARK SMILES IDX 78 68 45 69 29 70 30 71 38 72 31 73 32 74 36 75 39 76 33 77
REMARK SMILES IDX 34 78 37 79 35 80 61 81 62 82 70 83 63 84 64 85 68 86 71 87
REMARK SMILES IDX 65 88 66 89 69 90 67 91 46 92 47 93 55 94 48 95 49 96 53 97
REMARK SMILES IDX 56 98 50 99 51 100 54 101 52 102
REMARK H PARENT 10 7 17 36 76 55 44 66
REMARK Flexibility Score: inf
ROOT
ATOM      1  C   UNL     1       6.318   4.713  -3.368  1.00  0.00     0.002 C 
ENDROOT
BRANCH   1   2
ATOM      2  C   UNL     1       5.614   3.359  -3.187  1.00  0.00     0.021 C 
BRANCH   2   3
ATOM      3  C   UNL     1       5.234   3.003  -1.745  1.00  0.00     0.116 C 
BRANCH   3   4
ATOM      4  N   UNL     1       4.246   3.928  -1.222  1.00  0.00    -0.354 N 
ATOM      5  C   UNL     1       2.942   3.810  -0.826  1.00  0.00     0.246 C 
ATOM      6  O   UNL     1       2.396   4.912  -0.732  1.00  0.00    -0.272 OA
ATOM      7  H   UNL     1       4.590   4.846  -1.132  1.00  0.00     0.163 HD
BRANCH   5   8
ATOM      8  C   UNL     1       2.222   2.413  -0.551  1.00  0.00     0.127 C 
ATOM      9  C   UNL     1       2.176   1.705  -1.935  1.00  0.00     0.061 C 
ATOM     10  C   UNL     1       3.081   1.701   0.527  1.00  0.00     0.061 C 
ATOM     11  C   UNL     1       2.640   0.246  -2.021  1.00  0.00     0.122 C 
ATOM     12  C   UNL     1       2.970   0.198   0.418  1.00  0.00     0.122 C 
ATOM     13  N   UNL     1       3.432  -0.236  -0.892  1.00  0.00    -0.342 N 
ATOM     14  C   UNL     1       4.383  -1.228  -1.178  1.00  0.00     0.226 C 
ATOM     15  O   UNL     1       4.419  -1.754  -2.290  1.00  0.00    -0.275 OA
BRANCH   8  16
ATOM     16  N   UNL     1       0.813   2.551   0.011  1.00  0.00    -0.320 N 
ATOM     17  C   UNL     1      -0.285   0.149  -0.121  1.00  0.00     0.087 C 
ATOM     18  C   UNL     1      -0.206   1.598   0.200  1.00  0.00     0.106 A 
ATOM     19  N   UNL     1      -1.257   2.135   0.793  1.00  0.00    -0.242 NA
ATOM     20  C   UNL     1      -0.967   3.433   1.007  1.00  0.00     0.131 A 
ATOM     21  C   UNL     1       0.299   3.705   0.574  1.00  0.00     0.108 A 
ENDBRANCH   8  16
BRANCH  14  22
ATOM     22  C   UNL     1       5.459  -1.651  -0.227  1.00  0.00     0.087 C 
ATOM     23  C   UNL     1       5.126  -2.450   1.008  1.00  0.00     0.023 C 
ATOM     24  C   UNL     1       5.738  -1.077   1.126  1.00  0.00     0.032 C 
BRANCH  24  25
ATOM     25  C   UNL     1       7.081  -0.814   1.716  1.00  0.00    -0.044 A 
ATOM     26  C   UNL     1       7.355  -1.231   3.027  1.00  0.00     0.004 A 
ATOM     27  C   UNL     1       7.908   0.162   1.139  1.00  0.00     0.004 A 
ATOM     28  C   UNL     1       8.345  -0.605   3.781  1.00  0.00     0.000 A 
ATOM     29  C   UNL     1       8.896   0.792   1.892  1.00  0.00     0.000 A 
ATOM     30  C   UNL     1       9.093   0.428   3.222  1.00  0.00     0.000 A 
ENDBRANCH  24  25
ENDBRANCH  14  22
ENDBRANCH   5   8
ENDBRANCH   3   4
ENDBRANCH   2   3
ENDBRANCH   1   2
BRANCH   1  31
ATOM     31  C   UNL     1       7.565   4.962  -2.503  1.00  0.00     0.002 C 
BRANCH  31  32
ATOM     32  C   UNL     1       8.656   3.882  -2.526  1.00  0.00     0.021 C 
BRANCH  32  33
ATOM     33  C   UNL     1       9.270   3.652  -3.895  1.00  0.00     0.116 C 
BRANCH  33  34
ATOM     34  N   UNL     1      10.070   4.780  -4.384  1.00  0.00    -0.352 N 
ATOM     35  C   UNL     1      10.767   4.873  -5.585  1.00  0.00     0.251 C 
ATOM     36  H   UNL     1      10.121   5.564  -3.791  1.00  0.00     0.163 HD
ATOM     37  O   UNL     1      11.668   5.672  -5.748  1.00  0.00    -0.269 OA
BRANCH  35  38
ATOM     38  C   UNL     1      10.354   3.970  -6.676  1.00  0.00     0.039 A 
ATOM     39  C   UNL     1      11.255   3.305  -7.511  1.00  0.00     0.014 A 
ATOM     40  C   UNL     1       8.991   3.744  -6.779  1.00  0.00     0.014 A 
ATOM     41  C   UNL     1      10.751   2.356  -8.401  1.00  0.00     0.010 A 
ATOM     42  C   UNL     1       8.556   2.622  -7.411  1.00  0.00     0.010 A 
ATOM     43  C   UNL     1       9.391   2.014  -8.331  1.00  0.00    -0.014 A 
BRANCH  43  44
ATOM     44  C   UNL     1       8.780   1.002  -9.179  1.00  0.00     0.031 A 
ATOM     45  C   UNL     1       9.458  -0.318  -9.170  1.00  0.00     0.074 A 
ATOM     46  C   UNL     1       7.571   1.197  -9.757  1.00  0.00     0.049 A 
ATOM     47  N   UNL     1      10.064  -0.893 -10.154  1.00  0.00    -0.248 NA
ATOM     48  C   UNL     1       9.592  -1.032  -7.890  1.00  0.00     0.031 C 
ATOM     49  C   UNL     1       6.643   2.333  -9.622  1.00  0.00     0.029 A 
ATOM     50  N   UNL     1       6.859   0.344 -10.538  1.00  0.00    -0.354 N 
ATOM     51  C   UNL     1      10.506  -2.122  -9.675  1.00  0.00     0.074 A 
ATOM     52  C   UNL     1      10.326  -2.089  -8.247  1.00  0.00     0.031 C 
ATOM     53  C   UNL     1       5.420   1.990 -10.082  1.00  0.00     0.029 A 
ATOM     54  C   UNL     1       5.528   0.697 -10.723  1.00  0.00     0.049 A 
ATOM     55  H   UNL     1       7.255  -0.462 -10.941  1.00  0.00     0.167 HD
ATOM     56  C   UNL     1      10.781  -3.146 -10.530  1.00  0.00     0.037 A 
ATOM     57  C   UNL     1       4.580  -0.037 -11.355  1.00  0.00     0.037 A 
ATOM     58  C   UNL     1      10.900  -2.671 -11.885  1.00  0.00     0.049 A 
ATOM     59  C   UNL     1       5.298  -1.003 -12.225  1.00  0.00     0.074 A 
ATOM     60  C   UNL     1      11.761  -1.809 -12.535  1.00  0.00     0.029 A 
ATOM     61  N   UNL     1       9.799  -2.782 -12.699  1.00  0.00    -0.354 N 
ATOM     62  N   UNL     1       6.022  -0.643 -13.250  1.00  0.00    -0.248 NA
ATOM     63  C   UNL     1       5.622  -2.302 -11.653  1.00  0.00     0.031 C 
ATOM     64  C   UNL     1      10.932  -1.071 -13.431  1.00  0.00     0.029 A 
ATOM     65  C   UNL     1       9.635  -1.578 -13.335  1.00  0.00     0.049 A 
ATOM     66  H   UNL     1       9.232  -3.579 -12.806  1.00  0.00     0.167 HD
ATOM     67  C   UNL     1       7.150  -1.450 -13.188  1.00  0.00     0.074 A 
ATOM     68  C   UNL     1       6.816  -2.496 -12.221  1.00  0.00     0.031 C 
ATOM     69  C   UNL     1       8.347  -1.032 -13.696  1.00  0.00     0.037 A 
BRANCH  56  70
ATOM     70  C   UNL     1      10.584  -4.606 -10.220  1.00  0.00     0.064 A 
ATOM     71  C   UNL     1      11.064  -5.571 -11.128  1.00  0.00     0.173 A 
ATOM     72  C   UNL     1       9.680  -5.079  -9.246  1.00  0.00     0.173 A 
ATOM     73  F   UNL     1      11.921  -5.226 -12.101  1.00  0.00    -0.203 F 
ATOM     74  C   UNL     1      10.601  -6.888 -11.117  1.00  0.00     0.198 A 
ATOM     75  C   UNL     1       9.259  -6.407  -9.206  1.00  0.00     0.198 A 
ATOM     76  F   UNL     1       9.080  -4.260  -8.374  1.00  0.00    -0.203 F 
ATOM     77  F   UNL     1      10.984  -7.737 -12.080  1.00  0.00    -0.200 F 
ATOM     78  C   UNL     1       9.691  -7.303 -10.162  1.00  0.00     0.200 A 
ATOM     79  F   UNL     1       8.363  -6.786  -8.283  1.00  0.00    -0.200 F 
ATOM     80  F   UNL     1       9.193  -8.546 -10.190  1.00  0.00    -0.200 F 
ENDBRANCH  56  70
BRANCH  57  81
ATOM     81  C   UNL     1       3.162  -0.203 -10.956  1.00  0.00     0.064 A 
ATOM     82  C   UNL     1       2.203  -0.699 -11.852  1.00  0.00     0.173 A 
ATOM     83  C   UNL     1       2.779  -0.139  -9.601  1.00  0.00     0.173 A 
ATOM     84  F   UNL     1       2.505  -0.836 -13.151  1.00  0.00    -0.203 F 
ATOM     85  C   UNL     1       0.941  -1.122 -11.416  1.00  0.00     0.198 A 
ATOM     86  C   UNL     1       1.522  -0.561  -9.167  1.00  0.00     0.198 A 
ATOM     87  F   UNL     1       3.653   0.247  -8.659  1.00  0.00    -0.203 F 
ATOM     88  F   UNL     1       0.069  -1.640 -12.292  1.00  0.00    -0.200 F 
ATOM     89  C   UNL     1       0.606  -1.063 -10.072  1.00  0.00     0.200 A 
ATOM     90  F   UNL     1       1.226  -0.535  -7.859  1.00  0.00    -0.200 F 
ATOM     91  F   UNL     1      -0.578  -1.524  -9.646  1.00  0.00    -0.200 F 
ENDBRANCH  57  81
BRANCH  69  92
ATOM     92  C   UNL     1       8.362   0.225 -14.523  1.00  0.00     0.064 A 
ATOM     93  C   UNL     1       8.088   1.508 -14.015  1.00  0.00     0.173 A 
ATOM     94  C   UNL     1       8.845   0.146 -15.835  1.00  0.00     0.173 A 
ATOM     95  F   UNL     1       7.713   1.681 -12.744  1.00  0.00    -0.203 F 
ATOM     96  C   UNL     1       8.262   2.651 -14.796  1.00  0.00     0.198 A 
ATOM     97  C   UNL     1       9.050   1.290 -16.601  1.00  0.00     0.198 A 
ATOM     98  F   UNL     1       9.177  -1.046 -16.355  1.00  0.00    -0.203 F 
ATOM     99  F   UNL     1       7.995   3.863 -14.285  1.00  0.00    -0.200 F 
ATOM    100  C   UNL     1       8.753   2.541 -16.085  1.00  0.00     0.200 A 
ATOM    101  F   UNL     1       9.572   1.180 -17.831  1.00  0.00    -0.200 F 
ATOM    102  F   UNL     1       8.966   3.640 -16.821  1.00  0.00    -0.200 F 
ENDBRANCH  69  92
ENDBRANCH  43  44
ENDBRANCH  35  38
ENDBRANCH  33  34
ENDBRANCH  32  33
ENDBRANCH  31  32
ENDBRANCH   1  31
TORSDOF 16
