REMARK SMILES COc1ccccc1N1CC[NH+]([C@@H](C(=O)NCCCCCCNC(=O)c2ccc(-c3c4nc(c(-c5c(F)c(F)c(F)c(F)c5F)c5ccc([nH]5)c(-c5c(F)c(F)c(F)c(F)c5F)c5nc(c(-c6c(F)c(F)c(F)c(F)c6F)c6ccc3[nH]6)C=C5)C=C4)cc2)c2c[nH]c3ccc(OCC#N)cc23)CC1
REMARK SMILES IDX 18 1 17 2 16 3 14 4 15 5 13 7 12 8 9 9 10 10 103 11 11 12
REMARK SMILES IDX 102 13 8 15 3 16 4 17 5 18 7 19 6 20 2 21 1 22 89 23 90 24
REMARK SMILES IDX 101 25 91 26 92 27 100 28 93 30 95 31 94 32 96 33 97 34
REMARK SMILES IDX 98 35 99 36 19 37 20 38 21 39 22 40 23 41 24 42 25 44 26 45
REMARK SMILES IDX 27 46 88 47 28 48 87 49 29 50 30 51 31 52 81 53 32 54 86 55
REMARK SMILES IDX 80 56 82 57 33 58 85 59 79 60 78 61 34 63 66 64 46 65 65 66
REMARK SMILES IDX 47 67 50 68 64 69 83 70 48 71 49 72 63 74 84 75 51 76 35 77
REMARK SMILES IDX 36 78 44 79 37 80 38 81 42 82 45 83 39 84 40 85 43 86 41 87
REMARK SMILES IDX 67 88 68 89 76 90 69 91 70 92 74 93 77 94 71 95 72 96 75 97
REMARK SMILES IDX 73 98 52 99 53 100 61 101 54 102 55 103 59 104 62 105 56 106
REMARK SMILES IDX 57 107 60 108 58 109
REMARK H PARENT 16 6 12 14 91 29 23 43 82 62 50 73
REMARK Flexibility Score: inf
ROOT
ATOM      1  C   UNL     1       4.221  -0.293  -2.828  1.00  0.00     0.021 C 
ENDROOT
BRANCH   1   2
ATOM      2  C   UNL     1       5.562  -0.245  -2.013  1.00  0.00     0.116 C 
BRANCH   2   3
ATOM      3  N   UNL     1       5.837   0.973  -1.204  1.00  0.00    -0.351 N 
ATOM      4  C   UNL     1       5.914   1.435   0.099  1.00  0.00     0.283 C 
ATOM      5  O   UNL     1       6.335   2.603   0.156  1.00  0.00    -0.268 OA
ATOM      6  H   UNL     1       6.035   1.718  -1.816  1.00  0.00     0.163 HD
BRANCH   4   7
ATOM      7  C   UNL     1       5.618   0.648   1.437  1.00  0.00     0.307 C 
BRANCH   7   8
ATOM      8  N   UNL     1       4.267  -0.023   1.642  1.00  0.00    -0.318 N 
ATOM      9  N   UNL     1       2.056   1.715   0.786  1.00  0.00    -0.357 N 
ATOM     10  C   UNL     1       2.713   1.923   2.084  1.00  0.00     0.178 C 
ATOM     11  C   UNL     1       2.857   0.989  -0.203  1.00  0.00     0.178 C 
ATOM     12  C   UNL     1       3.267   0.572   2.550  1.00  0.00     0.284 C 
ATOM     13  C   UNL     1       3.501  -0.279   0.419  1.00  0.00     0.284 C 
ATOM     14  H   UNL     1       4.657  -0.856   2.083  1.00  0.00     0.349 HD
BRANCH   9  15
ATOM     15  C   UNL     1       1.331   2.764   0.219  1.00  0.00     0.080 A 
ATOM     16  C   UNL     1       0.110   2.559  -0.456  1.00  0.00     0.142 A 
ATOM     17  C   UNL     1      -0.521   3.646  -1.080  1.00  0.00     0.048 A 
ATOM     18  C   UNL     1       0.041   4.922  -1.062  1.00  0.00     0.004 A 
ATOM     19  C   UNL     1       1.889   4.061   0.208  1.00  0.00     0.030 A 
ATOM     20  C   UNL     1       1.256   5.129  -0.425  1.00  0.00     0.002 A 
BRANCH  16  21
ATOM     21  O   UNL     1      -0.579   1.386  -0.642  1.00  0.00    -0.495 OA
ATOM     22  C   UNL     1      -0.302   0.270   0.190  1.00  0.00     0.278 C 
ENDBRANCH  16  21
ENDBRANCH   9  15
ENDBRANCH   7   8
BRANCH   7  23
ATOM     23  C   UNL     1       6.209   1.332   2.804  1.00  0.00     0.044 A 
ATOM     24  C   UNL     1       6.685   0.495   3.816  1.00  0.00     0.094 A 
ATOM     25  C   UNL     1       5.742   2.438   3.680  1.00  0.00     0.013 A 
ATOM     26  N   UNL     1       5.679   0.495   4.748  1.00  0.00    -0.361 N 
ATOM     27  C   UNL     1       5.173   1.779   4.775  1.00  0.00     0.046 A 
ATOM     28  C   UNL     1       5.904   3.861   3.881  1.00  0.00     0.057 A 
ATOM     29  H   UNL     1       5.378  -0.269   5.291  1.00  0.00     0.166 HD
ATOM     30  C   UNL     1       4.308   2.398   5.677  1.00  0.00     0.030 A 
ATOM     31  C   UNL     1       5.293   4.505   5.016  1.00  0.00     0.121 A 
ATOM     32  C   UNL     1       4.362   3.789   5.760  1.00  0.00     0.048 A 
BRANCH  31  33
ATOM     33  O   UNL     1       5.640   5.810   5.376  1.00  0.00    -0.479 OA
BRANCH  33  34
ATOM     34  C   UNL     1       5.614   6.208   6.842  1.00  0.00     0.349 C 
BRANCH  34  35
ATOM     35  C   UNL     1       6.373   5.178   7.663  1.00  0.00     0.104 C 
ATOM     36  N   UNL     1       7.003   4.323   8.344  1.00  0.00    -0.195 NA
ENDBRANCH  34  35
ENDBRANCH  33  34
ENDBRANCH  31  33
ENDBRANCH   7  23
ENDBRANCH   4   7
ENDBRANCH   2   3
ENDBRANCH   1   2
BRANCH   1  37
ATOM     37  C   UNL     1       3.712   1.030  -3.438  1.00  0.00     0.002 C 
BRANCH  37  38
ATOM     38  C   UNL     1       3.668   1.072  -4.970  1.00  0.00     0.002 C 
BRANCH  38  39
ATOM     39  C   UNL     1       2.641   0.147  -5.636  1.00  0.00     0.021 C 
BRANCH  39  40
ATOM     40  C   UNL     1       1.176   0.475  -5.346  1.00  0.00     0.116 C 
BRANCH  40  41
ATOM     41  N   UNL     1       0.729   1.669  -6.051  1.00  0.00    -0.352 N 
ATOM     42  C   UNL     1      -0.174   1.780  -7.088  1.00  0.00     0.251 C 
ATOM     43  H   UNL     1       1.128   2.515  -5.744  1.00  0.00     0.163 HD
ATOM     44  O   UNL     1      -0.270   2.808  -7.731  1.00  0.00    -0.269 OA
BRANCH  42  45
ATOM     45  C   UNL     1      -1.030   0.618  -7.420  1.00  0.00     0.039 A 
ATOM     46  C   UNL     1      -1.133   0.197  -8.748  1.00  0.00     0.014 A 
ATOM     47  C   UNL     1      -1.732  -0.048  -6.412  1.00  0.00     0.014 A 
ATOM     48  C   UNL     1      -1.894  -0.934  -9.056  1.00  0.00     0.010 A 
ATOM     49  C   UNL     1      -2.427  -1.216  -6.710  1.00  0.00     0.010 A 
ATOM     50  C   UNL     1      -2.524  -1.667  -8.035  1.00  0.00    -0.014 A 
BRANCH  50  51
ATOM     51  C   UNL     1      -3.310  -2.893  -8.333  1.00  0.00     0.031 A 
ATOM     52  C   UNL     1      -4.787  -2.923  -8.048  1.00  0.00     0.074 A 
ATOM     53  C   UNL     1      -2.691  -3.994  -8.799  1.00  0.00     0.049 A 
ATOM     54  N   UNL     1      -5.636  -3.914  -8.165  1.00  0.00    -0.248 NA
ATOM     55  C   UNL     1      -5.384  -1.681  -7.534  1.00  0.00     0.031 C 
ATOM     56  C   UNL     1      -1.259  -4.105  -9.079  1.00  0.00     0.029 A 
ATOM     57  N   UNL     1      -3.186  -5.237  -9.110  1.00  0.00    -0.354 N 
ATOM     58  C   UNL     1      -6.857  -3.417  -7.730  1.00  0.00     0.074 A 
ATOM     59  C   UNL     1      -6.628  -2.060  -7.285  1.00  0.00     0.031 C 
ATOM     60  C   UNL     1      -0.995  -5.337  -9.544  1.00  0.00     0.029 A 
ATOM     61  C   UNL     1      -2.229  -6.117  -9.554  1.00  0.00     0.049 A 
ATOM     62  H   UNL     1      -4.137  -5.475  -9.023  1.00  0.00     0.167 HD
ATOM     63  C   UNL     1      -8.067  -4.027  -7.726  1.00  0.00     0.037 A 
ATOM     64  C   UNL     1      -2.335  -7.409  -9.920  1.00  0.00     0.037 A 
ATOM     65  C   UNL     1      -8.293  -5.373  -8.184  1.00  0.00     0.049 A 
ATOM     66  C   UNL     1      -3.686  -8.074  -9.881  1.00  0.00     0.074 A 
ATOM     67  C   UNL     1      -9.487  -6.068  -8.267  1.00  0.00     0.029 A 
ATOM     68  N   UNL     1      -7.299  -6.231  -8.634  1.00  0.00    -0.354 N 
ATOM     69  N   UNL     1      -4.846  -7.575  -9.529  1.00  0.00    -0.248 NA
ATOM     70  C   UNL     1      -3.743  -9.483 -10.296  1.00  0.00     0.031 C 
ATOM     71  C   UNL     1      -9.208  -7.363  -8.713  1.00  0.00     0.029 A 
ATOM     72  C   UNL     1      -7.850  -7.457  -8.972  1.00  0.00     0.049 A 
ATOM     73  H   UNL     1      -6.344  -6.002  -8.703  1.00  0.00     0.167 HD
ATOM     74  C   UNL     1      -5.773  -8.592  -9.715  1.00  0.00     0.074 A 
ATOM     75  C   UNL     1      -5.042  -9.734 -10.222  1.00  0.00     0.031 C 
ATOM     76  C   UNL     1      -7.110  -8.581  -9.488  1.00  0.00     0.037 A 
BRANCH  63  77
ATOM     77  C   UNL     1      -9.239  -3.242  -7.207  1.00  0.00     0.064 A 
ATOM     78  C   UNL     1      -9.740  -2.125  -7.894  1.00  0.00     0.173 A 
ATOM     79  C   UNL     1      -9.886  -3.624  -6.022  1.00  0.00     0.173 A 
ATOM     80  F   UNL     1      -9.154  -1.709  -9.027  1.00  0.00    -0.203 F 
ATOM     81  C   UNL     1     -10.819  -1.400  -7.395  1.00  0.00     0.198 A 
ATOM     82  C   UNL     1     -10.987  -2.919  -5.545  1.00  0.00     0.198 A 
ATOM     83  F   UNL     1      -9.454  -4.689  -5.328  1.00  0.00    -0.203 F 
ATOM     84  F   UNL     1     -11.242  -0.302  -8.038  1.00  0.00    -0.200 F 
ATOM     85  C   UNL     1     -11.447  -1.801  -6.226  1.00  0.00     0.200 A 
ATOM     86  F   UNL     1     -11.603  -3.318  -4.424  1.00  0.00    -0.200 F 
ATOM     87  F   UNL     1     -12.489  -1.107  -5.750  1.00  0.00    -0.200 F 
ENDBRANCH  63  77
BRANCH  64  88
ATOM     88  C   UNL     1      -1.133  -8.155 -10.380  1.00  0.00     0.064 A 
ATOM     89  C   UNL     1      -1.010  -8.570 -11.714  1.00  0.00     0.173 A 
ATOM     90  C   UNL     1      -0.091  -8.480  -9.500  1.00  0.00     0.173 A 
ATOM     91  F   UNL     1      -1.990  -8.303 -12.591  1.00  0.00    -0.203 F 
ATOM     92  C   UNL     1       0.096  -9.301 -12.144  1.00  0.00     0.198 A 
ATOM     93  C   UNL     1       1.030  -9.183  -9.938  1.00  0.00     0.198 A 
ATOM     94  F   UNL     1      -0.155  -8.104  -8.214  1.00  0.00    -0.203 F 
ATOM     95  F   UNL     1       0.162  -9.729 -13.412  1.00  0.00    -0.200 F 
ATOM     96  C   UNL     1       1.118  -9.602 -11.257  1.00  0.00     0.200 A 
ATOM     97  F   UNL     1       2.023  -9.458  -9.081  1.00  0.00    -0.200 F 
ATOM     98  F   UNL     1       2.183 -10.302 -11.670  1.00  0.00    -0.200 F 
ENDBRANCH  64  88
BRANCH  76  99
ATOM     99  C   UNL     1      -7.881  -9.823  -9.832  1.00  0.00     0.064 A 
ATOM    100  C   UNL     1      -7.758 -11.003  -9.084  1.00  0.00     0.173 A 
ATOM    101  C   UNL     1      -8.791  -9.816 -10.901  1.00  0.00     0.173 A 
ATOM    102  F   UNL     1      -6.893 -11.068  -8.061  1.00  0.00    -0.203 F 
ATOM    103  C   UNL     1      -8.497 -12.138  -9.410  1.00  0.00     0.198 A 
ATOM    104  C   UNL     1      -9.554 -10.941 -11.202  1.00  0.00     0.198 A 
ATOM    105  F   UNL     1      -8.953  -8.712 -11.645  1.00  0.00    -0.203 F 
ATOM    106  F   UNL     1      -8.325 -13.270  -8.713  1.00  0.00    -0.200 F 
ATOM    107  C   UNL     1      -9.400 -12.103 -10.463  1.00  0.00     0.200 A 
ATOM    108  F   UNL     1     -10.438 -10.899 -12.209  1.00  0.00    -0.200 F 
ATOM    109  F   UNL     1     -10.118 -13.193 -10.768  1.00  0.00    -0.200 F 
ENDBRANCH  76  99
ENDBRANCH  50  51
ENDBRANCH  42  45
ENDBRANCH  40  41
ENDBRANCH  39  40
ENDBRANCH  38  39
ENDBRANCH  37  38
ENDBRANCH   1  37
TORSDOF 20
