REMARK SMILES Cc1c(I)c(C(=O)NCCCCCCNC(=O)c2ccc(-c3c4nc(c(-c5c(F)c(F)c(F)c(F)c5F)c5ccc([nH]5)c(-c5c(F)c(F)c(F)c(F)c5F)c5nc(c(-c6c(F)c(F)c(F)c(F)c6F)c6ccc3[nH]6)C=C5)C=C4)cc2)nn1C(F)F
REMARK SMILES IDX 12 1 11 2 10 3 9 4 8 5 6 6 7 7 5 9 1 10 2 11 3 12 82 13 4 14
REMARK SMILES IDX 81 15 83 16 84 17 85 18 13 19 14 20 15 21 16 22 17 24 18 25
REMARK SMILES IDX 19 26 80 27 20 28 79 29 21 30 22 31 23 32 73 33 24 34 78 35
REMARK SMILES IDX 72 36 74 37 25 38 77 39 71 40 70 41 26 43 58 44 38 45 57 46
REMARK SMILES IDX 39 47 42 48 56 49 75 50 40 51 41 52 55 54 76 55 43 56 27 57
REMARK SMILES IDX 28 58 36 59 29 60 30 61 34 62 37 63 31 64 32 65 35 66 33 67
REMARK SMILES IDX 59 68 60 69 68 70 61 71 62 72 66 73 69 74 63 75 64 76 67 77
REMARK SMILES IDX 65 78 44 79 45 80 53 81 46 82 47 83 51 84 54 85 48 86 49 87
REMARK SMILES IDX 52 88 50 89
REMARK H PARENT 8 8 15 23 74 42 42 53
REMARK Flexibility Score: inf
ROOT
ATOM      1  C   UNL     1      -4.009  -8.354   0.583  1.00  0.00     0.002 C 
ENDROOT
BRANCH   1   2
ATOM      2  C   UNL     1      -3.401  -7.849  -0.737  1.00  0.00     0.002 C 
BRANCH   2   3
ATOM      3  C   UNL     1      -3.191  -6.335  -0.841  1.00  0.00     0.021 C 
BRANCH   3   4
ATOM      4  C   UNL     1      -2.383  -5.734   0.308  1.00  0.00     0.116 C 
BRANCH   4   5
ATOM      5  N   UNL     1      -0.972  -6.061   0.200  1.00  0.00    -0.351 N 
ATOM      6  C   UNL     1       0.156  -5.274   0.090  1.00  0.00     0.272 C 
ATOM      7  O   UNL     1       1.227  -5.883   0.029  1.00  0.00    -0.267 OA
ATOM      8  H   UNL     1      -0.785  -7.028   0.207  1.00  0.00     0.163 HD
BRANCH   6   9
ATOM      9  C   UNL     1       0.081  -3.794   0.063  1.00  0.00     0.163 A 
ATOM     10  C   UNL     1       1.135  -0.214  -0.010  1.00  0.00     0.068 C 
ATOM     11  C   UNL     1       0.566  -1.586   0.023  1.00  0.00     0.056 A 
ATOM     12  C   UNL     1       1.141  -2.844  -0.012  1.00  0.00     0.067 A 
ATOM     13  N   UNL     1      -0.786  -1.823   0.110  1.00  0.00    -0.207 N 
ATOM     14  I   UNL     1       3.143  -3.196  -0.137  1.00  0.00    -0.040 I 
ATOM     15  N   UNL     1      -1.087  -3.134   0.117  1.00  0.00    -0.161 NA
BRANCH  13  16
ATOM     16  C   UNL     1      -1.876  -0.849   0.201  1.00  0.00     0.465 C 
ATOM     17  F   UNL     1      -2.766  -0.995  -0.819  1.00  0.00    -0.184 F 
ATOM     18  F   UNL     1      -2.577  -0.991   1.359  1.00  0.00    -0.184 F 
ENDBRANCH  13  16
ENDBRANCH   6   9
ENDBRANCH   4   5
ENDBRANCH   3   4
ENDBRANCH   2   3
ENDBRANCH   1   2
BRANCH   1  19
ATOM     19  C   UNL     1      -5.293  -7.661   1.066  1.00  0.00     0.021 C 
BRANCH  19  20
ATOM     20  C   UNL     1      -6.478  -7.852   0.138  1.00  0.00     0.116 C 
BRANCH  20  21
ATOM     21  N   UNL     1      -6.949  -9.242   0.087  1.00  0.00    -0.352 N 
ATOM     22  C   UNL     1      -7.998  -9.759  -0.649  1.00  0.00     0.251 C 
ATOM     23  H   UNL     1      -6.458  -9.884   0.648  1.00  0.00     0.163 HD
ATOM     24  O   UNL     1      -8.528 -10.829  -0.347  1.00  0.00    -0.269 OA
BRANCH  22  25
ATOM     25  C   UNL     1      -8.460  -9.010  -1.826  1.00  0.00     0.039 A 
ATOM     26  C   UNL     1      -9.809  -8.896  -2.177  1.00  0.00     0.014 A 
ATOM     27  C   UNL     1      -7.477  -8.368  -2.567  1.00  0.00     0.014 A 
ATOM     28  C   UNL     1     -10.148  -8.072  -3.249  1.00  0.00     0.010 A 
ATOM     29  C   UNL     1      -7.828  -7.379  -3.434  1.00  0.00     0.010 A 
ATOM     30  C   UNL     1      -9.143  -7.310  -3.864  1.00  0.00    -0.014 A 
BRANCH  30  31
ATOM     31  C   UNL     1      -9.415  -6.361  -4.931  1.00  0.00     0.031 A 
ATOM     32  C   UNL     1     -10.368  -5.285  -4.557  1.00  0.00     0.074 A 
ATOM     33  C   UNL     1      -8.660  -6.325  -6.053  1.00  0.00     0.049 A 
ATOM     34  N   UNL     1     -11.550  -5.084  -5.034  1.00  0.00    -0.248 NA
ATOM     35  C   UNL     1     -10.033  -4.419  -3.415  1.00  0.00     0.031 C 
ATOM     36  C   UNL     1      -7.472  -7.124  -6.390  1.00  0.00     0.029 A 
ATOM     37  N   UNL     1      -8.737  -5.470  -7.106  1.00  0.00    -0.354 N 
ATOM     38  C   UNL     1     -12.031  -3.942  -4.399  1.00  0.00     0.074 A 
ATOM     39  C   UNL     1     -11.149  -3.697  -3.290  1.00  0.00     0.031 C 
ATOM     40  C   UNL     1      -6.816  -6.559  -7.428  1.00  0.00     0.029 A 
ATOM     41  C   UNL     1      -7.625  -5.473  -7.944  1.00  0.00     0.049 A 
ATOM     42  H   UNL     1      -9.519  -4.894  -7.265  1.00  0.00     0.167 HD
ATOM     43  C   UNL     1     -12.968  -3.157  -5.001  1.00  0.00     0.037 A 
ATOM     44  C   UNL     1      -7.389  -4.612  -8.966  1.00  0.00     0.037 A 
ATOM     45  C   UNL     1     -13.586  -3.855  -6.102  1.00  0.00     0.049 A 
ATOM     46  C   UNL     1      -8.697  -3.998  -9.318  1.00  0.00     0.074 A 
ATOM     47  C   UNL     1     -14.330  -5.013  -6.218  1.00  0.00     0.029 A 
ATOM     48  N   UNL     1     -13.128  -3.575  -7.367  1.00  0.00    -0.354 N 
ATOM     49  N   UNL     1      -9.689  -4.669  -9.836  1.00  0.00    -0.248 NA
ATOM     50  C   UNL     1      -9.061  -2.769  -8.628  1.00  0.00     0.031 C 
ATOM     51  C   UNL     1     -13.865  -5.626  -7.419  1.00  0.00     0.029 A 
ATOM     52  C   UNL     1     -12.935  -4.769  -8.010  1.00  0.00     0.049 A 
ATOM     53  H   UNL     1     -12.967  -2.679  -7.742  1.00  0.00     0.167 HD
ATOM     54  C   UNL     1     -10.816  -4.192  -9.182  1.00  0.00     0.074 A 
ATOM     55  C   UNL     1     -10.373  -2.979  -8.494  1.00  0.00     0.031 C 
ATOM     56  C   UNL     1     -11.915  -4.981  -9.010  1.00  0.00     0.037 A 
BRANCH  43  57
ATOM     57  C   UNL     1     -13.052  -1.655  -4.873  1.00  0.00     0.064 A 
ATOM     58  C   UNL     1     -14.130  -0.984  -5.489  1.00  0.00     0.173 A 
ATOM     59  C   UNL     1     -11.982  -0.832  -4.463  1.00  0.00     0.173 A 
ATOM     60  F   UNL     1     -15.202  -1.665  -5.923  1.00  0.00    -0.203 F 
ATOM     61  C   UNL     1     -14.088   0.384  -5.767  1.00  0.00     0.198 A 
ATOM     62  C   UNL     1     -11.968   0.542  -4.694  1.00  0.00     0.198 A 
ATOM     63  F   UNL     1     -10.860  -1.327  -3.930  1.00  0.00    -0.203 F 
ATOM     64  F   UNL     1     -15.072   0.948  -6.480  1.00  0.00    -0.200 F 
ATOM     65  C   UNL     1     -13.001   1.144  -5.378  1.00  0.00     0.200 A 
ATOM     66  F   UNL     1     -10.898   1.260  -4.323  1.00  0.00    -0.200 F 
ATOM     67  F   UNL     1     -12.924   2.441  -5.705  1.00  0.00    -0.200 F 
ENDBRANCH  43  57
BRANCH  44  68
ATOM     68  C   UNL     1      -6.097  -4.036  -9.412  1.00  0.00     0.064 A 
ATOM     69  C   UNL     1      -5.973  -3.409 -10.663  1.00  0.00     0.173 A 
ATOM     70  C   UNL     1      -5.040  -3.828  -8.503  1.00  0.00     0.173 A 
ATOM     71  F   UNL     1      -6.956  -3.516 -11.569  1.00  0.00    -0.203 F 
ATOM     72  C   UNL     1      -4.873  -2.601 -10.977  1.00  0.00     0.198 A 
ATOM     73  C   UNL     1      -3.942  -3.024  -8.818  1.00  0.00     0.198 A 
ATOM     74  F   UNL     1      -5.100  -4.320  -7.258  1.00  0.00    -0.203 F 
ATOM     75  F   UNL     1      -4.821  -1.969 -12.158  1.00  0.00    -0.200 F 
ATOM     76  C   UNL     1      -3.865  -2.400 -10.049  1.00  0.00     0.200 A 
ATOM     77  F   UNL     1      -2.994  -2.803  -7.896  1.00  0.00    -0.200 F 
ATOM     78  F   UNL     1      -2.845  -1.573 -10.322  1.00  0.00    -0.200 F 
ENDBRANCH  44  68
BRANCH  56  79
ATOM     79  C   UNL     1     -11.978  -6.287  -9.752  1.00  0.00     0.064 A 
ATOM     80  C   UNL     1     -11.121  -7.375  -9.512  1.00  0.00     0.173 A 
ATOM     81  C   UNL     1     -13.072  -6.503 -10.599  1.00  0.00     0.173 A 
ATOM     82  F   UNL     1     -10.104  -7.276  -8.648  1.00  0.00    -0.203 F 
ATOM     83  C   UNL     1     -11.344  -8.616 -10.109  1.00  0.00     0.198 A 
ATOM     84  C   UNL     1     -13.312  -7.750 -11.166  1.00  0.00     0.198 A 
ATOM     85  F   UNL     1     -13.950  -5.513 -10.823  1.00  0.00    -0.203 F 
ATOM     86  F   UNL     1     -10.517  -9.642  -9.859  1.00  0.00    -0.200 F 
ATOM     87  C   UNL     1     -12.446  -8.805 -10.925  1.00  0.00     0.200 A 
ATOM     88  F   UNL     1     -14.407  -7.939 -11.915  1.00  0.00    -0.200 F 
ATOM     89  F   UNL     1     -12.693 -10.010 -11.457  1.00  0.00    -0.200 F 
ENDBRANCH  56  79
ENDBRANCH  30  31
ENDBRANCH  22  25
ENDBRANCH  20  21
ENDBRANCH  19  20
ENDBRANCH   1  19
TORSDOF 14
