REMARK SMILES CC1(C)S[C@@H](c2cccc3c2sc2ccccc23)[NH2+][C@@H]1C(=O)NCCCCCCNC(=O)c1ccc(-c2c3nc(c(-c4c(F)c(F)c(F)c(F)c4F)c4ccc([nH]4)c(-c4c(F)c(F)c(F)c(F)c4F)c4nc(c(-c5c(F)c(F)c(F)c(F)c5F)c5ccc2[nH]5)C=C4)C=C3)cc1
REMARK SMILES IDX 27 1 26 2 25 3 24 4 23 5 21 6 22 7 20 9 1 10 2 11 3 12 4 13
REMARK SMILES IDX 5 14 19 15 6 18 7 19 11 20 8 21 10 22 12 23 9 24 18 25 13 26
REMARK SMILES IDX 17 27 14 28 16 29 15 30 28 31 29 32 30 33 31 34 32 36 33 37
REMARK SMILES IDX 34 38 95 39 35 40 94 41 36 42 37 43 38 44 88 45 39 46 93 47
REMARK SMILES IDX 87 48 89 49 40 50 92 51 86 52 85 53 41 55 73 56 53 57 72 58
REMARK SMILES IDX 54 59 57 60 71 61 90 62 55 63 56 64 70 66 91 67 58 68 42 69
REMARK SMILES IDX 43 70 51 71 44 72 45 73 49 74 52 75 46 76 47 77 50 78 48 79
REMARK SMILES IDX 74 80 75 81 83 82 76 83 77 84 81 85 84 86 78 87 79 88 82 89
REMARK SMILES IDX 80 90 59 91 60 92 68 93 61 94 62 95 66 96 69 97 63 98 64 99
REMARK SMILES IDX 67 100 65 101
REMARK H PARENT 23 8 19 16 19 17 30 35 89 54 57 65
REMARK Flexibility Score: inf
ROOT
ATOM      1  C   UNL     1      -4.388   2.135  -4.472  1.00  0.00     0.002 C 
ENDROOT
BRANCH   1   2
ATOM      2  C   UNL     1      -3.353   3.246  -4.282  1.00  0.00     0.002 C 
BRANCH   2   3
ATOM      3  C   UNL     1      -2.962   3.565  -2.835  1.00  0.00     0.021 C 
BRANCH   3   4
ATOM      4  C   UNL     1      -2.456   2.392  -1.998  1.00  0.00     0.116 C 
BRANCH   4   5
ATOM      5  N   UNL     1      -1.325   1.723  -2.607  1.00  0.00    -0.351 N 
ATOM      6  C   UNL     1      -0.249   1.102  -2.042  1.00  0.00     0.279 C 
ATOM      7  O   UNL     1       0.547   0.603  -2.840  1.00  0.00    -0.268 OA
ATOM      8  H   UNL     1      -1.334   1.715  -3.592  1.00  0.00     0.163 HD
BRANCH   6   9
ATOM      9  C   UNL     1       0.008   1.154  -0.507  1.00  0.00     0.289 C 
ATOM     10  C   UNL     1       1.579   0.623   1.433  1.00  0.00     0.030 C 
ATOM     11  C   UNL     1       1.029   0.132   0.077  1.00  0.00     0.077 C 
ATOM     12  C   UNL     1       2.224  -0.246  -0.801  1.00  0.00     0.030 C 
ATOM     13  S   UNL     1       0.006  -1.352   0.410  1.00  0.00    -0.081 SA
ATOM     14  C   UNL     1      -1.568  -0.459   0.257  1.00  0.00     0.276 C 
ATOM     15  N   UNL     1      -1.260   0.976   0.264  1.00  0.00    -0.320 N 
ATOM     16  H   UNL     1      -1.136   1.302   1.222  1.00  0.00     0.348 HD
ATOM     17  H   UNL     1      -2.019   1.513  -0.154  1.00  0.00     0.348 HD
BRANCH  14  18
ATOM     18  C   UNL     1      -2.577  -0.805   1.340  1.00  0.00     0.038 A 
ATOM     19  C   UNL     1      -2.214  -0.722   2.707  1.00  0.00     0.012 A 
ATOM     20  C   UNL     1      -3.925  -1.179   1.062  1.00  0.00     0.046 A 
ATOM     21  C   UNL     1      -3.105  -1.010   3.728  1.00  0.00     0.001 A 
ATOM     22  C   UNL     1      -4.840  -1.489   2.075  1.00  0.00     0.001 A 
ATOM     23  S   UNL     1      -4.681  -1.314  -0.484  1.00  0.00    -0.135 S 
ATOM     24  C   UNL     1      -4.405  -1.397   3.422  1.00  0.00     0.010 A 
ATOM     25  C   UNL     1      -6.138  -1.881   1.554  1.00  0.00     0.000 A 
ATOM     26  C   UNL     1      -6.180  -1.824   0.164  1.00  0.00     0.036 A 
ATOM     27  C   UNL     1      -7.314  -2.298   2.234  1.00  0.00     0.010 A 
ATOM     28  C   UNL     1      -7.344  -2.160  -0.558  1.00  0.00     0.019 A 
ATOM     29  C   UNL     1      -8.469  -2.640   1.524  1.00  0.00     0.001 A 
ATOM     30  C   UNL     1      -8.482  -2.570   0.140  1.00  0.00     0.002 A 
ENDBRANCH  14  18
ENDBRANCH   6   9
ENDBRANCH   4   5
ENDBRANCH   3   4
ENDBRANCH   2   3
ENDBRANCH   1   2
BRANCH   1  31
ATOM     31  C   UNL     1      -5.708   2.313  -3.721  1.00  0.00     0.021 C 
BRANCH  31  32
ATOM     32  C   UNL     1      -6.409   3.654  -3.920  1.00  0.00     0.116 C 
BRANCH  32  33
ATOM     33  N   UNL     1      -6.744   3.925  -5.306  1.00  0.00    -0.352 N 
ATOM     34  C   UNL     1      -7.875   4.489  -5.835  1.00  0.00     0.251 C 
ATOM     35  H   UNL     1      -6.057   3.666  -5.962  1.00  0.00     0.163 HD
ATOM     36  O   UNL     1      -8.016   4.540  -7.058  1.00  0.00    -0.269 OA
BRANCH  34  37
ATOM     37  C   UNL     1      -8.945   5.017  -4.959  1.00  0.00     0.039 A 
ATOM     38  C   UNL     1     -10.275   4.778  -5.318  1.00  0.00     0.014 A 
ATOM     39  C   UNL     1      -8.660   5.779  -3.821  1.00  0.00     0.014 A 
ATOM     40  C   UNL     1     -11.313   5.270  -4.524  1.00  0.00     0.010 A 
ATOM     41  C   UNL     1      -9.695   6.214  -2.993  1.00  0.00     0.010 A 
ATOM     42  C   UNL     1     -11.032   5.979  -3.346  1.00  0.00    -0.014 A 
BRANCH  42  43
ATOM     43  C   UNL     1     -12.132   6.511  -2.502  1.00  0.00     0.031 A 
ATOM     44  C   UNL     1     -12.341   7.995  -2.377  1.00  0.00     0.074 A 
ATOM     45  C   UNL     1     -12.929   5.660  -1.829  1.00  0.00     0.049 A 
ATOM     46  N   UNL     1     -13.244   8.651  -1.692  1.00  0.00    -0.248 NA
ATOM     47  C   UNL     1     -11.393   8.859  -3.098  1.00  0.00     0.031 C 
ATOM     48  C   UNL     1     -12.797   4.203  -1.824  1.00  0.00     0.029 A 
ATOM     49  N   UNL     1     -14.009   5.900  -1.016  1.00  0.00    -0.354 N 
ATOM     50  C   UNL     1     -12.965   9.997  -1.889  1.00  0.00     0.074 A 
ATOM     51  C   UNL     1     -11.778  10.066  -2.713  1.00  0.00     0.031 C 
ATOM     52  C   UNL     1     -13.775   3.676  -1.069  1.00  0.00     0.029 A 
ATOM     53  C   UNL     1     -14.588   4.758  -0.519  1.00  0.00     0.049 A 
ATOM     54  H   UNL     1     -14.337   6.804  -0.809  1.00  0.00     0.167 HD
ATOM     55  C   UNL     1     -13.651  11.078  -1.444  1.00  0.00     0.037 A 
ATOM     56  C   UNL     1     -15.659   4.603   0.282  1.00  0.00     0.037 A 
ATOM     57  C   UNL     1     -14.850  11.008  -0.651  1.00  0.00     0.049 A 
ATOM     58  C   UNL     1     -16.420   5.818   0.737  1.00  0.00     0.074 A 
ATOM     59  C   UNL     1     -15.652  12.044  -0.204  1.00  0.00     0.029 A 
ATOM     60  N   UNL     1     -15.421   9.832  -0.190  1.00  0.00    -0.354 N 
ATOM     61  N   UNL     1     -16.189   7.083   0.485  1.00  0.00    -0.248 NA
ATOM     62  C   UNL     1     -17.602   5.580   1.578  1.00  0.00     0.031 C 
ATOM     63  C   UNL     1     -16.690  11.496   0.558  1.00  0.00     0.029 A 
ATOM     64  C   UNL     1     -16.558  10.117   0.551  1.00  0.00     0.049 A 
ATOM     65  H   UNL     1     -15.071   8.928  -0.362  1.00  0.00     0.167 HD
ATOM     66  C   UNL     1     -17.204   7.790   1.114  1.00  0.00     0.074 A 
ATOM     67  C   UNL     1     -18.066   6.810   1.743  1.00  0.00     0.031 C 
ATOM     68  C   UNL     1     -17.404   9.129   1.169  1.00  0.00     0.037 A 
BRANCH  55  69
ATOM     69  C   UNL     1     -13.121  12.432  -1.816  1.00  0.00     0.064 A 
ATOM     70  C   UNL     1     -13.193  12.913  -3.132  1.00  0.00     0.173 A 
ATOM     71  C   UNL     1     -12.559  13.270  -0.842  1.00  0.00     0.173 A 
ATOM     72  F   UNL     1     -13.710  12.145  -4.104  1.00  0.00    -0.203 F 
ATOM     73  C   UNL     1     -12.695  14.170  -3.465  1.00  0.00     0.198 A 
ATOM     74  C   UNL     1     -12.088  14.538  -1.173  1.00  0.00     0.198 A 
ATOM     75  F   UNL     1     -12.470  12.862   0.433  1.00  0.00    -0.203 F 
ATOM     76  F   UNL     1     -12.729  14.586  -4.739  1.00  0.00    -0.200 F 
ATOM     77  C   UNL     1     -12.149  14.983  -2.485  1.00  0.00     0.200 A 
ATOM     78  F   UNL     1     -11.569  15.329  -0.222  1.00  0.00    -0.200 F 
ATOM     79  F   UNL     1     -11.673  16.195  -2.806  1.00  0.00    -0.200 F 
ENDBRANCH  55  69
BRANCH  56  80
ATOM     80  C   UNL     1     -16.102   3.239   0.670  1.00  0.00     0.064 A 
ATOM     81  C   UNL     1     -17.281   2.691   0.148  1.00  0.00     0.173 A 
ATOM     82  C   UNL     1     -15.362   2.461   1.571  1.00  0.00     0.173 A 
ATOM     83  F   UNL     1     -18.033   3.408  -0.701  1.00  0.00    -0.203 F 
ATOM     84  C   UNL     1     -17.715   1.423   0.527  1.00  0.00     0.198 A 
ATOM     85  C   UNL     1     -15.784   1.183   1.931  1.00  0.00     0.198 A 
ATOM     86  F   UNL     1     -14.224   2.939   2.096  1.00  0.00    -0.203 F 
ATOM     87  F   UNL     1     -18.869   0.941   0.047  1.00  0.00    -0.200 F 
ATOM     88  C   UNL     1     -16.964   0.668   1.414  1.00  0.00     0.200 A 
ATOM     89  F   UNL     1     -15.049   0.450   2.779  1.00  0.00    -0.200 F 
ATOM     90  F   UNL     1     -17.380  -0.553   1.778  1.00  0.00    -0.200 F 
ENDBRANCH  56  80
BRANCH  68  91
ATOM     91  C   UNL     1     -18.613   9.609   1.917  1.00  0.00     0.064 A 
ATOM     92  C   UNL     1     -18.680   9.552   3.317  1.00  0.00     0.173 A 
ATOM     93  C   UNL     1     -19.709  10.149   1.227  1.00  0.00     0.173 A 
ATOM     94  F   UNL     1     -17.664   9.029   4.021  1.00  0.00    -0.203 F 
ATOM     95  C   UNL     1     -19.812   9.991   3.997  1.00  0.00     0.198 A 
ATOM     96  C   UNL     1     -20.828  10.613   1.913  1.00  0.00     0.198 A 
ATOM     97  F   UNL     1     -19.692  10.231  -0.111  1.00  0.00    -0.203 F 
ATOM     98  F   UNL     1     -19.875   9.879   5.332  1.00  0.00    -0.200 F 
ATOM     99  C   UNL     1     -20.883  10.525   3.296  1.00  0.00     0.200 A 
ATOM    100  F   UNL     1     -21.857  11.139   1.234  1.00  0.00    -0.200 F 
ATOM    101  F   UNL     1     -21.972  10.947   3.952  1.00  0.00    -0.200 F 
ENDBRANCH  68  91
ENDBRANCH  42  43
ENDBRANCH  34  37
ENDBRANCH  32  33
ENDBRANCH  31  32
ENDBRANCH   1  31
TORSDOF 14
