REMARK SMILES CCC(CC)(CC)NC(=O)NC[C@@H]1CC[C@H](C(=O)NCCCCCCNC(=O)c2ccc(-c3c4nc(c(-c5c(F)c(F)c(F)c(F)c5F)c5ccc([nH]5)c(-c5c(F)c(F)c(F)c(F)c5F)c5nc(c(-c6c(F)c(F)c(F)c(F)c6F)c6ccc3[nH]6)C=C5)C=C4)cc2)O1
REMARK SMILES IDX 21 1 20 2 19 3 17 4 18 5 16 7 13 8 14 9 92 10 15 11 12 12
REMARK SMILES IDX 11 13 8 14 9 15 10 17 3 19 2 20 1 21 4 22 5 23 6 24 7 25
REMARK SMILES IDX 22 26 23 27 24 28 25 29 26 30 27 31 28 33 29 34 30 35 91 36
REMARK SMILES IDX 31 37 90 38 32 39 33 40 34 41 84 42 35 43 89 44 83 45 85 46
REMARK SMILES IDX 36 47 88 48 82 49 81 50 37 52 69 53 49 54 68 55 50 56 53 57
REMARK SMILES IDX 67 58 86 59 51 60 52 61 66 63 87 64 54 65 38 66 39 67 47 68
REMARK SMILES IDX 40 69 41 70 45 71 48 72 42 73 43 74 46 75 44 76 70 77 71 78
REMARK SMILES IDX 79 79 72 80 73 81 77 82 80 83 74 84 75 85 78 86 76 87 55 88
REMARK SMILES IDX 56 89 64 90 57 91 58 92 62 93 65 94 59 95 60 96 63 97 61 98
REMARK H PARENT 19 6 8 16 11 18 26 32 85 51 53 62
REMARK Flexibility Score: inf
ROOT
ATOM      1  C   UNL     1      -0.290   1.484  -5.492  1.00  0.00     0.021 C 
ENDROOT
BRANCH   1   2
ATOM      2  C   UNL     1       0.868   2.015  -4.659  1.00  0.00     0.116 C 
BRANCH   2   3
ATOM      3  N   UNL     1       0.833   3.442  -4.466  1.00  0.00    -0.354 N 
ATOM      4  C   UNL     1       0.844   4.138  -3.289  1.00  0.00     0.249 C 
ATOM      5  O   UNL     1       0.942   5.367  -3.344  1.00  0.00    -0.272 OA
ATOM      6  H   UNL     1       0.796   3.986  -5.286  1.00  0.00     0.163 HD
BRANCH   4   7
ATOM      7  C   UNL     1       0.672   3.412  -1.939  1.00  0.00     0.207 C 
ATOM      8  C   UNL     1       0.881   1.209  -1.184  1.00  0.00     0.138 C 
ATOM      9  C   UNL     1      -0.588   1.395  -1.551  1.00  0.00     0.037 C 
ATOM     10  O   UNL     1       1.587   2.327  -1.748  1.00  0.00    -0.363 OA
ATOM     11  C   UNL     1      -0.743   2.885  -1.736  1.00  0.00     0.045 C 
BRANCH   8  12
ATOM     12  C   UNL     1       1.486  -0.114  -1.708  1.00  0.00     0.149 C 
BRANCH  12  13
ATOM     13  N   UNL     1       2.682  -0.526  -1.000  1.00  0.00    -0.336 N 
ATOM     14  N   UNL     1       2.256  -2.439   0.359  1.00  0.00    -0.333 N 
ATOM     15  C   UNL     1       3.052  -1.577  -0.274  1.00  0.00     0.315 C 
ATOM     16  H   UNL     1       2.804  -3.146   0.770  1.00  0.00     0.165 HD
ATOM     17  O   UNL     1       4.268  -1.760  -0.144  1.00  0.00    -0.249 OA
ATOM     18  H   UNL     1       3.402   0.141  -1.076  1.00  0.00     0.165 HD
BRANCH  14  19
ATOM     19  C   UNL     1       0.823  -2.696   0.656  1.00  0.00     0.041 C 
BRANCH  19  20
ATOM     20  C   UNL     1      -0.020  -1.409   0.823  1.00  0.00     0.025 C 
ATOM     21  C   UNL     1       0.560  -0.400   1.816  1.00  0.00     0.006 C 
ENDBRANCH  19  20
BRANCH  19  22
ATOM     22  C   UNL     1       0.786  -3.439   2.052  1.00  0.00     0.025 C 
ATOM     23  C   UNL     1      -0.605  -3.621   2.665  1.00  0.00     0.006 C 
ENDBRANCH  19  22
BRANCH  19  24
ATOM     24  C   UNL     1       0.216  -3.697  -0.386  1.00  0.00     0.025 C 
ATOM     25  C   UNL     1       0.782  -3.717  -1.803  1.00  0.00     0.006 C 
ENDBRANCH  19  24
ENDBRANCH  14  19
ENDBRANCH  12  13
ENDBRANCH   8  12
ENDBRANCH   4   7
ENDBRANCH   2   3
ENDBRANCH   1   2
BRANCH   1  26
ATOM     26  C   UNL     1       0.168   0.996  -6.862  1.00  0.00     0.002 C 
BRANCH  26  27
ATOM     27  C   UNL     1       1.175  -0.163  -6.821  1.00  0.00     0.002 C 
BRANCH  27  28
ATOM     28  C   UNL     1       0.671  -1.456  -6.174  1.00  0.00     0.021 C 
BRANCH  28  29
ATOM     29  C   UNL     1      -0.615  -2.009  -6.778  1.00  0.00     0.116 C 
BRANCH  29  30
ATOM     30  N   UNL     1      -0.534  -2.115  -8.227  1.00  0.00    -0.352 N 
ATOM     31  C   UNL     1      -0.766  -3.181  -9.046  1.00  0.00     0.251 C 
ATOM     32  H   UNL     1      -0.272  -1.286  -8.690  1.00  0.00     0.163 HD
ATOM     33  O   UNL     1      -0.433  -3.128 -10.234  1.00  0.00    -0.269 OA
BRANCH  31  34
ATOM     34  C   UNL     1      -1.417  -4.395  -8.524  1.00  0.00     0.039 A 
ATOM     35  C   UNL     1      -0.971  -5.643  -8.966  1.00  0.00     0.014 A 
ATOM     36  C   UNL     1      -2.502  -4.303  -7.647  1.00  0.00     0.014 A 
ATOM     37  C   UNL     1      -1.600  -6.801  -8.511  1.00  0.00     0.010 A 
ATOM     38  C   UNL     1      -3.075  -5.460  -7.131  1.00  0.00     0.010 A 
ATOM     39  C   UNL     1      -2.648  -6.718  -7.580  1.00  0.00    -0.014 A 
BRANCH  39  40
ATOM     40  C   UNL     1      -3.353  -7.934  -7.111  1.00  0.00     0.031 A 
ATOM     41  C   UNL     1      -4.807  -8.127  -7.446  1.00  0.00     0.074 A 
ATOM     42  C   UNL     1      -2.702  -8.835  -6.352  1.00  0.00     0.049 A 
ATOM     43  N   UNL     1      -5.623  -9.082  -7.078  1.00  0.00    -0.248 NA
ATOM     44  C   UNL     1      -5.436  -7.091  -8.281  1.00  0.00     0.031 C 
ATOM     45  C   UNL     1      -1.303  -8.735  -5.934  1.00  0.00     0.029 A 
ATOM     46  N   UNL     1      -3.134 -10.010  -5.792  1.00  0.00    -0.354 N 
ATOM     47  C   UNL     1      -6.858  -8.752  -7.623  1.00  0.00     0.074 A 
ATOM     48  C   UNL     1      -6.702  -7.480  -8.291  1.00  0.00     0.031 C 
ATOM     49  C   UNL     1      -0.985  -9.816  -5.205  1.00  0.00     0.029 A 
ATOM     50  C   UNL     1      -2.165 -10.665  -5.073  1.00  0.00     0.049 A 
ATOM     51  H   UNL     1      -4.052 -10.351  -5.896  1.00  0.00     0.167 HD
ATOM     52  C   UNL     1      -8.011  -9.463  -7.594  1.00  0.00     0.037 A 
ATOM     53  C   UNL     1      -2.229 -11.819  -4.383  1.00  0.00     0.037 A 
ATOM     54  C   UNL     1      -8.149 -10.743  -6.952  1.00  0.00     0.049 A 
ATOM     55  C   UNL     1      -3.525 -12.585  -4.361  1.00  0.00     0.074 A 
ATOM     56  C   UNL     1      -9.259 -11.567  -6.900  1.00  0.00     0.029 A 
ATOM     57  N   UNL     1      -7.139 -11.386  -6.251  1.00  0.00    -0.354 N 
ATOM     58  N   UNL     1      -4.671 -12.293  -4.926  1.00  0.00    -0.248 NA
ATOM     59  C   UNL     1      -3.531 -13.849  -3.612  1.00  0.00     0.031 C 
ATOM     60  C   UNL     1      -8.934 -12.688  -6.128  1.00  0.00     0.029 A 
ATOM     61  C   UNL     1      -7.605 -12.590  -5.749  1.00  0.00     0.049 A 
ATOM     62  H   UNL     1      -6.226 -11.037  -6.128  1.00  0.00     0.167 HD
ATOM     63  C   UNL     1      -5.521 -13.352  -4.637  1.00  0.00     0.074 A 
ATOM     64  C   UNL     1      -4.754 -14.299  -3.854  1.00  0.00     0.031 C 
ATOM     65  C   UNL     1      -6.819 -13.528  -4.989  1.00  0.00     0.037 A 
BRANCH  52  66
ATOM     66  C   UNL     1      -9.209  -8.872  -8.280  1.00  0.00     0.064 A 
ATOM     67  C   UNL     1      -9.271  -8.746  -9.677  1.00  0.00     0.173 A 
ATOM     68  C   UNL     1     -10.323  -8.455  -7.537  1.00  0.00     0.173 A 
ATOM     69  F   UNL     1      -8.228  -9.117 -10.435  1.00  0.00    -0.203 F 
ATOM     70  C   UNL     1     -10.388  -8.195 -10.300  1.00  0.00     0.198 A 
ATOM     71  C   UNL     1     -11.453  -7.937  -8.165  1.00  0.00     0.198 A 
ATOM     72  F   UNL     1     -10.321  -8.556  -6.199  1.00  0.00    -0.203 F 
ATOM     73  F   UNL     1     -10.400  -8.034 -11.630  1.00  0.00    -0.200 F 
ATOM     74  C   UNL     1     -11.481  -7.799  -9.545  1.00  0.00     0.200 A 
ATOM     75  F   UNL     1     -12.514  -7.567  -7.435  1.00  0.00    -0.200 F 
ATOM     76  F   UNL     1     -12.559  -7.277 -10.146  1.00  0.00    -0.200 F 
ENDBRANCH  52  66
BRANCH  53  77
ATOM     77  C   UNL     1      -1.025 -12.336  -3.682  1.00  0.00     0.064 A 
ATOM     78  C   UNL     1      -0.384 -13.504  -4.119  1.00  0.00     0.173 A 
ATOM     79  C   UNL     1      -0.499 -11.688  -2.555  1.00  0.00     0.173 A 
ATOM     80  F   UNL     1      -0.860 -14.171  -5.181  1.00  0.00    -0.203 F 
ATOM     81  C   UNL     1       0.717 -14.020  -3.439  1.00  0.00     0.198 A 
ATOM     82  C   UNL     1       0.622 -12.187  -1.894  1.00  0.00     0.198 A 
ATOM     83  F   UNL     1      -1.069 -10.562  -2.100  1.00  0.00    -0.203 F 
ATOM     84  F   UNL     1       1.275 -15.169  -3.846  1.00  0.00    -0.200 F 
ATOM     85  C   UNL     1       1.222 -13.359  -2.330  1.00  0.00     0.200 A 
ATOM     86  F   UNL     1       1.116 -11.536  -0.832  1.00  0.00    -0.200 F 
ATOM     87  F   UNL     1       2.280 -13.856  -1.675  1.00  0.00    -0.200 F 
ENDBRANCH  53  77
BRANCH  65  88
ATOM     88  C   UNL     1      -7.476 -14.815  -4.581  1.00  0.00     0.064 A 
ATOM     89  C   UNL     1      -7.799 -15.091  -3.245  1.00  0.00     0.173 A 
ATOM     90  C   UNL     1      -7.822 -15.768  -5.552  1.00  0.00     0.173 A 
ATOM     91  F   UNL     1      -7.477 -14.218  -2.278  1.00  0.00    -0.203 F 
ATOM     92  C   UNL     1      -8.417 -16.287  -2.892  1.00  0.00     0.198 A 
ATOM     93  C   UNL     1      -8.471 -16.947  -5.199  1.00  0.00     0.198 A 
ATOM     94  F   UNL     1      -7.543 -15.549  -6.845  1.00  0.00    -0.203 F 
ATOM     95  F   UNL     1      -8.669 -16.553  -1.602  1.00  0.00    -0.200 F 
ATOM     96  C   UNL     1      -8.760 -17.210  -3.869  1.00  0.00     0.200 A 
ATOM     97  F   UNL     1      -8.816 -17.829  -6.147  1.00  0.00    -0.200 F 
ATOM     98  F   UNL     1      -9.363 -18.357  -3.527  1.00  0.00    -0.200 F 
ENDBRANCH  65  88
ENDBRANCH  39  40
ENDBRANCH  31  34
ENDBRANCH  29  30
ENDBRANCH  28  29
ENDBRANCH  27  28
ENDBRANCH  26  27
ENDBRANCH   1  26
TORSDOF 19
