REMARK SMILES O=C(NCCCCCCNC(=O)c1cc(-c2cc(Cl)ccc2Cl)cc([N+](=O)[O-])c1)c1ccc(-c2c3nc(c(-c4c(F)c(F)c(F)c(F)c4F)c4ccc([nH]4)c(-c4c(F)c(F)c(F)c(F)c4F)c4nc(c(-c5c(F)c(F)c(F)c(F)c5F)c5ccc2[nH]5)C=C4)C=C3)cc1
REMARK SMILES IDX 6 1 5 2 4 3 3 4 1 5 2 6 30 8 31 9 92 10 32 11 91 12 33 13
REMARK SMILES IDX 34 14 35 15 85 16 36 17 90 18 84 19 86 20 37 21 89 22 83 23
REMARK SMILES IDX 82 24 38 26 70 27 50 28 69 29 51 30 54 31 68 32 87 33 52 34
REMARK SMILES IDX 53 35 67 37 88 38 55 39 39 40 40 41 48 42 41 43 42 44 46 45
REMARK SMILES IDX 49 46 43 47 44 48 47 49 45 50 71 51 72 52 80 53 73 54 74 55
REMARK SMILES IDX 78 56 81 57 75 58 76 59 79 60 77 61 56 62 57 63 65 64 58 65
REMARK SMILES IDX 59 66 63 67 66 68 60 69 61 70 64 71 62 72 7 73 8 74 9 75
REMARK SMILES IDX 10 76 11 77 12 79 13 80 14 81 29 82 15 83 25 84 24 85 16 86
REMARK SMILES IDX 17 87 22 88 18 89 21 90 23 91 19 92 20 93 26 94 27 95 28 96
REMARK H PARENT 3 7 86 25 54 36 10 78
REMARK Flexibility Score: inf
ROOT
ATOM      1  C   UNL     1       4.074  -2.998  -2.487  1.00  0.00     0.002 C 
ENDROOT
BRANCH   1   2
ATOM      2  C   UNL     1       4.533  -2.430  -1.145  1.00  0.00     0.021 C 
BRANCH   2   3
ATOM      3  C   UNL     1       4.316  -0.934  -0.964  1.00  0.00     0.116 C 
BRANCH   3   4
ATOM      4  N   UNL     1       2.912  -0.557  -0.955  1.00  0.00    -0.352 N 
ATOM      5  O   UNL     1       1.000   0.310  -0.119  1.00  0.00    -0.269 OA
ATOM      6  C   UNL     1       2.221   0.192  -0.034  1.00  0.00     0.251 C 
ATOM      7  H   UNL     1       2.381  -0.885  -1.717  1.00  0.00     0.163 HD
BRANCH   6   8
ATOM      8  C   UNL     1       2.945   0.831   1.086  1.00  0.00     0.039 A 
ATOM      9  C   UNL     1       4.144   1.511   0.864  1.00  0.00     0.014 A 
ATOM     10  C   UNL     1       2.425   0.732   2.379  1.00  0.00     0.014 A 
ATOM     11  C   UNL     1       4.901   1.943   1.947  1.00  0.00     0.010 A 
ATOM     12  C   UNL     1       3.144   1.251   3.460  1.00  0.00     0.010 A 
ATOM     13  C   UNL     1       4.409   1.824   3.257  1.00  0.00    -0.014 A 
BRANCH  13  14
ATOM     14  C   UNL     1       5.226   2.339   4.387  1.00  0.00     0.031 A 
ATOM     15  C   UNL     1       5.771   1.416   5.441  1.00  0.00     0.074 A 
ATOM     16  C   UNL     1       5.511   3.655   4.430  1.00  0.00     0.049 A 
ATOM     17  N   UNL     1       6.545   1.695   6.462  1.00  0.00    -0.248 NA
ATOM     18  C   UNL     1       5.395  -0.002   5.348  1.00  0.00     0.031 C 
ATOM     19  C   UNL     1       5.027   4.651   3.472  1.00  0.00     0.029 A 
ATOM     20  N   UNL     1       6.295   4.378   5.292  1.00  0.00    -0.354 N 
ATOM     21  C   UNL     1       6.725   0.498   7.143  1.00  0.00     0.074 A 
ATOM     22  C   UNL     1       5.963  -0.508   6.434  1.00  0.00     0.031 C 
ATOM     23  C   UNL     1       5.572   5.841   3.761  1.00  0.00     0.029 A 
ATOM     24  C   UNL     1       6.393   5.706   4.958  1.00  0.00     0.049 A 
ATOM     25  H   UNL     1       6.745   3.983   6.074  1.00  0.00     0.167 HD
ATOM     26  C   UNL     1       7.466   0.261   8.254  1.00  0.00     0.037 A 
ATOM     27  C   UNL     1       7.066   6.708   5.553  1.00  0.00     0.037 A 
ATOM     28  C   UNL     1       8.245   1.260   8.940  1.00  0.00     0.049 A 
ATOM     29  C   UNL     1       7.873   6.415   6.785  1.00  0.00     0.074 A 
ATOM     30  C   UNL     1       9.070   1.107  10.041  1.00  0.00     0.029 A 
ATOM     31  N   UNL     1       8.294   2.603   8.591  1.00  0.00    -0.354 N 
ATOM     32  N   UNL     1       8.072   5.271   7.391  1.00  0.00    -0.248 NA
ATOM     33  C   UNL     1       8.548   7.557   7.416  1.00  0.00     0.031 C 
ATOM     34  C   UNL     1       9.579   2.363  10.388  1.00  0.00     0.029 A 
ATOM     35  C   UNL     1       9.114   3.292   9.472  1.00  0.00     0.049 A 
ATOM     36  H   UNL     1       7.816   3.006   7.831  1.00  0.00     0.167 HD
ATOM     37  C   UNL     1       8.910   5.548   8.461  1.00  0.00     0.074 A 
ATOM     38  C   UNL     1       9.198   6.967   8.408  1.00  0.00     0.031 C 
ATOM     39  C   UNL     1       9.395   4.704   9.404  1.00  0.00     0.037 A 
BRANCH  26  40
ATOM     40  C   UNL     1       7.455  -1.132   8.817  1.00  0.00     0.064 A 
ATOM     41  C   UNL     1       8.104  -2.197   8.174  1.00  0.00     0.173 A 
ATOM     42  C   UNL     1       6.824  -1.395  10.043  1.00  0.00     0.173 A 
ATOM     43  F   UNL     1       8.714  -2.003   6.995  1.00  0.00    -0.203 F 
ATOM     44  C   UNL     1       8.099  -3.477   8.725  1.00  0.00     0.198 A 
ATOM     45  C   UNL     1       6.845  -2.669  10.604  1.00  0.00     0.198 A 
ATOM     46  F   UNL     1       6.195  -0.411  10.704  1.00  0.00    -0.203 F 
ATOM     47  F   UNL     1       8.688  -4.488   8.071  1.00  0.00    -0.200 F 
ATOM     48  C   UNL     1       7.476  -3.710   9.942  1.00  0.00     0.200 A 
ATOM     49  F   UNL     1       6.254  -2.889  11.787  1.00  0.00    -0.200 F 
ATOM     50  F   UNL     1       7.479  -4.941  10.473  1.00  0.00    -0.200 F 
ENDBRANCH  26  40
BRANCH  27  51
ATOM     51  C   UNL     1       7.013   8.076   4.977  1.00  0.00     0.064 A 
ATOM     52  C   UNL     1       8.146   8.650   4.384  1.00  0.00     0.173 A 
ATOM     53  C   UNL     1       5.831   8.830   4.995  1.00  0.00     0.173 A 
ATOM     54  F   UNL     1       9.304   7.974   4.359  1.00  0.00    -0.203 F 
ATOM     55  C   UNL     1       8.101   9.932   3.842  1.00  0.00     0.198 A 
ATOM     56  C   UNL     1       5.779  10.100   4.426  1.00  0.00     0.198 A 
ATOM     57  F   UNL     1       4.719   8.322   5.546  1.00  0.00    -0.203 F 
ATOM     58  F   UNL     1       9.208  10.473   3.316  1.00  0.00    -0.200 F 
ATOM     59  C   UNL     1       6.916  10.653   3.857  1.00  0.00     0.200 A 
ATOM     60  F   UNL     1       4.628  10.786   4.427  1.00  0.00    -0.200 F 
ATOM     61  F   UNL     1       6.872  11.883   3.327  1.00  0.00    -0.200 F 
ENDBRANCH  27  51
BRANCH  39  62
ATOM     62  C   UNL     1      10.318   5.290  10.432  1.00  0.00     0.064 A 
ATOM     63  C   UNL     1       9.848   6.143  11.442  1.00  0.00     0.173 A 
ATOM     64  C   UNL     1      11.686   4.982  10.414  1.00  0.00     0.173 A 
ATOM     65  F   UNL     1       8.551   6.482  11.490  1.00  0.00    -0.203 F 
ATOM     66  C   UNL     1      10.721   6.693  12.376  1.00  0.00     0.198 A 
ATOM     67  C   UNL     1      12.551   5.509  11.369  1.00  0.00     0.198 A 
ATOM     68  F   UNL     1      12.184   4.167   9.473  1.00  0.00    -0.203 F 
ATOM     69  F   UNL     1      10.261   7.550  13.297  1.00  0.00    -0.200 F 
ATOM     70  C   UNL     1      12.070   6.371  12.343  1.00  0.00     0.200 A 
ATOM     71  F   UNL     1      13.852   5.189  11.341  1.00  0.00    -0.200 F 
ATOM     72  F   UNL     1      12.909   6.902  13.243  1.00  0.00    -0.200 F 
ENDBRANCH  39  62
ENDBRANCH  13  14
ENDBRANCH   6   8
ENDBRANCH   3   4
ENDBRANCH   2   3
ENDBRANCH   1   2
BRANCH   1  73
ATOM     73  C   UNL     1       4.635  -2.301  -3.729  1.00  0.00     0.002 C 
BRANCH  73  74
ATOM     74  C   UNL     1       6.158  -2.148  -3.783  1.00  0.00     0.021 C 
BRANCH  74  75
ATOM     75  C   UNL     1       6.954  -3.439  -3.615  1.00  0.00     0.116 C 
BRANCH  75  76
ATOM     76  N   UNL     1       6.671  -4.400  -4.667  1.00  0.00    -0.352 N 
ATOM     77  C   UNL     1       7.530  -5.089  -5.479  1.00  0.00     0.251 C 
ATOM     78  H   UNL     1       5.716  -4.583  -4.818  1.00  0.00     0.163 HD
ATOM     79  O   UNL     1       7.093  -5.731  -6.432  1.00  0.00    -0.269 OA
BRANCH  77  80
ATOM     80  C   UNL     1       8.988  -5.061  -5.234  1.00  0.00     0.047 A 
ATOM     81  C   UNL     1       9.843  -4.934  -6.337  1.00  0.00     0.023 A 
ATOM     82  C   UNL     1       9.515  -5.241  -3.955  1.00  0.00     0.099 A 
ATOM     83  C   UNL     1      11.239  -4.939  -6.175  1.00  0.00    -0.009 A 
ATOM     84  C   UNL     1      10.900  -5.193  -3.777  1.00  0.00     0.270 A 
ATOM     85  C   UNL     1      11.760  -5.026  -4.873  1.00  0.00     0.094 A 
BRANCH  83  86
ATOM     86  C   UNL     1      12.122  -4.916  -7.355  1.00  0.00     0.002 A 
ATOM     87  C   UNL     1      12.110  -3.800  -8.213  1.00  0.00     0.030 A 
ATOM     88  C   UNL     1      12.956  -6.003  -7.698  1.00  0.00     0.048 A 
ATOM     89  C   UNL     1      12.897  -3.776  -9.367  1.00  0.00     0.041 A 
ATOM     90  C   UNL     1      13.746  -5.968  -8.852  1.00  0.00     0.023 A 
ATOM     91  Cl  UNL     1      13.016  -7.453  -6.752  1.00  0.00    -0.084 Cl
ATOM     92  Cl  UNL     1      12.845  -2.408 -10.409  1.00  0.00    -0.084 Cl
ATOM     93  C   UNL     1      13.714  -4.855  -9.690  1.00  0.00     0.022 A 
ENDBRANCH  83  86
BRANCH  84  94
ATOM     94  N   UNL     1      11.457  -5.330  -2.426  1.00  0.00     0.062 N 
ATOM     95  O   UNL     1      12.689  -5.312  -2.304  1.00  0.00    -0.258 OA
ATOM     96  O   UNL     1      10.657  -5.437  -1.486  1.00  0.00    -0.258 OA
ENDBRANCH  84  94
ENDBRANCH  77  80
ENDBRANCH  75  76
ENDBRANCH  74  75
ENDBRANCH  73  74
ENDBRANCH   1  73
TORSDOF 15
