REMARK SMILES O=C(CCCCCN1C(=O)/C(=C/c2cccc(O)c2)SC1=S)NCCCCCCNC(=O)c1ccc(-c2c3nc(c(-c4c(F)c(F)c(F)c(F)c4F)c4ccc([nH]4)c(-c4c(F)c(F)c(F)c(F)c4F)c4nc(c(-c5c(F)c(F)c(F)c(F)c5F)c5ccc2[nH]5)C=C4)C=C3)cc1
REMARK SMILES IDX 24 1 23 2 1 3 2 4 3 6 4 7 5 8 6 9 7 10 8 11 9 12 21 13 10 14
REMARK SMILES IDX 11 15 20 16 22 17 12 18 13 19 14 20 19 21 15 22 17 23 16 24
REMARK SMILES IDX 18 25 25 27 26 28 27 29 28 30 29 31 30 32 31 33 32 35 33 36
REMARK SMILES IDX 34 37 95 38 35 39 94 40 36 41 37 42 38 43 88 44 39 45 93 46
REMARK SMILES IDX 87 47 89 48 40 49 92 50 86 51 85 52 41 54 73 55 53 56 72 57
REMARK SMILES IDX 54 58 57 59 71 60 90 61 55 62 56 63 70 65 91 66 58 67 42 68
REMARK SMILES IDX 43 69 51 70 44 71 45 72 49 73 52 74 46 75 47 76 50 77 48 78
REMARK SMILES IDX 74 79 75 80 83 81 76 82 77 83 81 84 84 85 78 86 79 87 82 88
REMARK SMILES IDX 80 89 59 90 60 91 68 92 61 93 62 94 66 95 69 96 63 97 64 98
REMARK SMILES IDX 67 99 65 100
REMARK H PARENT 23 5 18 26 30 34 89 53 57 64
REMARK Flexibility Score: inf
ROOT
ATOM      1  C   UNL     1       1.966   1.488  -1.973  1.00  0.00     0.116 C 
ENDROOT
BRANCH   1   2
ATOM      2  N   UNL     1       2.559   0.857  -0.817  1.00  0.00    -0.356 N 
ATOM      3  O   UNL     1       0.675  -0.217  -0.066  1.00  0.00    -0.275 OA
ATOM      4  C   UNL     1       1.870   0.032   0.036  1.00  0.00     0.219 C 
ATOM      5  H   UNL     1       3.510   1.027  -0.630  1.00  0.00     0.163 HD
BRANCH   4   6
ATOM      6  C   UNL     1       2.736  -0.545   1.136  1.00  0.00     0.100 C 
BRANCH   6   7
ATOM      7  C   UNL     1       3.632  -1.685   0.651  1.00  0.00     0.010 C 
BRANCH   7   8
ATOM      8  C   UNL     1       4.841  -1.304  -0.215  1.00  0.00     0.002 C 
BRANCH   8   9
ATOM      9  C   UNL     1       5.823  -0.297   0.397  1.00  0.00     0.022 C 
BRANCH   9  10
ATOM     10  C   UNL     1       6.644  -0.823   1.587  1.00  0.00     0.127 C 
BRANCH  10  11
ATOM     11  N   UNL     1       7.487  -1.963   1.224  1.00  0.00    -0.293 N 
ATOM     12  C   UNL     1       8.577  -1.737   0.394  1.00  0.00     0.266 C 
ATOM     13  C   UNL     1       7.301  -3.263   1.649  1.00  0.00     0.148 C 
ATOM     14  O   UNL     1       8.966  -0.650  -0.004  1.00  0.00    -0.268 OA
ATOM     15  C   UNL     1       9.211  -3.027   0.019  1.00  0.00     0.081 C 
ATOM     16  S   UNL     1       8.436  -4.325   0.833  1.00  0.00    -0.054 SA
ATOM     17  S   UNL     1       6.206  -3.850   2.761  1.00  0.00    -0.052 S 
ATOM     18  C   UNL     1      10.216  -3.098  -0.864  1.00  0.00     0.029 C 
BRANCH  18  19
ATOM     19  C   UNL     1      10.803  -4.351  -1.345  1.00  0.00    -0.021 A 
ATOM     20  C   UNL     1      10.069  -5.189  -2.197  1.00  0.00     0.008 A 
ATOM     21  C   UNL     1      12.087  -4.728  -0.947  1.00  0.00     0.054 A 
ATOM     22  C   UNL     1      10.605  -6.404  -2.625  1.00  0.00     0.004 A 
ATOM     23  C   UNL     1      12.612  -5.942  -1.381  1.00  0.00     0.116 A 
ATOM     24  C   UNL     1      11.881  -6.786  -2.213  1.00  0.00     0.046 A 
BRANCH  23  25
ATOM     25  O   UNL     1      13.865  -6.279  -0.958  1.00  0.00    -0.508 OA
ATOM     26  H   UNL     1      14.249  -7.088  -1.231  1.00  0.00     0.293 HD
ENDBRANCH  23  25
ENDBRANCH  18  19
ENDBRANCH  10  11
ENDBRANCH   9  10
ENDBRANCH   8   9
ENDBRANCH   7   8
ENDBRANCH   6   7
ENDBRANCH   4   6
ENDBRANCH   1   2
BRANCH   1  27
ATOM     27  C   UNL     1       2.568   2.874  -2.197  1.00  0.00     0.021 C 
BRANCH  27  28
ATOM     28  C   UNL     1       4.083   2.884  -2.457  1.00  0.00     0.002 C 
BRANCH  28  29
ATOM     29  C   UNL     1       4.541   2.115  -3.699  1.00  0.00     0.002 C 
BRANCH  29  30
ATOM     30  C   UNL     1       3.900   2.568  -5.011  1.00  0.00     0.021 C 
BRANCH  30  31
ATOM     31  C   UNL     1       4.049   4.055  -5.316  1.00  0.00     0.116 C 
BRANCH  31  32
ATOM     32  N   UNL     1       5.435   4.449  -5.519  1.00  0.00    -0.352 N 
ATOM     33  C   UNL     1       5.991   5.159  -6.556  1.00  0.00     0.251 C 
ATOM     34  H   UNL     1       6.062   4.168  -4.814  1.00  0.00     0.163 HD
ATOM     35  O   UNL     1       7.208   5.271  -6.651  1.00  0.00    -0.269 OA
BRANCH  33  36
ATOM     36  C   UNL     1       5.113   5.761  -7.582  1.00  0.00     0.039 A 
ATOM     37  C   UNL     1       5.428   5.578  -8.931  1.00  0.00     0.014 A 
ATOM     38  C   UNL     1       3.973   6.482  -7.217  1.00  0.00     0.014 A 
ATOM     39  C   UNL     1       4.557   6.051  -9.914  1.00  0.00     0.010 A 
ATOM     40  C   UNL     1       3.068   6.886  -8.195  1.00  0.00     0.010 A 
ATOM     41  C   UNL     1       3.348   6.669  -9.553  1.00  0.00    -0.014 A 
BRANCH  41  42
ATOM     42  C   UNL     1       2.352   7.070 -10.580  1.00  0.00     0.031 A 
ATOM     43  C   UNL     1       1.981   8.514 -10.756  1.00  0.00     0.074 A 
ATOM     44  C   UNL     1       1.724   6.121 -11.302  1.00  0.00     0.049 A 
ATOM     45  N   UNL     1       1.079   9.049 -11.541  1.00  0.00    -0.248 NA
ATOM     46  C   UNL     1       2.700   9.486  -9.918  1.00  0.00     0.031 C 
ATOM     47  C   UNL     1       1.957   4.680 -11.186  1.00  0.00     0.029 A 
ATOM     48  N   UNL     1       0.748   6.223 -12.262  1.00  0.00    -0.354 N 
ATOM     49  C   UNL     1       1.117  10.413 -11.284  1.00  0.00     0.074 A 
ATOM     50  C   UNL     1       2.087  10.618 -10.231  1.00  0.00     0.031 C 
ATOM     51  C   UNL     1       1.158   4.035 -12.050  1.00  0.00     0.029 A 
ATOM     52  C   UNL     1       0.325   5.010 -12.748  1.00  0.00     0.049 A 
ATOM     53  H   UNL     1       0.386   7.084 -12.573  1.00  0.00     0.167 HD
ATOM     54  C   UNL     1       0.421  11.406 -11.889  1.00  0.00     0.037 A 
ATOM     55  C   UNL     1      -0.638   4.713 -13.641  1.00  0.00     0.037 A 
ATOM     56  C   UNL     1      -0.537  11.197 -12.944  1.00  0.00     0.049 A 
ATOM     57  C   UNL     1      -1.413   5.831 -14.284  1.00  0.00     0.074 A 
ATOM     58  C   UNL     1      -1.248  12.141 -13.663  1.00  0.00     0.029 A 
ATOM     59  N   UNL     1      -0.928   9.954 -13.421  1.00  0.00    -0.354 N 
ATOM     60  N   UNL     1      -1.313   7.124 -14.092  1.00  0.00    -0.248 NA
ATOM     61  C   UNL     1      -2.431   5.450 -15.273  1.00  0.00     0.031 C 
ATOM     62  C   UNL     1      -2.114  11.469 -14.532  1.00  0.00     0.029 A 
ATOM     63  C   UNL     1      -1.896  10.107 -14.402  1.00  0.00     0.049 A 
ATOM     64  H   UNL     1      -0.571   9.091 -13.110  1.00  0.00     0.167 HD
ATOM     65  C   UNL     1      -2.234   7.711 -14.949  1.00  0.00     0.074 A 
ATOM     66  C   UNL     1      -2.872   6.633 -15.676  1.00  0.00     0.031 C 
ATOM     67  C   UNL     1      -2.526   9.024 -15.117  1.00  0.00     0.037 A 
BRANCH  54  68
ATOM     68  C   UNL     1       0.668  12.812 -11.417  1.00  0.00     0.064 A 
ATOM     69  C   UNL     1       1.894  13.460 -11.634  1.00  0.00     0.173 A 
ATOM     70  C   UNL     1      -0.343  13.530 -10.759  1.00  0.00     0.173 A 
ATOM     71  F   UNL     1       2.898  12.817 -12.250  1.00  0.00    -0.203 F 
ATOM     72  C   UNL     1       2.113  14.757 -11.175  1.00  0.00     0.198 A 
ATOM     73  C   UNL     1      -0.133  14.840 -10.334  1.00  0.00     0.198 A 
ATOM     74  F   UNL     1      -1.538  12.964 -10.532  1.00  0.00    -0.203 F 
ATOM     75  F   UNL     1       3.312  15.330 -11.341  1.00  0.00    -0.200 F 
ATOM     76  C   UNL     1       1.097  15.447 -10.532  1.00  0.00     0.200 A 
ATOM     77  F   UNL     1      -1.121  15.512  -9.727  1.00  0.00    -0.200 F 
ATOM     78  F   UNL     1       1.308  16.697 -10.095  1.00  0.00    -0.200 F 
ENDBRANCH  54  68
BRANCH  55  79
ATOM     79  C   UNL     1      -0.918   3.293 -13.980  1.00  0.00     0.064 A 
ATOM     80  C   UNL     1      -0.613   2.777 -15.248  1.00  0.00     0.173 A 
ATOM     81  C   UNL     1      -1.489   2.420 -13.042  1.00  0.00     0.173 A 
ATOM     82  F   UNL     1      -0.085   3.577 -16.186  1.00  0.00    -0.203 F 
ATOM     83  C   UNL     1      -0.884   1.449 -15.569  1.00  0.00     0.198 A 
ATOM     84  C   UNL     1      -1.730   1.084 -13.354  1.00  0.00     0.198 A 
ATOM     85  F   UNL     1      -1.794   2.861 -11.813  1.00  0.00    -0.203 F 
ATOM     86  F   UNL     1      -0.624   0.994 -16.802  1.00  0.00    -0.200 F 
ATOM     87  C   UNL     1      -1.436   0.601 -14.620  1.00  0.00     0.200 A 
ATOM     88  F   UNL     1      -2.247   0.264 -12.428  1.00  0.00    -0.200 F 
ATOM     89  F   UNL     1      -1.688  -0.678 -14.927  1.00  0.00    -0.200 F 
ENDBRANCH  55  79
BRANCH  67  90
ATOM     90  C   UNL     1      -3.564   9.375 -16.145  1.00  0.00     0.064 A 
ATOM     91  C   UNL     1      -4.923   9.093 -15.948  1.00  0.00     0.173 A 
ATOM     92  C   UNL     1      -3.198  10.044 -17.324  1.00  0.00     0.173 A 
ATOM     93  F   UNL     1      -5.325   8.442 -14.845  1.00  0.00    -0.203 F 
ATOM     94  C   UNL     1      -5.874   9.446 -16.902  1.00  0.00     0.198 A 
ATOM     95  C   UNL     1      -4.155  10.425 -18.260  1.00  0.00     0.198 A 
ATOM     96  F   UNL     1      -1.911  10.343 -17.561  1.00  0.00    -0.203 F 
ATOM     97  F   UNL     1      -7.162   9.123 -16.714  1.00  0.00    -0.200 F 
ATOM     98  C   UNL     1      -5.491  10.119 -18.052  1.00  0.00     0.200 A 
ATOM     99  F   UNL     1      -3.784  11.089 -19.364  1.00  0.00    -0.200 F 
ATOM    100  F   UNL     1      -6.409  10.468 -18.964  1.00  0.00    -0.200 F 
ENDBRANCH  67  90
ENDBRANCH  41  42
ENDBRANCH  33  36
ENDBRANCH  31  32
ENDBRANCH  30  31
ENDBRANCH  29  30
ENDBRANCH  28  29
ENDBRANCH  27  28
ENDBRANCH   1  27
TORSDOF 20
