REMARK SMILES COc1ccc(-c2c(C(=O)NCCCCCCNC(=O)c3ccc(-c4c5nc(c(-c6c(F)c(F)c(F)c(F)c6F)c6ccc([nH]6)c(-c6c(F)c(F)c(F)c(F)c6F)c6nc(c(-c7c(F)c(F)c(F)c(F)c7F)c7ccc4[nH]7)C=C6)C=C5)cc3)sc3c2N=C(O)C[C@H]3c2ccc(OC)c(OC)c2)cc1
REMARK SMILES IDX 14 1 13 2 12 3 11 4 9 5 10 6 8 8 7 9 86 10 84 11 85 12 87 13
REMARK SMILES IDX 91 14 88 15 90 16 6 17 3 18 4 19 103 20 5 21 102 22 2 23
REMARK SMILES IDX 1 24 92 25 93 26 101 27 94 28 98 29 95 30 99 31 100 32 96 33
REMARK SMILES IDX 97 34 89 35 15 37 16 38 17 39 18 40 19 41 20 43 21 44 22 45
REMARK SMILES IDX 83 46 23 47 82 48 24 49 25 50 26 51 76 52 27 53 81 54 75 55
REMARK SMILES IDX 77 56 28 57 80 58 74 59 73 60 29 62 61 63 41 64 60 65 42 66
REMARK SMILES IDX 45 67 59 68 78 69 43 70 44 71 58 73 79 74 46 75 30 76 31 77
REMARK SMILES IDX 39 78 32 79 33 80 37 81 40 82 34 83 35 84 38 85 36 86 62 87
REMARK SMILES IDX 63 88 71 89 64 90 65 91 69 92 72 93 66 94 67 95 70 96 68 97
REMARK SMILES IDX 47 98 48 99 56 100 49 101 50 102 54 103 57 104 51 105 52 106
REMARK SMILES IDX 55 107 53 108
REMARK H PARENT 11 7 89 36 18 42 77 61 45 72
REMARK Flexibility Score: inf
ROOT
ATOM      1  C   UNL     1      -1.201   3.804   0.886  1.00  0.00     0.002 C 
ENDROOT
BRANCH   1   2
ATOM      2  C   UNL     1       0.165   3.889   0.213  1.00  0.00     0.021 C 
BRANCH   2   3
ATOM      3  C   UNL     1       0.241   4.366  -1.230  1.00  0.00     0.116 C 
BRANCH   3   4
ATOM      4  N   UNL     1       0.234   5.774  -1.492  1.00  0.00    -0.351 N 
ATOM      5  C   UNL     1       0.870   6.505  -2.482  1.00  0.00     0.262 C 
ATOM      6  O   UNL     1       0.572   7.707  -2.430  1.00  0.00    -0.268 OA
ATOM      7  H   UNL     1      -0.309   6.309  -0.868  1.00  0.00     0.163 HD
BRANCH   5   8
ATOM      8  C   UNL     1       1.825   5.983  -3.495  1.00  0.00     0.102 A 
ATOM      9  C   UNL     1       2.232   4.759  -4.048  1.00  0.00     0.031 A 
ATOM     10  C   UNL     1       3.250   4.912  -5.041  1.00  0.00     0.090 A 
ATOM     11  S   UNL     1       2.783   7.264  -4.256  1.00  0.00    -0.131 S 
ATOM     12  C   UNL     1       3.683   6.188  -5.201  1.00  0.00     0.040 A 
ATOM     13  N   UNL     1       3.802   3.811  -5.709  1.00  0.00    -0.216 NA
ATOM     14  C   UNL     1       4.828   6.575  -6.070  1.00  0.00     0.071 C 
ATOM     15  C   UNL     1       4.885   4.043  -6.365  1.00  0.00     0.186 C 
ATOM     16  C   UNL     1       5.644   5.338  -6.484  1.00  0.00     0.111 C 
BRANCH   9  17
ATOM     17  C   UNL     1       1.901   3.423  -3.595  1.00  0.00    -0.014 A 
ATOM     18  C   UNL     1       1.375   0.906  -2.534  1.00  0.00     0.118 A 
ATOM     19  C   UNL     1       0.470   1.501  -3.422  1.00  0.00     0.047 A 
ATOM     20  C   UNL     1       2.598   1.517  -2.268  1.00  0.00     0.047 A 
ATOM     21  C   UNL     1       0.729   2.765  -3.960  1.00  0.00     0.012 A 
ATOM     22  C   UNL     1       2.862   2.770  -2.802  1.00  0.00     0.012 A 
BRANCH  18  23
ATOM     23  O   UNL     1       0.973  -0.271  -1.963  1.00  0.00    -0.497 OA
ATOM     24  C   UNL     1       1.541  -0.513  -0.679  1.00  0.00     0.278 C 
ENDBRANCH  18  23
ENDBRANCH   9  17
BRANCH  14  25
ATOM     25  C   UNL     1       4.416   7.381  -7.286  1.00  0.00    -0.035 A 
ATOM     26  C   UNL     1       3.466   6.920  -8.199  1.00  0.00     0.008 A 
ATOM     27  C   UNL     1       5.038   8.619  -7.518  1.00  0.00     0.054 A 
ATOM     28  C   UNL     1       3.155   7.688  -9.319  1.00  0.00     0.051 A 
ATOM     29  C   UNL     1       4.743   9.396  -8.647  1.00  0.00     0.161 A 
ATOM     30  C   UNL     1       3.782   8.921  -9.557  1.00  0.00     0.160 A 
BRANCH  29  31
ATOM     31  O   UNL     1       5.370  10.586  -8.902  1.00  0.00    -0.493 OA
ATOM     32  C   UNL     1       6.349  11.043  -7.977  1.00  0.00     0.278 C 
ENDBRANCH  29  31
BRANCH  30  33
ATOM     33  O   UNL     1       3.346   9.500 -10.720  1.00  0.00    -0.493 OA
ATOM     34  C   UNL     1       3.750  10.829 -11.010  1.00  0.00     0.278 C 
ENDBRANCH  30  33
ENDBRANCH  14  25
BRANCH  15  35
ATOM     35  O   UNL     1       5.481   2.999  -6.977  1.00  0.00    -0.496 OA
ATOM     36  H   UNL     1       5.080   2.152  -6.955  1.00  0.00     0.294 HD
ENDBRANCH  15  35
ENDBRANCH   5   8
ENDBRANCH   3   4
ENDBRANCH   2   3
ENDBRANCH   1   2
BRANCH   1  37
ATOM     37  C   UNL     1      -2.346   3.095   0.149  1.00  0.00     0.002 C 
BRANCH  37  38
ATOM     38  C   UNL     1      -2.101   1.698  -0.437  1.00  0.00     0.021 C 
BRANCH  38  39
ATOM     39  C   UNL     1      -1.607   0.636   0.534  1.00  0.00     0.116 C 
BRANCH  39  40
ATOM     40  N   UNL     1      -2.579   0.235   1.542  1.00  0.00    -0.352 N 
ATOM     41  C   UNL     1      -2.457  -0.772   2.486  1.00  0.00     0.251 C 
ATOM     42  H   UNL     1      -3.424   0.740   1.555  1.00  0.00     0.163 HD
ATOM     43  O   UNL     1      -3.443  -1.241   3.031  1.00  0.00    -0.269 OA
BRANCH  41  44
ATOM     44  C   UNL     1      -1.112  -1.292   2.825  1.00  0.00     0.039 A 
ATOM     45  C   UNL     1      -0.911  -2.654   3.076  1.00  0.00     0.014 A 
ATOM     46  C   UNL     1      -0.042  -0.406   2.904  1.00  0.00     0.014 A 
ATOM     47  C   UNL     1       0.382  -3.122   3.321  1.00  0.00     0.010 A 
ATOM     48  C   UNL     1       1.246  -0.884   3.015  1.00  0.00     0.010 A 
ATOM     49  C   UNL     1       1.469  -2.235   3.265  1.00  0.00    -0.014 A 
BRANCH  49  50
ATOM     50  C   UNL     1       2.846  -2.732   3.361  1.00  0.00     0.031 A 
ATOM     51  C   UNL     1       3.195  -3.853   2.437  1.00  0.00     0.074 A 
ATOM     52  C   UNL     1       3.819  -2.102   4.058  1.00  0.00     0.049 A 
ATOM     53  N   UNL     1       3.619  -5.036   2.741  1.00  0.00    -0.248 NA
ATOM     54  C   UNL     1       2.974  -3.663   0.997  1.00  0.00     0.031 C 
ATOM     55  C   UNL     1       3.742  -0.833   4.792  1.00  0.00     0.029 A 
ATOM     56  N   UNL     1       5.142  -2.420   4.160  1.00  0.00    -0.354 N 
ATOM     57  C   UNL     1       3.867  -5.691   1.534  1.00  0.00     0.074 A 
ATOM     58  C   UNL     1       3.327  -4.849   0.500  1.00  0.00     0.031 C 
ATOM     59  C   UNL     1       4.987  -0.377   5.045  1.00  0.00     0.029 A 
ATOM     60  C   UNL     1       5.942  -1.396   4.655  1.00  0.00     0.049 A 
ATOM     61  H   UNL     1       5.500  -3.300   3.903  1.00  0.00     0.167 HD
ATOM     62  C   UNL     1       4.684  -6.779   1.472  1.00  0.00     0.037 A 
ATOM     63  C   UNL     1       7.296  -1.375   4.723  1.00  0.00     0.037 A 
ATOM     64  C   UNL     1       4.867  -7.360   2.778  1.00  0.00     0.049 A 
ATOM     65  C   UNL     1       7.761  -2.780   4.659  1.00  0.00     0.074 A 
ATOM     66  C   UNL     1       4.020  -7.901   3.726  1.00  0.00     0.029 A 
ATOM     67  N   UNL     1       6.044  -7.111   3.438  1.00  0.00    -0.354 N 
ATOM     68  N   UNL     1       7.560  -3.655   5.604  1.00  0.00    -0.248 NA
ATOM     69  C   UNL     1       8.080  -3.332   3.352  1.00  0.00     0.031 C 
ATOM     70  C   UNL     1       4.550  -7.468   4.979  1.00  0.00     0.029 A 
ATOM     71  C   UNL     1       5.719  -6.753   4.719  1.00  0.00     0.049 A 
ATOM     72  H   UNL     1       6.951  -7.177   3.061  1.00  0.00     0.167 HD
ATOM     73  C   UNL     1       7.276  -4.831   4.930  1.00  0.00     0.074 A 
ATOM     74  C   UNL     1       7.718  -4.600   3.557  1.00  0.00     0.031 C 
ATOM     75  C   UNL     1       6.451  -5.770   5.479  1.00  0.00     0.037 A 
BRANCH  62  76
ATOM     76  C   UNL     1       5.608  -7.108   0.320  1.00  0.00     0.064 A 
ATOM     77  C   UNL     1       6.346  -8.311   0.359  1.00  0.00     0.173 A 
ATOM     78  C   UNL     1       6.039  -6.166  -0.638  1.00  0.00     0.173 A 
ATOM     79  F   UNL     1       6.030  -9.280   1.231  1.00  0.00    -0.203 F 
ATOM     80  C   UNL     1       7.491  -8.504  -0.419  1.00  0.00     0.198 A 
ATOM     81  C   UNL     1       7.151  -6.385  -1.452  1.00  0.00     0.198 A 
ATOM     82  F   UNL     1       5.484  -4.955  -0.749  1.00  0.00    -0.203 F 
ATOM     83  F   UNL     1       8.242  -9.599  -0.238  1.00  0.00    -0.200 F 
ATOM     84  C   UNL     1       7.900  -7.535  -1.316  1.00  0.00     0.200 A 
ATOM     85  F   UNL     1       7.541  -5.427  -2.305  1.00  0.00    -0.200 F 
ATOM     86  F   UNL     1       9.037  -7.682  -2.007  1.00  0.00    -0.200 F 
ENDBRANCH  62  76
BRANCH  63  87
ATOM     87  C   UNL     1       8.223  -0.228   4.580  1.00  0.00     0.064 A 
ATOM     88  C   UNL     1       9.574  -0.342   4.951  1.00  0.00     0.173 A 
ATOM     89  C   UNL     1       7.880   0.897   3.806  1.00  0.00     0.173 A 
ATOM     90  F   UNL     1       9.993  -1.401   5.658  1.00  0.00    -0.203 F 
ATOM     91  C   UNL     1      10.531   0.589   4.534  1.00  0.00     0.198 A 
ATOM     92  C   UNL     1       8.834   1.830   3.398  1.00  0.00     0.198 A 
ATOM     93  F   UNL     1       6.632   1.061   3.345  1.00  0.00    -0.203 F 
ATOM     94  F   UNL     1      11.822   0.405   4.844  1.00  0.00    -0.200 F 
ATOM     95  C   UNL     1      10.162   1.666   3.746  1.00  0.00     0.200 A 
ATOM     96  F   UNL     1       8.470   2.849   2.606  1.00  0.00    -0.200 F 
ATOM     97  F   UNL     1      11.089   2.518   3.285  1.00  0.00    -0.200 F 
ENDBRANCH  63  87
BRANCH  75  98
ATOM     98  C   UNL     1       6.096  -5.627   6.933  1.00  0.00     0.064 A 
ATOM     99  C   UNL     1       5.404  -4.531   7.478  1.00  0.00     0.173 A 
ATOM    100  C   UNL     1       6.361  -6.707   7.786  1.00  0.00     0.173 A 
ATOM    101  F   UNL     1       5.019  -3.504   6.712  1.00  0.00    -0.203 F 
ATOM    102  C   UNL     1       5.047  -4.497   8.825  1.00  0.00     0.198 A 
ATOM    103  C   UNL     1       5.968  -6.688   9.121  1.00  0.00     0.198 A 
ATOM    104  F   UNL     1       6.968  -7.806   7.310  1.00  0.00    -0.203 F 
ATOM    105  F   UNL     1       4.408  -3.429   9.324  1.00  0.00    -0.200 F 
ATOM    106  C   UNL     1       5.324  -5.578   9.643  1.00  0.00     0.200 A 
ATOM    107  F   UNL     1       6.194  -7.757   9.896  1.00  0.00    -0.200 F 
ATOM    108  F   UNL     1       4.950  -5.562  10.930  1.00  0.00    -0.200 F 
ENDBRANCH  75  98
ENDBRANCH  49  50
ENDBRANCH  41  44
ENDBRANCH  39  40
ENDBRANCH  38  39
ENDBRANCH  37  38
ENDBRANCH   1  37
TORSDOF 19
