REMARK SMILES CCN(CC)c1ccc(NC(=O)[C@@H]2CC=CC[C@@H]2C(=O)NCCCCCCNC(=O)c2ccc(-c3c4nc(c(-c5c(F)c(F)c(F)c(F)c5F)c5ccc([nH]5)c(-c5c(F)c(F)c(F)c(F)c5F)c5nc(c(-c6c(F)c(F)c(F)c(F)c6F)c6ccc3[nH]6)C=C5)C=C4)cc2)cc1
REMARK SMILES IDX 23 1 22 2 21 3 19 4 20 5 18 7 13 8 14 9 15 10 17 11 16 12
REMARK SMILES IDX 11 13 10 14 12 16 9 17 6 18 7 19 95 20 8 21 94 22 3 23 2 24
REMARK SMILES IDX 1 25 4 26 5 27 24 28 25 29 26 30 27 31 28 32 29 33 30 35
REMARK SMILES IDX 31 36 32 37 93 38 33 39 92 40 34 41 35 42 36 43 86 44 37 45
REMARK SMILES IDX 91 46 85 47 87 48 38 49 90 50 84 51 83 52 39 54 71 55 51 56
REMARK SMILES IDX 70 57 52 58 55 59 69 60 88 61 53 62 54 63 68 65 89 66 56 67
REMARK SMILES IDX 40 68 41 69 49 70 42 71 43 72 47 73 50 74 44 75 45 76 48 77
REMARK SMILES IDX 46 78 72 79 73 80 81 81 74 82 75 83 79 84 82 85 76 86 77 87
REMARK SMILES IDX 80 88 78 89 57 90 58 91 66 92 59 93 60 94 64 95 67 96 61 97
REMARK SMILES IDX 62 98 65 99 63 100
REMARK H PARENT 21 6 10 15 28 34 87 53 55 64
REMARK Flexibility Score: inf
ROOT
ATOM      1  C   UNL     1       3.162  -3.232  -7.303  1.00  0.00     0.021 C 
ENDROOT
BRANCH   1   2
ATOM      2  C   UNL     1       4.366  -3.669  -8.139  1.00  0.00     0.116 C 
BRANCH   2   3
ATOM      3  N   UNL     1       4.967  -2.525  -8.777  1.00  0.00    -0.356 N 
ATOM      4  C   UNL     1       6.036  -1.765  -8.444  1.00  0.00     0.224 C 
ATOM      5  O   UNL     1       6.304  -0.885  -9.271  1.00  0.00    -0.275 OA
ATOM      6  H   UNL     1       4.517  -2.246  -9.607  1.00  0.00     0.163 HD
BRANCH   4   7
ATOM      7  C   UNL     1       6.902  -2.007  -7.179  1.00  0.00     0.095 C 
ATOM      8  C   UNL     1       6.291  -1.650  -5.792  1.00  0.00     0.095 C 
ATOM      9  C   UNL     1       5.664  -0.249  -5.860  1.00  0.00     0.041 C 
ATOM     10  C   UNL     1       6.667   0.745  -6.392  1.00  0.00    -0.030 C 
ATOM     11  C   UNL     1       8.145  -1.072  -7.311  1.00  0.00     0.041 C 
ATOM     12  C   UNL     1       7.809   0.374  -6.998  1.00  0.00    -0.030 C 
BRANCH   8  13
ATOM     13  C   UNL     1       5.466  -2.743  -5.105  1.00  0.00     0.228 C 
ATOM     14  N   UNL     1       4.698  -2.427  -4.016  1.00  0.00    -0.326 N 
ATOM     15  H   UNL     1       3.771  -2.759  -4.025  1.00  0.00     0.169 HD
ATOM     16  O   UNL     1       5.494  -3.921  -5.458  1.00  0.00    -0.274 OA
BRANCH  14  17
ATOM     17  C   UNL     1       5.083  -1.685  -2.888  1.00  0.00     0.041 A 
ATOM     18  C   UNL     1       5.779  -0.231  -0.576  1.00  0.00     0.037 A 
ATOM     19  C   UNL     1       6.758  -0.819  -1.379  1.00  0.00     0.028 A 
ATOM     20  C   UNL     1       4.439  -0.438  -0.919  1.00  0.00     0.028 A 
ATOM     21  C   UNL     1       6.420  -1.528  -2.530  1.00  0.00     0.028 A 
ATOM     22  C   UNL     1       4.088  -1.180  -2.052  1.00  0.00     0.028 A 
BRANCH  18  23
ATOM     23  N   UNL     1       6.122   0.526   0.527  1.00  0.00    -0.372 N 
BRANCH  23  24
ATOM     24  C   UNL     1       6.175  -0.114   1.839  1.00  0.00     0.113 C 
ATOM     25  C   UNL     1       4.790  -0.217   2.460  1.00  0.00     0.027 C 
ENDBRANCH  23  24
BRANCH  23  26
ATOM     26  C   UNL     1       6.676   1.867   0.339  1.00  0.00     0.113 C 
ATOM     27  C   UNL     1       8.112   1.853  -0.166  1.00  0.00     0.027 C 
ENDBRANCH  23  26
ENDBRANCH  18  23
ENDBRANCH  14  17
ENDBRANCH   8  13
ENDBRANCH   4   7
ENDBRANCH   2   3
ENDBRANCH   1   2
BRANCH   1  28
ATOM     28  C   UNL     1       1.851  -3.254  -8.095  1.00  0.00     0.002 C 
BRANCH  28  29
ATOM     29  C   UNL     1       1.332  -4.666  -8.391  1.00  0.00     0.002 C 
BRANCH  29  30
ATOM     30  C   UNL     1       1.033  -5.523  -7.156  1.00  0.00     0.021 C 
BRANCH  30  31
ATOM     31  C   UNL     1       0.020  -4.915  -6.189  1.00  0.00     0.116 C 
BRANCH  31  32
ATOM     32  N   UNL     1      -1.268  -4.705  -6.830  1.00  0.00    -0.352 N 
ATOM     33  C   UNL     1      -2.481  -5.289  -6.576  1.00  0.00     0.251 C 
ATOM     34  H   UNL     1      -1.268  -4.041  -7.557  1.00  0.00     0.163 HD
ATOM     35  O   UNL     1      -3.389  -5.196  -7.395  1.00  0.00    -0.269 OA
BRANCH  33  36
ATOM     36  C   UNL     1      -2.708  -6.024  -5.313  1.00  0.00     0.039 A 
ATOM     37  C   UNL     1      -3.459  -7.203  -5.348  1.00  0.00     0.014 A 
ATOM     38  C   UNL     1      -2.257  -5.517  -4.091  1.00  0.00     0.014 A 
ATOM     39  C   UNL     1      -3.736  -7.885  -4.163  1.00  0.00     0.010 A 
ATOM     40  C   UNL     1      -2.479  -6.231  -2.916  1.00  0.00     0.010 A 
ATOM     41  C   UNL     1      -3.239  -7.410  -2.938  1.00  0.00    -0.014 A 
BRANCH  41  42
ATOM     42  C   UNL     1      -3.543  -8.120  -1.672  1.00  0.00     0.031 A 
ATOM     43  C   UNL     1      -4.423  -7.479  -0.636  1.00  0.00     0.074 A 
ATOM     44  C   UNL     1      -2.995  -9.328  -1.440  1.00  0.00     0.049 A 
ATOM     45  N   UNL     1      -4.798  -7.938   0.532  1.00  0.00    -0.248 NA
ATOM     46  C   UNL     1      -4.927  -6.131  -0.940  1.00  0.00     0.031 C 
ATOM     47  C   UNL     1      -2.077 -10.025  -2.341  1.00  0.00     0.029 A 
ATOM     48  N   UNL     1      -3.127 -10.178  -0.373  1.00  0.00    -0.354 N 
ATOM     49  C   UNL     1      -5.565  -6.932   1.105  1.00  0.00     0.074 A 
ATOM     50  C   UNL     1      -5.561  -5.819   0.181  1.00  0.00     0.031 C 
ATOM     51  C   UNL     1      -1.747 -11.208  -1.800  1.00  0.00     0.029 A 
ATOM     52  C   UNL     1      -2.413 -11.343  -0.508  1.00  0.00     0.049 A 
ATOM     53  H   UNL     1      -3.682  -9.974   0.415  1.00  0.00     0.167 HD
ATOM     54  C   UNL     1      -6.231  -6.944   2.285  1.00  0.00     0.037 A 
ATOM     55  C   UNL     1      -2.316 -12.403   0.316  1.00  0.00     0.037 A 
ATOM     56  C   UNL     1      -6.260  -8.066   3.187  1.00  0.00     0.049 A 
ATOM     57  C   UNL     1      -3.103 -12.413   1.597  1.00  0.00     0.074 A 
ATOM     58  C   UNL     1      -6.957  -8.204   4.374  1.00  0.00     0.029 A 
ATOM     59  N   UNL     1      -5.556  -9.247   2.997  1.00  0.00    -0.354 N 
ATOM     60  N   UNL     1      -3.886 -11.487   2.094  1.00  0.00    -0.248 NA
ATOM     61  C   UNL     1      -3.006 -13.624   2.422  1.00  0.00     0.031 C 
ATOM     62  C   UNL     1      -6.649  -9.455   4.920  1.00  0.00     0.029 A 
ATOM     63  C   UNL     1      -5.793 -10.114   4.053  1.00  0.00     0.049 A 
ATOM     64  H   UNL     1      -4.976  -9.440   2.227  1.00  0.00     0.167 HD
ATOM     65  C   UNL     1      -4.392 -12.009   3.276  1.00  0.00     0.074 A 
ATOM     66  C   UNL     1      -3.841 -13.342   3.412  1.00  0.00     0.031 C 
ATOM     67  C   UNL     1      -5.234 -11.436   4.171  1.00  0.00     0.037 A 
BRANCH  54  68
ATOM     68  C   UNL     1      -6.986  -5.703   2.663  1.00  0.00     0.064 A 
ATOM     69  C   UNL     1      -8.155  -5.318   1.988  1.00  0.00     0.173 A 
ATOM     70  C   UNL     1      -6.548  -4.899   3.725  1.00  0.00     0.173 A 
ATOM     71  F   UNL     1      -8.609  -6.046   0.956  1.00  0.00    -0.203 F 
ATOM     72  C   UNL     1      -8.837  -4.156   2.340  1.00  0.00     0.198 A 
ATOM     73  C   UNL     1      -7.249  -3.753   4.093  1.00  0.00     0.198 A 
ATOM     74  F   UNL     1      -5.440  -5.223   4.408  1.00  0.00    -0.203 F 
ATOM     75  F   UNL     1      -9.919  -3.780   1.645  1.00  0.00    -0.200 F 
ATOM     76  C   UNL     1      -8.387  -3.378   3.395  1.00  0.00     0.200 A 
ATOM     77  F   UNL     1      -6.819  -3.006   5.120  1.00  0.00    -0.200 F 
ATOM     78  F   UNL     1      -9.044  -2.260   3.733  1.00  0.00    -0.200 F 
ENDBRANCH  54  68
BRANCH  55  79
ATOM     79  C   UNL     1      -1.478 -13.564  -0.076  1.00  0.00     0.064 A 
ATOM     80  C   UNL     1      -2.066 -14.771  -0.475  1.00  0.00     0.173 A 
ATOM     81  C   UNL     1      -0.079 -13.486  -0.073  1.00  0.00     0.173 A 
ATOM     82  F   UNL     1      -3.401 -14.898  -0.476  1.00  0.00    -0.203 F 
ATOM     83  C   UNL     1      -1.285 -15.865  -0.842  1.00  0.00     0.198 A 
ATOM     84  C   UNL     1       0.702 -14.572  -0.463  1.00  0.00     0.198 A 
ATOM     85  F   UNL     1       0.530 -12.349   0.295  1.00  0.00    -0.203 F 
ATOM     86  F   UNL     1      -1.871 -17.020  -1.184  1.00  0.00    -0.200 F 
ATOM     87  C   UNL     1       0.098 -15.762  -0.841  1.00  0.00     0.200 A 
ATOM     88  F   UNL     1       2.037 -14.466  -0.474  1.00  0.00    -0.200 F 
ATOM     89  F   UNL     1       0.850 -16.812  -1.200  1.00  0.00    -0.200 F 
ENDBRANCH  55  79
BRANCH  67  90
ATOM     90  C   UNL     1      -5.627 -12.261   5.361  1.00  0.00     0.064 A 
ATOM     91  C   UNL     1      -4.722 -12.530   6.399  1.00  0.00     0.173 A 
ATOM     92  C   UNL     1      -6.927 -12.776   5.471  1.00  0.00     0.173 A 
ATOM     93  F   UNL     1      -3.463 -12.072   6.332  1.00  0.00    -0.203 F 
ATOM     94  C   UNL     1      -5.096 -13.312   7.488  1.00  0.00     0.198 A 
ATOM     95  C   UNL     1      -7.306 -13.534   6.575  1.00  0.00     0.198 A 
ATOM     96  F   UNL     1      -7.831 -12.542   4.508  1.00  0.00    -0.203 F 
ATOM     97  F   UNL     1      -4.200 -13.600   8.442  1.00  0.00    -0.200 F 
ATOM     98  C   UNL     1      -6.388 -13.809   7.578  1.00  0.00     0.200 A 
ATOM     99  F   UNL     1      -8.557 -14.005   6.666  1.00  0.00    -0.200 F 
ATOM    100  F   UNL     1      -6.745 -14.563   8.627  1.00  0.00    -0.200 F 
ENDBRANCH  67  90
ENDBRANCH  41  42
ENDBRANCH  33  36
ENDBRANCH  31  32
ENDBRANCH  30  31
ENDBRANCH  29  30
ENDBRANCH  28  29
ENDBRANCH   1  28
TORSDOF 18
