REMARK SMILES COc1cc([C@@H]2CC(NCCCCCCNC(=O)c3ccc(-c4c5nc(c(-c6c(F)c(F)c(F)c(F)c6F)c6ccc([nH]6)c(-c6c(F)c(F)c(F)c(F)c6F)c6nc(c(-c7c(F)c(F)c(F)c(F)c7F)c7ccc4[nH]7)C=C6)C=C5)cc3)=[NH+]c3c(C(=O)[O-])cn(-c4ccc(Cl)cc4)c32)cc(OC)c1O
REMARK SMILES IDX 13 1 12 2 11 3 10 4 9 5 6 6 7 7 97 8 8 9 83 10 89 11 82 12
REMARK SMILES IDX 84 13 88 14 5 17 3 18 4 19 102 20 99 21 98 22 2 23 1 24
REMARK SMILES IDX 103 25 100 27 101 28 90 29 91 30 96 31 92 32 95 33 93 34
REMARK SMILES IDX 94 35 85 36 86 37 87 38 14 39 15 40 16 41 17 42 18 44 19 45
REMARK SMILES IDX 20 46 81 47 21 48 80 49 22 50 23 51 24 52 74 53 25 54 79 55
REMARK SMILES IDX 73 56 75 57 26 58 78 59 72 60 71 61 27 63 59 64 39 65 58 66
REMARK SMILES IDX 40 67 43 68 57 69 76 70 41 71 42 72 56 74 77 75 44 76 28 77
REMARK SMILES IDX 29 78 37 79 30 80 31 81 35 82 38 83 32 84 33 85 36 86 34 87
REMARK SMILES IDX 60 88 61 89 69 90 62 91 63 92 67 93 70 94 64 95 65 96 68 97
REMARK SMILES IDX 66 98 45 99 46 100 54 101 47 102 48 103 52 104 55 105 49 106
REMARK SMILES IDX 50 107 53 108 51 109
REMARK H PARENT 9 15 82 16 103 26 16 43 75 62 43 73
REMARK Flexibility Score: inf
ROOT
ATOM      1  C   UNL     1       2.362  -5.531  10.161  1.00  0.00     0.002 C 
ENDROOT
BRANCH   1   2
ATOM      2  C   UNL     1       2.007  -6.057   8.761  1.00  0.00     0.004 C 
BRANCH   2   3
ATOM      3  C   UNL     1       0.520  -6.296   8.485  1.00  0.00     0.046 C 
BRANCH   3   4
ATOM      4  C   UNL     1      -0.382  -5.103   8.787  1.00  0.00     0.233 C 
BRANCH   4   5
ATOM      5  N   UNL     1      -0.043  -3.980   7.933  1.00  0.00    -0.278 N 
ATOM      6  C   UNL     1      -1.333  -1.609   5.204  1.00  0.00     0.083 C 
ATOM      7  C   UNL     1      -0.442  -2.126   6.353  1.00  0.00     0.142 C 
ATOM      8  C   UNL     1      -2.710  -2.176   5.330  1.00  0.00     0.078 A 
ATOM      9  C   UNL     1      -0.943  -3.376   7.083  1.00  0.00     0.248 C 
ATOM     10  C   UNL     1      -3.049  -3.176   6.203  1.00  0.00     0.155 A 
ATOM     11  N   UNL     1      -3.889  -1.723   4.764  1.00  0.00    -0.315 N 
ATOM     12  N   UNL     1      -2.148  -3.857   7.000  1.00  0.00    -0.243 N 
ATOM     13  C   UNL     1      -4.442  -3.376   6.212  1.00  0.00     0.062 A 
ATOM     14  C   UNL     1      -4.937  -2.416   5.343  1.00  0.00     0.106 A 
ATOM     15  H   UNL     1       0.878  -3.632   7.963  1.00  0.00     0.304 HD
ATOM     16  H   UNL     1      -2.409  -4.673   7.486  1.00  0.00     0.312 HD
BRANCH   6  17
ATOM     17  C   UNL     1      -0.665  -1.855   3.862  1.00  0.00    -0.031 A 
ATOM     18  C   UNL     1       0.378  -0.946   1.843  1.00  0.00     0.164 A 
ATOM     19  C   UNL     1      -0.171  -0.770   3.119  1.00  0.00     0.055 A 
ATOM     20  C   UNL     1       0.486  -2.243   1.317  1.00  0.00     0.200 A 
ATOM     21  C   UNL     1       0.016  -3.346   2.050  1.00  0.00     0.164 A 
ATOM     22  C   UNL     1      -0.547  -3.139   3.318  1.00  0.00     0.055 A 
BRANCH  18  23
ATOM     23  O   UNL     1       0.795   0.227   1.271  1.00  0.00    -0.493 OA
ATOM     24  C   UNL     1       0.794   0.335  -0.147  1.00  0.00     0.278 C 
ENDBRANCH  18  23
BRANCH  20  25
ATOM     25  O   UNL     1       1.112  -2.441   0.117  1.00  0.00    -0.502 OA
ATOM     26  H   UNL     1       1.427  -1.708  -0.374  1.00  0.00     0.293 HD
ENDBRANCH  20  25
BRANCH  21  27
ATOM     27  O   UNL     1       0.053  -4.673   1.712  1.00  0.00    -0.493 OA
ATOM     28  C   UNL     1       0.497  -5.036   0.415  1.00  0.00     0.278 C 
ENDBRANCH  21  27
ENDBRANCH   6  17
BRANCH  11  29
ATOM     29  C   UNL     1      -4.070  -0.722   3.782  1.00  0.00     0.046 A 
ATOM     30  C   UNL     1      -3.409  -0.819   2.556  1.00  0.00     0.028 A 
ATOM     31  C   UNL     1      -4.969   0.323   4.016  1.00  0.00     0.028 A 
ATOM     32  C   UNL     1      -3.578   0.174   1.591  1.00  0.00     0.022 A 
ATOM     33  C   UNL     1      -5.137   1.316   3.047  1.00  0.00     0.022 A 
ATOM     34  C   UNL     1      -4.431   1.244   1.845  1.00  0.00     0.041 A 
ATOM     35  Cl  UNL     1      -4.628   2.475   0.660  1.00  0.00    -0.084 Cl
ENDBRANCH  11  29
BRANCH  13  36
ATOM     36  C   UNL     1      -5.265  -4.323   6.944  1.00  0.00     0.077 C 
ATOM     37  O   UNL     1      -6.474  -4.419   6.849  1.00  0.00    -0.545 OA
ATOM     38  O   UNL     1      -4.600  -5.148   7.788  1.00  0.00    -0.545 OA
ENDBRANCH  13  36
ENDBRANCH   4   5
ENDBRANCH   3   4
ENDBRANCH   2   3
ENDBRANCH   1   2
BRANCH   1  39
ATOM     39  C   UNL     1       1.834  -6.329  11.362  1.00  0.00     0.021 C 
BRANCH  39  40
ATOM     40  C   UNL     1       2.329  -7.764  11.433  1.00  0.00     0.116 C 
BRANCH  40  41
ATOM     41  N   UNL     1       3.774  -7.874  11.673  1.00  0.00    -0.352 N 
ATOM     42  C   UNL     1       4.551  -9.022  11.714  1.00  0.00     0.251 C 
ATOM     43  H   UNL     1       4.251  -7.026  11.825  1.00  0.00     0.163 HD
ATOM     44  O   UNL     1       5.626  -9.047  12.301  1.00  0.00    -0.269 OA
BRANCH  42  45
ATOM     45  C   UNL     1       4.060 -10.218  11.008  1.00  0.00     0.039 A 
ATOM     46  C   UNL     1       4.223 -11.520  11.487  1.00  0.00     0.014 A 
ATOM     47  C   UNL     1       3.358  -9.981   9.835  1.00  0.00     0.014 A 
ATOM     48  C   UNL     1       3.616 -12.561  10.786  1.00  0.00     0.010 A 
ATOM     49  C   UNL     1       2.524 -10.940   9.352  1.00  0.00     0.010 A 
ATOM     50  C   UNL     1       2.756 -12.250   9.718  1.00  0.00    -0.014 A 
BRANCH  50  51
ATOM     51  C   UNL     1       2.000 -13.254   8.989  1.00  0.00     0.031 A 
ATOM     52  C   UNL     1       1.161 -14.108   9.858  1.00  0.00     0.074 A 
ATOM     53  C   UNL     1       1.895 -13.254   7.639  1.00  0.00     0.049 A 
ATOM     54  N   UNL     1       1.345 -15.355  10.127  1.00  0.00    -0.248 NA
ATOM     55  C   UNL     1       0.103 -13.472  10.658  1.00  0.00     0.031 C 
ATOM     56  C   UNL     1       2.409 -12.278   6.667  1.00  0.00     0.029 A 
ATOM     57  N   UNL     1       1.205 -14.114   6.843  1.00  0.00    -0.354 N 
ATOM     58  C   UNL     1       0.296 -15.722  10.961  1.00  0.00     0.074 A 
ATOM     59  C   UNL     1      -0.304 -14.494  11.413  1.00  0.00     0.031 C 
ATOM     60  C   UNL     1       1.823 -12.473   5.464  1.00  0.00     0.029 A 
ATOM     61  C   UNL     1       1.031 -13.685   5.529  1.00  0.00     0.049 A 
ATOM     62  H   UNL     1       0.855 -14.975   7.170  1.00  0.00     0.167 HD
ATOM     63  C   UNL     1      -0.143 -17.010  10.980  1.00  0.00     0.037 A 
ATOM     64  C   UNL     1       0.261 -14.285   4.584  1.00  0.00     0.037 A 
ATOM     65  C   UNL     1       0.832 -17.892  10.380  1.00  0.00     0.049 A 
ATOM     66  C   UNL     1       0.055 -15.690   5.027  1.00  0.00     0.074 A 
ATOM     67  C   UNL     1       2.156 -18.188  10.646  1.00  0.00     0.029 A 
ATOM     68  N   UNL     1       0.618 -18.301   9.085  1.00  0.00    -0.354 N 
ATOM     69  N   UNL     1       1.018 -16.570   5.092  1.00  0.00    -0.248 NA
ATOM     70  C   UNL     1      -1.095 -15.955   5.880  1.00  0.00     0.031 C 
ATOM     71  C   UNL     1       2.779 -18.270   9.365  1.00  0.00     0.029 A 
ATOM     72  C   UNL     1       1.789 -18.118   8.394  1.00  0.00     0.049 A 
ATOM     73  H   UNL     1      -0.223 -18.661   8.720  1.00  0.00     0.167 HD
ATOM     74  C   UNL     1       0.804 -17.236   6.289  1.00  0.00     0.074 A 
ATOM     75  C   UNL     1      -0.545 -16.851   6.705  1.00  0.00     0.031 C 
ATOM     76  C   UNL     1       1.839 -17.788   6.989  1.00  0.00     0.037 A 
BRANCH  63  77
ATOM     77  C   UNL     1      -1.586 -17.415  11.158  1.00  0.00     0.064 A 
ATOM     78  C   UNL     1      -1.894 -18.788  11.245  1.00  0.00     0.173 A 
ATOM     79  C   UNL     1      -2.686 -16.559  10.934  1.00  0.00     0.173 A 
ATOM     80  F   UNL     1      -0.926 -19.694  11.450  1.00  0.00    -0.203 F 
ATOM     81  C   UNL     1      -3.186 -19.270  11.022  1.00  0.00     0.198 A 
ATOM     82  C   UNL     1      -3.983 -17.041  10.765  1.00  0.00     0.198 A 
ATOM     83  F   UNL     1      -2.549 -15.242  10.754  1.00  0.00    -0.203 F 
ATOM     84  F   UNL     1      -3.402 -20.591  10.976  1.00  0.00    -0.200 F 
ATOM     85  C   UNL     1      -4.227 -18.396  10.772  1.00  0.00     0.200 A 
ATOM     86  F   UNL     1      -4.975 -16.177  10.508  1.00  0.00    -0.200 F 
ATOM     87  F   UNL     1      -5.451 -18.858  10.489  1.00  0.00    -0.200 F 
ENDBRANCH  63  77
BRANCH  64  88
ATOM     88  C   UNL     1      -0.581 -13.646   3.540  1.00  0.00     0.064 A 
ATOM     89  C   UNL     1      -1.123 -14.395   2.480  1.00  0.00     0.173 A 
ATOM     90  C   UNL     1      -1.108 -12.352   3.718  1.00  0.00     0.173 A 
ATOM     91  F   UNL     1      -0.715 -15.654   2.267  1.00  0.00    -0.203 F 
ATOM     92  C   UNL     1      -2.147 -13.889   1.668  1.00  0.00     0.198 A 
ATOM     93  C   UNL     1      -2.127 -11.847   2.906  1.00  0.00     0.198 A 
ATOM     94  F   UNL     1      -0.716 -11.586   4.746  1.00  0.00    -0.203 F 
ATOM     95  F   UNL     1      -2.680 -14.656   0.707  1.00  0.00    -0.200 F 
ATOM     96  C   UNL     1      -2.655 -12.620   1.889  1.00  0.00     0.200 A 
ATOM     97  F   UNL     1      -2.637 -10.634   3.158  1.00  0.00    -0.200 F 
ATOM     98  F   UNL     1      -3.678 -12.160   1.155  1.00  0.00    -0.200 F 
ENDBRANCH  64  88
BRANCH  76  99
ATOM     99  C   UNL     1       3.188 -17.861   6.324  1.00  0.00     0.064 A 
ATOM    100  C   UNL     1       3.937 -16.741   5.918  1.00  0.00     0.173 A 
ATOM    101  C   UNL     1       3.815 -19.112   6.242  1.00  0.00     0.173 A 
ATOM    102  F   UNL     1       3.453 -15.501   6.054  1.00  0.00    -0.203 F 
ATOM    103  C   UNL     1       5.233 -16.876   5.420  1.00  0.00     0.198 A 
ATOM    104  C   UNL     1       5.121 -19.240   5.779  1.00  0.00     0.198 A 
ATOM    105  F   UNL     1       3.172 -20.212   6.665  1.00  0.00    -0.203 F 
ATOM    106  F   UNL     1       5.922 -15.791   5.033  1.00  0.00    -0.200 F 
ATOM    107  C   UNL     1       5.826 -18.125   5.358  1.00  0.00     0.200 A 
ATOM    108  F   UNL     1       5.707 -20.445   5.770  1.00  0.00    -0.200 F 
ATOM    109  F   UNL     1       7.087 -18.252   4.920  1.00  0.00    -0.200 F 
ENDBRANCH  76  99
ENDBRANCH  50  51
ENDBRANCH  42  45
ENDBRANCH  40  41
ENDBRANCH  39  40
ENDBRANCH   1  39
TORSDOF 18
