REMARK SMILES CN(CC(C)(C)O)C(=O)N1CCCC[C@H]1CC(=O)NCCCCCCNC(=O)c1ccc(-c2c3nc(c(-c4c(F)c(F)c(F)c(F)c4F)c4ccc([nH]4)c(-c4c(F)c(F)c(F)c(F)c4F)c4nc(c(-c5c(F)c(F)c(F)c(F)c5F)c5ccc2[nH]5)C=C4)C=C3)cc1
REMARK SMILES IDX 20 1 19 2 17 3 18 4 16 6 15 7 10 8 11 9 12 10 14 11 13 12
REMARK SMILES IDX 8 13 9 14 2 15 1 16 3 17 4 18 5 19 6 20 7 21 21 23 22 24
REMARK SMILES IDX 23 25 24 26 25 27 26 28 27 29 28 31 29 32 30 33 91 34 31 35
REMARK SMILES IDX 90 36 32 37 33 38 34 39 84 40 35 41 89 42 83 43 85 44 36 45
REMARK SMILES IDX 88 46 82 47 81 48 37 50 69 51 49 52 68 53 50 54 53 55 67 56
REMARK SMILES IDX 86 57 51 58 52 59 66 61 87 62 54 63 38 64 39 65 47 66 40 67
REMARK SMILES IDX 41 68 45 69 48 70 42 71 43 72 46 73 44 74 70 75 71 76 79 77
REMARK SMILES IDX 72 78 73 79 77 80 80 81 74 82 75 83 78 84 76 85 55 86 56 87
REMARK SMILES IDX 64 88 57 89 58 90 62 91 65 92 59 93 60 94 63 95 61 96
REMARK H PARENT 19 5 7 22 26 30 85 49 53 60
REMARK Flexibility Score: inf
ROOT
ATOM      1  C   UNL     1       2.496   1.889  -4.457  1.00  0.00     0.116 C 
ENDROOT
BRANCH   1   2
ATOM      2  N   UNL     1       1.214   1.402  -4.931  1.00  0.00    -0.356 N 
ATOM      3  C   UNL     1       0.005   2.024  -4.986  1.00  0.00     0.222 C 
ATOM      4  O   UNL     1      -0.969   1.379  -5.381  1.00  0.00    -0.275 OA
ATOM      5  H   UNL     1       1.220   0.476  -5.266  1.00  0.00     0.163 HD
BRANCH   3   6
ATOM      6  C   UNL     1      -0.157   3.459  -4.543  1.00  0.00     0.125 C 
BRANCH   6   7
ATOM      7  C   UNL     1      -0.651   3.580  -3.085  1.00  0.00     0.096 C 
ATOM      8  N   UNL     1       0.422   3.495  -2.072  1.00  0.00    -0.321 N 
ATOM      9  C   UNL     1       1.362   4.634  -2.111  1.00  0.00     0.121 C 
ATOM     10  C   UNL     1       0.643   5.967  -1.920  1.00  0.00     0.022 C 
ATOM     11  C   UNL     1      -1.418   4.907  -2.876  1.00  0.00     0.026 C 
ATOM     12  C   UNL     1      -0.495   6.124  -2.924  1.00  0.00     0.004 C 
BRANCH   8  13
ATOM     13  C   UNL     1       0.443   2.741  -0.908  1.00  0.00     0.320 C 
ATOM     14  O   UNL     1       1.129   3.143   0.043  1.00  0.00    -0.248 OA
BRANCH  13  15
ATOM     15  N   UNL     1      -0.216   1.524  -0.777  1.00  0.00    -0.325 N 
ATOM     16  C   UNL     1       0.083   0.845   0.486  1.00  0.00     0.148 C 
BRANCH  15  17
ATOM     17  C   UNL     1      -0.773   0.635  -1.816  1.00  0.00     0.155 C 
BRANCH  17  18
ATOM     18  C   UNL     1      -2.287   0.269  -1.693  1.00  0.00     0.077 C 
ATOM     19  C   UNL     1      -3.234   1.468  -1.764  1.00  0.00     0.043 C 
ATOM     20  C   UNL     1      -2.646  -0.729  -2.800  1.00  0.00     0.043 C 
BRANCH  18  21
ATOM     21  O   UNL     1      -2.548  -0.412  -0.457  1.00  0.00    -0.389 OA
ATOM     22  H   UNL     1      -2.337   0.175   0.286  1.00  0.00     0.211 HD
ENDBRANCH  18  21
ENDBRANCH  17  18
ENDBRANCH  15  17
ENDBRANCH  13  15
ENDBRANCH   8  13
ENDBRANCH   6   7
ENDBRANCH   3   6
ENDBRANCH   1   2
BRANCH   1  23
ATOM     23  C   UNL     1       2.834   1.337  -3.070  1.00  0.00     0.021 C 
BRANCH  23  24
ATOM     24  C   UNL     1       3.995   0.341  -3.056  1.00  0.00     0.002 C 
BRANCH  24  25
ATOM     25  C   UNL     1       5.348   0.907  -3.501  1.00  0.00     0.002 C 
BRANCH  25  26
ATOM     26  C   UNL     1       5.825   2.155  -2.751  1.00  0.00     0.021 C 
BRANCH  26  27
ATOM     27  C   UNL     1       5.918   2.005  -1.233  1.00  0.00     0.116 C 
BRANCH  27  28
ATOM     28  N   UNL     1       6.838   0.947  -0.847  1.00  0.00    -0.352 N 
ATOM     29  C   UNL     1       8.055   1.011  -0.222  1.00  0.00     0.251 C 
ATOM     30  H   UNL     1       6.538   0.037  -1.072  1.00  0.00     0.163 HD
ATOM     31  O   UNL     1       8.778   0.015  -0.195  1.00  0.00    -0.269 OA
BRANCH  29  32
ATOM     32  C   UNL     1       8.519   2.258   0.424  1.00  0.00     0.039 A 
ATOM     33  C   UNL     1       9.866   2.617   0.300  1.00  0.00     0.014 A 
ATOM     34  C   UNL     1       7.665   3.027   1.219  1.00  0.00     0.014 A 
ATOM     35  C   UNL     1      10.348   3.760   0.943  1.00  0.00     0.010 A 
ATOM     36  C   UNL     1       8.131   4.200   1.812  1.00  0.00     0.010 A 
ATOM     37  C   UNL     1       9.480   4.568   1.694  1.00  0.00    -0.014 A 
BRANCH  37  38
ATOM     38  C   UNL     1       9.977   5.775   2.403  1.00  0.00     0.031 A 
ATOM     39  C   UNL     1       9.998   5.804   3.907  1.00  0.00     0.074 A 
ATOM     40  C   UNL     1      10.357   6.859   1.701  1.00  0.00     0.049 A 
ATOM     41  N   UNL     1      10.312   6.787   4.713  1.00  0.00    -0.248 NA
ATOM     42  C   UNL     1       9.587   4.571   4.597  1.00  0.00     0.031 C 
ATOM     43  C   UNL     1      10.351   6.968   0.242  1.00  0.00     0.029 A 
ATOM     44  N   UNL     1      10.811   8.083   2.125  1.00  0.00    -0.354 N 
ATOM     45  C   UNL     1      10.110   6.300   5.998  1.00  0.00     0.074 A 
ATOM     46  C   UNL     1       9.617   4.946   5.867  1.00  0.00     0.031 C 
ATOM     47  C   UNL     1      10.789   8.189  -0.108  1.00  0.00     0.029 A 
ATOM     48  C   UNL     1      11.079   8.956   1.100  1.00  0.00     0.049 A 
ATOM     49  H   UNL     1      10.933   8.314   3.075  1.00  0.00     0.167 HD
ATOM     50  C   UNL     1      10.332   6.921   7.181  1.00  0.00     0.037 A 
ATOM     51  C   UNL     1      11.506  10.233   1.133  1.00  0.00     0.037 A 
ATOM     52  C   UNL     1      10.866   8.251   7.313  1.00  0.00     0.049 A 
ATOM     53  C   UNL     1      11.779  10.886   2.461  1.00  0.00     0.074 A 
ATOM     54  C   UNL     1      11.179   8.946   8.469  1.00  0.00     0.029 A 
ATOM     55  N   UNL     1      11.175   9.084   6.249  1.00  0.00    -0.354 N 
ATOM     56  N   UNL     1      11.635  10.397   3.668  1.00  0.00    -0.248 NA
ATOM     57  C   UNL     1      12.284  12.266   2.430  1.00  0.00     0.031 C 
ATOM     58  C   UNL     1      11.654  10.210   8.104  1.00  0.00     0.029 A 
ATOM     59  C   UNL     1      11.671  10.288   6.721  1.00  0.00     0.049 A 
ATOM     60  H   UNL     1      11.060   8.853   5.298  1.00  0.00     0.167 HD
ATOM     61  C   UNL     1      12.062  11.392   4.536  1.00  0.00     0.074 A 
ATOM     62  C   UNL     1      12.478  12.511   3.718  1.00  0.00     0.031 C 
ATOM     63  C   UNL     1      12.106  11.379   5.890  1.00  0.00     0.037 A 
BRANCH  50  64
ATOM     64  C   UNL     1      10.005   6.167   8.435  1.00  0.00     0.064 A 
ATOM     65  C   UNL     1      10.803   5.104   8.882  1.00  0.00     0.173 A 
ATOM     66  C   UNL     1       8.910   6.545   9.227  1.00  0.00     0.173 A 
ATOM     67  F   UNL     1      11.855   4.698   8.154  1.00  0.00    -0.203 F 
ATOM     68  C   UNL     1      10.506   4.434  10.065  1.00  0.00     0.198 A 
ATOM     69  C   UNL     1       8.631   5.889  10.423  1.00  0.00     0.198 A 
ATOM     70  F   UNL     1       8.119   7.560   8.847  1.00  0.00    -0.203 F 
ATOM     71  F   UNL     1      11.262   3.397  10.454  1.00  0.00    -0.200 F 
ATOM     72  C   UNL     1       9.425   4.831  10.838  1.00  0.00     0.200 A 
ATOM     73  F   UNL     1       7.593   6.281  11.175  1.00  0.00    -0.200 F 
ATOM     74  F   UNL     1       9.147   4.192  11.983  1.00  0.00    -0.200 F 
ENDBRANCH  50  64
BRANCH  51  75
ATOM     75  C   UNL     1      11.732  10.975  -0.134  1.00  0.00     0.064 A 
ATOM     76  C   UNL     1      13.030  11.287  -0.561  1.00  0.00     0.173 A 
ATOM     77  C   UNL     1      10.661  11.402  -0.930  1.00  0.00     0.173 A 
ATOM     78  F   UNL     1      14.085  10.918   0.181  1.00  0.00    -0.203 F 
ATOM     79  C   UNL     1      13.248  12.020  -1.725  1.00  0.00     0.198 A 
ATOM     80  C   UNL     1      10.881  12.114  -2.108  1.00  0.00     0.198 A 
ATOM     81  F   UNL     1       9.400  11.125  -0.567  1.00  0.00    -0.203 F 
ATOM     82  F   UNL     1      14.497  12.346  -2.085  1.00  0.00    -0.200 F 
ATOM     83  C   UNL     1      12.173  12.430  -2.499  1.00  0.00     0.200 A 
ATOM     84  F   UNL     1       9.841  12.498  -2.860  1.00  0.00    -0.200 F 
ATOM     85  F   UNL     1      12.383  13.137  -3.618  1.00  0.00    -0.200 F 
ENDBRANCH  51  75
BRANCH  63  86
ATOM     86  C   UNL     1      12.671  12.589   6.571  1.00  0.00     0.064 A 
ATOM     87  C   UNL     1      11.947  13.787   6.663  1.00  0.00     0.173 A 
ATOM     88  C   UNL     1      13.936  12.534   7.175  1.00  0.00     0.173 A 
ATOM     89  F   UNL     1      10.740  13.891   6.088  1.00  0.00    -0.203 F 
ATOM     90  C   UNL     1      12.480  14.894   7.317  1.00  0.00     0.198 A 
ATOM     91  C   UNL     1      14.455  13.635   7.849  1.00  0.00     0.198 A 
ATOM     92  F   UNL     1      14.663  11.409   7.118  1.00  0.00    -0.203 F 
ATOM     93  F   UNL     1      11.790  16.042   7.359  1.00  0.00    -0.200 F 
ATOM     94  C   UNL     1      13.730  14.815   7.915  1.00  0.00     0.200 A 
ATOM     95  F   UNL     1      15.659  13.555   8.434  1.00  0.00    -0.200 F 
ATOM     96  F   UNL     1      14.239  15.881   8.548  1.00  0.00    -0.200 F 
ENDBRANCH  63  86
ENDBRANCH  37  38
ENDBRANCH  29  32
ENDBRANCH  27  28
ENDBRANCH  26  27
ENDBRANCH  25  26
ENDBRANCH  24  25
ENDBRANCH  23  24
ENDBRANCH   1  23
TORSDOF 19
