REMARK SMILES Cc1cc(Br)c2ncc(C(=O)NCCCCCCNC(=O)c3ccc(-c4c5nc(c(-c6c(F)c(F)c(F)c(F)c6F)c6ccc([nH]6)c(-c6c(F)c(F)c(F)c(F)c6F)c6nc(c(-c7c(F)c(F)c(F)c(F)c7F)c7ccc4[nH]7)C=C6)C=C5)cc3)c(N)c2c1
REMARK SMILES IDX 16 1 15 2 14 3 13 4 12 5 10 6 11 7 9 9 1 10 2 11 3 12 88 13
REMARK SMILES IDX 4 14 87 15 5 16 6 17 85 18 7 19 8 20 86 21 17 24 18 25 19 26
REMARK SMILES IDX 20 27 21 29 22 30 23 31 84 32 24 33 83 34 25 35 26 36 27 37
REMARK SMILES IDX 77 38 28 39 82 40 76 41 78 42 29 43 81 44 75 45 74 46 30 48
REMARK SMILES IDX 62 49 42 50 61 51 43 52 46 53 60 54 79 55 44 56 45 57 59 59
REMARK SMILES IDX 80 60 47 61 31 62 32 63 40 64 33 65 34 66 38 67 41 68 35 69
REMARK SMILES IDX 36 70 39 71 37 72 63 73 64 74 72 75 65 76 66 77 70 78 73 79
REMARK SMILES IDX 67 80 68 81 71 82 69 83 48 84 49 85 57 86 50 87 51 88 55 89
REMARK SMILES IDX 58 90 52 91 53 92 56 93 54 94
REMARK H PARENT 12 8 86 22 86 23 19 28 78 47 46 58
REMARK Flexibility Score: inf
ROOT
ATOM      1  C   UNL     1       0.087 -10.790   5.325  1.00  0.00     0.002 C 
ENDROOT
BRANCH   1   2
ATOM      2  C   UNL     1      -0.710 -10.055   4.238  1.00  0.00     0.002 C 
BRANCH   2   3
ATOM      3  C   UNL     1      -0.811  -8.532   4.422  1.00  0.00     0.021 C 
BRANCH   3   4
ATOM      4  C   UNL     1       0.540  -7.818   4.328  1.00  0.00     0.116 C 
BRANCH   4   5
ATOM      5  N   UNL     1       0.977  -7.785   2.946  1.00  0.00    -0.352 N 
ATOM      6  C   UNL     1       0.937  -6.843   1.951  1.00  0.00     0.254 C 
ATOM      7  O   UNL     1       1.322  -7.221   0.840  1.00  0.00    -0.269 OA
ATOM      8  H   UNL     1       1.397  -8.628   2.657  1.00  0.00     0.163 HD
BRANCH   6   9
ATOM      9  C   UNL     1       0.517  -5.423   2.136  1.00  0.00     0.081 A 
ATOM     10  C   UNL     1       1.146   0.423  -0.049  1.00  0.00     0.044 C 
ATOM     11  C   UNL     1       0.694  -0.656   0.890  1.00  0.00    -0.049 A 
ATOM     12  C   UNL     1      -0.086  -0.370   2.003  1.00  0.00     0.021 A 
ATOM     13  C   UNL     1       1.052  -1.987   0.652  1.00  0.00     0.016 A 
ATOM     14  C   UNL     1      -0.531  -1.411   2.826  1.00  0.00     0.044 A 
ATOM     15  C   UNL     1       0.610  -3.055   1.476  1.00  0.00     0.025 A 
ATOM     16  Br  UNL     1      -1.586  -0.918   4.339  1.00  0.00    -0.048 Br
ATOM     17  C   UNL     1      -0.226  -2.757   2.575  1.00  0.00     0.086 A 
ATOM     18  C   UNL     1       0.967  -4.420   1.246  1.00  0.00     0.055 A 
ATOM     19  N   UNL     1      -0.728  -3.740   3.354  1.00  0.00    -0.254 NA
ATOM     20  C   UNL     1      -0.378  -5.024   3.105  1.00  0.00     0.127 A 
BRANCH  18  21
ATOM     21  N   UNL     1       1.881  -4.742   0.221  1.00  0.00    -0.397 N 
ATOM     22  H   UNL     1       2.129  -5.681   0.060  1.00  0.00     0.156 HD
ATOM     23  H   UNL     1       2.271  -4.028  -0.334  1.00  0.00     0.156 HD
ENDBRANCH  18  21
ENDBRANCH   6   9
ENDBRANCH   4   5
ENDBRANCH   3   4
ENDBRANCH   2   3
ENDBRANCH   1   2
BRANCH   1  24
ATOM     24  C   UNL     1      -0.363 -10.501   6.759  1.00  0.00     0.021 C 
BRANCH  24  25
ATOM     25  C   UNL     1      -1.816 -10.866   7.040  1.00  0.00     0.116 C 
BRANCH  25  26
ATOM     26  N   UNL     1      -2.011 -12.307   7.071  1.00  0.00    -0.352 N 
ATOM     27  C   UNL     1      -2.476 -13.079   8.107  1.00  0.00     0.251 C 
ATOM     28  H   UNL     1      -1.780 -12.790   6.245  1.00  0.00     0.163 HD
ATOM     29  O   UNL     1      -2.403 -14.299   8.074  1.00  0.00    -0.269 OA
BRANCH  27  30
ATOM     30  C   UNL     1      -3.058 -12.403   9.283  1.00  0.00     0.039 A 
ATOM     31  C   UNL     1      -2.540 -12.678  10.550  1.00  0.00     0.014 A 
ATOM     32  C   UNL     1      -4.090 -11.474   9.116  1.00  0.00     0.014 A 
ATOM     33  C   UNL     1      -3.027 -11.977  11.653  1.00  0.00     0.010 A 
ATOM     34  C   UNL     1      -4.539 -10.741  10.209  1.00  0.00     0.010 A 
ATOM     35  C   UNL     1      -4.014 -10.991  11.486  1.00  0.00    -0.014 A 
BRANCH  35  36
ATOM     36  C   UNL     1      -4.521 -10.230  12.651  1.00  0.00     0.031 A 
ATOM     37  C   UNL     1      -5.907 -10.485  13.162  1.00  0.00     0.074 A 
ATOM     38  C   UNL     1      -3.740  -9.299  13.229  1.00  0.00     0.049 A 
ATOM     39  N   UNL     1      -6.518  -9.953  14.190  1.00  0.00    -0.248 NA
ATOM     40  C   UNL     1      -6.723 -11.453  12.413  1.00  0.00     0.031 C 
ATOM     41  C   UNL     1      -2.393  -8.936  12.788  1.00  0.00     0.029 A 
ATOM     42  N   UNL     1      -3.966  -8.489  14.314  1.00  0.00    -0.354 N 
ATOM     43  C   UNL     1      -7.779 -10.530  14.217  1.00  0.00     0.074 A 
ATOM     44  C   UNL     1      -7.874 -11.403  13.068  1.00  0.00     0.031 C 
ATOM     45  C   UNL     1      -1.900  -7.997  13.613  1.00  0.00     0.029 A 
ATOM     46  C   UNL     1      -2.902  -7.681  14.628  1.00  0.00     0.049 A 
ATOM     47  H   UNL     1      -4.811  -8.489  14.819  1.00  0.00     0.167 HD
ATOM     48  C   UNL     1      -8.757 -10.371  15.138  1.00  0.00     0.037 A 
ATOM     49  C   UNL     1      -2.750  -6.796  15.632  1.00  0.00     0.037 A 
ATOM     50  C   UNL     1      -8.652  -9.513  16.287  1.00  0.00     0.049 A 
ATOM     51  C   UNL     1      -3.864  -6.615  16.627  1.00  0.00     0.074 A 
ATOM     52  C   UNL     1      -9.566  -9.324  17.307  1.00  0.00     0.029 A 
ATOM     53  N   UNL     1      -7.565  -8.697  16.562  1.00  0.00    -0.354 N 
ATOM     54  N   UNL     1      -5.020  -7.228  16.691  1.00  0.00    -0.248 NA
ATOM     55  C   UNL     1      -3.650  -5.625  17.694  1.00  0.00     0.031 C 
ATOM     56  C   UNL     1      -9.048  -8.365  18.183  1.00  0.00     0.029 A 
ATOM     57  C   UNL     1      -7.795  -7.985  17.727  1.00  0.00     0.049 A 
ATOM     58  H   UNL     1      -6.751  -8.634  16.012  1.00  0.00     0.167 HD
ATOM     59  C   UNL     1      -5.660  -6.722  17.813  1.00  0.00     0.074 A 
ATOM     60  C   UNL     1      -4.762  -5.753  18.406  1.00  0.00     0.031 C 
ATOM     61  C   UNL     1      -6.882  -7.035  18.307  1.00  0.00     0.037 A 
BRANCH  48  62
ATOM     62  C   UNL     1     -10.015 -11.163  14.958  1.00  0.00     0.064 A 
ATOM     63  C   UNL     1     -10.041 -12.547  15.188  1.00  0.00     0.173 A 
ATOM     64  C   UNL     1     -11.216 -10.532  14.605  1.00  0.00     0.173 A 
ATOM     65  F   UNL     1      -8.914 -13.197  15.517  1.00  0.00    -0.203 F 
ATOM     66  C   UNL     1     -11.220 -13.273  15.055  1.00  0.00     0.198 A 
ATOM     67  C   UNL     1     -12.400 -11.257  14.497  1.00  0.00     0.198 A 
ATOM     68  F   UNL     1     -11.245  -9.210  14.379  1.00  0.00    -0.203 F 
ATOM     69  F   UNL     1     -11.214 -14.599  15.247  1.00  0.00    -0.200 F 
ATOM     70  C   UNL     1     -12.400 -12.627  14.717  1.00  0.00     0.200 A 
ATOM     71  F   UNL     1     -13.541 -10.631  14.180  1.00  0.00    -0.200 F 
ATOM     72  F   UNL     1     -13.537 -13.325  14.600  1.00  0.00    -0.200 F 
ENDBRANCH  48  62
BRANCH  49  73
ATOM     73  C   UNL     1      -1.468  -6.061  15.776  1.00  0.00     0.064 A 
ATOM     74  C   UNL     1      -0.571  -6.383  16.804  1.00  0.00     0.173 A 
ATOM     75  C   UNL     1      -1.102  -5.045  14.882  1.00  0.00     0.173 A 
ATOM     76  F   UNL     1      -0.887  -7.336  17.692  1.00  0.00    -0.203 F 
ATOM     77  C   UNL     1       0.642  -5.711  16.936  1.00  0.00     0.198 A 
ATOM     78  C   UNL     1       0.121  -4.387  15.004  1.00  0.00     0.198 A 
ATOM     79  F   UNL     1      -1.925  -4.703  13.880  1.00  0.00    -0.203 F 
ATOM     80  F   UNL     1       1.471  -6.021  17.943  1.00  0.00    -0.200 F 
ATOM     81  C   UNL     1       0.990  -4.718  16.032  1.00  0.00     0.200 A 
ATOM     82  F   UNL     1       0.459  -3.437  14.121  1.00  0.00    -0.200 F 
ATOM     83  F   UNL     1       2.162  -4.079  16.154  1.00  0.00    -0.200 F 
ENDBRANCH  49  73
BRANCH  61  84
ATOM     84  C   UNL     1      -7.327  -6.345  19.561  1.00  0.00     0.064 A 
ATOM     85  C   UNL     1      -7.788  -5.022  19.538  1.00  0.00     0.173 A 
ATOM     86  C   UNL     1      -7.396  -7.050  20.772  1.00  0.00     0.173 A 
ATOM     87  F   UNL     1      -7.730  -4.307  18.405  1.00  0.00    -0.203 F 
ATOM     88  C   UNL     1      -8.307  -4.429  20.685  1.00  0.00     0.198 A 
ATOM     89  C   UNL     1      -7.935  -6.461  21.911  1.00  0.00     0.198 A 
ATOM     90  F   UNL     1      -6.973  -8.321  20.839  1.00  0.00    -0.203 F 
ATOM     91  F   UNL     1      -8.732  -3.158  20.647  1.00  0.00    -0.200 F 
ATOM     92  C   UNL     1      -8.391  -5.152  21.867  1.00  0.00     0.200 A 
ATOM     93  F   UNL     1      -8.029  -7.165  23.048  1.00  0.00    -0.200 F 
ATOM     94  F   UNL     1      -8.915  -4.587  22.963  1.00  0.00    -0.200 F 
ENDBRANCH  61  84
ENDBRANCH  35  36
ENDBRANCH  27  30
ENDBRANCH  25  26
ENDBRANCH  24  25
ENDBRANCH   1  24
TORSDOF 14
