REMARK SMILES O=C(NCCCCCCNC(=O)C1CCN(C2=[NH+]C(Cl)=[NH+]C3=[NH+]C=N[C@@H]32)CC1)c1ccc(-c2c3nc(c(-c4c(F)c(F)c(F)c(F)c4F)c4ccc([nH]4)c(-c4c(F)c(F)c(F)c(F)c4F)c4nc(c(-c5c(F)c(F)c(F)c(F)c5F)c5ccc2[nH]5)C=C4)C=C3)cc1
REMARK SMILES IDX 5 1 4 2 3 3 1 4 2 5 29 7 30 8 91 9 31 10 90 11 32 12 33 13
REMARK SMILES IDX 34 14 84 15 35 16 89 17 83 18 85 19 36 20 88 21 82 22 81 23
REMARK SMILES IDX 37 25 69 26 49 27 68 28 50 29 53 30 67 31 86 32 51 33 52 34
REMARK SMILES IDX 66 36 87 37 54 38 38 39 39 40 47 41 40 42 41 43 45 44 48 45
REMARK SMILES IDX 42 46 43 47 46 48 44 49 70 50 71 51 79 52 72 53 73 54 77 55
REMARK SMILES IDX 80 56 74 57 75 58 78 59 76 60 55 61 56 62 64 63 57 64 58 65
REMARK SMILES IDX 62 66 65 67 59 68 60 69 63 70 61 71 6 72 7 73 8 74 9 75
REMARK SMILES IDX 10 76 11 77 12 79 13 80 14 81 28 82 15 83 27 84 16 85 17 86
REMARK SMILES IDX 18 87 26 88 19 89 22 91 25 92 20 93 21 94 23 95 24 96
REMARK H PARENT 3 6 85 24 53 35 10 78 18 90 21 97 23 98
REMARK Flexibility Score: inf
ROOT
ATOM      1  C   UNL     1       4.589   1.865   1.426  1.00  0.00     0.021 C 
ENDROOT
BRANCH   1   2
ATOM      2  C   UNL     1       4.578   0.394   1.014  1.00  0.00     0.116 C 
BRANCH   2   3
ATOM      3  N   UNL     1       3.250  -0.173   0.885  1.00  0.00    -0.352 N 
ATOM      4  O   UNL     1       1.186  -0.652   0.248  1.00  0.00    -0.269 OA
ATOM      5  C   UNL     1       2.212  -0.005   0.012  1.00  0.00     0.251 C 
ATOM      6  H   UNL     1       3.050  -0.831   1.590  1.00  0.00     0.163 HD
BRANCH   5   7
ATOM      7  C   UNL     1       2.222   0.896  -1.174  1.00  0.00     0.039 A 
ATOM      8  C   UNL     1       3.368   1.373  -1.810  1.00  0.00     0.014 A 
ATOM      9  C   UNL     1       0.970   1.211  -1.736  1.00  0.00     0.014 A 
ATOM     10  C   UNL     1       3.266   2.154  -2.964  1.00  0.00     0.010 A 
ATOM     11  C   UNL     1       0.865   1.968  -2.906  1.00  0.00     0.010 A 
ATOM     12  C   UNL     1       2.018   2.442  -3.529  1.00  0.00    -0.014 A 
BRANCH  12  13
ATOM     13  C   UNL     1       2.003   3.098  -4.843  1.00  0.00     0.031 A 
ATOM     14  C   UNL     1       2.644   2.356  -5.974  1.00  0.00     0.074 A 
ATOM     15  C   UNL     1       1.322   4.216  -5.165  1.00  0.00     0.049 A 
ATOM     16  N   UNL     1       3.570   2.764  -6.786  1.00  0.00    -0.248 NA
ATOM     17  C   UNL     1       2.174   0.988  -6.241  1.00  0.00     0.031 C 
ATOM     18  C   UNL     1       0.330   4.932  -4.366  1.00  0.00     0.029 A 
ATOM     19  N   UNL     1       1.323   4.895  -6.357  1.00  0.00    -0.354 N 
ATOM     20  C   UNL     1       3.709   1.767  -7.751  1.00  0.00     0.074 A 
ATOM     21  C   UNL     1       2.867   0.673  -7.336  1.00  0.00     0.031 C 
ATOM     22  C   UNL     1      -0.311   5.822  -5.156  1.00  0.00     0.029 A 
ATOM     23  C   UNL     1       0.308   5.826  -6.474  1.00  0.00     0.049 A 
ATOM     24  H   UNL     1       1.987   4.733  -7.066  1.00  0.00     0.167 HD
ATOM     25  C   UNL     1       4.398   1.957  -8.910  1.00  0.00     0.037 A 
ATOM     26  C   UNL     1      -0.040   6.525  -7.580  1.00  0.00     0.037 A 
ATOM     27  C   UNL     1       5.292   3.079  -8.842  1.00  0.00     0.049 A 
ATOM     28  C   UNL     1       1.090   6.511  -8.537  1.00  0.00     0.074 A 
ATOM     29  C   UNL     1       6.372   3.428  -8.056  1.00  0.00     0.029 A 
ATOM     30  N   UNL     1       4.995   4.199  -9.572  1.00  0.00    -0.354 N 
ATOM     31  N   UNL     1       2.192   7.194  -8.407  1.00  0.00    -0.248 NA
ATOM     32  C   UNL     1       1.094   5.519  -9.604  1.00  0.00     0.031 C 
ATOM     33  C   UNL     1       6.378   4.853  -8.025  1.00  0.00     0.029 A 
ATOM     34  C   UNL     1       5.287   5.279  -8.780  1.00  0.00     0.049 A 
ATOM     35  H   UNL     1       4.640   4.225 -10.490  1.00  0.00     0.167 HD
ATOM     36  C   UNL     1       3.142   6.458  -9.091  1.00  0.00     0.074 A 
ATOM     37  C   UNL     1       2.385   5.550  -9.936  1.00  0.00     0.031 C 
ATOM     38  C   UNL     1       4.444   6.446  -8.684  1.00  0.00     0.037 A 
BRANCH  25  39
ATOM     39  C   UNL     1       4.084   1.277 -10.220  1.00  0.00     0.064 A 
ATOM     40  C   UNL     1       5.018   1.322 -11.276  1.00  0.00     0.173 A 
ATOM     41  C   UNL     1       2.790   0.838 -10.567  1.00  0.00     0.173 A 
ATOM     42  F   UNL     1       6.267   1.763 -11.066  1.00  0.00    -0.203 F 
ATOM     43  C   UNL     1       4.665   1.002 -12.590  1.00  0.00     0.198 A 
ATOM     44  C   UNL     1       2.456   0.468 -11.871  1.00  0.00     0.198 A 
ATOM     45  F   UNL     1       1.784   0.853  -9.682  1.00  0.00    -0.203 F 
ATOM     46  F   UNL     1       5.555   1.171 -13.579  1.00  0.00    -0.200 F 
ATOM     47  C   UNL     1       3.384   0.575 -12.887  1.00  0.00     0.200 A 
ATOM     48  F   UNL     1       1.203   0.078 -12.147  1.00  0.00    -0.200 F 
ATOM     49  F   UNL     1       3.031   0.316 -14.152  1.00  0.00    -0.200 F 
ENDBRANCH  25  39
BRANCH  26  50
ATOM     50  C   UNL     1      -1.347   7.115  -7.942  1.00  0.00     0.064 A 
ATOM     51  C   UNL     1      -1.443   8.152  -8.885  1.00  0.00     0.173 A 
ATOM     52  C   UNL     1      -2.557   6.512  -7.550  1.00  0.00     0.173 A 
ATOM     53  F   UNL     1      -0.336   8.747  -9.353  1.00  0.00    -0.203 F 
ATOM     54  C   UNL     1      -2.674   8.556  -9.408  1.00  0.00     0.198 A 
ATOM     55  C   UNL     1      -3.786   6.926  -8.060  1.00  0.00     0.198 A 
ATOM     56  F   UNL     1      -2.560   5.452  -6.728  1.00  0.00    -0.203 F 
ATOM     57  F   UNL     1      -2.718   9.511 -10.348  1.00  0.00    -0.200 F 
ATOM     58  C   UNL     1      -3.844   7.941  -8.998  1.00  0.00     0.200 A 
ATOM     59  F   UNL     1      -4.909   6.300  -7.680  1.00  0.00    -0.200 F 
ATOM     60  F   UNL     1      -5.020   8.297  -9.533  1.00  0.00    -0.200 F 
ENDBRANCH  26  50
BRANCH  38  61
ATOM     61  C   UNL     1       4.913   7.562  -7.803  1.00  0.00     0.064 A 
ATOM     62  C   UNL     1       4.402   7.811  -6.518  1.00  0.00     0.173 A 
ATOM     63  C   UNL     1       5.999   8.337  -8.233  1.00  0.00     0.173 A 
ATOM     64  F   UNL     1       3.442   7.036  -5.995  1.00  0.00    -0.203 F 
ATOM     65  C   UNL     1       4.918   8.836  -5.729  1.00  0.00     0.198 A 
ATOM     66  C   UNL     1       6.537   9.335  -7.426  1.00  0.00     0.198 A 
ATOM     67  F   UNL     1       6.567   8.098  -9.427  1.00  0.00    -0.203 F 
ATOM     68  F   UNL     1       4.401   9.073  -4.514  1.00  0.00    -0.200 F 
ATOM     69  C   UNL     1       5.987   9.594  -6.181  1.00  0.00     0.200 A 
ATOM     70  F   UNL     1       7.604  10.030  -7.845  1.00  0.00    -0.200 F 
ATOM     71  F   UNL     1       6.505  10.556  -5.405  1.00  0.00    -0.200 F 
ENDBRANCH  38  61
ENDBRANCH  12  13
ENDBRANCH   5   7
ENDBRANCH   2   3
ENDBRANCH   1   2
BRANCH   1  72
ATOM     72  C   UNL     1       3.855   2.172   2.738  1.00  0.00     0.002 C 
BRANCH  72  73
ATOM     73  C   UNL     1       4.338   1.408   3.978  1.00  0.00     0.002 C 
BRANCH  73  74
ATOM     74  C   UNL     1       5.848   1.447   4.231  1.00  0.00     0.021 C 
BRANCH  74  75
ATOM     75  C   UNL     1       6.413   2.849   4.459  1.00  0.00     0.116 C 
BRANCH  75  76
ATOM     76  N   UNL     1       6.467   3.199   5.859  1.00  0.00    -0.356 N 
ATOM     77  C   UNL     1       7.484   3.464   6.710  1.00  0.00     0.223 C 
ATOM     78  H   UNL     1       5.580   3.256   6.281  1.00  0.00     0.163 HD
ATOM     79  O   UNL     1       7.147   3.796   7.854  1.00  0.00    -0.275 OA
BRANCH  77  80
ATOM     80  C   UNL     1       8.975   3.376   6.376  1.00  0.00     0.087 C 
ATOM     81  C   UNL     1       9.532   4.423   5.421  1.00  0.00     0.068 C 
ATOM     82  C   UNL     1       9.517   1.978   6.123  1.00  0.00     0.068 C 
ATOM     83  C   UNL     1       9.714   3.997   3.974  1.00  0.00     0.277 C 
ATOM     84  C   UNL     1       9.574   1.567   4.666  1.00  0.00     0.277 C 
ATOM     85  N   UNL     1      10.130   2.604   3.800  1.00  0.00    -0.230 N 
ATOM     86  C   UNL     1      10.649   2.210   2.569  1.00  0.00     0.383 C 
ATOM     87  N   UNL     1      10.139   1.202   1.911  1.00  0.00    -0.155 N 
ATOM     88  C   UNL     1      11.818   2.964   1.965  1.00  0.00     0.523 C 
ATOM     89  C   UNL     1      10.683   0.861   0.699  1.00  0.00     0.414 C 
ATOM     90  H   UNL     1       9.379   0.697   2.279  1.00  0.00     0.367 HD
ATOM     91  C   UNL     1      12.528   1.957   1.149  1.00  0.00     0.389 C 
ATOM     92  N   UNL     1      12.858   3.330   2.949  1.00  0.00     0.003 NA
ATOM     93  Cl  UNL     1       9.686  -0.085  -0.318  1.00  0.00     0.028 Cl
ATOM     94  N   UNL     1      11.864   1.196   0.268  1.00  0.00    -0.155 N 
ATOM     95  N   UNL     1      13.777   1.823   1.473  1.00  0.00    -0.169 N 
ATOM     96  C   UNL     1      13.903   2.660   2.552  1.00  0.00     0.532 C 
ATOM     97  H   UNL     1      12.228   0.922  -0.605  1.00  0.00     0.367 HD
ATOM     98  H   UNL     1      14.465   1.261   1.049  1.00  0.00     0.365 HD
ENDBRANCH  77  80
ENDBRANCH  75  76
ENDBRANCH  74  75
ENDBRANCH  73  74
ENDBRANCH  72  73
ENDBRANCH   1  72
TORSDOF 13
