REMARK SMILES CCOc1ccc(-c2ccc(N3CCC[C@H](C(=O)NCCCCCCNC(=O)c4ccc(-c5c6nc(c(-c7c(F)c(F)c(F)c(F)c7F)c7ccc([nH]7)c(-c7c(F)c(F)c(F)c(F)c7F)c7nc(c(-c8c(F)c(F)c(F)c(F)c8F)c8ccc5[nH]8)C=C7)C=C6)cc4)C3)nn2)cc1
REMARK SMILES IDX 21 1 20 2 19 3 17 4 18 5 16 7 12 8 13 9 92 10 14 11 15 12
REMARK SMILES IDX 11 13 8 14 9 15 94 16 10 17 93 18 7 19 4 20 5 21 96 22 6 23
REMARK SMILES IDX 95 24 3 25 2 26 1 27 22 28 23 29 24 30 25 31 26 32 27 33
REMARK SMILES IDX 28 35 29 36 30 37 91 38 31 39 90 40 32 41 33 42 34 43 84 44
REMARK SMILES IDX 35 45 89 46 83 47 85 48 36 49 88 50 82 51 81 52 37 54 69 55
REMARK SMILES IDX 49 56 68 57 50 58 53 59 67 60 86 61 51 62 52 63 66 65 87 66
REMARK SMILES IDX 54 67 38 68 39 69 47 70 40 71 41 72 45 73 48 74 42 75 43 76
REMARK SMILES IDX 46 77 44 78 70 79 71 80 79 81 72 82 73 83 77 84 80 85 74 86
REMARK SMILES IDX 75 87 78 88 76 89 55 90 56 91 64 92 57 93 58 94 62 95 65 96
REMARK SMILES IDX 59 97 60 98 63 99 61 100
REMARK H PARENT 19 6 26 34 85 53 53 64
REMARK Flexibility Score: inf
ROOT
ATOM      1  C   UNL     1      10.414   5.893  -1.810  1.00  0.00     0.021 C 
ENDROOT
BRANCH   1   2
ATOM      2  C   UNL     1      10.160   4.904  -2.946  1.00  0.00     0.116 C 
BRANCH   2   3
ATOM      3  N   UNL     1      10.721   5.313  -4.212  1.00  0.00    -0.356 N 
ATOM      4  C   UNL     1      11.432   4.601  -5.123  1.00  0.00     0.224 C 
ATOM      5  O   UNL     1      11.512   5.092  -6.256  1.00  0.00    -0.275 OA
ATOM      6  H   UNL     1      10.563   6.255  -4.452  1.00  0.00     0.163 HD
BRANCH   4   7
ATOM      7  C   UNL     1      12.136   3.268  -4.838  1.00  0.00     0.098 C 
ATOM      8  N   UNL     1      10.827   1.696  -3.442  1.00  0.00    -0.354 N 
ATOM      9  C   UNL     1      11.850   1.558  -2.415  1.00  0.00     0.118 C 
ATOM     10  C   UNL     1      11.215   2.052  -4.799  1.00  0.00     0.131 C 
ATOM     11  C   UNL     1      12.800   2.756  -2.380  1.00  0.00     0.022 C 
ATOM     12  C   UNL     1      13.212   3.291  -3.750  1.00  0.00     0.017 C 
BRANCH   8  13
ATOM     13  C   UNL     1       9.495   1.491  -3.138  1.00  0.00     0.151 A 
ATOM     14  C   UNL     1       6.775   1.419  -2.666  1.00  0.00     0.093 A 
ATOM     15  C   UNL     1       7.288   0.736  -3.754  1.00  0.00     0.035 A 
ATOM     16  N   UNL     1       7.595   2.058  -1.811  1.00  0.00    -0.148 NA
ATOM     17  C   UNL     1       8.659   0.785  -3.993  1.00  0.00     0.051 A 
ATOM     18  N   UNL     1       8.961   2.062  -2.037  1.00  0.00    -0.132 NA
BRANCH  14  19
ATOM     19  C   UNL     1       5.345   1.455  -2.375  1.00  0.00     0.002 A 
ATOM     20  C   UNL     1       2.577   1.444  -1.901  1.00  0.00     0.119 A 
ATOM     21  C   UNL     1       3.174   2.560  -2.483  1.00  0.00     0.047 A 
ATOM     22  C   UNL     1       3.341   0.327  -1.581  1.00  0.00     0.047 A 
ATOM     23  C   UNL     1       4.555   2.569  -2.710  1.00  0.00     0.014 A 
ATOM     24  C   UNL     1       4.718   0.338  -1.802  1.00  0.00     0.014 A 
BRANCH  20  25
ATOM     25  O   UNL     1       1.217   1.419  -1.767  1.00  0.00    -0.494 OA
BRANCH  25  26
ATOM     26  C   UNL     1       0.789   1.562  -0.406  1.00  0.00     0.226 C 
ATOM     27  C   UNL     1       0.619   0.212   0.275  1.00  0.00     0.049 C 
ENDBRANCH  25  26
ENDBRANCH  20  25
ENDBRANCH  14  19
ENDBRANCH   8  13
ENDBRANCH   4   7
ENDBRANCH   2   3
ENDBRANCH   1   2
BRANCH   1  28
ATOM     28  C   UNL     1       9.194   6.731  -1.419  1.00  0.00     0.002 C 
BRANCH  28  29
ATOM     29  C   UNL     1       7.940   5.941  -1.020  1.00  0.00     0.002 C 
BRANCH  29  30
ATOM     30  C   UNL     1       8.117   4.913   0.101  1.00  0.00     0.021 C 
BRANCH  30  31
ATOM     31  C   UNL     1       8.624   5.459   1.432  1.00  0.00     0.116 C 
BRANCH  31  32
ATOM     32  N   UNL     1       7.813   6.556   1.931  1.00  0.00    -0.352 N 
ATOM     33  C   UNL     1       7.242   6.765   3.158  1.00  0.00     0.251 C 
ATOM     34  H   UNL     1       7.644   7.270   1.275  1.00  0.00     0.163 HD
ATOM     35  O   UNL     1       6.454   7.695   3.302  1.00  0.00    -0.269 OA
BRANCH  33  36
ATOM     36  C   UNL     1       7.551   5.893   4.315  1.00  0.00     0.039 A 
ATOM     37  C   UNL     1       6.522   5.616   5.221  1.00  0.00     0.014 A 
ATOM     38  C   UNL     1       8.842   5.418   4.566  1.00  0.00     0.014 A 
ATOM     39  C   UNL     1       6.778   4.847   6.358  1.00  0.00     0.010 A 
ATOM     40  C   UNL     1       9.083   4.594   5.667  1.00  0.00     0.010 A 
ATOM     41  C   UNL     1       8.058   4.318   6.583  1.00  0.00    -0.014 A 
BRANCH  41  42
ATOM     42  C   UNL     1       8.324   3.490   7.787  1.00  0.00     0.031 A 
ATOM     43  C   UNL     1       9.236   3.989   8.873  1.00  0.00     0.074 A 
ATOM     44  C   UNL     1       7.756   2.273   7.889  1.00  0.00     0.049 A 
ATOM     45  N   UNL     1       9.555   3.423  10.010  1.00  0.00    -0.248 NA
ATOM     46  C   UNL     1       9.899   5.281   8.641  1.00  0.00     0.031 C 
ATOM     47  C   UNL     1       6.910   1.651   6.870  1.00  0.00     0.029 A 
ATOM     48  N   UNL     1       7.806   1.343   8.896  1.00  0.00    -0.354 N 
ATOM     49  C   UNL     1      10.463   4.280  10.619  1.00  0.00     0.074 A 
ATOM     50  C   UNL     1      10.683   5.380   9.704  1.00  0.00     0.031 C 
ATOM     51  C   UNL     1       6.497   0.454   7.315  1.00  0.00     0.029 A 
ATOM     52  C   UNL     1       7.064   0.217   8.639  1.00  0.00     0.049 A 
ATOM     53  H   UNL     1       8.325   1.470   9.723  1.00  0.00     0.167 HD
ATOM     54  C   UNL     1      11.042   4.170  11.839  1.00  0.00     0.037 A 
ATOM     55  C   UNL     1       6.854  -0.878   9.394  1.00  0.00     0.037 A 
ATOM     56  C   UNL     1      10.796   3.089  12.757  1.00  0.00     0.049 A 
ATOM     57  C   UNL     1       7.462  -0.950  10.767  1.00  0.00     0.074 A 
ATOM     58  C   UNL     1      11.274   2.923  14.046  1.00  0.00     0.029 A 
ATOM     59  N   UNL     1      10.001   1.986  12.481  1.00  0.00    -0.354 N 
ATOM     60  N   UNL     1       8.245  -0.089  11.371  1.00  0.00    -0.248 NA
ATOM     61  C   UNL     1       7.140  -2.136  11.572  1.00  0.00     0.031 C 
ATOM     62  C   UNL     1      10.800   1.700  14.534  1.00  0.00     0.029 A 
ATOM     63  C   UNL     1       9.989   1.127  13.568  1.00  0.00     0.049 A 
ATOM     64  H   UNL     1       9.517   1.836  11.637  1.00  0.00     0.167 HD
ATOM     65  C   UNL     1       8.489  -0.615  12.632  1.00  0.00     0.074 A 
ATOM     66  C   UNL     1       7.756  -1.861  12.713  1.00  0.00     0.031 C 
ATOM     67  C   UNL     1       9.252  -0.110  13.633  1.00  0.00     0.037 A 
BRANCH  54  68
ATOM     68  C   UNL     1      12.000   5.251  12.252  1.00  0.00     0.064 A 
ATOM     69  C   UNL     1      11.560   6.549  12.555  1.00  0.00     0.173 A 
ATOM     70  C   UNL     1      13.370   4.978  12.376  1.00  0.00     0.173 A 
ATOM     71  F   UNL     1      10.261   6.865  12.443  1.00  0.00    -0.203 F 
ATOM     72  C   UNL     1      12.461   7.541  12.936  1.00  0.00     0.198 A 
ATOM     73  C   UNL     1      14.264   5.965  12.786  1.00  0.00     0.198 A 
ATOM     74  F   UNL     1      13.844   3.753  12.105  1.00  0.00    -0.203 F 
ATOM     75  F   UNL     1      12.024   8.786  13.171  1.00  0.00    -0.200 F 
ATOM     76  C   UNL     1      13.810   7.247  13.057  1.00  0.00     0.200 A 
ATOM     77  F   UNL     1      15.567   5.676  12.914  1.00  0.00    -0.200 F 
ATOM     78  F   UNL     1      14.675   8.201  13.428  1.00  0.00    -0.200 F 
ENDBRANCH  54  68
BRANCH  55  79
ATOM     79  C   UNL     1       5.986  -1.968   8.880  1.00  0.00     0.064 A 
ATOM     80  C   UNL     1       4.708  -2.184   9.414  1.00  0.00     0.173 A 
ATOM     81  C   UNL     1       6.406  -2.799   7.832  1.00  0.00     0.173 A 
ATOM     82  F   UNL     1       4.271  -1.425  10.429  1.00  0.00    -0.203 F 
ATOM     83  C   UNL     1       3.889  -3.201   8.931  1.00  0.00     0.198 A 
ATOM     84  C   UNL     1       5.575  -3.800   7.332  1.00  0.00     0.198 A 
ATOM     85  F   UNL     1       7.617  -2.627   7.282  1.00  0.00    -0.203 F 
ATOM     86  F   UNL     1       2.687  -3.411   9.484  1.00  0.00    -0.200 F 
ATOM     87  C   UNL     1       4.321  -4.004   7.885  1.00  0.00     0.200 A 
ATOM     88  F   UNL     1       5.989  -4.564   6.311  1.00  0.00    -0.200 F 
ATOM     89  F   UNL     1       3.529  -4.977   7.414  1.00  0.00    -0.200 F 
ENDBRANCH  55  79
BRANCH  67  90
ATOM     90  C   UNL     1       9.309  -0.894  14.911  1.00  0.00     0.064 A 
ATOM     91  C   UNL     1      10.009  -2.106  14.999  1.00  0.00     0.173 A 
ATOM     92  C   UNL     1       8.677  -0.413  16.067  1.00  0.00     0.173 A 
ATOM     93  F   UNL     1      10.619  -2.615  13.918  1.00  0.00    -0.203 F 
ATOM     94  C   UNL     1      10.048  -2.824  16.192  1.00  0.00     0.198 A 
ATOM     95  C   UNL     1       8.742  -1.119  17.265  1.00  0.00     0.198 A 
ATOM     96  F   UNL     1       8.000   0.745  16.036  1.00  0.00    -0.203 F 
ATOM     97  F   UNL     1      10.680  -4.005  16.240  1.00  0.00    -0.200 F 
ATOM     98  C   UNL     1       9.420  -2.327  17.324  1.00  0.00     0.200 A 
ATOM     99  F   UNL     1       8.144  -0.632  18.361  1.00  0.00    -0.200 F 
ATOM    100  F   UNL     1       9.460  -3.018  18.472  1.00  0.00    -0.200 F 
ENDBRANCH  67  90
ENDBRANCH  41  42
ENDBRANCH  33  36
ENDBRANCH  31  32
ENDBRANCH  30  31
ENDBRANCH  29  30
ENDBRANCH  28  29
ENDBRANCH   1  28
TORSDOF 17
