REMARK SMILES CC(C)CSc1cc2c(cc1Cl)C=C(C(=O)NCCCCCCNC(=O)c1ccc(-c3c4nc(c(-c5c(F)c(F)c(F)c(F)c5F)c5ccc([nH]5)c(-c5c(F)c(F)c(F)c(F)c5F)c5nc(c(-c6c(F)c(F)c(F)c(F)c6F)c6ccc3[nH]6)C=C5)C=C4)cc1)[C@@H](C(F)(F)F)O2
REMARK SMILES IDX 20 1 19 2 18 3 17 4 15 5 16 6 14 8 6 9 7 10 11 11 8 12 10 13
REMARK SMILES IDX 12 14 9 15 95 16 13 17 90 18 5 19 4 20 2 21 1 22 3 23 91 24
REMARK SMILES IDX 92 25 93 26 94 27 21 28 22 29 23 30 24 31 25 32 26 34 27 35
REMARK SMILES IDX 28 36 89 37 29 38 88 39 30 40 31 41 32 42 82 43 33 44 87 45
REMARK SMILES IDX 81 46 83 47 34 48 86 49 80 50 79 51 35 53 67 54 47 55 66 56
REMARK SMILES IDX 48 57 51 58 65 59 84 60 49 61 50 62 64 64 85 65 52 66 36 67
REMARK SMILES IDX 37 68 45 69 38 70 39 71 43 72 46 73 40 74 41 75 44 76 42 77
REMARK SMILES IDX 68 78 69 79 77 80 70 81 71 82 75 83 78 84 72 85 73 86 76 87
REMARK SMILES IDX 74 88 53 89 54 90 62 91 55 92 56 93 60 94 63 95 57 96 58 97
REMARK SMILES IDX 61 98 59 99
REMARK H PARENT 17 7 24 33 83 52 51 63
REMARK Flexibility Score: inf
ROOT
ATOM      1  C   UNL     1       1.165   4.780  10.422  1.00  0.00     0.002 C 
ENDROOT
BRANCH   1   2
ATOM      2  C   UNL     1       0.590   4.756   9.001  1.00  0.00     0.021 C 
BRANCH   2   3
ATOM      3  C   UNL     1       1.495   4.113   7.955  1.00  0.00     0.116 C 
BRANCH   3   4
ATOM      4  N   UNL     1       1.455   2.664   8.004  1.00  0.00    -0.352 N 
ATOM      5  C   UNL     1       1.146   1.655   7.157  1.00  0.00     0.251 C 
ATOM      6  O   UNL     1       1.288   0.519   7.620  1.00  0.00    -0.270 OA
ATOM      7  H   UNL     1       1.724   2.324   8.889  1.00  0.00     0.163 HD
BRANCH   5   8
ATOM      8  C   UNL     1       0.657   1.819   5.753  1.00  0.00     0.067 C 
ATOM      9  C   UNL     1      -1.339   0.866   1.194  1.00  0.00     0.030 A 
ATOM     10  C   UNL     1      -0.825   2.006   1.831  1.00  0.00     0.063 A 
ATOM     11  C   UNL     1      -1.442  -0.319   1.939  1.00  0.00     0.055 A 
ATOM     12  C   UNL     1      -0.357   1.947   3.144  1.00  0.00     0.129 A 
ATOM     13  C   UNL     1      -0.960  -0.375   3.256  1.00  0.00     0.033 A 
ATOM     14  Cl  UNL     1      -2.205  -1.750   1.339  1.00  0.00    -0.083 Cl
ATOM     15  C   UNL     1      -0.409   0.758   3.859  1.00  0.00     0.019 A 
ATOM     16  O   UNL     1       0.109   3.114   3.665  1.00  0.00    -0.475 OA
ATOM     17  C   UNL     1       0.073   0.725   5.231  1.00  0.00     0.025 C 
ATOM     18  C   UNL     1       0.832   3.066   4.927  1.00  0.00     0.314 C 
BRANCH   9  19
ATOM     19  S   UNL     1      -1.838   1.107  -0.507  1.00  0.00    -0.124 SA
BRANCH  19  20
ATOM     20  C   UNL     1      -0.878  -0.157  -1.423  1.00  0.00     0.078 C 
BRANCH  20  21
ATOM     21  C   UNL     1       0.638   0.073  -1.572  1.00  0.00    -0.007 C 
ATOM     22  C   UNL     1       1.424  -0.067  -0.268  1.00  0.00     0.008 C 
ATOM     23  C   UNL     1       1.185  -0.944  -2.583  1.00  0.00     0.008 C 
ENDBRANCH  20  21
ENDBRANCH  19  20
ENDBRANCH   9  19
BRANCH  18  24
ATOM     24  C   UNL     1       2.303   3.407   4.637  1.00  0.00     0.429 C 
ATOM     25  F   UNL     1       2.411   4.681   4.182  1.00  0.00    -0.167 F 
ATOM     26  F   UNL     1       3.088   3.331   5.735  1.00  0.00    -0.167 F 
ATOM     27  F   UNL     1       2.844   2.594   3.702  1.00  0.00    -0.167 F 
ENDBRANCH  18  24
ENDBRANCH   5   8
ENDBRANCH   3   4
ENDBRANCH   2   3
ENDBRANCH   1   2
BRANCH   1  28
ATOM     28  C   UNL     1       2.544   5.434  10.582  1.00  0.00     0.002 C 
BRANCH  28  29
ATOM     29  C   UNL     1       2.727   6.794   9.905  1.00  0.00     0.021 C 
BRANCH  29  30
ATOM     30  C   UNL     1       1.733   7.870  10.324  1.00  0.00     0.116 C 
BRANCH  30  31
ATOM     31  N   UNL     1       1.888   8.279  11.710  1.00  0.00    -0.352 N 
ATOM     32  C   UNL     1       1.972   9.550  12.228  1.00  0.00     0.251 C 
ATOM     33  H   UNL     1       1.939   7.547  12.367  1.00  0.00     0.163 HD
ATOM     34  O   UNL     1       2.221   9.727  13.416  1.00  0.00    -0.269 OA
BRANCH  32  35
ATOM     35  C   UNL     1       1.802  10.711  11.328  1.00  0.00     0.039 A 
ATOM     36  C   UNL     1       0.723  10.771  10.443  1.00  0.00     0.014 A 
ATOM     37  C   UNL     1       2.763  11.725  11.340  1.00  0.00     0.014 A 
ATOM     38  C   UNL     1       0.696  11.755   9.460  1.00  0.00     0.010 A 
ATOM     39  C   UNL     1       2.693  12.755  10.398  1.00  0.00     0.010 A 
ATOM     40  C   UNL     1       1.689  12.749   9.418  1.00  0.00    -0.014 A 
BRANCH  40  41
ATOM     41  C   UNL     1       1.668  13.755   8.325  1.00  0.00     0.031 A 
ATOM     42  C   UNL     1       2.751  13.774   7.280  1.00  0.00     0.074 A 
ATOM     43  C   UNL     1       0.635  14.613   8.238  1.00  0.00     0.049 A 
ATOM     44  N   UNL     1       2.884  14.563   6.243  1.00  0.00    -0.248 NA
ATOM     45  C   UNL     1       3.826  12.778   7.414  1.00  0.00     0.031 C 
ATOM     46  C   UNL     1      -0.481  14.680   9.182  1.00  0.00     0.029 A 
ATOM     47  N   UNL     1       0.340  15.571   7.303  1.00  0.00    -0.354 N 
ATOM     48  C   UNL     1       4.061  14.175   5.616  1.00  0.00     0.074 A 
ATOM     49  C   UNL     1       4.619  13.094   6.398  1.00  0.00     0.031 C 
ATOM     50  C   UNL     1      -1.367  15.590   8.749  1.00  0.00     0.029 A 
ATOM     51  C   UNL     1      -0.855  16.209   7.530  1.00  0.00     0.049 A 
ATOM     52  H   UNL     1       0.927  15.782   6.541  1.00  0.00     0.167 HD
ATOM     53  C   UNL     1       4.617  14.668   4.483  1.00  0.00     0.037 A 
ATOM     54  C   UNL     1      -1.466  17.189   6.840  1.00  0.00     0.037 A 
ATOM     55  C   UNL     1       4.046  15.724   3.689  1.00  0.00     0.049 A 
ATOM     56  C   UNL     1      -0.811  17.739   5.606  1.00  0.00     0.074 A 
ATOM     57  C   UNL     1       4.527  16.275   2.514  1.00  0.00     0.029 A 
ATOM     58  N   UNL     1       2.865  16.387   3.987  1.00  0.00    -0.354 N 
ATOM     59  N   UNL     1       0.304  17.366   5.028  1.00  0.00    -0.248 NA
ATOM     60  C   UNL     1      -1.493  18.855   4.936  1.00  0.00     0.031 C 
ATOM     61  C   UNL     1       3.655  17.295   2.119  1.00  0.00     0.029 A 
ATOM     62  C   UNL     1       2.610  17.353   3.027  1.00  0.00     0.049 A 
ATOM     63  H   UNL     1       2.292  16.198   4.766  1.00  0.00     0.167 HD
ATOM     64  C   UNL     1       0.459  18.196   3.928  1.00  0.00     0.074 A 
ATOM     65  C   UNL     1      -0.690  19.078   3.903  1.00  0.00     0.031 C 
ATOM     66  C   UNL     1       1.467  18.228   3.023  1.00  0.00     0.037 A 
BRANCH  53  67
ATOM     67  C   UNL     1       5.918  14.076   4.028  1.00  0.00     0.064 A 
ATOM     68  C   UNL     1       5.979  12.808   3.433  1.00  0.00     0.173 A 
ATOM     69  C   UNL     1       7.107  14.814   4.127  1.00  0.00     0.173 A 
ATOM     70  F   UNL     1       4.872  12.058   3.327  1.00  0.00    -0.203 F 
ATOM     71  C   UNL     1       7.186  12.294   2.965  1.00  0.00     0.198 A 
ATOM     72  C   UNL     1       8.308  14.307   3.637  1.00  0.00     0.198 A 
ATOM     73  F   UNL     1       7.101  16.035   4.683  1.00  0.00    -0.203 F 
ATOM     74  F   UNL     1       7.227  11.068   2.426  1.00  0.00    -0.200 F 
ATOM     75  C   UNL     1       8.347  13.047   3.059  1.00  0.00     0.200 A 
ATOM     76  F   UNL     1       9.427  15.040   3.719  1.00  0.00    -0.200 F 
ATOM     77  F   UNL     1       9.505  12.557   2.596  1.00  0.00    -0.200 F 
ENDBRANCH  53  67
BRANCH  54  78
ATOM     78  C   UNL     1      -2.779  17.700   7.307  1.00  0.00     0.064 A 
ATOM     79  C   UNL     1      -3.954  17.410   6.601  1.00  0.00     0.173 A 
ATOM     80  C   UNL     1      -2.891  18.451   8.486  1.00  0.00     0.173 A 
ATOM     81  F   UNL     1      -3.893  16.712   5.457  1.00  0.00    -0.203 F 
ATOM     82  C   UNL     1      -5.193  17.852   7.059  1.00  0.00     0.198 A 
ATOM     83  C   UNL     1      -4.132  18.870   8.956  1.00  0.00     0.198 A 
ATOM     84  F   UNL     1      -1.794  18.750   9.197  1.00  0.00    -0.203 F 
ATOM     85  F   UNL     1      -6.301  17.581   6.354  1.00  0.00    -0.200 F 
ATOM     86  C   UNL     1      -5.282  18.573   8.240  1.00  0.00     0.200 A 
ATOM     87  F   UNL     1      -4.215  19.553  10.105  1.00  0.00    -0.200 F 
ATOM     88  F   UNL     1      -6.477  18.983   8.689  1.00  0.00    -0.200 F 
ENDBRANCH  54  78
BRANCH  66  89
ATOM     89  C   UNL     1       1.377  19.249   1.930  1.00  0.00     0.064 A 
ATOM     90  C   UNL     1       1.639  20.604   2.178  1.00  0.00     0.173 A 
ATOM     91  C   UNL     1       1.085  18.863   0.614  1.00  0.00     0.173 A 
ATOM     92  F   UNL     1       1.909  21.022   3.424  1.00  0.00    -0.203 F 
ATOM     93  C   UNL     1       1.597  21.539   1.148  1.00  0.00     0.198 A 
ATOM     94  C   UNL     1       1.067  19.797  -0.418  1.00  0.00     0.198 A 
ATOM     95  F   UNL     1       0.833  17.577   0.327  1.00  0.00    -0.203 F 
ATOM     96  F   UNL     1       1.819  22.834   1.411  1.00  0.00    -0.200 F 
ATOM     97  C   UNL     1       1.319  21.134  -0.150  1.00  0.00     0.200 A 
ATOM     98  F   UNL     1       0.808  19.403  -1.672  1.00  0.00    -0.200 F 
ATOM     99  F   UNL     1       1.289  22.034  -1.142  1.00  0.00    -0.200 F 
ENDBRANCH  66  89
ENDBRANCH  40  41
ENDBRANCH  32  35
ENDBRANCH  30  31
ENDBRANCH  29  30
ENDBRANCH  28  29
ENDBRANCH   1  28
TORSDOF 17
