REMARK SMILES CCCCCC[C@@H](C)N1C[C@H](C(=O)NCCCCCCNC(=O)c2ccc(-c3c4nc(c(-c5c(F)c(F)c(F)c(F)c5F)c5ccc([nH]5)c(-c5c(F)c(F)c(F)c(F)c5F)c5nc(c(-c6c(F)c(F)c(F)c(F)c6F)c6ccc3[nH]6)C=C5)C=C4)cc2)CC1=O
REMARK SMILES IDX 15 1 14 2 12 3 13 4 11 6 9 7 10 8 88 9 87 10 89 11 7 12 8 13
REMARK SMILES IDX 6 14 5 15 4 16 3 17 2 18 1 19 16 20 17 21 18 22 19 23 20 24
REMARK SMILES IDX 21 25 22 26 23 28 24 29 25 30 86 31 26 32 85 33 27 34 28 35
REMARK SMILES IDX 29 36 79 37 30 38 84 39 78 40 80 41 31 42 83 43 77 44 76 45
REMARK SMILES IDX 32 47 64 48 44 49 63 50 45 51 48 52 62 53 81 54 46 55 47 56
REMARK SMILES IDX 61 58 82 59 49 60 33 61 34 62 42 63 35 64 36 65 40 66 43 67
REMARK SMILES IDX 37 68 38 69 41 70 39 71 65 72 66 73 74 74 67 75 68 76 72 77
REMARK SMILES IDX 75 78 69 79 70 80 73 81 71 82 50 83 51 84 59 85 52 86 53 87
REMARK SMILES IDX 57 88 60 89 54 90 55 91 58 92 56 93
REMARK H PARENT 14 5 21 27 80 46 48 57
REMARK Flexibility Score: inf
ROOT
ATOM      1  C   UNL     1      -3.115  -3.431   8.205  1.00  0.00     0.116 C 
ENDROOT
BRANCH   1   2
ATOM      2  N   UNL     1      -3.795  -2.425   7.414  1.00  0.00    -0.356 N 
ATOM      3  C   UNL     1      -3.538  -1.099   7.268  1.00  0.00     0.225 C 
ATOM      4  O   UNL     1      -4.404  -0.405   6.737  1.00  0.00    -0.275 OA
ATOM      5  H   UNL     1      -4.567  -2.756   6.900  1.00  0.00     0.163 HD
BRANCH   3   6
ATOM      6  C   UNL     1      -2.189  -0.539   7.679  1.00  0.00     0.107 C 
ATOM      7  N   UNL     1      -1.654   1.168   6.147  1.00  0.00    -0.339 N 
ATOM      8  C   UNL     1      -1.384  -0.227   6.431  1.00  0.00     0.133 C 
ATOM      9  C   UNL     1      -2.181   1.809   7.267  1.00  0.00     0.223 C 
ATOM     10  C   UNL     1      -2.339   0.801   8.374  1.00  0.00     0.115 C 
ATOM     11  O   UNL     1      -2.417   2.998   7.419  1.00  0.00    -0.275 OA
BRANCH   7  12
ATOM     12  C   UNL     1      -1.161   1.811   4.909  1.00  0.00     0.082 C 
ATOM     13  C   UNL     1      -1.486   3.306   4.813  1.00  0.00     0.031 C 
BRANCH  12  14
ATOM     14  C   UNL     1      -1.661   1.069   3.642  1.00  0.00     0.025 C 
BRANCH  14  15
ATOM     15  C   UNL     1      -1.086   1.571   2.309  1.00  0.00     0.002 C 
BRANCH  15  16
ATOM     16  C   UNL     1       0.443   1.522   2.209  1.00  0.00     0.000 C 
BRANCH  16  17
ATOM     17  C   UNL     1       1.049   0.115   2.254  1.00  0.00    -0.000 C 
BRANCH  17  18
ATOM     18  C   UNL     1       0.618  -0.814   1.115  1.00  0.00    -0.003 C 
ATOM     19  C   UNL     1       0.987  -0.288  -0.264  1.00  0.00     0.004 C 
ENDBRANCH  17  18
ENDBRANCH  16  17
ENDBRANCH  15  16
ENDBRANCH  14  15
ENDBRANCH  12  14
ENDBRANCH   7  12
ENDBRANCH   3   6
ENDBRANCH   1   2
BRANCH   1  20
ATOM     20  C   UNL     1      -3.897  -3.722   9.486  1.00  0.00     0.021 C 
BRANCH  20  21
ATOM     21  C   UNL     1      -5.289  -4.323   9.242  1.00  0.00     0.002 C 
BRANCH  21  22
ATOM     22  C   UNL     1      -5.306  -5.593   8.384  1.00  0.00     0.002 C 
BRANCH  22  23
ATOM     23  C   UNL     1      -4.396  -6.716   8.886  1.00  0.00     0.021 C 
BRANCH  23  24
ATOM     24  C   UNL     1      -4.717  -7.195  10.294  1.00  0.00     0.116 C 
BRANCH  24  25
ATOM     25  N   UNL     1      -6.022  -7.833  10.372  1.00  0.00    -0.352 N 
ATOM     26  C   UNL     1      -6.346  -9.070  10.872  1.00  0.00     0.251 C 
ATOM     27  H   UNL     1      -6.775  -7.307  10.017  1.00  0.00     0.163 HD
ATOM     28  O   UNL     1      -7.461  -9.546  10.691  1.00  0.00    -0.269 OA
BRANCH  26  29
ATOM     29  C   UNL     1      -5.326  -9.834  11.619  1.00  0.00     0.039 A 
ATOM     30  C   UNL     1      -5.135 -11.186  11.324  1.00  0.00     0.014 A 
ATOM     31  C   UNL     1      -4.550  -9.206  12.596  1.00  0.00     0.014 A 
ATOM     32  C   UNL     1      -4.124 -11.896  11.973  1.00  0.00     0.010 A 
ATOM     33  C   UNL     1      -3.492  -9.891  13.179  1.00  0.00     0.010 A 
ATOM     34  C   UNL     1      -3.275 -11.246  12.883  1.00  0.00    -0.014 A 
BRANCH  34  35
ATOM     35  C   UNL     1      -2.171 -11.960  13.572  1.00  0.00     0.031 A 
ATOM     36  C   UNL     1      -2.193 -12.090  15.069  1.00  0.00     0.074 A 
ATOM     37  C   UNL     1      -1.115 -12.410  12.868  1.00  0.00     0.049 A 
ATOM     38  N   UNL     1      -1.275 -12.558  15.876  1.00  0.00    -0.248 NA
ATOM     39  C   UNL     1      -3.398 -11.594  15.752  1.00  0.00     0.031 C 
ATOM     40  C   UNL     1      -0.965 -12.319  11.416  1.00  0.00     0.029 A 
ATOM     41  N   UNL     1       0.041 -13.020  13.286  1.00  0.00    -0.354 N 
ATOM     42  C   UNL     1      -1.781 -12.387  17.158  1.00  0.00     0.074 A 
ATOM     43  C   UNL     1      -3.058 -11.721  17.025  1.00  0.00     0.031 C 
ATOM     44  C   UNL     1       0.205 -12.873  11.061  1.00  0.00     0.029 A 
ATOM     45  C   UNL     1       0.909 -13.313  12.262  1.00  0.00     0.049 A 
ATOM     46  H   UNL     1       0.231 -13.227  14.229  1.00  0.00     0.167 HD
ATOM     47  C   UNL     1      -1.238 -12.770  18.339  1.00  0.00     0.037 A 
ATOM     48  C   UNL     1       2.138 -13.863  12.294  1.00  0.00     0.037 A 
ATOM     49  C   UNL     1       0.023 -13.453  18.460  1.00  0.00     0.049 A 
ATOM     50  C   UNL     1       2.734 -14.255  13.620  1.00  0.00     0.074 A 
ATOM     51  C   UNL     1       0.635 -13.937  19.602  1.00  0.00     0.029 A 
ATOM     52  N   UNL     1       0.870 -13.741  17.399  1.00  0.00    -0.354 N 
ATOM     53  N   UNL     1       2.225 -14.143  14.822  1.00  0.00    -0.248 NA
ATOM     54  C   UNL     1       4.076 -14.853  13.591  1.00  0.00     0.031 C 
ATOM     55  C   UNL     1       1.881 -14.461  19.241  1.00  0.00     0.029 A 
ATOM     56  C   UNL     1       2.014 -14.370  17.864  1.00  0.00     0.049 A 
ATOM     57  H   UNL     1       0.685 -13.529  16.455  1.00  0.00     0.167 HD
ATOM     58  C   UNL     1       3.162 -14.694  15.688  1.00  0.00     0.074 A 
ATOM     59  C   UNL     1       4.271 -15.139  14.870  1.00  0.00     0.031 C 
ATOM     60  C   UNL     1       3.103 -14.825  17.036  1.00  0.00     0.037 A 
BRANCH  47  61
ATOM     61  C   UNL     1      -2.001 -12.439  19.591  1.00  0.00     0.064 A 
ATOM     62  C   UNL     1      -3.240 -13.032  19.885  1.00  0.00     0.173 A 
ATOM     63  C   UNL     1      -1.484 -11.517  20.514  1.00  0.00     0.173 A 
ATOM     64  F   UNL     1      -3.787 -13.912  19.033  1.00  0.00    -0.203 F 
ATOM     65  C   UNL     1      -3.951 -12.679  21.029  1.00  0.00     0.198 A 
ATOM     66  C   UNL     1      -2.180 -11.197  21.677  1.00  0.00     0.198 A 
ATOM     67  F   UNL     1      -0.301 -10.925  20.289  1.00  0.00    -0.203 F 
ATOM     68  F   UNL     1      -5.164 -13.204  21.250  1.00  0.00    -0.200 F 
ATOM     69  C   UNL     1      -3.418 -11.766  21.926  1.00  0.00     0.200 A 
ATOM     70  F   UNL     1      -1.655 -10.327  22.551  1.00  0.00    -0.200 F 
ATOM     71  F   UNL     1      -4.104 -11.428  23.027  1.00  0.00    -0.200 F 
ENDBRANCH  47  61
BRANCH  48  72
ATOM     72  C   UNL     1       2.872 -14.105  11.024  1.00  0.00     0.064 A 
ATOM     73  C   UNL     1       3.086 -15.411  10.560  1.00  0.00     0.173 A 
ATOM     74  C   UNL     1       3.364 -13.047  10.246  1.00  0.00     0.173 A 
ATOM     75  F   UNL     1       2.653 -16.456  11.279  1.00  0.00    -0.203 F 
ATOM     76  C   UNL     1       3.777 -15.649   9.374  1.00  0.00     0.198 A 
ATOM     77  C   UNL     1       4.029 -13.286   9.045  1.00  0.00     0.198 A 
ATOM     78  F   UNL     1       3.180 -11.779  10.642  1.00  0.00    -0.203 F 
ATOM     79  F   UNL     1       4.003 -16.908   8.975  1.00  0.00    -0.200 F 
ATOM     80  C   UNL     1       4.242 -14.587   8.613  1.00  0.00     0.200 A 
ATOM     81  F   UNL     1       4.461 -12.256   8.305  1.00  0.00    -0.200 F 
ATOM     82  F   UNL     1       4.898 -14.816   7.468  1.00  0.00    -0.200 F 
ENDBRANCH  48  72
BRANCH  60  83
ATOM     83  C   UNL     1       4.240 -15.533  17.717  1.00  0.00     0.064 A 
ATOM     84  C   UNL     1       5.511 -14.953  17.841  1.00  0.00     0.173 A 
ATOM     85  C   UNL     1       4.031 -16.789  18.308  1.00  0.00     0.173 A 
ATOM     86  F   UNL     1       5.767 -13.761  17.282  1.00  0.00    -0.203 F 
ATOM     87  C   UNL     1       6.535 -15.614  18.514  1.00  0.00     0.198 A 
ATOM     88  C   UNL     1       5.048 -17.431  19.009  1.00  0.00     0.198 A 
ATOM     89  F   UNL     1       2.832 -17.385  18.224  1.00  0.00    -0.203 F 
ATOM     90  F   UNL     1       7.755 -15.061  18.583  1.00  0.00    -0.200 F 
ATOM     91  C   UNL     1       6.301 -16.846  19.106  1.00  0.00     0.200 A 
ATOM     92  F   UNL     1       4.812 -18.613  19.596  1.00  0.00    -0.200 F 
ATOM     93  F   UNL     1       7.284 -17.473  19.767  1.00  0.00    -0.200 F 
ENDBRANCH  60  83
ENDBRANCH  34  35
ENDBRANCH  26  29
ENDBRANCH  24  25
ENDBRANCH  23  24
ENDBRANCH  22  23
ENDBRANCH  21  22
ENDBRANCH  20  21
ENDBRANCH   1  20
TORSDOF 19
