REMARK SMILES Cc1ccc(-c2ncc(C(=O)NCCCCCCNC(=O)c3ccc(-c4c5nc(c(-c6c(F)c(F)c(F)c(F)c6F)c6ccc([nH]6)c(-c6c(F)c(F)c(F)c(F)c6F)c6nc(c(-c7c(F)c(F)c(F)c(F)c7F)c7ccc4[nH]7)C=C6)C=C5)cc3)c(Nc3ccccc3)n2)cc1
REMARK SMILES IDX 15 1 14 2 13 3 12 4 10 5 11 6 9 8 6 9 7 10 93 11 8 12 85 13
REMARK SMILES IDX 5 14 1 15 2 16 3 17 95 18 4 19 94 20 86 21 87 23 88 24 92 25
REMARK SMILES IDX 89 26 91 27 90 28 16 29 17 30 18 31 19 32 20 33 21 35 22 36
REMARK SMILES IDX 23 37 84 38 24 39 83 40 25 41 26 42 27 43 77 44 28 45 82 46
REMARK SMILES IDX 76 47 78 48 29 49 81 50 75 51 74 52 30 54 62 55 42 56 61 57
REMARK SMILES IDX 43 58 46 59 60 60 79 61 44 62 45 63 59 65 80 66 47 67 31 68
REMARK SMILES IDX 32 69 40 70 33 71 34 72 38 73 41 74 35 75 36 76 39 77 37 78
REMARK SMILES IDX 63 79 64 80 72 81 65 82 66 83 70 84 73 85 67 86 68 87 71 88
REMARK SMILES IDX 69 89 48 90 49 91 57 92 50 93 51 94 55 95 58 96 52 97 53 98
REMARK SMILES IDX 56 99 54 100
REMARK H PARENT 12 7 86 22 19 34 78 53 46 64
REMARK Flexibility Score: inf
ROOT
ATOM      1  C   UNL     1      -9.675  -0.723   3.432  1.00  0.00     0.002 C 
ENDROOT
BRANCH   1   2
ATOM      2  C   UNL     1      -8.175  -0.770   3.100  1.00  0.00     0.021 C 
BRANCH   2   3
ATOM      3  C   UNL     1      -7.859  -1.378   1.730  1.00  0.00     0.116 C 
BRANCH   3   4
ATOM      4  N   UNL     1      -8.088  -0.397   0.687  1.00  0.00    -0.352 N 
ATOM      5  C   UNL     1      -7.259   0.382  -0.077  1.00  0.00     0.256 C 
ATOM      6  O   UNL     1      -7.802   1.184  -0.842  1.00  0.00    -0.269 OA
ATOM      7  H   UNL     1      -9.042  -0.261   0.485  1.00  0.00     0.163 HD
BRANCH   5   8
ATOM      8  C   UNL     1      -5.779   0.294  -0.066  1.00  0.00     0.100 A 
ATOM      9  C   UNL     1      -3.064   0.156  -0.082  1.00  0.00     0.161 A 
ATOM     10  N   UNL     1      -3.691  -0.187   1.053  1.00  0.00    -0.236 NA
ATOM     11  N   UNL     1      -3.678   0.607  -1.183  1.00  0.00    -0.210 NA
ATOM     12  C   UNL     1      -5.036  -0.072   1.036  1.00  0.00     0.131 A 
ATOM     13  C   UNL     1      -5.029   0.691  -1.176  1.00  0.00     0.147 A 
BRANCH   9  14
ATOM     14  C   UNL     1      -1.604   0.106  -0.095  1.00  0.00     0.019 A 
ATOM     15  C   UNL     1       2.722  -0.009  -0.029  1.00  0.00     0.044 C 
ATOM     16  C   UNL     1       1.223   0.037  -0.060  1.00  0.00    -0.051 A 
ATOM     17  C   UNL     1       0.482  -1.147   0.029  1.00  0.00     0.004 A 
ATOM     18  C   UNL     1       0.546   1.254  -0.191  1.00  0.00     0.004 A 
ATOM     19  C   UNL     1      -0.916  -1.111   0.021  1.00  0.00     0.012 A 
ATOM     20  C   UNL     1      -0.851   1.285  -0.216  1.00  0.00     0.012 A 
ENDBRANCH   9  14
BRANCH  13  21
ATOM     21  N   UNL     1      -5.664   1.218  -2.323  1.00  0.00    -0.339 N 
ATOM     22  H   UNL     1      -6.648   1.232  -2.302  1.00  0.00     0.168 HD
BRANCH  21  23
ATOM     23  C   UNL     1      -5.066   1.723  -3.488  1.00  0.00     0.040 A 
ATOM     24  C   UNL     1      -5.371   3.026  -3.904  1.00  0.00     0.026 A 
ATOM     25  C   UNL     1      -4.091   1.008  -4.189  1.00  0.00     0.026 A 
ATOM     26  C   UNL     1      -4.719   3.597  -4.999  1.00  0.00     0.002 A 
ATOM     27  C   UNL     1      -3.454   1.567  -5.300  1.00  0.00     0.002 A 
ATOM     28  C   UNL     1      -3.764   2.865  -5.700  1.00  0.00     0.000 A 
ENDBRANCH  21  23
ENDBRANCH  13  21
ENDBRANCH   5   8
ENDBRANCH   3   4
ENDBRANCH   2   3
ENDBRANCH   1   2
BRANCH   1  29
ATOM     29  C   UNL     1     -10.425  -2.066   3.373  1.00  0.00     0.002 C 
BRANCH  29  30
ATOM     30  C   UNL     1      -9.722  -3.251   4.041  1.00  0.00     0.021 C 
BRANCH  30  31
ATOM     31  C   UNL     1      -9.673  -3.153   5.560  1.00  0.00     0.116 C 
BRANCH  31  32
ATOM     32  N   UNL     1     -10.664  -3.980   6.229  1.00  0.00    -0.352 N 
ATOM     33  C   UNL     1     -11.000  -4.075   7.569  1.00  0.00     0.251 C 
ATOM     34  H   UNL     1     -11.180  -4.569   5.632  1.00  0.00     0.163 HD
ATOM     35  O   UNL     1     -11.786  -4.925   7.934  1.00  0.00    -0.269 OA
BRANCH  33  36
ATOM     36  C   UNL     1     -10.515  -3.049   8.530  1.00  0.00     0.039 A 
ATOM     37  C   UNL     1     -11.427  -2.579   9.486  1.00  0.00     0.014 A 
ATOM     38  C   UNL     1      -9.276  -2.433   8.393  1.00  0.00     0.014 A 
ATOM     39  C   UNL     1     -11.195  -1.360  10.120  1.00  0.00     0.010 A 
ATOM     40  C   UNL     1      -9.087  -1.181   8.939  1.00  0.00     0.010 A 
ATOM     41  C   UNL     1     -10.076  -0.619   9.751  1.00  0.00    -0.014 A 
BRANCH  41  42
ATOM     42  C   UNL     1      -9.896   0.788  10.074  1.00  0.00     0.031 A 
ATOM     43  C   UNL     1      -8.941   1.201  11.121  1.00  0.00     0.074 A 
ATOM     44  C   UNL     1     -10.513   1.714   9.307  1.00  0.00     0.049 A 
ATOM     45  N   UNL     1      -8.985   2.338  11.727  1.00  0.00    -0.248 NA
ATOM     46  C   UNL     1      -7.862   0.340  11.590  1.00  0.00     0.031 C 
ATOM     47  C   UNL     1     -10.226   3.145   9.244  1.00  0.00     0.029 A 
ATOM     48  N   UNL     1     -11.679   1.558   8.538  1.00  0.00    -0.354 N 
ATOM     49  C   UNL     1      -7.822   2.474  12.449  1.00  0.00     0.074 A 
ATOM     50  C   UNL     1      -7.181   1.180  12.376  1.00  0.00     0.031 C 
ATOM     51  C   UNL     1     -11.301   3.780   8.753  1.00  0.00     0.029 A 
ATOM     52  C   UNL     1     -12.359   2.794   8.630  1.00  0.00     0.049 A 
ATOM     53  H   UNL     1     -11.962   0.757   8.040  1.00  0.00     0.167 HD
ATOM     54  C   UNL     1      -7.470   3.705  12.918  1.00  0.00     0.037 A 
ATOM     55  C   UNL     1     -13.583   2.891   9.226  1.00  0.00     0.037 A 
ATOM     56  C   UNL     1      -8.484   4.703  12.594  1.00  0.00     0.049 A 
ATOM     57  C   UNL     1     -13.620   3.837  10.401  1.00  0.00     0.074 A 
ATOM     58  C   UNL     1      -8.594   5.623  11.564  1.00  0.00     0.029 A 
ATOM     59  N   UNL     1      -9.739   4.623  13.187  1.00  0.00    -0.354 N 
ATOM     60  N   UNL     1     -12.562   4.201  11.072  1.00  0.00    -0.248 NA
ATOM     61  C   UNL     1     -14.846   4.430  10.925  1.00  0.00     0.031 C 
ATOM     62  C   UNL     1      -9.934   6.073  11.515  1.00  0.00     0.029 A 
ATOM     63  C   UNL     1     -10.636   5.441  12.527  1.00  0.00     0.049 A 
ATOM     64  H   UNL     1      -9.958   4.064  13.966  1.00  0.00     0.167 HD
ATOM     65  C   UNL     1     -12.934   5.040  12.092  1.00  0.00     0.074 A 
ATOM     66  C   UNL     1     -14.371   5.165  11.947  1.00  0.00     0.031 C 
ATOM     67  C   UNL     1     -12.017   5.550  12.968  1.00  0.00     0.037 A 
BRANCH  54  68
ATOM     68  C   UNL     1      -6.082   4.051  13.405  1.00  0.00     0.064 A 
ATOM     69  C   UNL     1      -5.530   5.332  13.183  1.00  0.00     0.173 A 
ATOM     70  C   UNL     1      -5.227   3.145  14.056  1.00  0.00     0.173 A 
ATOM     71  F   UNL     1      -6.258   6.331  12.667  1.00  0.00    -0.203 F 
ATOM     72  C   UNL     1      -4.199   5.638  13.476  1.00  0.00     0.198 A 
ATOM     73  C   UNL     1      -3.878   3.432  14.299  1.00  0.00     0.198 A 
ATOM     74  F   UNL     1      -5.683   1.973  14.518  1.00  0.00    -0.203 F 
ATOM     75  F   UNL     1      -3.730   6.870  13.231  1.00  0.00    -0.200 F 
ATOM     76  C   UNL     1      -3.361   4.675  13.997  1.00  0.00     0.200 A 
ATOM     77  F   UNL     1      -3.083   2.490  14.827  1.00  0.00    -0.200 F 
ATOM     78  F   UNL     1      -2.071   4.951  14.229  1.00  0.00    -0.200 F 
ENDBRANCH  54  68
BRANCH  55  79
ATOM     79  C   UNL     1     -14.393   1.652   9.095  1.00  0.00     0.064 A 
ATOM     80  C   UNL     1     -14.807   1.267   7.805  1.00  0.00     0.173 A 
ATOM     81  C   UNL     1     -14.404   0.676  10.098  1.00  0.00     0.173 A 
ATOM     82  F   UNL     1     -14.812   2.166   6.808  1.00  0.00    -0.203 F 
ATOM     83  C   UNL     1     -15.097  -0.062   7.505  1.00  0.00     0.198 A 
ATOM     84  C   UNL     1     -14.707  -0.653   9.795  1.00  0.00     0.198 A 
ATOM     85  F   UNL     1     -14.003   0.977  11.341  1.00  0.00    -0.203 F 
ATOM     86  F   UNL     1     -15.373  -0.416   6.242  1.00  0.00    -0.200 F 
ATOM     87  C   UNL     1     -15.017  -1.026   8.494  1.00  0.00     0.200 A 
ATOM     88  F   UNL     1     -14.607  -1.593  10.747  1.00  0.00    -0.200 F 
ATOM     89  F   UNL     1     -15.197  -2.319   8.188  1.00  0.00    -0.200 F 
ENDBRANCH  55  79
BRANCH  67  90
ATOM     90  C   UNL     1     -12.303   6.282  14.261  1.00  0.00     0.064 A 
ATOM     91  C   UNL     1     -13.480   6.128  15.010  1.00  0.00     0.173 A 
ATOM     92  C   UNL     1     -11.295   7.070  14.874  1.00  0.00     0.173 A 
ATOM     93  F   UNL     1     -14.466   5.316  14.607  1.00  0.00    -0.203 F 
ATOM     94  C   UNL     1     -13.660   6.760  16.246  1.00  0.00     0.198 A 
ATOM     95  C   UNL     1     -11.454   7.646  16.134  1.00  0.00     0.198 A 
ATOM     96  F   UNL     1     -10.109   7.281  14.285  1.00  0.00    -0.203 F 
ATOM     97  F   UNL     1     -14.820   6.613  16.901  1.00  0.00    -0.200 F 
ATOM     98  C   UNL     1     -12.644   7.506  16.813  1.00  0.00     0.200 A 
ATOM     99  F   UNL     1     -10.437   8.319  16.691  1.00  0.00    -0.200 F 
ATOM    100  F   UNL     1     -12.803   8.065  18.020  1.00  0.00    -0.200 F 
ENDBRANCH  67  90
ENDBRANCH  41  42
ENDBRANCH  33  36
ENDBRANCH  31  32
ENDBRANCH  30  31
ENDBRANCH  29  30
ENDBRANCH   1  29
TORSDOF 16
