REMARK SMILES O=C(NCCCCCCNC(=O)[C@H]1C[C@H](O)CN1C(=O)CS[C@H]1CCS(=O)(=O)C1)c1ccc(-c2c3nc(c(-c4c(F)c(F)c(F)c(F)c4F)c4ccc([nH]4)c(-c4c(F)c(F)c(F)c(F)c4F)c4nc(c(-c5c(F)c(F)c(F)c(F)c5F)c5ccc2[nH]5)C=C4)C=C3)cc1
REMARK SMILES IDX 7 1 6 2 5 3 4 4 3 5 1 6 2 7 30 9 31 10 92 11 32 12 91 13
REMARK SMILES IDX 33 14 34 15 35 16 85 17 36 18 90 19 84 20 86 21 37 22 89 23
REMARK SMILES IDX 83 24 82 25 38 27 70 28 50 29 69 30 51 31 54 32 68 33 87 34
REMARK SMILES IDX 52 35 53 36 67 38 88 39 55 40 39 41 40 42 48 43 41 44 42 45
REMARK SMILES IDX 46 46 49 47 43 48 44 49 47 50 45 51 71 52 72 53 80 54 73 55
REMARK SMILES IDX 74 56 78 57 81 58 75 59 76 60 79 61 77 62 56 63 57 64 65 65
REMARK SMILES IDX 58 66 59 67 63 68 66 69 60 70 61 71 64 72 62 73 8 74 9 75
REMARK SMILES IDX 10 76 11 77 12 79 13 80 14 81 18 82 15 83 17 84 19 85 20 86
REMARK SMILES IDX 21 87 22 88 23 89 24 90 29 91 25 92 26 93 27 94 28 95 16 96
REMARK H PARENT 3 8 86 26 54 37 10 78 16 97
REMARK Flexibility Score: inf
ROOT
ATOM      1  C   UNL     1       5.455  -1.199   7.212  1.00  0.00     0.002 C 
ENDROOT
BRANCH   1   2
ATOM      2  C   UNL     1       4.481  -0.112   6.742  1.00  0.00     0.002 C 
BRANCH   2   3
ATOM      3  C   UNL     1       4.873   0.560   5.425  1.00  0.00     0.021 C 
BRANCH   3   4
ATOM      4  C   UNL     1       5.022  -0.421   4.271  1.00  0.00     0.116 C 
BRANCH   4   5
ATOM      5  N   UNL     1       3.788  -1.161   4.054  1.00  0.00    -0.352 N 
ATOM      6  O   UNL     1       1.774  -1.515   3.098  1.00  0.00    -0.269 OA
ATOM      7  C   UNL     1       2.916  -1.083   3.001  1.00  0.00     0.251 C 
ATOM      8  H   UNL     1       3.548  -1.805   4.759  1.00  0.00     0.163 HD
BRANCH   7   9
ATOM      9  C   UNL     1       3.381  -0.476   1.742  1.00  0.00     0.039 A 
ATOM     10  C   UNL     1       4.652  -0.791   1.252  1.00  0.00     0.014 A 
ATOM     11  C   UNL     1       2.541   0.390   1.041  1.00  0.00     0.014 A 
ATOM     12  C   UNL     1       5.134  -0.145   0.126  1.00  0.00     0.010 A 
ATOM     13  C   UNL     1       2.990   0.961  -0.150  1.00  0.00     0.010 A 
ATOM     14  C   UNL     1       4.293   0.706  -0.607  1.00  0.00    -0.014 A 
BRANCH  14  15
ATOM     15  C   UNL     1       4.768   1.236  -1.905  1.00  0.00     0.031 A 
ATOM     16  C   UNL     1       4.945   2.706  -2.127  1.00  0.00     0.074 A 
ATOM     17  C   UNL     1       5.035   0.355  -2.888  1.00  0.00     0.049 A 
ATOM     18  N   UNL     1       5.326   3.335  -3.209  1.00  0.00    -0.248 NA
ATOM     19  C   UNL     1       4.643   3.590  -0.991  1.00  0.00     0.031 C 
ATOM     20  C   UNL     1       4.879  -1.098  -2.779  1.00  0.00     0.029 A 
ATOM     21  N   UNL     1       5.492   0.544  -4.165  1.00  0.00    -0.354 N 
ATOM     22  C   UNL     1       5.293   4.686  -2.894  1.00  0.00     0.074 A 
ATOM     23  C   UNL     1       4.824   4.788  -1.528  1.00  0.00     0.031 C 
ATOM     24  C   UNL     1       5.261  -1.670  -3.928  1.00  0.00     0.029 A 
ATOM     25  C   UNL     1       5.614  -0.623  -4.878  1.00  0.00     0.049 A 
ATOM     26  H   UNL     1       5.712   1.430  -4.535  1.00  0.00     0.167 HD
ATOM     27  C   UNL     1       5.628   5.738  -3.680  1.00  0.00     0.037 A 
ATOM     28  C   UNL     1       5.937  -0.827  -6.167  1.00  0.00     0.037 A 
ATOM     29  C   UNL     1       6.089   5.613  -5.040  1.00  0.00     0.049 A 
ATOM     30  C   UNL     1       6.266   0.359  -7.024  1.00  0.00     0.074 A 
ATOM     31  C   UNL     1       6.498   6.610  -5.907  1.00  0.00     0.029 A 
ATOM     32  N   UNL     1       6.184   4.415  -5.738  1.00  0.00    -0.354 N 
ATOM     33  N   UNL     1       6.284   1.630  -6.703  1.00  0.00    -0.248 NA
ATOM     34  C   UNL     1       6.620   0.085  -8.421  1.00  0.00     0.031 C 
ATOM     35  C   UNL     1       6.772   6.026  -7.148  1.00  0.00     0.029 A 
ATOM     36  C   UNL     1       6.608   4.654  -7.036  1.00  0.00     0.049 A 
ATOM     37  H   UNL     1       5.979   3.527  -5.365  1.00  0.00     0.167 HD
ATOM     38  C   UNL     1       6.669   2.307  -7.850  1.00  0.00     0.074 A 
ATOM     39  C   UNL     1       6.893   1.302  -8.870  1.00  0.00     0.031 C 
ATOM     40  C   UNL     1       6.822   3.641  -8.041  1.00  0.00     0.037 A 
BRANCH  27  41
ATOM     41  C   UNL     1       5.472   7.117  -3.100  1.00  0.00     0.064 A 
ATOM     42  C   UNL     1       6.283   7.580  -2.053  1.00  0.00     0.173 A 
ATOM     43  C   UNL     1       4.510   7.998  -3.619  1.00  0.00     0.173 A 
ATOM     44  F   UNL     1       7.213   6.778  -1.511  1.00  0.00    -0.203 F 
ATOM     45  C   UNL     1       6.111   8.857  -1.522  1.00  0.00     0.198 A 
ATOM     46  C   UNL     1       4.365   9.286  -3.110  1.00  0.00     0.198 A 
ATOM     47  F   UNL     1       3.712   7.613  -4.626  1.00  0.00    -0.203 F 
ATOM     48  F   UNL     1       6.857   9.253  -0.481  1.00  0.00    -0.200 F 
ATOM     49  C   UNL     1       5.157   9.711  -2.055  1.00  0.00     0.200 A 
ATOM     50  F   UNL     1       3.454  10.115  -3.638  1.00  0.00    -0.200 F 
ATOM     51  F   UNL     1       4.995  10.939  -1.544  1.00  0.00    -0.200 F 
ENDBRANCH  27  41
BRANCH  28  52
ATOM     52  C   UNL     1       5.936  -2.210  -6.709  1.00  0.00     0.064 A 
ATOM     53  C   UNL     1       7.126  -2.841  -7.090  1.00  0.00     0.173 A 
ATOM     54  C   UNL     1       4.742  -2.940  -6.824  1.00  0.00     0.173 A 
ATOM     55  F   UNL     1       8.290  -2.180  -7.011  1.00  0.00    -0.203 F 
ATOM     56  C   UNL     1       7.122  -4.145  -7.581  1.00  0.00     0.198 A 
ATOM     57  C   UNL     1       4.743  -4.255  -7.281  1.00  0.00     0.198 A 
ATOM     58  F   UNL     1       3.577  -2.385  -6.460  1.00  0.00    -0.203 F 
ATOM     59  F   UNL     1       8.269  -4.713  -7.977  1.00  0.00    -0.200 F 
ATOM     60  C   UNL     1       5.932  -4.854  -7.667  1.00  0.00     0.200 A 
ATOM     61  F   UNL     1       3.595  -4.942  -7.339  1.00  0.00    -0.200 F 
ATOM     62  F   UNL     1       5.931  -6.113  -8.126  1.00  0.00    -0.200 F 
ENDBRANCH  28  52
BRANCH  40  63
ATOM     63  C   UNL     1       7.285   4.088  -9.398  1.00  0.00     0.064 A 
ATOM     64  C   UNL     1       6.457   4.004 -10.527  1.00  0.00     0.173 A 
ATOM     65  C   UNL     1       8.564   4.643  -9.562  1.00  0.00     0.173 A 
ATOM     66  F   UNL     1       5.232   3.465 -10.428  1.00  0.00    -0.203 F 
ATOM     67  C   UNL     1       6.902   4.435 -11.774  1.00  0.00     0.198 A 
ATOM     68  C   UNL     1       8.992   5.106 -10.802  1.00  0.00     0.198 A 
ATOM     69  F   UNL     1       9.394   4.750  -8.513  1.00  0.00    -0.203 F 
ATOM     70  F   UNL     1       6.114   4.296 -12.849  1.00  0.00    -0.200 F 
ATOM     71  C   UNL     1       8.164   4.994 -11.909  1.00  0.00     0.200 A 
ATOM     72  F   UNL     1      10.205   5.660 -10.926  1.00  0.00    -0.200 F 
ATOM     73  F   UNL     1       8.586   5.418 -13.108  1.00  0.00    -0.200 F 
ENDBRANCH  40  63
ENDBRANCH  14  15
ENDBRANCH   7   9
ENDBRANCH   4   5
ENDBRANCH   3   4
ENDBRANCH   2   3
ENDBRANCH   1   2
BRANCH   1  74
ATOM     74  C   UNL     1       6.911  -0.742   7.272  1.00  0.00     0.021 C 
BRANCH  74  75
ATOM     75  C   UNL     1       7.116   0.441   8.214  1.00  0.00     0.116 C 
BRANCH  75  76
ATOM     76  N   UNL     1       7.513  -0.014   9.521  1.00  0.00    -0.354 N 
ATOM     77  C   UNL     1       8.721  -0.027  10.142  1.00  0.00     0.242 C 
ATOM     78  H   UNL     1       6.777  -0.381  10.062  1.00  0.00     0.163 HD
ATOM     79  O   UNL     1       8.787  -0.686  11.187  1.00  0.00    -0.273 OA
BRANCH  77  80
ATOM     80  C   UNL     1      10.009   0.560   9.522  1.00  0.00     0.177 C 
ATOM     81  C   UNL     1      10.763  -0.468   8.677  1.00  0.00     0.069 C 
ATOM     82  N   UNL     1       9.904   1.743   8.663  1.00  0.00    -0.327 N 
ATOM     83  C   UNL     1      10.459  -0.082   7.233  1.00  0.00     0.136 C 
ATOM     84  C   UNL     1      10.254   1.430   7.280  1.00  0.00     0.152 C 
BRANCH  82  85
ATOM     85  C   UNL     1       9.665   2.975   9.240  1.00  0.00     0.233 C 
ATOM     86  O   UNL     1       9.402   3.068  10.440  1.00  0.00    -0.274 OA
BRANCH  85  87
ATOM     87  C   UNL     1       9.770   4.223   8.376  1.00  0.00     0.169 C 
BRANCH  87  88
ATOM     88  S   UNL     1      11.309   5.167   8.736  1.00  0.00    -0.148 SA
BRANCH  88  89
ATOM     89  C   UNL     1      12.540   4.086   7.959  1.00  0.00     0.063 C 
ATOM     90  C   UNL     1      13.822   4.803   7.521  1.00  0.00     0.031 C 
ATOM     91  C   UNL     1      13.041   2.979   8.880  1.00  0.00     0.151 C 
ATOM     92  C   UNL     1      14.752   3.697   6.997  1.00  0.00     0.138 C 
ATOM     93  S   UNL     1      14.305   2.212   7.897  1.00  0.00     0.151 S 
ATOM     94  O   UNL     1      13.642   1.289   6.995  1.00  0.00    -0.229 OA
ATOM     95  O   UNL     1      15.393   1.801   8.757  1.00  0.00    -0.229 OA
ENDBRANCH  88  89
ENDBRANCH  87  88
ENDBRANCH  85  87
ENDBRANCH  82  85
BRANCH  83  96
ATOM     96  O   UNL     1      11.505  -0.459   6.354  1.00  0.00    -0.391 OA
ATOM     97  H   UNL     1      12.332  -0.036   6.634  1.00  0.00     0.211 HD
ENDBRANCH  83  96
ENDBRANCH  77  80
ENDBRANCH  75  76
ENDBRANCH  74  75
ENDBRANCH   1  74
TORSDOF 18
