REMARK SMILES C[C@H]1[C@H](C(=O)NCCCCCCNC(=O)c2ccc(-c3c4nc(c(-c5c(F)c(F)c(F)c(F)c5F)c5ccc([nH]5)c(-c5c(F)c(F)c(F)c(F)c5F)c5nc(c(-c6c(F)c(F)c(F)c(F)c6F)c6ccc3[nH]6)C=C5)C=C4)cc2)CCN1C(=O)CC[NH2+]C1CC1
REMARK SMILES IDX 8 1 7 2 6 3 4 4 5 5 3 7 1 8 2 9 81 10 79 11 80 12 82 13
REMARK SMILES IDX 83 14 84 15 85 16 86 17 87 20 88 21 89 22 9 23 10 24 11 25
REMARK SMILES IDX 12 26 13 27 14 28 15 30 16 31 17 32 78 33 18 34 77 35 19 36
REMARK SMILES IDX 20 37 21 38 71 39 22 40 76 41 70 42 72 43 23 44 75 45 69 46
REMARK SMILES IDX 68 47 24 49 56 50 36 51 55 52 37 53 40 54 54 55 73 56 38 57
REMARK SMILES IDX 39 58 53 60 74 61 41 62 25 63 26 64 34 65 27 66 28 67 32 68
REMARK SMILES IDX 35 69 29 70 30 71 33 72 31 73 57 74 58 75 66 76 59 77 60 78
REMARK SMILES IDX 64 79 67 80 61 81 62 82 65 83 63 84 42 85 43 86 51 87 44 88
REMARK SMILES IDX 45 89 49 90 52 91 46 92 47 93 50 94 48 95
REMARK H PARENT 6 6 86 18 86 19 13 29 72 48 40 59
REMARK Flexibility Score: inf
ROOT
ATOM      1  C   UNL     1      -0.006   0.171   4.092  1.00  0.00     0.021 C 
ENDROOT
BRANCH   1   2
ATOM      2  C   UNL     1      -1.020   0.544   3.016  1.00  0.00     0.116 C 
BRANCH   2   3
ATOM      3  N   UNL     1      -0.777   1.876   2.504  1.00  0.00    -0.356 N 
ATOM      4  C   UNL     1      -0.607   2.319   1.236  1.00  0.00     0.225 C 
ATOM      5  O   UNL     1      -0.355   3.517   1.081  1.00  0.00    -0.275 OA
ATOM      6  H   UNL     1      -0.726   2.577   3.193  1.00  0.00     0.163 HD
BRANCH   4   7
ATOM      7  C   UNL     1      -0.685   1.399   0.033  1.00  0.00     0.102 C 
ATOM      8  C   UNL     1       1.254   0.557  -1.272  1.00  0.00     0.032 C 
ATOM      9  C   UNL     1       0.450   0.365   0.011  1.00  0.00     0.094 C 
ATOM     10  N   UNL     1      -0.215  -0.938  -0.001  1.00  0.00    -0.339 N 
ATOM     11  C   UNL     1      -1.990   0.614  -0.125  1.00  0.00     0.037 C 
ATOM     12  C   UNL     1      -1.569  -0.802  -0.501  1.00  0.00     0.120 C 
BRANCH  10  13
ATOM     13  C   UNL     1       0.286  -2.176   0.350  1.00  0.00     0.228 C 
ATOM     14  O   UNL     1      -0.347  -3.209   0.122  1.00  0.00    -0.275 OA
BRANCH  13  15
ATOM     15  C   UNL     1       1.610  -2.261   1.097  1.00  0.00     0.161 C 
BRANCH  15  16
ATOM     16  C   UNL     1       2.820  -2.420   0.174  1.00  0.00     0.270 C 
BRANCH  16  17
ATOM     17  N   UNL     1       3.692  -1.240   0.220  1.00  0.00    -0.343 N 
ATOM     18  H   UNL     1       4.151  -1.216   1.130  1.00  0.00     0.346 HD
ATOM     19  H   UNL     1       3.096  -0.428   0.056  1.00  0.00     0.346 HD
BRANCH  17  20
ATOM     20  C   UNL     1       4.729  -1.217  -0.818  1.00  0.00     0.182 C 
ATOM     21  C   UNL     1       4.405  -1.253  -2.288  1.00  0.00     0.071 C 
ATOM     22  C   UNL     1       4.868   0.027  -1.663  1.00  0.00     0.071 C 
ENDBRANCH  17  20
ENDBRANCH  16  17
ENDBRANCH  15  16
ENDBRANCH  13  15
ENDBRANCH  10  13
ENDBRANCH   4   7
ENDBRANCH   2   3
ENDBRANCH   1   2
BRANCH   1  23
ATOM     23  C   UNL     1      -0.113   1.013   5.367  1.00  0.00     0.002 C 
BRANCH  23  24
ATOM     24  C   UNL     1      -1.516   1.074   5.980  1.00  0.00     0.002 C 
BRANCH  24  25
ATOM     25  C   UNL     1      -2.158  -0.289   6.246  1.00  0.00     0.021 C 
BRANCH  25  26
ATOM     26  C   UNL     1      -1.340  -1.197   7.155  1.00  0.00     0.116 C 
BRANCH  26  27
ATOM     27  N   UNL     1      -1.165  -0.618   8.477  1.00  0.00    -0.352 N 
ATOM     28  C   UNL     1      -1.492  -1.143   9.699  1.00  0.00     0.251 C 
ATOM     29  H   UNL     1      -0.753   0.276   8.497  1.00  0.00     0.163 HD
ATOM     30  O   UNL     1      -1.488  -0.433  10.702  1.00  0.00    -0.269 OA
BRANCH  28  31
ATOM     31  C   UNL     1      -1.867  -2.567   9.803  1.00  0.00     0.039 A 
ATOM     32  C   UNL     1      -2.973  -2.920  10.578  1.00  0.00     0.014 A 
ATOM     33  C   UNL     1      -1.128  -3.548   9.136  1.00  0.00     0.014 A 
ATOM     34  C   UNL     1      -3.370  -4.256  10.641  1.00  0.00     0.010 A 
ATOM     35  C   UNL     1      -1.573  -4.866   9.133  1.00  0.00     0.010 A 
ATOM     36  C   UNL     1      -2.693  -5.234   9.893  1.00  0.00    -0.014 A 
BRANCH  36  37
ATOM     37  C   UNL     1      -3.143  -6.648   9.897  1.00  0.00     0.031 A 
ATOM     38  C   UNL     1      -2.248  -7.723  10.446  1.00  0.00     0.074 A 
ATOM     39  C   UNL     1      -4.334  -6.968   9.357  1.00  0.00     0.049 A 
ATOM     40  N   UNL     1      -2.441  -9.018  10.493  1.00  0.00    -0.248 NA
ATOM     41  C   UNL     1      -0.952  -7.291  10.992  1.00  0.00     0.031 C 
ATOM     42  C   UNL     1      -5.269  -6.018   8.752  1.00  0.00     0.029 A 
ATOM     43  N   UNL     1      -4.960  -8.181   9.221  1.00  0.00    -0.354 N 
ATOM     44  C   UNL     1      -1.292  -9.550  11.062  1.00  0.00     0.074 A 
ATOM     45  C   UNL     1      -0.381  -8.449  11.287  1.00  0.00     0.031 C 
ATOM     46  C   UNL     1      -6.360  -6.679   8.336  1.00  0.00     0.029 A 
ATOM     47  C   UNL     1      -6.184  -8.103   8.604  1.00  0.00     0.049 A 
ATOM     48  H   UNL     1      -4.568  -9.028   9.537  1.00  0.00     0.167 HD
ATOM     49  C   UNL     1      -1.031 -10.838  11.390  1.00  0.00     0.037 A 
ATOM     50  C   UNL     1      -7.060  -9.073   8.282  1.00  0.00     0.037 A 
ATOM     51  C   UNL     1      -1.948 -11.927  11.176  1.00  0.00     0.049 A 
ATOM     52  C   UNL     1      -6.734 -10.500   8.634  1.00  0.00     0.074 A 
ATOM     53  C   UNL     1      -1.802 -13.258  11.523  1.00  0.00     0.029 A 
ATOM     54  N   UNL     1      -3.180 -11.810  10.547  1.00  0.00    -0.354 N 
ATOM     55  N   UNL     1      -5.678 -10.983   9.241  1.00  0.00    -0.248 NA
ATOM     56  C   UNL     1      -7.727 -11.516   8.260  1.00  0.00     0.031 C 
ATOM     57  C   UNL     1      -2.919 -13.957  11.053  1.00  0.00     0.029 A 
ATOM     58  C   UNL     1      -3.791 -13.052  10.470  1.00  0.00     0.049 A 
ATOM     59  H   UNL     1      -3.563 -10.970  10.207  1.00  0.00     0.167 HD
ATOM     60  C   UNL     1      -5.890 -12.351   9.348  1.00  0.00     0.074 A 
ATOM     61  C   UNL     1      -7.186 -12.618   8.759  1.00  0.00     0.031 C 
ATOM     62  C   UNL     1      -5.084 -13.301   9.884  1.00  0.00     0.037 A 
BRANCH  49  63
ATOM     63  C   UNL     1       0.302 -11.139  12.015  1.00  0.00     0.064 A 
ATOM     64  C   UNL     1       0.632 -10.690  13.303  1.00  0.00     0.173 A 
ATOM     65  C   UNL     1       1.251 -11.914  11.330  1.00  0.00     0.173 A 
ATOM     66  F   UNL     1      -0.234  -9.938  13.999  1.00  0.00    -0.203 F 
ATOM     67  C   UNL     1       1.873 -10.975  13.868  1.00  0.00     0.198 A 
ATOM     68  C   UNL     1       2.478 -12.226  11.912  1.00  0.00     0.198 A 
ATOM     69  F   UNL     1       0.988 -12.375  10.098  1.00  0.00    -0.203 F 
ATOM     70  F   UNL     1       2.185 -10.487  15.076  1.00  0.00    -0.200 F 
ATOM     71  C   UNL     1       2.791 -11.749  13.175  1.00  0.00     0.200 A 
ATOM     72  F   UNL     1       3.358 -12.987  11.247  1.00  0.00    -0.200 F 
ATOM     73  F   UNL     1       3.982 -12.029  13.722  1.00  0.00    -0.200 F 
ENDBRANCH  49  63
BRANCH  50  74
ATOM     74  C   UNL     1      -8.338  -8.727   7.606  1.00  0.00     0.064 A 
ATOM     75  C   UNL     1      -9.566  -8.877   8.266  1.00  0.00     0.173 A 
ATOM     76  C   UNL     1      -8.362  -8.245   6.289  1.00  0.00     0.173 A 
ATOM     77  F   UNL     1      -9.598  -9.353   9.520  1.00  0.00    -0.203 F 
ATOM     78  C   UNL     1     -10.769  -8.583   7.627  1.00  0.00     0.198 A 
ATOM     79  C   UNL     1      -9.563  -7.920   5.662  1.00  0.00     0.198 A 
ATOM     80  F   UNL     1      -7.215  -8.076   5.614  1.00  0.00    -0.203 F 
ATOM     81  F   UNL     1     -11.930  -8.785   8.264  1.00  0.00    -0.200 F 
ATOM     82  C   UNL     1     -10.766  -8.099   6.328  1.00  0.00     0.200 A 
ATOM     83  F   UNL     1      -9.554  -7.436   4.413  1.00  0.00    -0.200 F 
ATOM     84  F   UNL     1     -11.922  -7.811   5.715  1.00  0.00    -0.200 F 
ENDBRANCH  50  74
BRANCH  62  85
ATOM     85  C   UNL     1      -5.595 -14.714   9.890  1.00  0.00     0.064 A 
ATOM     86  C   UNL     1      -5.716 -15.461   8.709  1.00  0.00     0.173 A 
ATOM     87  C   UNL     1      -5.931 -15.341  11.100  1.00  0.00     0.173 A 
ATOM     88  F   UNL     1      -5.422 -14.904   7.524  1.00  0.00    -0.203 F 
ATOM     89  C   UNL     1      -6.182 -16.773   8.736  1.00  0.00     0.198 A 
ATOM     90  C   UNL     1      -6.362 -16.664  11.127  1.00  0.00     0.198 A 
ATOM     91  F   UNL     1      -5.826 -14.675  12.260  1.00  0.00    -0.203 F 
ATOM     92  F   UNL     1      -6.341 -17.449   7.590  1.00  0.00    -0.200 F 
ATOM     93  C   UNL     1      -6.496 -17.376   9.945  1.00  0.00     0.200 A 
ATOM     94  F   UNL     1      -6.649 -17.250  12.298  1.00  0.00    -0.200 F 
ATOM     95  F   UNL     1      -6.935 -18.642   9.970  1.00  0.00    -0.200 F 
ENDBRANCH  62  85
ENDBRANCH  36  37
ENDBRANCH  28  31
ENDBRANCH  26  27
ENDBRANCH  25  26
ENDBRANCH  24  25
ENDBRANCH  23  24
ENDBRANCH   1  23
TORSDOF 18
