REMARK SMILES O=C(NCCCCCCNC(=O)[C@]12C[NH2+]C[C@H]1CN(C(=O)c1ccccc1-n1cncn1)C2)c1ccc(-c2c3nc(c(-c4c(F)c(F)c(F)c(F)c4F)c4ccc([nH]4)c(-c4c(F)c(F)c(F)c(F)c4F)c4nc(c(-c5c(F)c(F)c(F)c(F)c5F)c5ccc2[nH]5)C=C4)C=C3)cc1
REMARK SMILES IDX 7 1 6 2 5 3 4 4 3 5 1 6 2 7 34 9 35 10 96 11 36 12 95 13
REMARK SMILES IDX 37 14 38 15 39 16 89 17 40 18 94 19 88 20 90 21 41 22 93 23
REMARK SMILES IDX 87 24 86 25 42 27 74 28 54 29 73 30 55 31 58 32 72 33 91 34
REMARK SMILES IDX 56 35 57 36 71 38 92 39 59 40 43 41 44 42 52 43 45 44 46 45
REMARK SMILES IDX 50 46 53 47 47 48 48 49 51 50 49 51 75 52 76 53 84 54 77 55
REMARK SMILES IDX 78 56 82 57 85 58 79 59 80 60 83 61 81 62 60 63 61 64 69 65
REMARK SMILES IDX 62 66 63 67 67 68 70 69 64 70 65 71 68 72 66 73 8 74 9 75
REMARK SMILES IDX 10 76 11 77 12 79 13 80 14 81 17 82 33 83 15 84 16 85 18 86
REMARK SMILES IDX 19 87 20 90 21 91 22 92 23 93 27 94 24 95 26 96 25 97 28 98
REMARK SMILES IDX 29 99 32 100 30 101 31 102
REMARK H PARENT 3 8 90 26 58 37 10 78 15 88 15 89
REMARK Flexibility Score: inf
ROOT
ATOM      1  C   UNL     1       5.062  -2.919   2.621  1.00  0.00     0.002 C 
ENDROOT
BRANCH   1   2
ATOM      2  C   UNL     1       4.472  -1.550   2.976  1.00  0.00     0.002 C 
BRANCH   2   3
ATOM      3  C   UNL     1       4.899  -0.397   2.064  1.00  0.00     0.021 C 
BRANCH   3   4
ATOM      4  C   UNL     1       4.748  -0.685   0.571  1.00  0.00     0.116 C 
BRANCH   4   5
ATOM      5  N   UNL     1       3.387  -0.938   0.149  1.00  0.00    -0.352 N 
ATOM      6  O   UNL     1       1.288  -0.709  -0.522  1.00  0.00    -0.269 OA
ATOM      7  C   UNL     1       2.301  -0.146  -0.101  1.00  0.00     0.251 C 
ATOM      8  H   UNL     1       3.201  -1.895   0.012  1.00  0.00     0.163 HD
BRANCH   7   9
ATOM      9  C   UNL     1       2.250   1.319   0.149  1.00  0.00     0.039 A 
ATOM     10  C   UNL     1       3.359   2.156   0.279  1.00  0.00     0.014 A 
ATOM     11  C   UNL     1       0.965   1.884   0.238  1.00  0.00     0.014 A 
ATOM     12  C   UNL     1       3.196   3.508   0.562  1.00  0.00     0.010 A 
ATOM     13  C   UNL     1       0.794   3.241   0.492  1.00  0.00     0.010 A 
ATOM     14  C   UNL     1       1.915   4.048   0.677  1.00  0.00    -0.014 A 
BRANCH  14  15
ATOM     15  C   UNL     1       1.800   5.492   0.854  1.00  0.00     0.031 A 
ATOM     16  C   UNL     1       2.262   6.330  -0.295  1.00  0.00     0.074 A 
ATOM     17  C   UNL     1       1.169   6.056   1.901  1.00  0.00     0.049 A 
ATOM     18  N   UNL     1       3.112   7.308  -0.294  1.00  0.00    -0.248 NA
ATOM     19  C   UNL     1       1.734   6.001  -1.628  1.00  0.00     0.031 C 
ATOM     20  C   UNL     1       0.390   5.389   2.945  1.00  0.00     0.029 A 
ATOM     21  N   UNL     1       0.998   7.380   2.178  1.00  0.00    -0.354 N 
ATOM     22  C   UNL     1       3.129   7.811  -1.596  1.00  0.00     0.074 A 
ATOM     23  C   UNL     1       2.333   6.914  -2.393  1.00  0.00     0.031 C 
ATOM     24  C   UNL     1      -0.346   6.313   3.602  1.00  0.00     0.029 A 
ATOM     25  C   UNL     1       0.003   7.635   3.108  1.00  0.00     0.049 A 
ATOM     26  H   UNL     1       1.531   8.091   1.754  1.00  0.00     0.167 HD
ATOM     27  C   UNL     1       3.661   9.026  -1.904  1.00  0.00     0.037 A 
ATOM     28  C   UNL     1      -0.550   8.838   3.390  1.00  0.00     0.037 A 
ATOM     29  C   UNL     1       4.554   9.498  -0.884  1.00  0.00     0.049 A 
ATOM     30  C   UNL     1       0.368   9.895   2.903  1.00  0.00     0.074 A 
ATOM     31  C   UNL     1       5.746   9.053  -0.348  1.00  0.00     0.029 A 
ATOM     32  N   UNL     1       4.115  10.480  -0.034  1.00  0.00    -0.354 N 
ATOM     33  N   UNL     1       1.525  10.171   3.435  1.00  0.00    -0.248 NA
ATOM     34  C   UNL     1       0.160  10.413   1.559  1.00  0.00     0.031 C 
ATOM     35  C   UNL     1       5.701   9.433   1.025  1.00  0.00     0.029 A 
ATOM     36  C   UNL     1       4.496  10.106   1.228  1.00  0.00     0.049 A 
ATOM     37  H   UNL     1       3.622  11.295  -0.281  1.00  0.00     0.167 HD
ATOM     38  C   UNL     1       2.331  10.517   2.363  1.00  0.00     0.074 A 
ATOM     39  C   UNL     1       1.412  10.762   1.257  1.00  0.00     0.031 C 
ATOM     40  C   UNL     1       3.678  10.302   2.398  1.00  0.00     0.037 A 
BRANCH  27  41
ATOM     41  C   UNL     1       3.145   9.938  -2.989  1.00  0.00     0.064 A 
ATOM     42  C   UNL     1       3.893  11.075  -3.358  1.00  0.00     0.173 A 
ATOM     43  C   UNL     1       1.812   9.908  -3.450  1.00  0.00     0.173 A 
ATOM     44  F   UNL     1       5.165  11.218  -2.956  1.00  0.00    -0.203 F 
ATOM     45  C   UNL     1       3.322  12.135  -4.068  1.00  0.00     0.198 A 
ATOM     46  C   UNL     1       1.262  10.944  -4.204  1.00  0.00     0.198 A 
ATOM     47  F   UNL     1       0.964   8.935  -3.094  1.00  0.00    -0.203 F 
ATOM     48  F   UNL     1       4.033  13.250  -4.286  1.00  0.00    -0.200 F 
ATOM     49  C   UNL     1       2.005  12.071  -4.485  1.00  0.00     0.200 A 
ATOM     50  F   UNL     1      -0.022  10.873  -4.583  1.00  0.00    -0.200 F 
ATOM     51  F   UNL     1       1.438  13.112  -5.109  1.00  0.00    -0.200 F 
ENDBRANCH  27  41
BRANCH  28  52
ATOM     52  C   UNL     1      -1.943   9.129   3.799  1.00  0.00     0.064 A 
ATOM     53  C   UNL     1      -2.284  10.352   4.396  1.00  0.00     0.173 A 
ATOM     54  C   UNL     1      -3.014   8.319   3.371  1.00  0.00     0.173 A 
ATOM     55  F   UNL     1      -1.324  11.204   4.785  1.00  0.00    -0.203 F 
ATOM     56  C   UNL     1      -3.617  10.750   4.540  1.00  0.00     0.198 A 
ATOM     57  C   UNL     1      -4.343   8.710   3.527  1.00  0.00     0.198 A 
ATOM     58  F   UNL     1      -2.790   7.175   2.708  1.00  0.00    -0.203 F 
ATOM     59  F   UNL     1      -3.903  11.952   5.058  1.00  0.00    -0.200 F 
ATOM     60  C   UNL     1      -4.644   9.932   4.099  1.00  0.00     0.200 A 
ATOM     61  F   UNL     1      -5.325   7.925   3.063  1.00  0.00    -0.200 F 
ATOM     62  F   UNL     1      -5.918  10.337   4.186  1.00  0.00    -0.200 F 
ENDBRANCH  28  52
BRANCH  40  63
ATOM     63  C   UNL     1       4.298   9.966   3.722  1.00  0.00     0.064 A 
ATOM     64  C   UNL     1       3.989   8.809   4.458  1.00  0.00     0.173 A 
ATOM     65  C   UNL     1       5.345  10.771   4.190  1.00  0.00     0.173 A 
ATOM     66  F   UNL     1       3.077   7.934   4.016  1.00  0.00    -0.203 F 
ATOM     67  C   UNL     1       4.663   8.504   5.638  1.00  0.00     0.198 A 
ATOM     68  C   UNL     1       6.043  10.443   5.348  1.00  0.00     0.198 A 
ATOM     69  F   UNL     1       5.726  11.853   3.493  1.00  0.00    -0.203 F 
ATOM     70  F   UNL     1       4.341   7.402   6.330  1.00  0.00    -0.200 F 
ATOM     71  C   UNL     1       5.694   9.317   6.078  1.00  0.00     0.200 A 
ATOM     72  F   UNL     1       7.075  11.202   5.742  1.00  0.00    -0.200 F 
ATOM     73  F   UNL     1       6.373   9.001   7.190  1.00  0.00    -0.200 F 
ENDBRANCH  40  63
ENDBRANCH  14  15
ENDBRANCH   7   9
ENDBRANCH   4   5
ENDBRANCH   3   4
ENDBRANCH   2   3
ENDBRANCH   1   2
BRANCH   1  74
ATOM     74  C   UNL     1       6.601  -3.004   2.565  1.00  0.00     0.021 C 
BRANCH  74  75
ATOM     75  C   UNL     1       7.346  -2.586   3.841  1.00  0.00     0.116 C 
BRANCH  75  76
ATOM     76  N   UNL     1       6.751  -3.209   4.996  1.00  0.00    -0.355 N 
ATOM     77  C   UNL     1       7.176  -3.972   6.007  1.00  0.00     0.234 C 
ATOM     78  H   UNL     1       5.785  -3.025   5.055  1.00  0.00     0.163 HD
ATOM     79  O   UNL     1       6.254  -4.397   6.726  1.00  0.00    -0.274 OA
BRANCH  77  80
ATOM     80  C   UNL     1       8.608  -4.301   6.410  1.00  0.00     0.125 C 
ATOM     81  C   UNL     1       8.911  -3.410   7.617  1.00  0.00     0.280 C 
ATOM     82  C   UNL     1       9.902  -4.153   5.599  1.00  0.00     0.087 C 
ATOM     83  C   UNL     1       8.537  -5.813   6.673  1.00  0.00     0.143 C 
ATOM     84  N   UNL     1       9.594  -2.259   7.002  1.00  0.00    -0.345 N 
ATOM     85  C   UNL     1      10.495  -2.799   5.986  1.00  0.00     0.267 C 
ATOM     86  C   UNL     1      10.801  -5.289   6.140  1.00  0.00     0.130 C 
ATOM     87  N   UNL     1       9.882  -6.333   6.520  1.00  0.00    -0.337 N 
ATOM     88  H   UNL     1      10.125  -1.748   7.707  1.00  0.00     0.346 HD
ATOM     89  H   UNL     1       8.922  -1.611   6.590  1.00  0.00     0.346 HD
BRANCH  87  90
ATOM     90  C   UNL     1      10.278  -7.643   6.713  1.00  0.00     0.256 C 
ATOM     91  O   UNL     1      11.434  -8.007   6.853  1.00  0.00    -0.269 OA
BRANCH  90  92
ATOM     92  C   UNL     1       9.218  -8.669   6.583  1.00  0.00     0.065 A 
ATOM     93  C   UNL     1       8.736  -9.267   7.753  1.00  0.00     0.016 A 
ATOM     94  C   UNL     1       8.601  -8.928   5.344  1.00  0.00     0.079 A 
ATOM     95  C   UNL     1       7.620 -10.104   7.692  1.00  0.00     0.001 A 
ATOM     96  C   UNL     1       7.454  -9.734   5.304  1.00  0.00     0.029 A 
ATOM     97  C   UNL     1       6.976 -10.328   6.474  1.00  0.00     0.002 A 
BRANCH  94  98
ATOM     98  N   UNL     1       9.074  -8.359   4.136  1.00  0.00    -0.220 N 
ATOM     99  C   UNL     1      10.351  -8.003   3.769  1.00  0.00     0.225 A 
ATOM    100  N   UNL     1       8.225  -8.049   3.122  1.00  0.00    -0.155 NA
ATOM    101  N   UNL     1      10.338  -7.350   2.629  1.00  0.00    -0.223 NA
ATOM    102  C   UNL     1       9.025  -7.397   2.278  1.00  0.00     0.246 A 
ENDBRANCH  94  98
ENDBRANCH  90  92
ENDBRANCH  87  90
ENDBRANCH  77  80
ENDBRANCH  75  76
ENDBRANCH  74  75
ENDBRANCH   1  74
TORSDOF 16
