REMARK SMILES O=C(NCCCCCCNC(=O)c1cccc(N[C@H]2CCCC[C@@H]2O)c1)c1ccc(-c2c3nc(c(-c4c(F)c(F)c(F)c(F)c4F)c4ccc([nH]4)c(-c4c(F)c(F)c(F)c(F)c4F)c4nc(c(-c5c(F)c(F)c(F)c(F)c5F)c5ccc2[nH]5)C=C4)C=C3)cc1
REMARK SMILES IDX 7 1 6 2 5 3 4 4 3 5 1 6 2 7 27 9 28 10 89 11 29 12 88 13
REMARK SMILES IDX 30 14 31 15 32 16 82 17 33 18 87 19 81 20 83 21 34 22 86 23
REMARK SMILES IDX 80 24 79 25 35 27 67 28 47 29 66 30 48 31 51 32 65 33 84 34
REMARK SMILES IDX 49 35 50 36 64 38 85 39 52 40 36 41 37 42 45 43 38 44 39 45
REMARK SMILES IDX 43 46 46 47 40 48 41 49 44 50 42 51 68 52 69 53 77 54 70 55
REMARK SMILES IDX 71 56 75 57 78 58 72 59 73 60 76 61 74 62 53 63 54 64 62 65
REMARK SMILES IDX 55 66 56 67 60 68 63 69 57 70 58 71 61 72 59 73 8 74 9 75
REMARK SMILES IDX 10 76 11 77 12 79 13 80 14 81 26 82 15 83 17 84 16 85 18 86
REMARK SMILES IDX 19 88 20 89 24 90 21 91 23 92 22 93 25 94
REMARK H PARENT 3 8 83 26 51 37 10 78 18 87 25 95
REMARK Flexibility Score: inf
ROOT
ATOM      1  C   UNL     1       4.756  -0.189  -4.355  1.00  0.00     0.002 C 
ENDROOT
BRANCH   1   2
ATOM      2  C   UNL     1       4.212  -1.428  -3.639  1.00  0.00     0.002 C 
BRANCH   2   3
ATOM      3  C   UNL     1       4.687  -1.609  -2.199  1.00  0.00     0.021 C 
BRANCH   3   4
ATOM      4  C   UNL     1       4.434  -0.414  -1.290  1.00  0.00     0.116 C 
BRANCH   4   5
ATOM      5  N   UNL     1       3.017  -0.143  -1.106  1.00  0.00    -0.352 N 
ATOM      6  O   UNL     1       1.079   0.044   0.041  1.00  0.00    -0.269 OA
ATOM      7  C   UNL     1       2.304  -0.026   0.061  1.00  0.00     0.251 C 
ATOM      8  H   UNL     1       2.496  -0.028  -1.934  1.00  0.00     0.163 HD
BRANCH   7   9
ATOM      9  C   UNL     1       3.022  -0.008   1.353  1.00  0.00     0.039 A 
ATOM     10  C   UNL     1       4.169   0.773   1.515  1.00  0.00     0.014 A 
ATOM     11  C   UNL     1       2.542  -0.782   2.412  1.00  0.00     0.014 A 
ATOM     12  C   UNL     1       4.912   0.672   2.684  1.00  0.00     0.010 A 
ATOM     13  C   UNL     1       3.241  -0.809   3.622  1.00  0.00     0.010 A 
ATOM     14  C   UNL     1       4.445  -0.102   3.759  1.00  0.00    -0.014 A 
BRANCH  14  15
ATOM     15  C   UNL     1       5.192  -0.086   5.040  1.00  0.00     0.031 A 
ATOM     16  C   UNL     1       5.838  -1.327   5.585  1.00  0.00     0.074 A 
ATOM     17  C   UNL     1       5.295   1.081   5.706  1.00  0.00     0.049 A 
ATOM     18  N   UNL     1       6.530  -1.480   6.687  1.00  0.00    -0.248 NA
ATOM     19  C   UNL     1       5.684  -2.560   4.798  1.00  0.00     0.031 C 
ATOM     20  C   UNL     1       4.694   2.346   5.278  1.00  0.00     0.029 A 
ATOM     21  N   UNL     1       5.945   1.400   6.869  1.00  0.00    -0.354 N 
ATOM     22  C   UNL     1       6.878  -2.823   6.736  1.00  0.00     0.074 A 
ATOM     23  C   UNL     1       6.299  -3.450   5.566  1.00  0.00     0.031 C 
ATOM     24  C   UNL     1       5.037   3.311   6.141  1.00  0.00     0.029 A 
ATOM     25  C   UNL     1       5.823   2.722   7.218  1.00  0.00     0.049 A 
ATOM     26  H   UNL     1       6.451   0.745   7.403  1.00  0.00     0.167 HD
ATOM     27  C   UNL     1       7.618  -3.468   7.671  1.00  0.00     0.037 A 
ATOM     28  C   UNL     1       6.273   3.385   8.299  1.00  0.00     0.037 A 
ATOM     29  C   UNL     1       8.197  -2.830   8.828  1.00  0.00     0.049 A 
ATOM     30  C   UNL     1       7.065   2.638   9.331  1.00  0.00     0.074 A 
ATOM     31  C   UNL     1       8.998  -3.388   9.810  1.00  0.00     0.029 A 
ATOM     32  N   UNL     1       8.030  -1.494   9.163  1.00  0.00    -0.354 N 
ATOM     33  N   UNL     1       7.424   1.377   9.345  1.00  0.00    -0.248 NA
ATOM     34  C   UNL     1       7.514   3.405  10.500  1.00  0.00     0.031 C 
ATOM     35  C   UNL     1       9.268  -2.404  10.767  1.00  0.00     0.029 A 
ATOM     36  C   UNL     1       8.687  -1.216  10.352  1.00  0.00     0.049 A 
ATOM     37  H   UNL     1       7.519  -0.839   8.634  1.00  0.00     0.167 HD
ATOM     38  C   UNL     1       8.155   1.202  10.510  1.00  0.00     0.074 A 
ATOM     39  C   UNL     1       8.207   2.493  11.167  1.00  0.00     0.031 C 
ATOM     40  C   UNL     1       8.729   0.073  10.994  1.00  0.00     0.037 A 
BRANCH  27  41
ATOM     41  C   UNL     1       7.830  -4.946   7.502  1.00  0.00     0.064 A 
ATOM     42  C   UNL     1       8.656  -5.464   6.493  1.00  0.00     0.173 A 
ATOM     43  C   UNL     1       7.243  -5.854   8.396  1.00  0.00     0.173 A 
ATOM     44  F   UNL     1       9.236  -4.642   5.605  1.00  0.00    -0.203 F 
ATOM     45  C   UNL     1       8.867  -6.836   6.373  1.00  0.00     0.198 A 
ATOM     46  C   UNL     1       7.479  -7.222   8.291  1.00  0.00     0.198 A 
ATOM     47  F   UNL     1       6.450  -5.413   9.385  1.00  0.00    -0.203 F 
ATOM     48  F   UNL     1       9.627  -7.310   5.376  1.00  0.00    -0.200 F 
ATOM     49  C   UNL     1       8.286  -7.713   7.276  1.00  0.00     0.200 A 
ATOM     50  F   UNL     1       6.928  -8.066   9.175  1.00  0.00    -0.200 F 
ATOM     51  F   UNL     1       8.499  -9.031   7.165  1.00  0.00    -0.200 F 
ENDBRANCH  27  41
BRANCH  28  52
ATOM     52  C   UNL     1       5.972   4.831   8.451  1.00  0.00     0.064 A 
ATOM     53  C   UNL     1       6.986   5.794   8.368  1.00  0.00     0.173 A 
ATOM     54  C   UNL     1       4.660   5.281   8.665  1.00  0.00     0.173 A 
ATOM     55  F   UNL     1       8.258   5.412   8.182  1.00  0.00    -0.203 F 
ATOM     56  C   UNL     1       6.702   7.151   8.509  1.00  0.00     0.198 A 
ATOM     57  C   UNL     1       4.372   6.639   8.772  1.00  0.00     0.198 A 
ATOM     58  F   UNL     1       3.652   4.400   8.744  1.00  0.00    -0.203 F 
ATOM     59  F   UNL     1       7.696   8.048   8.467  1.00  0.00    -0.200 F 
ATOM     60  C   UNL     1       5.395   7.573   8.702  1.00  0.00     0.200 A 
ATOM     61  F   UNL     1       3.106   7.043   8.938  1.00  0.00    -0.200 F 
ATOM     62  F   UNL     1       5.121   8.878   8.826  1.00  0.00    -0.200 F 
ENDBRANCH  28  52
BRANCH  40  63
ATOM     63  C   UNL     1       9.488   0.193  12.283  1.00  0.00     0.064 A 
ATOM     64  C   UNL     1       8.835   0.396  13.508  1.00  0.00     0.173 A 
ATOM     65  C   UNL     1      10.887   0.080  12.296  1.00  0.00     0.173 A 
ATOM     66  F   UNL     1       7.500   0.529  13.547  1.00  0.00    -0.203 F 
ATOM     67  C   UNL     1       9.556   0.509  14.694  1.00  0.00     0.198 A 
ATOM     68  C   UNL     1      11.602   0.161  13.487  1.00  0.00     0.198 A 
ATOM     69  F   UNL     1      11.560  -0.119  11.152  1.00  0.00    -0.203 F 
ATOM     70  F   UNL     1       8.915   0.756  15.844  1.00  0.00    -0.200 F 
ATOM     71  C   UNL     1      10.938   0.384  14.683  1.00  0.00     0.200 A 
ATOM     72  F   UNL     1      12.935   0.026  13.476  1.00  0.00    -0.200 F 
ATOM     73  F   UNL     1      11.630   0.487  15.826  1.00  0.00    -0.200 F 
ENDBRANCH  40  63
ENDBRANCH  14  15
ENDBRANCH   7   9
ENDBRANCH   4   5
ENDBRANCH   3   4
ENDBRANCH   2   3
ENDBRANCH   1   2
BRANCH   1  74
ATOM     74  C   UNL     1       6.282  -0.051  -4.363  1.00  0.00     0.021 C 
BRANCH  74  75
ATOM     75  C   UNL     1       7.034  -1.256  -4.919  1.00  0.00     0.116 C 
BRANCH  75  76
ATOM     76  N   UNL     1       6.659  -1.542  -6.293  1.00  0.00    -0.352 N 
ATOM     77  C   UNL     1       7.451  -1.613  -7.410  1.00  0.00     0.251 C 
ATOM     78  H   UNL     1       5.700  -1.708  -6.444  1.00  0.00     0.163 HD
ATOM     79  O   UNL     1       6.945  -1.662  -8.526  1.00  0.00    -0.269 OA
BRANCH  77  80
ATOM     80  C   UNL     1       8.919  -1.616  -7.264  1.00  0.00     0.041 A 
ATOM     81  C   UNL     1       9.673  -0.745  -8.045  1.00  0.00     0.014 A 
ATOM     82  C   UNL     1       9.544  -2.499  -6.372  1.00  0.00     0.039 A 
ATOM     83  C   UNL     1      11.053  -0.736  -7.898  1.00  0.00     0.003 A 
ATOM     84  C   UNL     1      10.928  -2.474  -6.173  1.00  0.00     0.035 A 
ATOM     85  C   UNL     1      11.665  -1.591  -6.971  1.00  0.00     0.026 A 
BRANCH  84  86
ATOM     86  N   UNL     1      11.467  -3.341  -5.243  1.00  0.00    -0.380 N 
ATOM     87  H   UNL     1      10.821  -3.906  -4.761  1.00  0.00     0.160 HD
BRANCH  86  88
ATOM     88  C   UNL     1      12.874  -3.532  -4.879  1.00  0.00     0.107 C 
ATOM     89  C   UNL     1      13.659  -4.135  -6.053  1.00  0.00     0.027 C 
ATOM     90  C   UNL     1      13.497  -2.268  -4.228  1.00  0.00     0.136 C 
ATOM     91  C   UNL     1      15.161  -4.176  -5.804  1.00  0.00     0.002 C 
ATOM     92  C   UNL     1      15.012  -2.384  -4.063  1.00  0.00     0.034 C 
ATOM     93  C   UNL     1      15.687  -2.818  -5.357  1.00  0.00     0.003 C 
BRANCH  90  94
ATOM     94  O   UNL     1      12.921  -2.016  -2.937  1.00  0.00    -0.391 OA
ATOM     95  H   UNL     1      13.122  -2.757  -2.343  1.00  0.00     0.211 HD
ENDBRANCH  90  94
ENDBRANCH  86  88
ENDBRANCH  84  86
ENDBRANCH  77  80
ENDBRANCH  75  76
ENDBRANCH  74  75
ENDBRANCH   1  74
TORSDOF 16
