REMARK SMILES CC[C@@](C)(NC(=O)c1cccc(Br)c1C)C(=O)NCCCCCCNC(=O)c1ccc(-c2c3nc(c(-c4c(F)c(F)c(F)c(F)c4F)c4ccc([nH]4)c(-c4c(F)c(F)c(F)c(F)c4F)c4nc(c(-c5c(F)c(F)c(F)c(F)c5F)c5ccc2[nH]5)C=C4)C=C3)cc1
REMARK SMILES IDX 21 1 20 2 19 3 18 4 16 5 17 6 3 8 4 9 2 10 1 11 5 12 6 13
REMARK SMILES IDX 7 15 8 16 9 17 14 18 10 19 12 20 15 21 11 22 13 23 22 24
REMARK SMILES IDX 23 25 24 26 25 27 26 28 27 30 28 31 29 32 90 33 30 34 89 35
REMARK SMILES IDX 31 36 32 37 33 38 83 39 34 40 88 41 82 42 84 43 35 44 87 45
REMARK SMILES IDX 81 46 80 47 36 49 68 50 48 51 67 52 49 53 52 54 66 55 85 56
REMARK SMILES IDX 50 57 51 58 65 60 86 61 53 62 37 63 38 64 46 65 39 66 40 67
REMARK SMILES IDX 44 68 47 69 41 70 42 71 45 72 43 73 69 74 70 75 78 76 71 77
REMARK SMILES IDX 72 78 76 79 79 80 73 81 74 82 77 83 75 84 54 85 55 86 63 87
REMARK SMILES IDX 56 88 57 89 61 90 64 91 58 92 59 93 62 94 60 95
REMARK H PARENT 18 7 5 14 25 29 84 48 52 59
REMARK Flexibility Score: inf
ROOT
ATOM      1  C   UNL     1       5.244   0.574   6.288  1.00  0.00     0.002 C 
ENDROOT
BRANCH   1   2
ATOM      2  C   UNL     1       3.763   0.547   5.879  1.00  0.00     0.021 C 
BRANCH   2   3
ATOM      3  C   UNL     1       3.022   1.410   4.804  1.00  0.00     0.116 C 
BRANCH   3   4
ATOM      4  N   UNL     1       3.048   0.990   3.361  1.00  0.00    -0.354 N 
ATOM      5  C   UNL     1       2.453   0.373   2.297  1.00  0.00     0.245 C 
ATOM      6  O   UNL     1       3.136   0.619   1.278  1.00  0.00    -0.272 OA
ATOM      7  H   UNL     1       3.910   1.318   3.017  1.00  0.00     0.163 HD
BRANCH   5   8
ATOM      8  C   UNL     1       1.038  -0.418   2.024  1.00  0.00     0.116 C 
ATOM      9  C   UNL     1      -0.041   0.669   2.233  1.00  0.00     0.045 C 
BRANCH   8  10
ATOM     10  C   UNL     1       0.983  -0.909   0.517  1.00  0.00     0.035 C 
ATOM     11  C   UNL     1       1.108   0.090  -0.628  1.00  0.00     0.007 C 
ENDBRANCH   8  10
BRANCH   8  12
ATOM     12  N   UNL     1       0.484  -1.645   2.747  1.00  0.00    -0.338 N 
ATOM     13  C   UNL     1       0.966  -2.951   2.823  1.00  0.00     0.252 C 
ATOM     14  H   UNL     1      -0.353  -1.488   3.241  1.00  0.00     0.164 HD
ATOM     15  O   UNL     1       0.197  -3.906   2.791  1.00  0.00    -0.269 OA
BRANCH  13  16
ATOM     16  C   UNL     1       2.392  -3.169   3.147  1.00  0.00     0.043 A 
ATOM     17  C   UNL     1       3.061  -4.387   2.991  1.00  0.00     0.014 A 
ATOM     18  C   UNL     1       2.999  -2.190   3.912  1.00  0.00    -0.024 A 
ATOM     19  C   UNL     1       4.406  -4.511   3.363  1.00  0.00     0.002 A 
ATOM     20  C   UNL     1       4.410  -2.196   3.951  1.00  0.00     0.021 A 
ATOM     21  C   UNL     1       2.037  -1.654   4.997  1.00  0.00     0.046 C 
ATOM     22  C   UNL     1       5.103  -3.387   3.767  1.00  0.00     0.016 A 
ATOM     23  Br  UNL     1       5.487  -0.789   3.154  1.00  0.00    -0.051 Br
ENDBRANCH  13  16
ENDBRANCH   8  12
ENDBRANCH   5   8
ENDBRANCH   3   4
ENDBRANCH   2   3
ENDBRANCH   1   2
BRANCH   1  24
ATOM     24  C   UNL     1       5.722   1.715   7.154  1.00  0.00     0.002 C 
BRANCH  24  25
ATOM     25  C   UNL     1       4.880   1.939   8.403  1.00  0.00     0.021 C 
BRANCH  25  26
ATOM     26  C   UNL     1       4.698   0.702   9.283  1.00  0.00     0.116 C 
BRANCH  26  27
ATOM     27  N   UNL     1       5.977   0.195   9.764  1.00  0.00    -0.352 N 
ATOM     28  C   UNL     1       6.524   0.371  11.005  1.00  0.00     0.251 C 
ATOM     29  H   UNL     1       6.506  -0.334   9.124  1.00  0.00     0.163 HD
ATOM     30  O   UNL     1       7.735   0.232  11.201  1.00  0.00    -0.269 OA
BRANCH  28  31
ATOM     31  C   UNL     1       5.627   0.720  12.116  1.00  0.00     0.039 A 
ATOM     32  C   UNL     1       5.927   1.800  12.945  1.00  0.00     0.014 A 
ATOM     33  C   UNL     1       4.454  -0.023  12.293  1.00  0.00     0.014 A 
ATOM     34  C   UNL     1       5.022   2.158  13.942  1.00  0.00     0.010 A 
ATOM     35  C   UNL     1       3.515   0.393  13.223  1.00  0.00     0.010 A 
ATOM     36  C   UNL     1       3.803   1.470  14.073  1.00  0.00    -0.014 A 
BRANCH  36  37
ATOM     37  C   UNL     1       2.827   1.837  15.125  1.00  0.00     0.031 A 
ATOM     38  C   UNL     1       2.502   0.853  16.213  1.00  0.00     0.074 A 
ATOM     39  C   UNL     1       2.206   3.030  15.067  1.00  0.00     0.049 A 
ATOM     40  N   UNL     1       1.672   0.973  17.217  1.00  0.00    -0.248 NA
ATOM     41  C   UNL     1       3.175  -0.454  16.145  1.00  0.00     0.031 C 
ATOM     42  C   UNL     1       2.408   4.037  14.025  1.00  0.00     0.029 A 
ATOM     43  N   UNL     1       1.282   3.597  15.905  1.00  0.00    -0.354 N 
ATOM     44  C   UNL     1       1.714  -0.244  17.885  1.00  0.00     0.074 A 
ATOM     45  C   UNL     1       2.593  -1.111  17.135  1.00  0.00     0.031 C 
ATOM     46  C   UNL     1       1.667   5.120  14.312  1.00  0.00     0.029 A 
ATOM     47  C   UNL     1       0.910   4.865  15.534  1.00  0.00     0.049 A 
ATOM     48  H   UNL     1       0.920   3.139  16.698  1.00  0.00     0.167 HD
ATOM     49  C   UNL     1       1.096  -0.595  19.038  1.00  0.00     0.037 A 
ATOM     50  C   UNL     1       0.058   5.724  16.123  1.00  0.00     0.037 A 
ATOM     51  C   UNL     1       0.238   0.288  19.783  1.00  0.00     0.049 A 
ATOM     52  C   UNL     1      -0.629   5.304  17.394  1.00  0.00     0.074 A 
ATOM     53  C   UNL     1      -0.385   0.066  20.997  1.00  0.00     0.029 A 
ATOM     54  N   UNL     1      -0.125   1.564  19.372  1.00  0.00    -0.354 N 
ATOM     55  N   UNL     1      -0.515   4.186  18.070  1.00  0.00    -0.248 NA
ATOM     56  C   UNL     1      -1.561   6.271  17.987  1.00  0.00     0.031 C 
ATOM     57  C   UNL     1      -1.179   1.181  21.288  1.00  0.00     0.029 A 
ATOM     58  C   UNL     1      -0.996   2.127  20.291  1.00  0.00     0.049 A 
ATOM     59  H   UNL     1       0.189   2.003  18.549  1.00  0.00     0.167 HD
ATOM     60  C   UNL     1      -1.331   4.327  19.184  1.00  0.00     0.074 A 
ATOM     61  C   UNL     1      -1.921   5.648  19.100  1.00  0.00     0.031 C 
ATOM     62  C   UNL     1      -1.570   3.446  20.188  1.00  0.00     0.037 A 
BRANCH  49  63
ATOM     63  C   UNL     1       1.316  -1.993  19.545  1.00  0.00     0.064 A 
ATOM     64  C   UNL     1       2.573  -2.433  19.991  1.00  0.00     0.173 A 
ATOM     65  C   UNL     1       0.253  -2.908  19.587  1.00  0.00     0.173 A 
ATOM     66  F   UNL     1       3.629  -1.605  19.962  1.00  0.00    -0.203 F 
ATOM     67  C   UNL     1       2.767  -3.746  20.414  1.00  0.00     0.198 A 
ATOM     68  C   UNL     1       0.442  -4.209  20.047  1.00  0.00     0.198 A 
ATOM     69  F   UNL     1      -0.971  -2.543  19.178  1.00  0.00    -0.203 F 
ATOM     70  F   UNL     1       3.992  -4.161  20.766  1.00  0.00    -0.200 F 
ATOM     71  C   UNL     1       1.700  -4.631  20.448  1.00  0.00     0.200 A 
ATOM     72  F   UNL     1      -0.594  -5.058  20.093  1.00  0.00    -0.200 F 
ATOM     73  F   UNL     1       1.887  -5.894  20.856  1.00  0.00    -0.200 F 
ENDBRANCH  49  63
BRANCH  50  74
ATOM     74  C   UNL     1      -0.152   7.078  15.547  1.00  0.00     0.064 A 
ATOM     75  C   UNL     1       0.299   8.221  16.222  1.00  0.00     0.173 A 
ATOM     76  C   UNL     1      -0.800   7.262  14.317  1.00  0.00     0.173 A 
ATOM     77  F   UNL     1       0.911   8.099  17.409  1.00  0.00    -0.203 F 
ATOM     78  C   UNL     1       0.091   9.496  15.700  1.00  0.00     0.198 A 
ATOM     79  C   UNL     1      -0.980   8.535  13.781  1.00  0.00     0.198 A 
ATOM     80  F   UNL     1      -1.244   6.202  13.625  1.00  0.00    -0.203 F 
ATOM     81  F   UNL     1       0.492  10.573  16.390  1.00  0.00    -0.200 F 
ATOM     82  C   UNL     1      -0.543   9.652  14.477  1.00  0.00     0.200 A 
ATOM     83  F   UNL     1      -1.577   8.681  12.590  1.00  0.00    -0.200 F 
ATOM     84  F   UNL     1      -0.738  10.878  13.973  1.00  0.00    -0.200 F 
ENDBRANCH  50  74
BRANCH  62  85
ATOM     85  C   UNL     1      -2.480   3.899  21.294  1.00  0.00     0.064 A 
ATOM     86  C   UNL     1      -3.854   4.092  21.091  1.00  0.00     0.173 A 
ATOM     87  C   UNL     1      -1.970   4.116  22.584  1.00  0.00     0.173 A 
ATOM     88  F   UNL     1      -4.389   3.912  19.873  1.00  0.00    -0.203 F 
ATOM     89  C   UNL     1      -4.678   4.521  22.128  1.00  0.00     0.198 A 
ATOM     90  C   UNL     1      -2.804   4.507  23.628  1.00  0.00     0.198 A 
ATOM     91  F   UNL     1      -0.665   3.938  22.835  1.00  0.00    -0.203 F 
ATOM     92  F   UNL     1      -5.976   4.760  21.895  1.00  0.00    -0.200 F 
ATOM     93  C   UNL     1      -4.154   4.720  23.397  1.00  0.00     0.200 A 
ATOM     94  F   UNL     1      -2.298   4.680  24.857  1.00  0.00    -0.200 F 
ATOM     95  F   UNL     1      -4.949   5.127  24.395  1.00  0.00    -0.200 F 
ENDBRANCH  62  85
ENDBRANCH  36  37
ENDBRANCH  28  31
ENDBRANCH  26  27
ENDBRANCH  25  26
ENDBRANCH  24  25
ENDBRANCH   1  24
TORSDOF 16
