REMARK SMILES O=C(COCCNC(=O)Nc1cccc(F)c1)NCCCCCCNC(=O)c1ccc(-c2c3nc(c(-c4c(F)c(F)c(F)c(F)c4F)c4ccc([nH]4)c(-c4c(F)c(F)c(F)c(F)c4F)c4nc(c(-c5c(F)c(F)c(F)c(F)c5F)c5ccc2[nH]5)C=C4)C=C3)cc1
REMARK SMILES IDX 20 1 19 2 18 3 1 4 2 5 3 7 4 8 5 9 6 10 7 11 8 12 9 14 10 15
REMARK SMILES IDX 11 17 12 18 17 19 13 20 15 21 14 22 16 23 21 24 22 25 23 26
REMARK SMILES IDX 24 27 25 28 26 29 27 31 28 32 29 33 90 34 30 35 89 36 31 37
REMARK SMILES IDX 32 38 33 39 83 40 34 41 88 42 82 43 84 44 35 45 87 46 81 47
REMARK SMILES IDX 80 48 36 50 68 51 48 52 67 53 49 54 52 55 66 56 85 57 50 58
REMARK SMILES IDX 51 59 65 61 86 62 53 63 37 64 38 65 46 66 39 67 40 68 44 69
REMARK SMILES IDX 47 70 41 71 42 72 45 73 43 74 69 75 70 76 78 77 71 78 72 79
REMARK SMILES IDX 76 80 79 81 73 82 74 83 77 84 75 85 54 86 55 87 63 88 56 89
REMARK SMILES IDX 57 90 61 91 64 92 58 93 59 94 62 95 60 96
REMARK H PARENT 18 6 7 13 10 16 25 30 84 49 52 60
REMARK Flexibility Score: inf
ROOT
ATOM      1  C   UNL     1       2.614   2.424   2.547  1.00  0.00     0.021 C 
ENDROOT
BRANCH   1   2
ATOM      2  C   UNL     1       2.067   2.132   1.153  1.00  0.00     0.116 C 
BRANCH   2   3
ATOM      3  N   UNL     1       2.732   1.002   0.557  1.00  0.00    -0.354 N 
ATOM      4  O   UNL     1       1.301  -0.607   1.369  1.00  0.00    -0.272 OA
ATOM      5  C   UNL     1       2.285  -0.293   0.710  1.00  0.00     0.245 C 
ATOM      6  H   UNL     1       3.540   1.161   0.018  1.00  0.00     0.163 HD
BRANCH   5   7
ATOM      7  C   UNL     1       3.184  -1.318   0.016  1.00  0.00     0.260 C 
BRANCH   7   8
ATOM      8  O   UNL     1       3.845  -0.859  -1.155  1.00  0.00    -0.370 OA
BRANCH   8   9
ATOM      9  C   UNL     1       2.981  -0.454  -2.221  1.00  0.00     0.182 C 
BRANCH   9  10
ATOM     10  C   UNL     1       2.322  -1.615  -2.967  1.00  0.00     0.146 C 
BRANCH  10  11
ATOM     11  N   UNL     1       1.062  -2.084  -2.391  1.00  0.00    -0.336 N 
ATOM     12  C   UNL     1      -0.228  -1.721  -2.542  1.00  0.00     0.319 C 
ATOM     13  H   UNL     1       1.182  -2.826  -1.755  1.00  0.00     0.165 HD
ATOM     14  O   UNL     1      -1.037  -2.104  -1.695  1.00  0.00    -0.249 OA
ATOM     15  N   UNL     1      -0.647  -0.881  -3.511  1.00  0.00    -0.308 N 
ATOM     16  H   UNL     1      -1.441  -0.352  -3.271  1.00  0.00     0.171 HD
BRANCH  15  17
ATOM     17  C   UNL     1      -0.155  -0.627  -4.795  1.00  0.00     0.045 A 
ATOM     18  C   UNL     1       0.502  -1.602  -5.555  1.00  0.00     0.026 A 
ATOM     19  C   UNL     1      -0.329   0.654  -5.313  1.00  0.00     0.065 A 
ATOM     20  C   UNL     1       1.123  -1.254  -6.756  1.00  0.00     0.005 A 
ATOM     21  C   UNL     1       0.297   0.991  -6.507  1.00  0.00     0.125 A 
ATOM     22  C   UNL     1       1.044   0.058  -7.219  1.00  0.00     0.039 A 
ATOM     23  F   UNL     1       0.215   2.250  -6.956  1.00  0.00    -0.207 F 
ENDBRANCH  15  17
ENDBRANCH  10  11
ENDBRANCH   9  10
ENDBRANCH   8   9
ENDBRANCH   7   8
ENDBRANCH   5   7
ENDBRANCH   2   3
ENDBRANCH   1   2
BRANCH   1  24
ATOM     24  C   UNL     1       4.125   2.687   2.585  1.00  0.00     0.002 C 
BRANCH  24  25
ATOM     25  C   UNL     1       4.611   3.850   1.714  1.00  0.00     0.002 C 
BRANCH  25  26
ATOM     26  C   UNL     1       3.952   5.200   2.002  1.00  0.00     0.021 C 
BRANCH  26  27
ATOM     27  C   UNL     1       4.048   5.670   3.450  1.00  0.00     0.116 C 
BRANCH  27  28
ATOM     28  N   UNL     1       5.421   5.869   3.885  1.00  0.00    -0.352 N 
ATOM     29  C   UNL     1       5.973   6.918   4.577  1.00  0.00     0.251 C 
ATOM     30  H   UNL     1       6.046   5.146   3.648  1.00  0.00     0.163 HD
ATOM     31  O   UNL     1       7.188   6.982   4.735  1.00  0.00    -0.269 OA
BRANCH  29  32
ATOM     32  C   UNL     1       5.107   7.995   5.107  1.00  0.00     0.039 A 
ATOM     33  C   UNL     1       5.505   9.322   4.927  1.00  0.00     0.014 A 
ATOM     34  C   UNL     1       3.917   7.705   5.780  1.00  0.00     0.014 A 
ATOM     35  C   UNL     1       4.678  10.359   5.362  1.00  0.00     0.010 A 
ATOM     36  C   UNL     1       3.062   8.739   6.156  1.00  0.00     0.010 A 
ATOM     37  C   UNL     1       3.432  10.075   5.947  1.00  0.00    -0.014 A 
BRANCH  37  38
ATOM     38  C   UNL     1       2.499  11.169   6.316  1.00  0.00     0.031 A 
ATOM     39  C   UNL     1       2.150  11.425   7.753  1.00  0.00     0.074 A 
ATOM     40  C   UNL     1       1.926  11.903   5.343  1.00  0.00     0.049 A 
ATOM     41  N   UNL     1       1.334  12.315   8.259  1.00  0.00    -0.248 NA
ATOM     42  C   UNL     1       2.783  10.553   8.754  1.00  0.00     0.031 C 
ATOM     43  C   UNL     1       2.148  11.720   3.909  1.00  0.00     0.029 A 
ATOM     44  N   UNL     1       1.039  12.949   5.412  1.00  0.00    -0.354 N 
ATOM     45  C   UNL     1       1.351  12.107   9.631  1.00  0.00     0.074 A 
ATOM     46  C   UNL     1       2.217  10.974   9.876  1.00  0.00     0.031 C 
ATOM     47  C   UNL     1       1.444  12.643   3.235  1.00  0.00     0.029 A 
ATOM     48  C   UNL     1       0.696  13.460   4.186  1.00  0.00     0.049 A 
ATOM     49  H   UNL     1       0.684  13.299   6.261  1.00  0.00     0.167 HD
ATOM     50  C   UNL     1       0.721  12.815  10.599  1.00  0.00     0.037 A 
ATOM     51  C   UNL     1      -0.128  14.475   3.861  1.00  0.00     0.037 A 
ATOM     52  C   UNL     1      -0.122  13.955  10.354  1.00  0.00     0.049 A 
ATOM     53  C   UNL     1      -0.823  15.239   4.952  1.00  0.00     0.074 A 
ATOM     54  C   UNL     1      -0.753  14.774  11.275  1.00  0.00     0.029 A 
ATOM     55  N   UNL     1      -0.456  14.436   9.097  1.00  0.00    -0.354 N 
ATOM     56  N   UNL     1      -0.753  15.071   6.250  1.00  0.00    -0.248 NA
ATOM     57  C   UNL     1      -1.711  16.333   4.535  1.00  0.00     0.031 C 
ATOM     58  C   UNL     1      -1.504  15.723  10.574  1.00  0.00     0.029 A 
ATOM     59  C   UNL     1      -1.304  15.525   9.217  1.00  0.00     0.049 A 
ATOM     60  H   UNL     1      -0.138  14.059   8.245  1.00  0.00     0.167 HD
ATOM     61  C   UNL     1      -1.574  16.042   6.806  1.00  0.00     0.074 A 
ATOM     62  C   UNL     1      -2.119  16.808   5.704  1.00  0.00     0.031 C 
ATOM     63  C   UNL     1      -1.850  16.273   8.112  1.00  0.00     0.037 A 
BRANCH  50  64
ATOM     64  C   UNL     1       0.930  12.383  12.021  1.00  0.00     0.064 A 
ATOM     65  C   UNL     1      -0.123  11.821  12.759  1.00  0.00     0.173 A 
ATOM     66  C   UNL     1       2.158  12.577  12.672  1.00  0.00     0.173 A 
ATOM     67  F   UNL     1      -1.319  11.621  12.186  1.00  0.00    -0.203 F 
ATOM     68  C   UNL     1       0.046  11.473  14.097  1.00  0.00     0.198 A 
ATOM     69  C   UNL     1       2.331  12.201  14.002  1.00  0.00     0.198 A 
ATOM     70  F   UNL     1       3.198  13.102  12.008  1.00  0.00    -0.203 F 
ATOM     71  F   UNL     1      -0.981  10.959  14.789  1.00  0.00    -0.200 F 
ATOM     72  C   UNL     1       1.273  11.657  14.715  1.00  0.00     0.200 A 
ATOM     73  F   UNL     1       3.524  12.358  14.590  1.00  0.00    -0.200 F 
ATOM     74  F   UNL     1       1.438  11.307  15.998  1.00  0.00    -0.200 F 
ENDBRANCH  50  64
BRANCH  51  75
ATOM     75  C   UNL     1      -0.296  14.846   2.434  1.00  0.00     0.064 A 
ATOM     76  C   UNL     1      -0.998  14.023   1.542  1.00  0.00     0.173 A 
ATOM     77  C   UNL     1       0.293  16.011   1.925  1.00  0.00     0.173 A 
ATOM     78  F   UNL     1      -1.574  12.894   1.981  1.00  0.00    -0.203 F 
ATOM     79  C   UNL     1      -1.084  14.340   0.188  1.00  0.00     0.198 A 
ATOM     80  C   UNL     1       0.187  16.339   0.575  1.00  0.00     0.198 A 
ATOM     81  F   UNL     1       0.958  16.838   2.745  1.00  0.00    -0.203 F 
ATOM     82  F   UNL     1      -1.728  13.518  -0.651  1.00  0.00    -0.200 F 
ATOM     83  C   UNL     1      -0.492  15.498  -0.294  1.00  0.00     0.200 A 
ATOM     84  F   UNL     1       0.744  17.468   0.117  1.00  0.00    -0.200 F 
ATOM     85  F   UNL     1      -0.577  15.804  -1.596  1.00  0.00    -0.200 F 
ENDBRANCH  51  75
BRANCH  63  86
ATOM     86  C   UNL     1      -2.784  17.402   8.433  1.00  0.00     0.064 A 
ATOM     87  C   UNL     1      -2.306  18.574   9.038  1.00  0.00     0.173 A 
ATOM     88  C   UNL     1      -4.164  17.294   8.206  1.00  0.00     0.173 A 
ATOM     89  F   UNL     1      -0.995  18.723   9.282  1.00  0.00    -0.203 F 
ATOM     90  C   UNL     1      -3.178  19.591   9.417  1.00  0.00     0.198 A 
ATOM     91  C   UNL     1      -5.030  18.324   8.563  1.00  0.00     0.198 A 
ATOM     92  F   UNL     1      -4.667  16.198   7.618  1.00  0.00    -0.203 F 
ATOM     93  F   UNL     1      -2.703  20.689  10.022  1.00  0.00    -0.200 F 
ATOM     94  C   UNL     1      -4.538  19.467   9.177  1.00  0.00     0.200 A 
ATOM     95  F   UNL     1      -6.341  18.213   8.309  1.00  0.00    -0.200 F 
ATOM     96  F   UNL     1      -5.375  20.450   9.533  1.00  0.00    -0.200 F 
ENDBRANCH  63  86
ENDBRANCH  37  38
ENDBRANCH  29  32
ENDBRANCH  27  28
ENDBRANCH  26  27
ENDBRANCH  25  26
ENDBRANCH  24  25
ENDBRANCH   1  24
TORSDOF 18
