REMARK SMILES Cc1cc(C)c(S(=O)(=O)n2cc([C@@H](C)[C@@H]([NH3+])C(=O)NCCCCCCNC(=O)c3ccc(-c4c5nc(c(-c6c(F)c(F)c(F)c(F)c6F)c6ccc([nH]6)c(-c6c(F)c(F)c(F)c(F)c6F)c6nc(c(-c7c(F)c(F)c(F)c(F)c7F)c7ccc4[nH]7)C=C6)C=C5)cc3)c3ccccc32)c(C)c1
REMARK SMILES IDX 21 1 20 2 19 3 17 4 18 5 15 7 13 8 14 9 12 10 10 11 11 12
REMARK SMILES IDX 97 13 92 14 96 15 93 16 95 17 94 18 7 19 8 20 9 21 6 22 1 23
REMARK SMILES IDX 2 24 3 25 100 26 4 27 98 28 5 29 99 30 16 31 22 35 23 36
REMARK SMILES IDX 24 37 25 38 26 39 27 40 28 42 29 43 30 44 91 45 31 46 90 47
REMARK SMILES IDX 32 48 33 49 34 50 84 51 35 52 89 53 83 54 85 55 36 56 88 57
REMARK SMILES IDX 82 58 81 59 37 61 69 62 49 63 68 64 50 65 53 66 67 67 86 68
REMARK SMILES IDX 51 69 52 70 66 72 87 73 54 74 38 75 39 76 47 77 40 78 41 79
REMARK SMILES IDX 45 80 48 81 42 82 43 83 46 84 44 85 70 86 71 87 79 88 72 89
REMARK SMILES IDX 73 90 77 91 80 92 74 93 75 94 78 95 76 96 55 97 56 98 64 99
REMARK SMILES IDX 57 100 58 101 62 102 65 103 59 104 60 105 63 106 61 107
REMARK H PARENT 19 6 16 32 16 33 16 34 26 41 85 60 53 71
REMARK Flexibility Score: inf
ROOT
ATOM      1  C   UNL     1      -3.088  -8.071  -4.516  1.00  0.00     0.021 C 
ENDROOT
BRANCH   1   2
ATOM      2  C   UNL     1      -3.673  -8.490  -3.166  1.00  0.00     0.116 C 
BRANCH   2   3
ATOM      3  N   UNL     1      -2.870  -9.544  -2.575  1.00  0.00    -0.351 N 
ATOM      4  C   UNL     1      -2.057  -9.510  -1.482  1.00  0.00     0.278 C 
ATOM      5  O   UNL     1      -1.418 -10.528  -1.202  1.00  0.00    -0.268 OA
ATOM      6  H   UNL     1      -2.920 -10.415  -3.031  1.00  0.00     0.163 HD
BRANCH   4   7
ATOM      7  C   UNL     1      -1.945  -8.249  -0.601  1.00  0.00     0.278 C 
BRANCH   7   8
ATOM      8  C   UNL     1      -1.258  -7.061  -1.327  1.00  0.00     0.086 C 
ATOM      9  C   UNL     1       0.157  -7.400  -1.811  1.00  0.00     0.020 C 
BRANCH   8  10
ATOM     10  C   UNL     1      -1.270  -5.803  -0.485  1.00  0.00    -0.012 A 
ATOM     11  N   UNL     1      -1.745  -3.734   0.186  1.00  0.00    -0.241 N 
ATOM     12  C   UNL     1      -1.931  -4.639  -0.824  1.00  0.00     0.109 A 
ATOM     13  C   UNL     1      -1.056  -4.299   1.238  1.00  0.00     0.064 A 
ATOM     14  C   UNL     1      -0.674  -5.578   0.802  1.00  0.00     0.004 A 
ATOM     15  C   UNL     1      -0.676  -3.800   2.497  1.00  0.00     0.028 A 
ATOM     16  C   UNL     1       0.153  -6.355   1.640  1.00  0.00     0.010 A 
ATOM     17  C   UNL     1       0.150  -4.593   3.298  1.00  0.00     0.002 A 
ATOM     18  C   UNL     1       0.571  -5.847   2.872  1.00  0.00     0.001 A 
BRANCH  11  19
ATOM     19  S   UNL     1      -2.279  -2.129   0.090  1.00  0.00     0.268 S 
ATOM     20  O   UNL     1      -2.924  -1.894   1.369  1.00  0.00    -0.201 OA
ATOM     21  O   UNL     1      -3.022  -2.050  -1.159  1.00  0.00    -0.201 OA
BRANCH  19  22
ATOM     22  C   UNL     1      -0.917  -0.969  -0.052  1.00  0.00     0.094 A 
ATOM     23  C   UNL     1       2.155   2.090   0.048  1.00  0.00     0.044 C 
ATOM     24  C   UNL     1       1.092   1.035  -0.006  1.00  0.00    -0.051 A 
ATOM     25  C   UNL     1      -0.252   1.384   0.070  1.00  0.00     0.008 A 
ATOM     26  C   UNL     1       1.422  -0.308  -0.165  1.00  0.00     0.008 A 
ATOM     27  C   UNL     1      -1.267   0.408   0.047  1.00  0.00    -0.030 A 
ATOM     28  C   UNL     1       0.441  -1.322  -0.236  1.00  0.00    -0.030 A 
ATOM     29  C   UNL     1      -2.676   0.952   0.096  1.00  0.00     0.046 C 
ATOM     30  C   UNL     1       0.997  -2.688  -0.518  1.00  0.00     0.046 C 
ENDBRANCH  19  22
ENDBRANCH  11  19
ENDBRANCH   8  10
ENDBRANCH   7   8
BRANCH   7  31
ATOM     31  N   UNL     1      -3.293  -7.928  -0.057  1.00  0.00    -0.347 N 
ATOM     32  H   UNL     1      -3.933  -7.733  -0.827  1.00  0.00     0.345 HD
ATOM     33  H   UNL     1      -3.229  -7.109   0.547  1.00  0.00     0.345 HD
ATOM     34  H   UNL     1      -3.640  -8.721   0.481  1.00  0.00     0.345 HD
ENDBRANCH   7  31
ENDBRANCH   4   7
ENDBRANCH   2   3
ENDBRANCH   1   2
BRANCH   1  35
ATOM     35  C   UNL     1      -3.264  -9.126  -5.614  1.00  0.00     0.002 C 
BRANCH  35  36
ATOM     36  C   UNL     1      -4.721  -9.462  -5.949  1.00  0.00     0.002 C 
BRANCH  36  37
ATOM     37  C   UNL     1      -5.588  -8.260  -6.340  1.00  0.00     0.021 C 
BRANCH  37  38
ATOM     38  C   UNL     1      -5.044  -7.457  -7.524  1.00  0.00     0.116 C 
BRANCH  38  39
ATOM     39  N   UNL     1      -4.878  -8.247  -8.726  1.00  0.00    -0.352 N 
ATOM     40  C   UNL     1      -5.708  -8.666  -9.726  1.00  0.00     0.251 C 
ATOM     41  H   UNL     1      -3.950  -8.553  -8.852  1.00  0.00     0.163 HD
ATOM     42  O   UNL     1      -5.175  -9.282 -10.653  1.00  0.00    -0.269 OA
BRANCH  40  43
ATOM     43  C   UNL     1      -7.186  -8.486  -9.747  1.00  0.00     0.039 A 
ATOM     44  C   UNL     1      -7.932  -7.743  -8.833  1.00  0.00     0.014 A 
ATOM     45  C   UNL     1      -7.871  -9.172 -10.769  1.00  0.00     0.014 A 
ATOM     46  C   UNL     1      -9.323  -7.760  -8.877  1.00  0.00     0.010 A 
ATOM     47  C   UNL     1      -9.260  -9.174 -10.834  1.00  0.00     0.010 A 
ATOM     48  C   UNL     1      -9.986  -8.501  -9.858  1.00  0.00    -0.014 A 
BRANCH  48  49
ATOM     49  C   UNL     1     -11.444  -8.444  -9.883  1.00  0.00     0.031 A 
ATOM     50  C   UNL     1     -12.021  -7.086 -10.098  1.00  0.00     0.074 A 
ATOM     51  C   UNL     1     -12.233  -9.534  -9.816  1.00  0.00     0.049 A 
ATOM     52  N   UNL     1     -12.831  -6.434  -9.329  1.00  0.00    -0.248 NA
ATOM     53  C   UNL     1     -11.568  -6.323 -11.272  1.00  0.00     0.031 C 
ATOM     54  C   UNL     1     -11.838 -10.943  -9.856  1.00  0.00     0.029 A 
ATOM     55  N   UNL     1     -13.596  -9.598  -9.789  1.00  0.00    -0.354 N 
ATOM     56  C   UNL     1     -13.109  -5.234  -9.981  1.00  0.00     0.074 A 
ATOM     57  C   UNL     1     -12.223  -5.172 -11.114  1.00  0.00     0.031 C 
ATOM     58  C   UNL     1     -12.934 -11.706 -10.069  1.00  0.00     0.029 A 
ATOM     59  C   UNL     1     -14.114 -10.857 -10.059  1.00  0.00     0.049 A 
ATOM     60  H   UNL     1     -14.163  -8.817  -9.595  1.00  0.00     0.167 HD
ATOM     61  C   UNL     1     -14.176  -4.461  -9.633  1.00  0.00     0.037 A 
ATOM     62  C   UNL     1     -15.410 -11.166 -10.313  1.00  0.00     0.037 A 
ATOM     63  C   UNL     1     -14.637  -4.771  -8.307  1.00  0.00     0.049 A 
ATOM     64  C   UNL     1     -16.247 -10.062  -9.781  1.00  0.00     0.074 A 
ATOM     65  C   UNL     1     -14.065  -4.718  -7.050  1.00  0.00     0.029 A 
ATOM     66  N   UNL     1     -15.768  -5.536  -8.165  1.00  0.00    -0.354 N 
ATOM     67  N   UNL     1     -16.424  -9.831  -8.511  1.00  0.00    -0.248 NA
ATOM     68  C   UNL     1     -16.542  -8.944 -10.667  1.00  0.00     0.031 C 
ATOM     69  C   UNL     1     -14.589  -5.848  -6.360  1.00  0.00     0.029 A 
ATOM     70  C   UNL     1     -15.487  -6.484  -7.217  1.00  0.00     0.049 A 
ATOM     71  H   UNL     1     -16.617  -5.424  -8.651  1.00  0.00     0.167 HD
ATOM     72  C   UNL     1     -16.418  -8.450  -8.405  1.00  0.00     0.074 A 
ATOM     73  C   UNL     1     -16.587  -7.957  -9.769  1.00  0.00     0.031 C 
ATOM     74  C   UNL     1     -15.991  -7.833  -7.265  1.00  0.00     0.037 A 
BRANCH  61  75
ATOM     75  C   UNL     1     -15.007  -3.657 -10.603  1.00  0.00     0.064 A 
ATOM     76  C   UNL     1     -16.026  -2.816 -10.107  1.00  0.00     0.173 A 
ATOM     77  C   UNL     1     -15.056  -3.916 -11.989  1.00  0.00     0.173 A 
ATOM     78  F   UNL     1     -16.086  -2.508  -8.802  1.00  0.00    -0.203 F 
ATOM     79  C   UNL     1     -17.064  -2.353 -10.920  1.00  0.00     0.198 A 
ATOM     80  C   UNL     1     -16.064  -3.408 -12.807  1.00  0.00     0.198 A 
ATOM     81  F   UNL     1     -14.203  -4.756 -12.586  1.00  0.00    -0.203 F 
ATOM     82  F   UNL     1     -18.081  -1.671 -10.376  1.00  0.00    -0.200 F 
ATOM     83  C   UNL     1     -17.087  -2.658 -12.267  1.00  0.00     0.200 A 
ATOM     84  F   UNL     1     -16.078  -3.728 -14.109  1.00  0.00    -0.200 F 
ATOM     85  F   UNL     1     -18.116  -2.274 -13.035  1.00  0.00    -0.200 F 
ENDBRANCH  61  75
BRANCH  62  86
ATOM     86  C   UNL     1     -15.962 -12.230 -11.187  1.00  0.00     0.064 A 
ATOM     87  C   UNL     1     -17.318 -12.597 -11.124  1.00  0.00     0.173 A 
ATOM     88  C   UNL     1     -15.235 -12.728 -12.287  1.00  0.00     0.173 A 
ATOM     89  F   UNL     1     -18.099 -12.132 -10.139  1.00  0.00    -0.203 F 
ATOM     90  C   UNL     1     -17.912 -13.391 -12.112  1.00  0.00     0.198 A 
ATOM     91  C   UNL     1     -15.825 -13.530 -13.264  1.00  0.00     0.198 A 
ATOM     92  F   UNL     1     -13.959 -12.370 -12.489  1.00  0.00    -0.203 F 
ATOM     93  F   UNL     1     -19.222 -13.666 -12.051  1.00  0.00    -0.200 F 
ATOM     94  C   UNL     1     -17.167 -13.850 -13.185  1.00  0.00     0.200 A 
ATOM     95  F   UNL     1     -15.100 -13.937 -14.316  1.00  0.00    -0.200 F 
ATOM     96  F   UNL     1     -17.747 -14.561 -14.161  1.00  0.00    -0.200 F 
ENDBRANCH  62  86
BRANCH  74  97
ATOM     97  C   UNL     1     -15.764  -8.675  -6.043  1.00  0.00     0.064 A 
ATOM     98  C   UNL     1     -14.805  -9.699  -5.968  1.00  0.00     0.173 A 
ATOM     99  C   UNL     1     -16.409  -8.306  -4.854  1.00  0.00     0.173 A 
ATOM    100  F   UNL     1     -14.072 -10.040  -7.036  1.00  0.00    -0.203 F 
ATOM    101  C   UNL     1     -14.531 -10.345  -4.764  1.00  0.00     0.198 A 
ATOM    102  C   UNL     1     -16.105  -8.926  -3.646  1.00  0.00     0.198 A 
ATOM    103  F   UNL     1     -17.293  -7.295  -4.854  1.00  0.00    -0.203 F 
ATOM    104  F   UNL     1     -13.611 -11.321  -4.719  1.00  0.00    -0.200 F 
ATOM    105  C   UNL     1     -15.172  -9.950  -3.603  1.00  0.00     0.200 A 
ATOM    106  F   UNL     1     -16.689  -8.504  -2.516  1.00  0.00    -0.200 F 
ATOM    107  F   UNL     1     -14.868 -10.533  -2.434  1.00  0.00    -0.200 F 
ENDBRANCH  74  97
ENDBRANCH  48  49
ENDBRANCH  40  43
ENDBRANCH  38  39
ENDBRANCH  37  38
ENDBRANCH  36  37
ENDBRANCH  35  36
ENDBRANCH   1  35
TORSDOF 18
