REMARK SMILES Cc1n[nH]c(C(=O)N[C@@H](CC(C)C)C(=O)NCCCCCCNC(=O)c2ccc(-c3c4nc(c(-c5c(F)c(F)c(F)c(F)c5F)c5ccc([nH]5)c(-c5c(F)c(F)c(F)c(F)c5F)c5nc(c(-c6c(F)c(F)c(F)c(F)c6F)c6ccc3[nH]6)C=C5)C=C4)cc2)n1
REMARK SMILES IDX 19 1 18 2 17 3 16 4 14 5 15 6 9 8 8 9 6 10 7 11 5 13 1 14
REMARK SMILES IDX 2 15 3 16 89 17 4 18 10 20 11 21 12 22 13 23 20 24 21 25
REMARK SMILES IDX 22 26 23 27 24 28 25 30 26 31 27 32 88 33 28 34 87 35 29 36
REMARK SMILES IDX 30 37 31 38 81 39 32 40 86 41 80 42 82 43 33 44 85 45 79 46
REMARK SMILES IDX 78 47 34 49 66 50 46 51 65 52 47 53 50 54 64 55 83 56 48 57
REMARK SMILES IDX 49 58 63 60 84 61 51 62 35 63 36 64 44 65 37 66 38 67 42 68
REMARK SMILES IDX 45 69 39 70 40 71 43 72 41 73 67 74 68 75 76 76 69 77 70 78
REMARK SMILES IDX 74 79 77 80 71 81 72 82 75 83 73 84 52 85 53 86 61 87 54 88
REMARK SMILES IDX 55 89 59 90 62 91 56 92 57 93 60 94 58 95
REMARK H PARENT 16 7 8 12 4 19 23 29 82 48 50 59
REMARK Flexibility Score: inf
ROOT
ATOM      1  C   UNL     1      -2.398  10.538   0.076  1.00  0.00     0.002 C 
ENDROOT
BRANCH   1   2
ATOM      2  C   UNL     1      -1.122   9.692   0.020  1.00  0.00     0.021 C 
BRANCH   2   3
ATOM      3  C   UNL     1      -1.015   8.603   1.079  1.00  0.00     0.116 C 
BRANCH   3   4
ATOM      4  N   UNL     1      -2.011   7.556   0.978  1.00  0.00    -0.354 N 
ATOM      5  C   UNL     1      -2.102   6.350   1.611  1.00  0.00     0.242 C 
ATOM      6  O   UNL     1      -3.198   5.780   1.583  1.00  0.00    -0.273 OA
ATOM      7  H   UNL     1      -2.744   7.745   0.348  1.00  0.00     0.163 HD
BRANCH   5   8
ATOM      8  C   UNL     1      -0.940   5.700   2.401  1.00  0.00     0.172 C 
BRANCH   8   9
ATOM      9  N   UNL     1       0.288   5.654   1.615  1.00  0.00    -0.338 N 
ATOM     10  C   UNL     1       0.859   4.703   0.798  1.00  0.00     0.289 C 
ATOM     11  O   UNL     1       1.768   5.158   0.094  1.00  0.00    -0.266 OA
ATOM     12  H   UNL     1       0.823   6.477   1.684  1.00  0.00     0.164 HD
BRANCH  10  13
ATOM     13  C   UNL     1       0.503   3.290   0.789  1.00  0.00     0.214 A 
ATOM     14  C   UNL     1       1.173  -0.096  -0.063  1.00  0.00     0.092 C 
ATOM     15  C   UNL     1       0.650   1.191   0.437  1.00  0.00     0.148 A 
ATOM     16  N   UNL     1      -0.430   1.284   1.214  1.00  0.00    -0.159 NA
ATOM     17  N   UNL     1       1.237   2.390   0.145  1.00  0.00    -0.207 NA
ATOM     18  N   UNL     1      -0.517   2.612   1.393  1.00  0.00    -0.255 N 
ATOM     19  H   UNL     1      -1.237   3.048   1.904  1.00  0.00     0.192 HD
ENDBRANCH  10  13
ENDBRANCH   8   9
BRANCH   8  20
ATOM     20  C   UNL     1      -0.704   6.109   3.871  1.00  0.00     0.038 C 
BRANCH  20  21
ATOM     21  C   UNL     1      -0.660   7.598   4.245  1.00  0.00    -0.015 C 
ATOM     22  C   UNL     1      -2.066   8.194   4.394  1.00  0.00     0.007 C 
ATOM     23  C   UNL     1       0.081   7.809   5.571  1.00  0.00     0.007 C 
ENDBRANCH  20  21
ENDBRANCH   8  20
ENDBRANCH   5   8
ENDBRANCH   3   4
ENDBRANCH   2   3
ENDBRANCH   1   2
BRANCH   1  24
ATOM     24  C   UNL     1      -2.818  11.127   1.434  1.00  0.00     0.002 C 
BRANCH  24  25
ATOM     25  C   UNL     1      -1.792  11.938   2.240  1.00  0.00     0.021 C 
BRANCH  25  26
ATOM     26  C   UNL     1      -1.167  13.118   1.515  1.00  0.00     0.116 C 
BRANCH  26  27
ATOM     27  N   UNL     1      -2.133  14.135   1.086  1.00  0.00    -0.352 N 
ATOM     28  C   UNL     1      -1.910  15.227   0.266  1.00  0.00     0.251 C 
ATOM     29  H   UNL     1      -3.052  14.028   1.422  1.00  0.00     0.163 HD
ATOM     30  O   UNL     1      -2.666  16.202   0.274  1.00  0.00    -0.269 OA
BRANCH  28  31
ATOM     31  C   UNL     1      -0.754  15.198  -0.641  1.00  0.00     0.039 A 
ATOM     32  C   UNL     1       0.063  16.305  -0.887  1.00  0.00     0.014 A 
ATOM     33  C   UNL     1      -0.464  13.965  -1.207  1.00  0.00     0.014 A 
ATOM     34  C   UNL     1       1.215  16.123  -1.651  1.00  0.00     0.010 A 
ATOM     35  C   UNL     1       0.780  13.737  -1.709  1.00  0.00     0.010 A 
ATOM     36  C   UNL     1       1.568  14.824  -2.045  1.00  0.00    -0.014 A 
BRANCH  36  37
ATOM     37  C   UNL     1       2.788  14.522  -2.775  1.00  0.00     0.031 A 
ATOM     38  C   UNL     1       4.039  14.942  -2.098  1.00  0.00     0.074 A 
ATOM     39  C   UNL     1       2.783  13.695  -3.845  1.00  0.00     0.049 A 
ATOM     40  N   UNL     1       4.879  15.843  -2.484  1.00  0.00    -0.248 NA
ATOM     41  C   UNL     1       4.328  14.389  -0.765  1.00  0.00     0.031 C 
ATOM     42  C   UNL     1       1.663  12.939  -4.426  1.00  0.00     0.029 A 
ATOM     43  N   UNL     1       3.835  13.272  -4.593  1.00  0.00    -0.354 N 
ATOM     44  C   UNL     1       5.907  15.836  -1.547  1.00  0.00     0.074 A 
ATOM     45  C   UNL     1       5.426  15.069  -0.428  1.00  0.00     0.031 C 
ATOM     46  C   UNL     1       2.134  11.993  -5.269  1.00  0.00     0.029 A 
ATOM     47  C   UNL     1       3.559  12.197  -5.428  1.00  0.00     0.049 A 
ATOM     48  H   UNL     1       4.723  13.694  -4.546  1.00  0.00     0.167 HD
ATOM     49  C   UNL     1       7.159  16.253  -1.883  1.00  0.00     0.037 A 
ATOM     50  C   UNL     1       4.455  11.513  -6.182  1.00  0.00     0.037 A 
ATOM     51  C   UNL     1       7.136  17.015  -3.108  1.00  0.00     0.049 A 
ATOM     52  C   UNL     1       5.644  12.391  -6.337  1.00  0.00     0.074 A 
ATOM     53  C   UNL     1       6.516  18.183  -3.509  1.00  0.00     0.029 A 
ATOM     54  N   UNL     1       7.503  16.378  -4.270  1.00  0.00    -0.354 N 
ATOM     55  N   UNL     1       5.622  13.520  -6.994  1.00  0.00    -0.248 NA
ATOM     56  C   UNL     1       6.700  12.265  -5.344  1.00  0.00     0.031 C 
ATOM     57  C   UNL     1       6.096  17.934  -4.850  1.00  0.00     0.029 A 
ATOM     58  C   UNL     1       6.549  16.665  -5.213  1.00  0.00     0.049 A 
ATOM     59  H   UNL     1       8.303  15.819  -4.401  1.00  0.00     0.167 HD
ATOM     60  C   UNL     1       6.375  14.395  -6.223  1.00  0.00     0.074 A 
ATOM     61  C   UNL     1       7.068  13.547  -5.254  1.00  0.00     0.031 C 
ATOM     62  C   UNL     1       6.139  15.740  -6.246  1.00  0.00     0.037 A 
BRANCH  49  63
ATOM     63  C   UNL     1       8.437  15.668  -1.330  1.00  0.00     0.064 A 
ATOM     64  C   UNL     1       9.666  16.266  -1.679  1.00  0.00     0.173 A 
ATOM     65  C   UNL     1       8.533  14.390  -0.737  1.00  0.00     0.173 A 
ATOM     66  F   UNL     1       9.697  17.477  -2.255  1.00  0.00    -0.203 F 
ATOM     67  C   UNL     1      10.883  15.595  -1.532  1.00  0.00     0.198 A 
ATOM     68  C   UNL     1       9.753  13.747  -0.543  1.00  0.00     0.198 A 
ATOM     69  F   UNL     1       7.455  13.662  -0.425  1.00  0.00    -0.203 F 
ATOM     70  F   UNL     1      12.008  16.149  -2.003  1.00  0.00    -0.200 F 
ATOM     71  C   UNL     1      10.924  14.332  -0.973  1.00  0.00     0.200 A 
ATOM     72  F   UNL     1       9.770  12.516  -0.011  1.00  0.00    -0.200 F 
ATOM     73  F   UNL     1      12.079  13.658  -0.894  1.00  0.00    -0.200 F 
ENDBRANCH  49  63
BRANCH  50  74
ATOM     74  C   UNL     1       4.471  10.060  -6.471  1.00  0.00     0.064 A 
ATOM     75  C   UNL     1       5.238   9.528  -7.518  1.00  0.00     0.173 A 
ATOM     76  C   UNL     1       3.937   9.131  -5.553  1.00  0.00     0.173 A 
ATOM     77  F   UNL     1       5.824  10.346  -8.404  1.00  0.00    -0.203 F 
ATOM     78  C   UNL     1       5.468   8.152  -7.635  1.00  0.00     0.198 A 
ATOM     79  C   UNL     1       4.163   7.759  -5.672  1.00  0.00     0.198 A 
ATOM     80  F   UNL     1       3.262   9.547  -4.471  1.00  0.00    -0.203 F 
ATOM     81  F   UNL     1       6.249   7.685  -8.619  1.00  0.00    -0.200 F 
ATOM     82  C   UNL     1       4.937   7.270  -6.707  1.00  0.00     0.200 A 
ATOM     83  F   UNL     1       3.677   6.923  -4.744  1.00  0.00    -0.200 F 
ATOM     84  F   UNL     1       5.204   5.959  -6.786  1.00  0.00    -0.200 F 
ENDBRANCH  50  74
BRANCH  62  85
ATOM     85  C   UNL     1       5.188  16.274  -7.285  1.00  0.00     0.064 A 
ATOM     86  C   UNL     1       3.814  15.978  -7.317  1.00  0.00     0.173 A 
ATOM     87  C   UNL     1       5.649  17.257  -8.168  1.00  0.00     0.173 A 
ATOM     88  F   UNL     1       3.273  15.124  -6.443  1.00  0.00    -0.203 F 
ATOM     89  C   UNL     1       2.951  16.611  -8.211  1.00  0.00     0.198 A 
ATOM     90  C   UNL     1       4.782  17.914  -9.038  1.00  0.00     0.198 A 
ATOM     91  F   UNL     1       6.940  17.625  -8.146  1.00  0.00    -0.203 F 
ATOM     92  F   UNL     1       1.645  16.308  -8.216  1.00  0.00    -0.200 F 
ATOM     93  C   UNL     1       3.435  17.587  -9.065  1.00  0.00     0.200 A 
ATOM     94  F   UNL     1       5.246  18.892  -9.828  1.00  0.00    -0.200 F 
ATOM     95  F   UNL     1       2.601  18.233  -9.891  1.00  0.00    -0.200 F 
ENDBRANCH  62  85
ENDBRANCH  36  37
ENDBRANCH  28  31
ENDBRANCH  26  27
ENDBRANCH  25  26
ENDBRANCH  24  25
ENDBRANCH   1  24
TORSDOF 17
