REMARK SMILES C[C@@H](CC(=O)NCCCCCCNC(=O)c1ccc(-c2c3nc(c(-c4c(F)c(F)c(F)c(F)c4F)c4ccc([nH]4)c(-c4c(F)c(F)c(F)c(F)c4F)c4nc(c(-c5c(F)c(F)c(F)c(F)c5F)c5ccc2[nH]5)C=C4)C=C3)cc1)Cc1nnc(C2C(C)(C)C2(C)C)o1
REMARK SMILES IDX 8 1 7 2 6 3 4 4 5 5 3 7 2 8 1 9 79 10 80 11 81 12 91 13
REMARK SMILES IDX 82 14 83 15 84 16 85 17 88 18 86 19 87 20 89 21 90 22 9 23
REMARK SMILES IDX 10 24 11 25 12 26 13 27 14 28 15 30 16 31 17 32 78 33 18 34
REMARK SMILES IDX 77 35 19 36 20 37 21 38 71 39 22 40 76 41 70 42 72 43 23 44
REMARK SMILES IDX 75 45 69 46 68 47 24 49 56 50 36 51 55 52 37 53 40 54 54 55
REMARK SMILES IDX 73 56 38 57 39 58 53 60 74 61 41 62 25 63 26 64 34 65 27 66
REMARK SMILES IDX 28 67 32 68 35 69 29 70 30 71 33 72 31 73 57 74 58 75 66 76
REMARK SMILES IDX 59 77 60 78 64 79 67 80 61 81 62 82 65 83 63 84 42 85 43 86
REMARK SMILES IDX 51 87 44 88 45 89 49 90 52 91 46 92 47 93 50 94 48 95
REMARK H PARENT 6 6 13 29 72 48 40 59
REMARK Flexibility Score: inf
ROOT
ATOM      1  C   UNL     1       1.053   1.994  -1.627  1.00  0.00     0.021 C 
ENDROOT
BRANCH   1   2
ATOM      2  C   UNL     1       1.821   2.299  -0.339  1.00  0.00     0.116 C 
BRANCH   2   3
ATOM      3  N   UNL     1       0.907   2.720   0.702  1.00  0.00    -0.356 N 
ATOM      4  C   UNL     1       0.499   2.069   1.822  1.00  0.00     0.220 C 
ATOM      5  O   UNL     1      -0.398   2.578   2.496  1.00  0.00    -0.275 OA
ATOM      6  H   UNL     1       0.520   3.617   0.578  1.00  0.00     0.163 HD
BRANCH   4   7
ATOM      7  C   UNL     1       1.128   0.750   2.242  1.00  0.00     0.103 C 
BRANCH   7   8
ATOM      8  C   UNL     1       0.531  -0.544   1.642  1.00  0.00     0.004 C 
ATOM      9  C   UNL     1       1.255  -0.981   0.363  1.00  0.00     0.009 C 
BRANCH   8  10
ATOM     10  C   UNL     1      -1.003  -0.481   1.502  1.00  0.00     0.103 C 
BRANCH  10  11
ATOM     11  C   UNL     1      -1.567  -1.539   0.632  1.00  0.00     0.216 A 
ATOM     12  N   UNL     1      -1.792  -2.813   0.857  1.00  0.00    -0.113 NA
ATOM     13  O   UNL     1      -1.895  -1.158  -0.637  1.00  0.00    -0.425 OA
ATOM     14  N   UNL     1      -2.340  -3.313  -0.310  1.00  0.00    -0.113 NA
ATOM     15  C   UNL     1      -2.401  -2.312  -1.168  1.00  0.00     0.220 A 
BRANCH  15  16
ATOM     16  C   UNL     1      -3.023  -2.451  -2.551  1.00  0.00     0.090 C 
ATOM     17  C   UNL     1      -3.747  -1.257  -3.194  1.00  0.00    -0.017 C 
ATOM     18  C   UNL     1      -2.463  -1.801  -3.819  1.00  0.00    -0.017 C 
ATOM     19  C   UNL     1      -5.101  -1.572  -3.801  1.00  0.00     0.012 C 
ATOM     20  C   UNL     1      -3.740   0.135  -2.593  1.00  0.00     0.012 C 
ATOM     21  C   UNL     1      -1.177  -1.005  -3.774  1.00  0.00     0.012 C 
ATOM     22  C   UNL     1      -2.577  -2.587  -5.113  1.00  0.00     0.012 C 
ENDBRANCH  15  16
ENDBRANCH  10  11
ENDBRANCH   8  10
ENDBRANCH   7   8
ENDBRANCH   4   7
ENDBRANCH   2   3
ENDBRANCH   1   2
BRANCH   1  23
ATOM     23  C   UNL     1       0.729   3.233  -2.468  1.00  0.00     0.002 C 
BRANCH  23  24
ATOM     24  C   UNL     1       1.948   3.949  -3.060  1.00  0.00     0.002 C 
BRANCH  24  25
ATOM     25  C   UNL     1       2.890   3.067  -3.884  1.00  0.00     0.021 C 
BRANCH  25  26
ATOM     26  C   UNL     1       2.226   2.332  -5.047  1.00  0.00     0.116 C 
BRANCH  26  27
ATOM     27  N   UNL     1       1.671   3.252  -6.028  1.00  0.00    -0.352 N 
ATOM     28  C   UNL     1       2.003   3.429  -7.345  1.00  0.00     0.251 C 
ATOM     29  H   UNL     1       0.950   3.834  -5.696  1.00  0.00     0.163 HD
ATOM     30  O   UNL     1       1.579   4.407  -7.964  1.00  0.00    -0.269 OA
BRANCH  28  31
ATOM     31  C   UNL     1       2.883   2.460  -8.028  1.00  0.00     0.039 A 
ATOM     32  C   UNL     1       3.928   2.937  -8.822  1.00  0.00     0.014 A 
ATOM     33  C   UNL     1       2.673   1.084  -7.894  1.00  0.00     0.014 A 
ATOM     34  C   UNL     1       4.809   2.035  -9.423  1.00  0.00     0.010 A 
ATOM     35  C   UNL     1       3.589   0.188  -8.440  1.00  0.00     0.010 A 
ATOM     36  C   UNL     1       4.671   0.655  -9.202  1.00  0.00    -0.014 A 
BRANCH  36  37
ATOM     37  C   UNL     1       5.673  -0.309  -9.726  1.00  0.00     0.031 A 
ATOM     38  C   UNL     1       5.282  -1.336 -10.750  1.00  0.00     0.074 A 
ATOM     39  C   UNL     1       6.921  -0.300  -9.218  1.00  0.00     0.049 A 
ATOM     40  N   UNL     1       6.000  -2.301 -11.268  1.00  0.00    -0.248 NA
ATOM     41  C   UNL     1       3.896  -1.290 -11.240  1.00  0.00     0.031 C 
ATOM     42  C   UNL     1       7.405   0.615  -8.183  1.00  0.00     0.029 A 
ATOM     43  N   UNL     1       8.007  -1.096  -9.490  1.00  0.00    -0.354 N 
ATOM     44  C   UNL     1       5.154  -2.981 -12.133  1.00  0.00     0.074 A 
ATOM     45  C   UNL     1       3.856  -2.348 -12.038  1.00  0.00     0.031 C 
ATOM     46  C   UNL     1       8.692   0.340  -7.918  1.00  0.00     0.029 A 
ATOM     47  C   UNL     1       9.113  -0.796  -8.733  1.00  0.00     0.049 A 
ATOM     48  H   UNL     1       7.994  -1.813 -10.165  1.00  0.00     0.167 HD
ATOM     49  C   UNL     1       5.441  -4.025 -12.947  1.00  0.00     0.037 A 
ATOM     50  C   UNL     1      10.325  -1.381  -8.687  1.00  0.00     0.037 A 
ATOM     51  C   UNL     1       6.740  -4.637 -13.054  1.00  0.00     0.049 A 
ATOM     52  C   UNL     1      10.611  -2.547  -9.594  1.00  0.00     0.074 A 
ATOM     53  C   UNL     1       7.148  -5.650 -13.904  1.00  0.00     0.029 A 
ATOM     54  N   UNL     1       7.840  -4.297 -12.281  1.00  0.00    -0.354 N 
ATOM     55  N   UNL     1       9.826  -3.127 -10.469  1.00  0.00    -0.248 NA
ATOM     56  C   UNL     1      11.955  -3.136  -9.511  1.00  0.00     0.031 C 
ATOM     57  C   UNL     1       8.479  -5.961 -13.608  1.00  0.00     0.029 A 
ATOM     58  C   UNL     1       8.918  -5.105 -12.612  1.00  0.00     0.049 A 
ATOM     59  H   UNL     1       7.854  -3.588 -11.598  1.00  0.00     0.167 HD
ATOM     60  C   UNL     1      10.583  -4.132 -11.054  1.00  0.00     0.074 A 
ATOM     61  C   UNL     1      11.898  -4.069 -10.451  1.00  0.00     0.031 C 
ATOM     62  C   UNL     1      10.221  -5.030 -12.002  1.00  0.00     0.037 A 
BRANCH  49  63
ATOM     63  C   UNL     1       4.332  -4.580 -13.793  1.00  0.00     0.064 A 
ATOM     64  C   UNL     1       3.812  -3.869 -14.885  1.00  0.00     0.173 A 
ATOM     65  C   UNL     1       3.827  -5.867 -13.548  1.00  0.00     0.173 A 
ATOM     66  F   UNL     1       4.254  -2.632 -15.157  1.00  0.00    -0.203 F 
ATOM     67  C   UNL     1       2.814  -4.417 -15.688  1.00  0.00     0.198 A 
ATOM     68  C   UNL     1       2.850  -6.423 -14.370  1.00  0.00     0.198 A 
ATOM     69  F   UNL     1       4.293  -6.593 -12.521  1.00  0.00    -0.203 F 
ATOM     70  F   UNL     1       2.306  -3.703 -16.702  1.00  0.00    -0.200 F 
ATOM     71  C   UNL     1       2.341  -5.696 -15.435  1.00  0.00     0.200 A 
ATOM     72  F   UNL     1       2.404  -7.664 -14.134  1.00  0.00    -0.200 F 
ATOM     73  F   UNL     1       1.391  -6.226 -16.218  1.00  0.00    -0.200 F 
ENDBRANCH  49  63
BRANCH  50  74
ATOM     74  C   UNL     1      11.362  -0.872  -7.751  1.00  0.00     0.064 A 
ATOM     75  C   UNL     1      12.520  -0.242  -8.229  1.00  0.00     0.173 A 
ATOM     76  C   UNL     1      11.226  -1.019  -6.363  1.00  0.00     0.173 A 
ATOM     77  F   UNL     1      12.706  -0.097  -9.549  1.00  0.00    -0.203 F 
ATOM     78  C   UNL     1      13.512   0.199  -7.356  1.00  0.00     0.198 A 
ATOM     79  C   UNL     1      12.204  -0.549  -5.489  1.00  0.00     0.198 A 
ATOM     80  F   UNL     1      10.135  -1.609  -5.853  1.00  0.00    -0.203 F 
ATOM     81  F   UNL     1      14.633   0.750  -7.843  1.00  0.00    -0.200 F 
ATOM     82  C   UNL     1      13.352   0.050  -5.987  1.00  0.00     0.200 A 
ATOM     83  F   UNL     1      12.037  -0.680  -4.166  1.00  0.00    -0.200 F 
ATOM     84  F   UNL     1      14.305   0.476  -5.148  1.00  0.00    -0.200 F 
ENDBRANCH  50  74
BRANCH  62  85
ATOM     85  C   UNL     1      11.268  -6.003 -12.463  1.00  0.00     0.064 A 
ATOM     86  C   UNL     1      11.711  -7.049 -11.640  1.00  0.00     0.173 A 
ATOM     87  C   UNL     1      11.807  -5.910 -13.755  1.00  0.00     0.173 A 
ATOM     88  F   UNL     1      11.239  -7.171 -10.390  1.00  0.00    -0.203 F 
ATOM     89  C   UNL     1      12.675  -7.950 -12.085  1.00  0.00     0.198 A 
ATOM     90  C   UNL     1      12.746  -6.832 -14.207  1.00  0.00     0.198 A 
ATOM     91  F   UNL     1      11.412  -4.932 -14.584  1.00  0.00    -0.203 F 
ATOM     92  F   UNL     1      13.120  -8.911 -11.263  1.00  0.00    -0.200 F 
ATOM     93  C   UNL     1      13.185  -7.846 -13.370  1.00  0.00     0.200 A 
ATOM     94  F   UNL     1      13.228  -6.738 -15.455  1.00  0.00    -0.200 F 
ATOM     95  F   UNL     1      14.107  -8.719 -13.799  1.00  0.00    -0.200 F 
ENDBRANCH  62  85
ENDBRANCH  36  37
ENDBRANCH  28  31
ENDBRANCH  26  27
ENDBRANCH  25  26
ENDBRANCH  24  25
ENDBRANCH  23  24
ENDBRANCH   1  23
TORSDOF 17
