REMARK SMILES Nc1nc2ccccc2nc1N1CCC(C(=O)NCCCCCCNC(=O)c2ccc(-c3c4nc(c(-c5c(F)c(F)c(F)c(F)c5F)c5ccc([nH]5)c(-c5c(F)c(F)c(F)c(F)c5F)c5nc(c(-c6c(F)c(F)c(F)c(F)c6F)c6ccc3[nH]6)C=C5)C=C4)cc2)CC1
REMARK SMILES IDX 21 1 20 2 19 3 18 4 16 5 17 6 15 8 12 9 13 10 92 11 14 12
REMARK SMILES IDX 91 13 11 14 2 15 3 16 4 17 10 18 5 19 9 20 6 21 8 22 7 23
REMARK SMILES IDX 1 24 22 27 23 28 24 29 25 30 26 31 27 33 28 34 29 35 90 36
REMARK SMILES IDX 30 37 89 38 31 39 32 40 33 41 83 42 34 43 88 44 82 45 84 46
REMARK SMILES IDX 35 47 87 48 81 49 80 50 36 52 68 53 48 54 67 55 49 56 52 57
REMARK SMILES IDX 66 58 85 59 50 60 51 61 65 63 86 64 53 65 37 66 38 67 46 68
REMARK SMILES IDX 39 69 40 70 44 71 47 72 41 73 42 74 45 75 43 76 69 77 70 78
REMARK SMILES IDX 78 79 71 80 72 81 76 82 79 83 73 84 74 85 77 86 75 87 54 88
REMARK SMILES IDX 55 89 63 90 56 91 57 92 61 93 64 94 58 95 59 96 62 97 60 98
REMARK H PARENT 18 7 1 25 1 26 25 32 84 51 52 62
REMARK Flexibility Score: inf
ROOT
ATOM      1  C   UNL     1       0.884   7.936  -4.107  1.00  0.00     0.002 C 
ENDROOT
BRANCH   1   2
ATOM      2  C   UNL     1       1.077   6.814  -3.081  1.00  0.00     0.021 C 
BRANCH   2   3
ATOM      3  C   UNL     1       1.068   5.406  -3.674  1.00  0.00     0.116 C 
BRANCH   3   4
ATOM      4  N   UNL     1       2.244   5.168  -4.495  1.00  0.00    -0.356 N 
ATOM      5  C   UNL     1       3.259   4.272  -4.360  1.00  0.00     0.223 C 
ATOM      6  O   UNL     1       4.163   4.296  -5.200  1.00  0.00    -0.275 OA
ATOM      7  H   UNL     1       2.317   5.754  -5.282  1.00  0.00     0.163 HD
BRANCH   5   8
ATOM      8  C   UNL     1       3.283   3.249  -3.233  1.00  0.00     0.082 C 
ATOM      9  N   UNL     1       1.921   2.178  -0.993  1.00  0.00    -0.353 N 
ATOM     10  C   UNL     1       3.075   2.997  -0.694  1.00  0.00     0.119 C 
ATOM     11  C   UNL     1       1.942   1.352  -2.184  1.00  0.00     0.119 C 
ATOM     12  C   UNL     1       3.394   3.924  -1.857  1.00  0.00     0.035 C 
ATOM     13  C   UNL     1       2.134   2.242  -3.404  1.00  0.00     0.035 C 
BRANCH   9  14
ATOM     14  C   UNL     1       0.794   2.238  -0.194  1.00  0.00     0.172 A 
ATOM     15  C   UNL     1       0.230   1.068   0.383  1.00  0.00     0.167 A 
ATOM     16  N   UNL     1      -0.876   1.096   1.147  1.00  0.00    -0.226 NA
ATOM     17  C   UNL     1      -1.425   2.301   1.363  1.00  0.00     0.091 A 
ATOM     18  N   UNL     1       0.248   3.453   0.054  1.00  0.00    -0.225 NA
ATOM     19  C   UNL     1      -2.570   2.385   2.147  1.00  0.00     0.031 A 
ATOM     20  C   UNL     1      -0.868   3.482   0.816  1.00  0.00     0.091 A 
ATOM     21  C   UNL     1      -3.192   3.607   2.396  1.00  0.00     0.002 A 
ATOM     22  C   UNL     1      -1.501   4.695   1.071  1.00  0.00     0.031 A 
ATOM     23  C   UNL     1      -2.658   4.768   1.852  1.00  0.00     0.002 A 
BRANCH  15  24
ATOM     24  N   UNL     1       0.792  -0.192   0.195  1.00  0.00    -0.381 N 
ATOM     25  H   UNL     1       0.376  -0.982   0.609  1.00  0.00     0.158 HD
ATOM     26  H   UNL     1       1.605  -0.292  -0.351  1.00  0.00     0.158 HD
ENDBRANCH  15  24
ENDBRANCH   9  14
ENDBRANCH   5   8
ENDBRANCH   3   4
ENDBRANCH   2   3
ENDBRANCH   1   2
BRANCH   1  27
ATOM     27  C   UNL     1      -0.394   7.848  -4.948  1.00  0.00     0.002 C 
BRANCH  27  28
ATOM     28  C   UNL     1      -1.692   7.692  -4.156  1.00  0.00     0.021 C 
BRANCH  28  29
ATOM     29  C   UNL     1      -1.954   8.784  -3.125  1.00  0.00     0.116 C 
BRANCH  29  30
ATOM     30  N   UNL     1      -2.152  10.095  -3.723  1.00  0.00    -0.352 N 
ATOM     31  C   UNL     1      -3.137  11.022  -3.474  1.00  0.00     0.251 C 
ATOM     32  H   UNL     1      -1.488  10.356  -4.401  1.00  0.00     0.163 HD
ATOM     33  O   UNL     1      -3.232  12.033  -4.162  1.00  0.00    -0.269 OA
BRANCH  31  34
ATOM     34  C   UNL     1      -4.116  10.771  -2.394  1.00  0.00     0.039 A 
ATOM     35  C   UNL     1      -3.694  10.329  -1.139  1.00  0.00     0.014 A 
ATOM     36  C   UNL     1      -5.478  10.940  -2.658  1.00  0.00     0.014 A 
ATOM     37  C   UNL     1      -4.634   9.886  -0.216  1.00  0.00     0.010 A 
ATOM     38  C   UNL     1      -6.423  10.572  -1.696  1.00  0.00     0.010 A 
ATOM     39  C   UNL     1      -6.008   9.985  -0.490  1.00  0.00    -0.014 A 
BRANCH  39  40
ATOM     40  C   UNL     1      -6.985   9.433   0.484  1.00  0.00     0.031 A 
ATOM     41  C   UNL     1      -7.831   8.240   0.130  1.00  0.00     0.074 A 
ATOM     42  C   UNL     1      -7.049   9.956   1.723  1.00  0.00     0.049 A 
ATOM     43  N   UNL     1      -8.680   7.578   0.877  1.00  0.00    -0.248 NA
ATOM     44  C   UNL     1      -7.711   7.721  -1.241  1.00  0.00     0.031 C 
ATOM     45  C   UNL     1      -6.266  11.099   2.191  1.00  0.00     0.029 A 
ATOM     46  N   UNL     1      -7.773   9.572   2.823  1.00  0.00    -0.354 N 
ATOM     47  C   UNL     1      -9.199   6.576   0.067  1.00  0.00     0.074 A 
ATOM     48  C   UNL     1      -8.602   6.739  -1.241  1.00  0.00     0.031 C 
ATOM     49  C   UNL     1      -6.496  11.279   3.499  1.00  0.00     0.029 A 
ATOM     50  C   UNL     1      -7.485  10.303   3.948  1.00  0.00     0.049 A 
ATOM     51  H   UNL     1      -8.435   8.843   2.807  1.00  0.00     0.167 HD
ATOM     52  C   UNL     1     -10.076   5.595   0.389  1.00  0.00     0.037 A 
ATOM     53  C   UNL     1      -7.962  10.200   5.203  1.00  0.00     0.037 A 
ATOM     54  C   UNL     1     -10.660   5.423   1.694  1.00  0.00     0.049 A 
ATOM     55  C   UNL     1      -8.989   9.152   5.517  1.00  0.00     0.074 A 
ATOM     56  C   UNL     1     -11.541   4.445   2.123  1.00  0.00     0.029 A 
ATOM     57  N   UNL     1     -10.423   6.252   2.780  1.00  0.00    -0.354 N 
ATOM     58  N   UNL     1      -9.464   8.206   4.745  1.00  0.00    -0.248 NA
ATOM     59  C   UNL     1      -9.559   9.170   6.871  1.00  0.00     0.031 C 
ATOM     60  C   UNL     1     -11.870   4.708   3.457  1.00  0.00     0.029 A 
ATOM     61  C   UNL     1     -11.162   5.825   3.872  1.00  0.00     0.049 A 
ATOM     62  H   UNL     1      -9.819   7.029   2.776  1.00  0.00     0.167 HD
ATOM     63  C   UNL     1     -10.389   7.515   5.516  1.00  0.00     0.074 A 
ATOM     64  C   UNL     1     -10.391   8.136   6.824  1.00  0.00     0.031 C 
ATOM     65  C   UNL     1     -11.168   6.463   5.164  1.00  0.00     0.037 A 
BRANCH  52  66
ATOM     66  C   UNL     1     -10.464   4.631  -0.695  1.00  0.00     0.064 A 
ATOM     67  C   UNL     1      -9.564   3.666  -1.174  1.00  0.00     0.173 A 
ATOM     68  C   UNL     1     -11.756   4.652  -1.242  1.00  0.00     0.173 A 
ATOM     69  F   UNL     1      -8.313   3.612  -0.692  1.00  0.00    -0.203 F 
ATOM     70  C   UNL     1      -9.934   2.779  -2.182  1.00  0.00     0.198 A 
ATOM     71  C   UNL     1     -12.131   3.745  -2.229  1.00  0.00     0.198 A 
ATOM     72  F   UNL     1     -12.657   5.549  -0.813  1.00  0.00    -0.203 F 
ATOM     73  F   UNL     1      -9.043   1.899  -2.658  1.00  0.00    -0.200 F 
ATOM     74  C   UNL     1     -11.218   2.815  -2.704  1.00  0.00     0.200 A 
ATOM     75  F   UNL     1     -13.376   3.773  -2.725  1.00  0.00    -0.200 F 
ATOM     76  F   UNL     1     -11.574   1.959  -3.672  1.00  0.00    -0.200 F 
ENDBRANCH  52  66
BRANCH  53  77
ATOM     77  C   UNL     1      -7.439  11.110   6.252  1.00  0.00     0.064 A 
ATOM     78  C   UNL     1      -6.574  10.630   7.244  1.00  0.00     0.173 A 
ATOM     79  C   UNL     1      -7.734  12.481   6.245  1.00  0.00     0.173 A 
ATOM     80  F   UNL     1      -6.279   9.323   7.299  1.00  0.00    -0.203 F 
ATOM     81  C   UNL     1      -6.015  11.491   8.186  1.00  0.00     0.198 A 
ATOM     82  C   UNL     1      -7.155  13.344   7.172  1.00  0.00     0.198 A 
ATOM     83  F   UNL     1      -8.553  12.986   5.312  1.00  0.00    -0.203 F 
ATOM     84  F   UNL     1      -5.198  11.006   9.131  1.00  0.00    -0.200 F 
ATOM     85  C   UNL     1      -6.296  12.848   8.142  1.00  0.00     0.200 A 
ATOM     86  F   UNL     1      -7.416  14.657   7.116  1.00  0.00    -0.200 F 
ATOM     87  F   UNL     1      -5.737  13.679   9.031  1.00  0.00    -0.200 F 
ENDBRANCH  53  77
BRANCH  65  88
ATOM     88  C   UNL     1     -12.103   5.918   6.202  1.00  0.00     0.064 A 
ATOM     89  C   UNL     1     -13.280   6.596   6.546  1.00  0.00     0.173 A 
ATOM     90  C   UNL     1     -11.860   4.673   6.801  1.00  0.00     0.173 A 
ATOM     91  F   UNL     1     -13.548   7.797   6.011  1.00  0.00    -0.203 F 
ATOM     92  C   UNL     1     -14.179   6.051   7.458  1.00  0.00     0.198 A 
ATOM     93  C   UNL     1     -12.772   4.119   7.695  1.00  0.00     0.198 A 
ATOM     94  F   UNL     1     -10.749   3.984   6.501  1.00  0.00    -0.203 F 
ATOM     95  F   UNL     1     -15.286   6.728   7.792  1.00  0.00    -0.200 F 
ATOM     96  C   UNL     1     -13.929   4.809   8.024  1.00  0.00     0.200 A 
ATOM     97  F   UNL     1     -12.535   2.914   8.232  1.00  0.00    -0.200 F 
ATOM     98  F   UNL     1     -14.804   4.277   8.889  1.00  0.00    -0.200 F 
ENDBRANCH  65  88
ENDBRANCH  39  40
ENDBRANCH  31  34
ENDBRANCH  29  30
ENDBRANCH  28  29
ENDBRANCH  27  28
ENDBRANCH   1  27
TORSDOF 15
