REMARK SMILES Cc1cc(C)n2ncc(C(=O)N(C)CCCC(=O)NCCCCCCNC(=O)c3ccc(-c4c5nc(c(-c6c(F)c(F)c(F)c(F)c6F)c6ccc([nH]6)c(-c6c(F)c(F)c(F)c(F)c6F)c6nc(c(-c7c(F)c(F)c(F)c(F)c7F)c7ccc4[nH]7)C=C6)C=C5)cc3)c2n1
REMARK SMILES IDX 21 1 20 2 19 3 17 4 18 5 16 7 15 8 14 9 12 10 13 11 10 12
REMARK SMILES IDX 11 13 9 14 1 15 2 16 3 17 93 18 4 19 92 20 5 21 6 22 7 23
REMARK SMILES IDX 8 24 22 25 23 26 24 27 25 28 26 29 27 30 28 32 29 33 30 34
REMARK SMILES IDX 91 35 31 36 90 37 32 38 33 39 34 40 84 41 35 42 89 43 83 44
REMARK SMILES IDX 85 45 36 46 88 47 82 48 81 49 37 51 69 52 49 53 68 54 50 55
REMARK SMILES IDX 53 56 67 57 86 58 51 59 52 60 66 62 87 63 54 64 38 65 39 66
REMARK SMILES IDX 47 67 40 68 41 69 45 70 48 71 42 72 43 73 46 74 44 75 70 76
REMARK SMILES IDX 71 77 79 78 72 79 73 80 77 81 80 82 74 83 75 84 78 85 76 86
REMARK SMILES IDX 55 87 56 88 64 89 57 90 58 91 62 92 65 93 59 94 60 95 63 96
REMARK SMILES IDX 61 97
REMARK H PARENT 19 6 26 31 85 50 53 61
REMARK Flexibility Score: inf
ROOT
ATOM      1  C   UNL     1      -3.211  -1.538  -6.625  1.00  0.00     0.021 C 
ENDROOT
BRANCH   1   2
ATOM      2  C   UNL     1      -2.931  -0.904  -5.258  1.00  0.00     0.116 C 
BRANCH   2   3
ATOM      3  N   UNL     1      -3.697   0.306  -5.091  1.00  0.00    -0.356 N 
ATOM      4  C   UNL     1      -4.651   0.661  -4.199  1.00  0.00     0.220 C 
ATOM      5  O   UNL     1      -5.085   1.816  -4.308  1.00  0.00    -0.275 OA
ATOM      6  H   UNL     1      -3.487   1.007  -5.750  1.00  0.00     0.163 HD
BRANCH   4   7
ATOM      7  C   UNL     1      -5.113  -0.202  -3.036  1.00  0.00     0.102 C 
BRANCH   7   8
ATOM      8  C   UNL     1      -5.823  -1.556  -3.190  1.00  0.00     0.031 C 
BRANCH   8   9
ATOM      9  C   UNL     1      -5.226  -2.813  -3.844  1.00  0.00     0.120 C 
BRANCH   9  10
ATOM     10  N   UNL     1      -4.106  -3.626  -3.298  1.00  0.00    -0.342 N 
ATOM     11  C   UNL     1      -4.016  -4.937  -3.928  1.00  0.00     0.147 C 
BRANCH  10  12
ATOM     12  C   UNL     1      -3.182  -3.106  -2.372  1.00  0.00     0.259 C 
ATOM     13  O   UNL     1      -3.375  -1.993  -1.899  1.00  0.00    -0.269 OA
BRANCH  12  14
ATOM     14  C   UNL     1      -1.976  -3.816  -1.931  1.00  0.00     0.104 A 
ATOM     15  C   UNL     1       0.803  -0.095  -0.242  1.00  0.00     0.067 C 
ATOM     16  C   UNL     1       0.493  -1.546  -0.519  1.00  0.00     0.042 A 
ATOM     17  C   UNL     1       1.420  -2.552   0.082  1.00  0.00     0.047 A 
ATOM     18  N   UNL     1      -0.560  -1.839  -1.226  1.00  0.00    -0.233 NA
ATOM     19  C   UNL     1       1.142  -3.843  -0.167  1.00  0.00     0.043 A 
ATOM     20  C   UNL     1      -0.855  -3.170  -1.400  1.00  0.00     0.168 A 
ATOM     21  C   UNL     1       1.976  -4.962   0.373  1.00  0.00     0.067 C 
ATOM     22  N   UNL     1       0.003  -4.167  -0.922  1.00  0.00    -0.219 N 
ATOM     23  N   UNL     1      -0.452  -5.401  -1.251  1.00  0.00    -0.174 NA
ATOM     24  C   UNL     1      -1.656  -5.178  -1.779  1.00  0.00     0.151 A 
ENDBRANCH  12  14
ENDBRANCH  10  12
ENDBRANCH   9  10
ENDBRANCH   8   9
ENDBRANCH   7   8
ENDBRANCH   4   7
ENDBRANCH   2   3
ENDBRANCH   1   2
BRANCH   1  25
ATOM     25  C   UNL     1      -2.297  -1.024  -7.743  1.00  0.00     0.002 C 
BRANCH  25  26
ATOM     26  C   UNL     1      -0.795  -1.283  -7.539  1.00  0.00     0.002 C 
BRANCH  26  27
ATOM     27  C   UNL     1      -0.375  -2.740  -7.292  1.00  0.00     0.021 C 
BRANCH  27  28
ATOM     28  C   UNL     1      -0.629  -3.656  -8.477  1.00  0.00     0.116 C 
BRANCH  28  29
ATOM     29  N   UNL     1       0.130  -3.268  -9.670  1.00  0.00    -0.352 N 
ATOM     30  C   UNL     1       0.102  -3.830 -10.937  1.00  0.00     0.251 C 
ATOM     31  H   UNL     1       0.742  -2.506  -9.556  1.00  0.00     0.163 HD
ATOM     32  O   UNL     1       0.981  -3.628 -11.748  1.00  0.00    -0.269 OA
BRANCH  30  33
ATOM     33  C   UNL     1      -1.047  -4.689 -11.275  1.00  0.00     0.039 A 
ATOM     34  C   UNL     1      -0.897  -5.898 -11.957  1.00  0.00     0.014 A 
ATOM     35  C   UNL     1      -2.292  -4.270 -10.827  1.00  0.00     0.014 A 
ATOM     36  C   UNL     1      -2.016  -6.714 -12.115  1.00  0.00     0.010 A 
ATOM     37  C   UNL     1      -3.320  -5.167 -10.776  1.00  0.00     0.010 A 
ATOM     38  C   UNL     1      -3.224  -6.342 -11.508  1.00  0.00    -0.014 A 
BRANCH  38  39
ATOM     39  C   UNL     1      -4.423  -7.161 -11.614  1.00  0.00     0.031 A 
ATOM     40  C   UNL     1      -4.287  -8.579 -11.188  1.00  0.00     0.074 A 
ATOM     41  C   UNL     1      -5.629  -6.618 -11.895  1.00  0.00     0.049 A 
ATOM     42  N   UNL     1      -4.415  -9.639 -11.916  1.00  0.00    -0.248 NA
ATOM     43  C   UNL     1      -3.874  -8.853  -9.803  1.00  0.00     0.031 C 
ATOM     44  C   UNL     1      -5.997  -5.200 -12.047  1.00  0.00     0.029 A 
ATOM     45  N   UNL     1      -6.827  -7.244 -12.014  1.00  0.00    -0.354 N 
ATOM     46  C   UNL     1      -4.247 -10.724 -11.060  1.00  0.00     0.074 A 
ATOM     47  C   UNL     1      -3.795 -10.186  -9.802  1.00  0.00     0.031 C 
ATOM     48  C   UNL     1      -7.339  -5.067 -11.996  1.00  0.00     0.029 A 
ATOM     49  C   UNL     1      -7.922  -6.392 -12.022  1.00  0.00     0.049 A 
ATOM     50  H   UNL     1      -6.913  -8.222 -12.088  1.00  0.00     0.167 HD
ATOM     51  C   UNL     1      -4.677 -11.972 -11.398  1.00  0.00     0.037 A 
ATOM     52  C   UNL     1      -9.223  -6.757 -12.043  1.00  0.00     0.037 A 
ATOM     53  C   UNL     1      -4.976 -12.066 -12.801  1.00  0.00     0.049 A 
ATOM     54  C   UNL     1      -9.268  -8.143 -12.568  1.00  0.00     0.074 A 
ATOM     55  C   UNL     1      -4.233 -12.004 -13.962  1.00  0.00     0.029 A 
ATOM     56  N   UNL     1      -6.281 -11.878 -13.180  1.00  0.00    -0.354 N 
ATOM     57  N   UNL     1      -8.929  -8.471 -13.784  1.00  0.00    -0.248 NA
ATOM     58  C   UNL     1      -9.277  -9.231 -11.605  1.00  0.00     0.031 C 
ATOM     59  C   UNL     1      -5.066 -11.322 -14.899  1.00  0.00     0.029 A 
ATOM     60  C   UNL     1      -6.287 -11.053 -14.276  1.00  0.00     0.049 A 
ATOM     61  H   UNL     1      -7.073 -12.266 -12.743  1.00  0.00     0.167 HD
ATOM     62  C   UNL     1      -8.285  -9.693 -13.654  1.00  0.00     0.074 A 
ATOM     63  C   UNL     1      -8.627 -10.158 -12.313  1.00  0.00     0.031 C 
ATOM     64  C   UNL     1      -7.319 -10.075 -14.541  1.00  0.00     0.037 A 
BRANCH  51  65
ATOM     65  C   UNL     1      -5.138 -13.013 -10.415  1.00  0.00     0.064 A 
ATOM     66  C   UNL     1      -5.291 -14.351 -10.826  1.00  0.00     0.173 A 
ATOM     67  C   UNL     1      -5.704 -12.687  -9.164  1.00  0.00     0.173 A 
ATOM     68  F   UNL     1      -4.821 -14.757 -12.015  1.00  0.00    -0.203 F 
ATOM     69  C   UNL     1      -5.999 -15.281 -10.059  1.00  0.00     0.198 A 
ATOM     70  C   UNL     1      -6.364 -13.630  -8.378  1.00  0.00     0.198 A 
ATOM     71  F   UNL     1      -5.736 -11.427  -8.712  1.00  0.00    -0.203 F 
ATOM     72  F   UNL     1      -6.213 -16.515 -10.537  1.00  0.00    -0.200 F 
ATOM     73  C   UNL     1      -6.535 -14.920  -8.836  1.00  0.00     0.200 A 
ATOM     74  F   UNL     1      -6.899 -13.254  -7.207  1.00  0.00    -0.200 F 
ATOM     75  F   UNL     1      -7.257 -15.794  -8.123  1.00  0.00    -0.200 F 
ENDBRANCH  51  65
BRANCH  52  76
ATOM     76  C   UNL     1     -10.335  -6.151 -11.278  1.00  0.00     0.064 A 
ATOM     77  C   UNL     1     -11.667  -6.445 -11.602  1.00  0.00     0.173 A 
ATOM     78  C   UNL     1     -10.110  -5.526 -10.034  1.00  0.00     0.173 A 
ATOM     79  F   UNL     1     -11.955  -7.072 -12.752  1.00  0.00    -0.203 F 
ATOM     80  C   UNL     1     -12.712  -6.176 -10.713  1.00  0.00     0.198 A 
ATOM     81  C   UNL     1     -11.154  -5.254  -9.150  1.00  0.00     0.198 A 
ATOM     82  F   UNL     1      -8.865  -5.265  -9.609  1.00  0.00    -0.203 F 
ATOM     83  F   UNL     1     -13.963  -6.541 -11.024  1.00  0.00    -0.200 F 
ATOM     84  C   UNL     1     -12.453  -5.595  -9.482  1.00  0.00     0.200 A 
ATOM     85  F   UNL     1     -10.886  -4.729  -7.946  1.00  0.00    -0.200 F 
ATOM     86  F   UNL     1     -13.443  -5.409  -8.599  1.00  0.00    -0.200 F 
ENDBRANCH  52  76
BRANCH  64  87
ATOM     87  C   UNL     1      -7.177  -9.264 -15.803  1.00  0.00     0.064 A 
ATOM     88  C   UNL     1      -6.761  -7.920 -15.837  1.00  0.00     0.173 A 
ATOM     89  C   UNL     1      -7.337  -9.913 -17.033  1.00  0.00     0.173 A 
ATOM     90  F   UNL     1      -6.493  -7.253 -14.710  1.00  0.00    -0.203 F 
ATOM     91  C   UNL     1      -6.556  -7.252 -17.044  1.00  0.00     0.198 A 
ATOM     92  C   UNL     1      -7.097  -9.255 -18.237  1.00  0.00     0.198 A 
ATOM     93  F   UNL     1      -7.680 -11.211 -17.066  1.00  0.00    -0.203 F 
ATOM     94  F   UNL     1      -6.170  -5.967 -17.045  1.00  0.00    -0.200 F 
ATOM     95  C   UNL     1      -6.717  -7.923 -18.244  1.00  0.00     0.200 A 
ATOM     96  F   UNL     1      -7.208  -9.923 -19.394  1.00  0.00    -0.200 F 
ATOM     97  F   UNL     1      -6.480  -7.295 -19.404  1.00  0.00    -0.200 F 
ENDBRANCH  64  87
ENDBRANCH  38  39
ENDBRANCH  30  33
ENDBRANCH  28  29
ENDBRANCH  27  28
ENDBRANCH  26  27
ENDBRANCH  25  26
ENDBRANCH   1  25
TORSDOF 18
