REMARK SMILES CC1(C)CCC[C@H]1NS(=O)(=O)c1cccc(C(=O)NCCCCCCNC(=O)c2ccc(-c3c4nc(c(-c5c(F)c(F)c(F)c(F)c5F)c5ccc([nH]5)c(-c5c(F)c(F)c(F)c(F)c5F)c5nc(c(-c6c(F)c(F)c(F)c(F)c6F)c6ccc3[nH]6)C=C5)C=C4)cc2)c1
REMARK SMILES IDX 22 1 21 2 20 3 19 4 17 5 18 6 16 8 12 9 13 10 92 11 14 12
REMARK SMILES IDX 15 13 9 14 10 15 11 16 8 17 7 19 1 20 2 21 3 22 4 23 5 24
REMARK SMILES IDX 6 25 23 26 24 27 25 28 26 29 27 30 28 32 29 33 30 34 91 35
REMARK SMILES IDX 31 36 90 37 32 38 33 39 34 40 84 41 35 42 89 43 83 44 85 45
REMARK SMILES IDX 36 46 88 47 82 48 81 49 37 51 69 52 49 53 68 54 50 55 53 56
REMARK SMILES IDX 67 57 86 58 51 59 52 60 66 62 87 63 54 64 38 65 39 66 47 67
REMARK SMILES IDX 40 68 41 69 45 70 48 71 42 72 43 73 46 74 44 75 70 76 71 77
REMARK SMILES IDX 79 78 72 79 73 80 77 81 80 82 74 83 75 84 78 85 76 86 55 87
REMARK SMILES IDX 56 88 64 89 57 90 58 91 62 92 65 93 59 94 60 95 63 96 61 97
REMARK H PARENT 19 7 8 18 26 31 85 50 53 61
REMARK Flexibility Score: inf
ROOT
ATOM      1  C   UNL     1      -3.513   8.810   4.743  1.00  0.00     0.002 C 
ENDROOT
BRANCH   1   2
ATOM      2  C   UNL     1      -2.416   7.821   4.359  1.00  0.00     0.021 C 
BRANCH   2   3
ATOM      3  C   UNL     1      -2.551   7.136   3.006  1.00  0.00     0.116 C 
BRANCH   3   4
ATOM      4  N   UNL     1      -2.512   8.028   1.855  1.00  0.00    -0.352 N 
ATOM      5  C   UNL     1      -1.925   7.846   0.617  1.00  0.00     0.251 C 
ATOM      6  O   UNL     1      -1.987   8.735  -0.227  1.00  0.00    -0.269 OA
ATOM      7  H   UNL     1      -2.972   8.889   1.977  1.00  0.00     0.163 HD
BRANCH   5   8
ATOM      8  C   UNL     1      -1.161   6.607   0.320  1.00  0.00     0.041 A 
ATOM      9  C   UNL     1      -0.724   4.283   0.777  1.00  0.00     0.083 A 
ATOM     10  C   UNL     1       0.523   4.367   0.161  1.00  0.00     0.022 A 
ATOM     11  C   UNL     1      -1.602   5.368   0.767  1.00  0.00     0.035 A 
ATOM     12  C   UNL     1       0.894   5.570  -0.448  1.00  0.00     0.002 A 
ATOM     13  C   UNL     1       0.066   6.696  -0.347  1.00  0.00     0.014 A 
BRANCH   9  14
ATOM     14  S   UNL     1      -1.243   2.900   1.746  1.00  0.00     0.240 S 
ATOM     15  O   UNL     1      -2.623   2.638   1.406  1.00  0.00    -0.207 OA
ATOM     16  O   UNL     1      -0.859   3.202   3.108  1.00  0.00    -0.207 OA
BRANCH  14  17
ATOM     17  N   UNL     1      -0.305   1.597   1.292  1.00  0.00    -0.208 NA
ATOM     18  H   UNL     1       0.662   1.915   1.343  1.00  0.00     0.141 HD
BRANCH  17  19
ATOM     19  C   UNL     1      -0.445   0.931  -0.007  1.00  0.00     0.075 C 
ATOM     20  C   UNL     1       1.951   0.048   0.583  1.00  0.00     0.013 C 
ATOM     21  C   UNL     1       0.634  -0.179  -0.176  1.00  0.00    -0.019 C 
ATOM     22  C   UNL     1       0.979  -0.341  -1.670  1.00  0.00     0.013 C 
ATOM     23  C   UNL     1      -0.084  -1.430   0.358  1.00  0.00     0.008 C 
ATOM     24  C   UNL     1      -1.506  -1.296  -0.156  1.00  0.00     0.002 C 
ATOM     25  C   UNL     1      -1.794   0.201  -0.133  1.00  0.00     0.020 C 
ENDBRANCH  17  19
ENDBRANCH  14  17
ENDBRANCH   9  14
ENDBRANCH   5   8
ENDBRANCH   3   4
ENDBRANCH   2   3
ENDBRANCH   1   2
BRANCH   1  26
ATOM     26  C   UNL     1      -4.958   8.317   4.637  1.00  0.00     0.002 C 
BRANCH  26  27
ATOM     27  C   UNL     1      -5.300   7.001   5.340  1.00  0.00     0.021 C 
BRANCH  27  28
ATOM     28  C   UNL     1      -4.905   6.884   6.809  1.00  0.00     0.116 C 
BRANCH  28  29
ATOM     29  N   UNL     1      -5.496   7.912   7.646  1.00  0.00    -0.352 N 
ATOM     30  C   UNL     1      -6.175   7.810   8.835  1.00  0.00     0.251 C 
ATOM     31  H   UNL     1      -5.393   8.830   7.307  1.00  0.00     0.163 HD
ATOM     32  O   UNL     1      -6.680   8.815   9.328  1.00  0.00    -0.269 OA
BRANCH  30  33
ATOM     33  C   UNL     1      -6.335   6.507   9.524  1.00  0.00     0.039 A 
ATOM     34  C   UNL     1      -7.571   6.222  10.115  1.00  0.00     0.014 A 
ATOM     35  C   UNL     1      -5.285   5.592   9.643  1.00  0.00     0.014 A 
ATOM     36  C   UNL     1      -7.769   5.009  10.780  1.00  0.00     0.010 A 
ATOM     37  C   UNL     1      -5.502   4.353  10.252  1.00  0.00     0.010 A 
ATOM     38  C   UNL     1      -6.743   4.053  10.834  1.00  0.00    -0.014 A 
BRANCH  38  39
ATOM     39  C   UNL     1      -6.960   2.745  11.506  1.00  0.00     0.031 A 
ATOM     40  C   UNL     1      -6.220   2.403  12.769  1.00  0.00     0.074 A 
ATOM     41  C   UNL     1      -7.800   1.846  10.958  1.00  0.00     0.049 A 
ATOM     42  N   UNL     1      -6.272   1.311  13.490  1.00  0.00    -0.248 NA
ATOM     43  C   UNL     1      -5.279   3.413  13.277  1.00  0.00     0.031 C 
ATOM     44  C   UNL     1      -8.537   2.032   9.708  1.00  0.00     0.029 A 
ATOM     45  N   UNL     1      -8.171   0.594  11.381  1.00  0.00    -0.354 N 
ATOM     46  C   UNL     1      -5.363   1.496  14.524  1.00  0.00     0.074 A 
ATOM     47  C   UNL     1      -4.740   2.785  14.312  1.00  0.00     0.031 C 
ATOM     48  C   UNL     1      -9.289   0.944   9.476  1.00  0.00     0.029 A 
ATOM     49  C   UNL     1      -9.071  -0.024  10.547  1.00  0.00     0.049 A 
ATOM     50  H   UNL     1      -7.826   0.179  12.204  1.00  0.00     0.167 HD
ATOM     51  C   UNL     1      -5.088   0.675  15.567  1.00  0.00     0.037 A 
ATOM     52  C   UNL     1      -9.657  -1.232  10.639  1.00  0.00     0.037 A 
ATOM     53  C   UNL     1      -5.727  -0.595  15.796  1.00  0.00     0.049 A 
ATOM     54  C   UNL     1      -9.360  -2.109  11.824  1.00  0.00     0.074 A 
ATOM     55  C   UNL     1      -5.561  -1.468  16.857  1.00  0.00     0.029 A 
ATOM     56  N   UNL     1      -6.657  -1.173  14.945  1.00  0.00    -0.354 N 
ATOM     57  N   UNL     1      -8.553  -1.892  12.833  1.00  0.00    -0.248 NA
ATOM     58  C   UNL     1     -10.069  -3.396  11.887  1.00  0.00     0.031 C 
ATOM     59  C   UNL     1      -6.366  -2.591  16.631  1.00  0.00     0.029 A 
ATOM     60  C   UNL     1      -7.063  -2.399  15.450  1.00  0.00     0.049 A 
ATOM     61  H   UNL     1      -6.981  -0.773  14.106  1.00  0.00     0.167 HD
ATOM     62  C   UNL     1      -8.671  -3.000  13.661  1.00  0.00     0.074 A 
ATOM     63  C   UNL     1      -9.642  -3.880  13.045  1.00  0.00     0.031 C 
ATOM     64  C   UNL     1      -8.030  -3.264  14.826  1.00  0.00     0.037 A 
BRANCH  51  65
ATOM     65  C   UNL     1      -4.047   1.132  16.547  1.00  0.00     0.064 A 
ATOM     66  C   UNL     1      -4.290   2.190  17.437  1.00  0.00     0.173 A 
ATOM     67  C   UNL     1      -2.801   0.491  16.615  1.00  0.00     0.173 A 
ATOM     68  F   UNL     1      -5.461   2.843  17.404  1.00  0.00    -0.203 F 
ATOM     69  C   UNL     1      -3.313   2.608  18.336  1.00  0.00     0.198 A 
ATOM     70  C   UNL     1      -1.837   0.894  17.535  1.00  0.00     0.198 A 
ATOM     71  F   UNL     1      -2.520  -0.530  15.791  1.00  0.00    -0.203 F 
ATOM     72  F   UNL     1      -3.550   3.652  19.142  1.00  0.00    -0.200 F 
ATOM     73  C   UNL     1      -2.090   1.957  18.389  1.00  0.00     0.200 A 
ATOM     74  F   UNL     1      -0.659   0.257  17.592  1.00  0.00    -0.200 F 
ATOM     75  F   UNL     1      -1.152   2.360  19.257  1.00  0.00    -0.200 F 
ENDBRANCH  51  65
BRANCH  52  76
ATOM     76  C   UNL     1     -10.621  -1.664   9.596  1.00  0.00     0.064 A 
ATOM     77  C   UNL     1     -11.995  -1.721   9.867  1.00  0.00     0.173 A 
ATOM     78  C   UNL     1     -10.192  -2.023   8.311  1.00  0.00     0.173 A 
ATOM     79  F   UNL     1     -12.449  -1.408  11.090  1.00  0.00    -0.203 F 
ATOM     80  C   UNL     1     -12.903  -2.136   8.896  1.00  0.00     0.198 A 
ATOM     81  C   UNL     1     -11.103  -2.416   7.333  1.00  0.00     0.198 A 
ATOM     82  F   UNL     1      -8.887  -1.982   8.003  1.00  0.00    -0.203 F 
ATOM     83  F   UNL     1     -14.207  -2.220   9.193  1.00  0.00    -0.200 F 
ATOM     84  C   UNL     1     -12.457  -2.478   7.628  1.00  0.00     0.200 A 
ATOM     85  F   UNL     1     -10.670  -2.736   6.106  1.00  0.00    -0.200 F 
ATOM     86  F   UNL     1     -13.331  -2.874   6.693  1.00  0.00    -0.200 F 
ENDBRANCH  52  76
BRANCH  64  87
ATOM     87  C   UNL     1      -8.379  -4.548  15.520  1.00  0.00     0.064 A 
ATOM     88  C   UNL     1      -7.952  -5.789  15.025  1.00  0.00     0.173 A 
ATOM     89  C   UNL     1      -9.133  -4.535  16.703  1.00  0.00     0.173 A 
ATOM     90  F   UNL     1      -7.242  -5.854  13.889  1.00  0.00    -0.203 F 
ATOM     91  C   UNL     1      -8.292  -6.973  15.674  1.00  0.00     0.198 A 
ATOM     92  C   UNL     1      -9.449  -5.719  17.363  1.00  0.00     0.198 A 
ATOM     93  F   UNL     1      -9.561  -3.374  17.219  1.00  0.00    -0.203 F 
ATOM     94  F   UNL     1      -7.915  -8.151  15.156  1.00  0.00    -0.200 F 
ATOM     95  C   UNL     1      -9.036  -6.937  16.844  1.00  0.00     0.200 A 
ATOM     96  F   UNL     1     -10.160  -5.683  18.498  1.00  0.00    -0.200 F 
ATOM     97  F   UNL     1      -9.363  -8.078  17.466  1.00  0.00    -0.200 F 
ENDBRANCH  64  87
ENDBRANCH  38  39
ENDBRANCH  30  33
ENDBRANCH  28  29
ENDBRANCH  27  28
ENDBRANCH  26  27
ENDBRANCH   1  26
TORSDOF 16
