REMARK SMILES O=C(Cn1c(=O)c2c3c(sc2n(Cc2ccc(Cl)cc2Cl)c1=O)CCCC3)NCCCCCCNC(=O)c1ccc(-c2c3nc(c(-c4c(F)c(F)c(F)c(F)c4F)c4ccc([nH]4)c(-c4c(F)c(F)c(F)c(F)c4F)c4nc(c(-c5c(F)c(F)c(F)c(F)c5F)c5ccc2[nH]5)C=C4)C=C3)cc1
REMARK SMILES IDX 31 1 30 2 29 3 28 4 1 5 2 6 3 8 4 9 5 10 22 11 6 12 7 13
REMARK SMILES IDX 12 14 23 15 8 16 11 17 9 18 27 19 10 20 24 21 26 22 25 23
REMARK SMILES IDX 13 24 14 25 15 26 20 27 16 28 19 29 21 30 17 31 18 32 32 33
REMARK SMILES IDX 33 34 34 35 35 36 36 37 37 39 38 40 39 41 100 42 40 43 99 44
REMARK SMILES IDX 41 45 42 46 43 47 93 48 44 49 98 50 92 51 94 52 45 53 97 54
REMARK SMILES IDX 91 55 90 56 46 58 78 59 58 60 77 61 59 62 62 63 76 64 95 65
REMARK SMILES IDX 60 66 61 67 75 69 96 70 63 71 47 72 48 73 56 74 49 75 50 76
REMARK SMILES IDX 54 77 57 78 51 79 52 80 55 81 53 82 79 83 80 84 88 85 81 86
REMARK SMILES IDX 82 87 86 88 89 89 83 90 84 91 87 92 85 93 64 94 65 95 73 96
REMARK SMILES IDX 66 97 67 98 71 99 74 100 68 101 69 102 72 103 70 104
REMARK H PARENT 28 7 35 38 94 57 62 68
REMARK Flexibility Score: inf
ROOT
ATOM      1  C   UNL     1       4.063   1.681   3.723  1.00  0.00     0.002 C 
ENDROOT
BRANCH   1   2
ATOM      2  C   UNL     1       2.607   1.314   3.421  1.00  0.00     0.021 C 
BRANCH   2   3
ATOM      3  C   UNL     1       2.147   1.617   1.996  1.00  0.00     0.116 C 
BRANCH   3   4
ATOM      4  N   UNL     1       2.816   0.817   0.986  1.00  0.00    -0.355 N 
ATOM      5  O   UNL     1       0.991  -0.477   0.518  1.00  0.00    -0.273 OA
ATOM      6  C   UNL     1       2.103  -0.057   0.196  1.00  0.00     0.240 C 
ATOM      7  H   UNL     1       3.789   0.901   0.865  1.00  0.00     0.163 HD
BRANCH   6   8
ATOM      8  C   UNL     1       2.825  -0.640  -1.025  1.00  0.00     0.230 C 
BRANCH   8   9
ATOM      9  N   UNL     1       3.757   0.155  -1.836  1.00  0.00    -0.250 N 
ATOM     10  C   UNL     1       4.725  -0.599  -2.518  1.00  0.00     0.265 A 
ATOM     11  C   UNL     1       3.437   1.499  -2.111  1.00  0.00     0.332 A 
ATOM     12  O   UNL     1       4.990  -1.775  -2.252  1.00  0.00    -0.268 OA
ATOM     13  C   UNL     1       5.363   0.081  -3.619  1.00  0.00     0.079 A 
ATOM     14  N   UNL     1       4.191   2.171  -3.080  1.00  0.00    -0.280 N 
ATOM     15  O   UNL     1       2.534   2.083  -1.509  1.00  0.00    -0.247 OA
ATOM     16  C   UNL     1       6.356  -0.377  -4.563  1.00  0.00    -0.019 A 
ATOM     17  C   UNL     1       5.032   1.390  -3.853  1.00  0.00     0.113 A 
ATOM     18  C   UNL     1       6.707   0.640  -5.432  1.00  0.00     0.011 A 
ATOM     19  C   UNL     1       7.034  -1.715  -4.637  1.00  0.00     0.037 C 
ATOM     20  S   UNL     1       5.689   1.972  -5.288  1.00  0.00    -0.122 S 
ATOM     21  C   UNL     1       7.799   0.615  -6.448  1.00  0.00     0.047 C 
ATOM     22  C   UNL     1       7.846  -1.864  -5.943  1.00  0.00     0.005 C 
ATOM     23  C   UNL     1       8.688  -0.613  -6.236  1.00  0.00     0.006 C 
BRANCH  14  24
ATOM     24  C   UNL     1       4.022   3.641  -3.252  1.00  0.00     0.165 C 
BRANCH  24  25
ATOM     25  C   UNL     1       5.181   4.454  -2.678  1.00  0.00    -0.009 A 
ATOM     26  C   UNL     1       5.213   4.694  -1.290  1.00  0.00     0.008 A 
ATOM     27  C   UNL     1       6.239   4.985  -3.446  1.00  0.00     0.047 A 
ATOM     28  C   UNL     1       6.289   5.363  -0.694  1.00  0.00     0.021 A 
ATOM     29  C   UNL     1       7.365   5.552  -2.838  1.00  0.00     0.041 A 
ATOM     30  Cl  UNL     1       6.168   5.160  -5.165  1.00  0.00    -0.084 Cl
ATOM     31  C   UNL     1       7.383   5.743  -1.464  1.00  0.00     0.042 A 
ATOM     32  Cl  UNL     1       8.736   6.507  -0.729  1.00  0.00    -0.084 Cl
ENDBRANCH  24  25
ENDBRANCH  14  24
ENDBRANCH   8   9
ENDBRANCH   6   8
ENDBRANCH   3   4
ENDBRANCH   2   3
ENDBRANCH   1   2
BRANCH   1  33
ATOM     33  C   UNL     1       4.417   3.168   3.593  1.00  0.00     0.002 C 
BRANCH  33  34
ATOM     34  C   UNL     1       3.653   4.137   4.517  1.00  0.00     0.021 C 
BRANCH  34  35
ATOM     35  C   UNL     1       3.926   3.997   6.027  1.00  0.00     0.116 C 
BRANCH  35  36
ATOM     36  N   UNL     1       5.308   4.324   6.336  1.00  0.00    -0.352 N 
ATOM     37  C   UNL     1       5.882   5.149   7.265  1.00  0.00     0.251 C 
ATOM     38  H   UNL     1       5.960   3.861   5.762  1.00  0.00     0.163 HD
ATOM     39  O   UNL     1       7.053   5.484   7.081  1.00  0.00    -0.269 OA
BRANCH  37  40
ATOM     40  C   UNL     1       5.199   5.638   8.488  1.00  0.00     0.039 A 
ATOM     41  C   UNL     1       5.560   6.911   8.958  1.00  0.00     0.014 A 
ATOM     42  C   UNL     1       4.387   4.828   9.284  1.00  0.00     0.014 A 
ATOM     43  C   UNL     1       5.106   7.379  10.196  1.00  0.00     0.010 A 
ATOM     44  C   UNL     1       3.933   5.299  10.530  1.00  0.00     0.010 A 
ATOM     45  C   UNL     1       4.279   6.582  10.994  1.00  0.00    -0.014 A 
BRANCH  45  46
ATOM     46  C   UNL     1       3.656   7.207  12.188  1.00  0.00     0.031 A 
ATOM     47  C   UNL     1       2.183   6.978  12.303  1.00  0.00     0.074 A 
ATOM     48  C   UNL     1       4.316   7.544  13.320  1.00  0.00     0.049 A 
ATOM     49  N   UNL     1       1.685   5.885  12.805  1.00  0.00    -0.248 NA
ATOM     50  C   UNL     1       1.197   7.822  11.632  1.00  0.00     0.031 C 
ATOM     51  C   UNL     1       5.469   6.808  13.848  1.00  0.00     0.029 A 
ATOM     52  N   UNL     1       3.984   8.422  14.335  1.00  0.00    -0.354 N 
ATOM     53  C   UNL     1       0.343   5.856  12.479  1.00  0.00     0.074 A 
ATOM     54  C   UNL     1       0.080   7.087  11.766  1.00  0.00     0.031 C 
ATOM     55  C   UNL     1       5.631   7.134  15.149  1.00  0.00     0.029 A 
ATOM     56  C   UNL     1       4.701   8.205  15.512  1.00  0.00     0.049 A 
ATOM     57  H   UNL     1       3.308   9.130  14.238  1.00  0.00     0.167 HD
ATOM     58  C   UNL     1      -0.466   4.816  12.810  1.00  0.00     0.037 A 
ATOM     59  C   UNL     1       4.217   8.394  16.775  1.00  0.00     0.037 A 
ATOM     60  C   UNL     1       0.160   3.748  13.533  1.00  0.00     0.049 A 
ATOM     61  C   UNL     1       3.201   7.283  16.863  1.00  0.00     0.074 A 
ATOM     62  C   UNL     1       0.750   2.536  13.247  1.00  0.00     0.029 A 
ATOM     63  N   UNL     1       0.326   3.901  14.889  1.00  0.00    -0.354 N 
ATOM     64  N   UNL     1       3.454   6.018  17.069  1.00  0.00    -0.248 NA
ATOM     65  C   UNL     1       1.859   7.565  16.349  1.00  0.00     0.031 C 
ATOM     66  C   UNL     1       1.642   2.283  14.339  1.00  0.00     0.029 A 
ATOM     67  C   UNL     1       1.559   3.383  15.191  1.00  0.00     0.049 A 
ATOM     68  H   UNL     1      -0.314   4.304  15.519  1.00  0.00     0.167 HD
ATOM     69  C   UNL     1       2.403   5.330  16.459  1.00  0.00     0.074 A 
ATOM     70  C   UNL     1       1.445   6.340  16.062  1.00  0.00     0.031 C 
ATOM     71  C   UNL     1       2.452   4.006  16.139  1.00  0.00     0.037 A 
BRANCH  58  72
ATOM     72  C   UNL     1      -1.929   4.793  12.642  1.00  0.00     0.064 A 
ATOM     73  C   UNL     1      -2.717   5.028  13.779  1.00  0.00     0.173 A 
ATOM     74  C   UNL     1      -2.554   4.321  11.487  1.00  0.00     0.173 A 
ATOM     75  F   UNL     1      -2.142   5.471  14.911  1.00  0.00    -0.203 F 
ATOM     76  C   UNL     1      -4.077   4.751  13.780  1.00  0.00     0.198 A 
ATOM     77  C   UNL     1      -3.924   4.055  11.486  1.00  0.00     0.198 A 
ATOM     78  F   UNL     1      -1.837   4.069  10.382  1.00  0.00    -0.203 F 
ATOM     79  F   UNL     1      -4.790   4.928  14.900  1.00  0.00    -0.200 F 
ATOM     80  C   UNL     1      -4.679   4.253  12.636  1.00  0.00     0.200 A 
ATOM     81  F   UNL     1      -4.511   3.570  10.383  1.00  0.00    -0.200 F 
ATOM     82  F   UNL     1      -5.984   3.949  12.648  1.00  0.00    -0.200 F 
ENDBRANCH  58  72
BRANCH  59  83
ATOM     83  C   UNL     1       3.917   9.805  17.195  1.00  0.00     0.064 A 
ATOM     84  C   UNL     1       4.886  10.802  16.960  1.00  0.00     0.173 A 
ATOM     85  C   UNL     1       2.745  10.238  17.838  1.00  0.00     0.173 A 
ATOM     86  F   UNL     1       6.095  10.467  16.483  1.00  0.00    -0.203 F 
ATOM     87  C   UNL     1       4.638  12.154  17.210  1.00  0.00     0.198 A 
ATOM     88  C   UNL     1       2.481  11.594  18.058  1.00  0.00     0.198 A 
ATOM     89  F   UNL     1       1.822   9.363  18.260  1.00  0.00    -0.203 F 
ATOM     90  F   UNL     1       5.578  13.068  16.932  1.00  0.00    -0.200 F 
ATOM     91  C   UNL     1       3.418  12.553  17.723  1.00  0.00     0.200 A 
ATOM     92  F   UNL     1       1.302  11.966  18.577  1.00  0.00    -0.200 F 
ATOM     93  F   UNL     1       3.149  13.853  17.900  1.00  0.00    -0.200 F 
ENDBRANCH  59  83
BRANCH  71  94
ATOM     94  C   UNL     1       3.651   3.266  16.615  1.00  0.00     0.064 A 
ATOM     95  C   UNL     1       3.788   2.937  17.968  1.00  0.00     0.173 A 
ATOM     96  C   UNL     1       4.640   2.823  15.722  1.00  0.00     0.173 A 
ATOM     97  F   UNL     1       2.865   3.333  18.858  1.00  0.00    -0.203 F 
ATOM     98  C   UNL     1       4.857   2.163  18.408  1.00  0.00     0.198 A 
ATOM     99  C   UNL     1       5.694   2.028  16.162  1.00  0.00     0.198 A 
ATOM    100  F   UNL     1       4.572   3.127  14.416  1.00  0.00    -0.203 F 
ATOM    101  F   UNL     1       4.962   1.843  19.706  1.00  0.00    -0.200 F 
ATOM    102  C   UNL     1       5.799   1.695  17.503  1.00  0.00     0.200 A 
ATOM    103  F   UNL     1       6.592   1.560  15.283  1.00  0.00    -0.200 F 
ATOM    104  F   UNL     1       6.800   0.908  17.922  1.00  0.00    -0.200 F 
ENDBRANCH  71  94
ENDBRANCH  45  46
ENDBRANCH  37  40
ENDBRANCH  35  36
ENDBRANCH  34  35
ENDBRANCH  33  34
ENDBRANCH   1  33
TORSDOF 16
