REMARK SMILES CCN1CC(=O)N(C[C@@H]([NH3+])C(=O)NCCCCCCNC(=O)c2ccc(-c3c4nc(c(-c5c(F)c(F)c(F)c(F)c5F)c5ccc([nH]5)c(-c5c(F)c(F)c(F)c(F)c5F)c5nc(c(-c6c(F)c(F)c(F)c(F)c6F)c6ccc3[nH]6)C=C5)C=C4)cc2)CC1=O
REMARK SMILES IDX 16 1 15 2 14 3 13 4 11 5 12 6 9 8 8 9 7 10 3 11 4 12 87 13
REMARK SMILES IDX 5 14 86 15 88 16 6 17 2 18 1 19 10 20 17 24 18 25 19 26
REMARK SMILES IDX 20 27 21 28 22 30 23 31 24 32 85 33 25 34 84 35 26 36 27 37
REMARK SMILES IDX 28 38 78 39 29 40 83 41 77 42 79 43 30 44 82 45 76 46 75 47
REMARK SMILES IDX 31 49 63 50 43 51 62 52 44 53 47 54 61 55 80 56 45 57 46 58
REMARK SMILES IDX 60 60 81 61 48 62 32 63 33 64 41 65 34 66 35 67 39 68 42 69
REMARK SMILES IDX 36 70 37 71 40 72 38 73 64 74 65 75 73 76 66 77 67 78 71 79
REMARK SMILES IDX 74 80 68 81 69 82 72 83 70 84 49 85 50 86 58 87 51 88 52 89
REMARK SMILES IDX 56 90 59 91 53 92 54 93 57 94 55 95
REMARK H PARENT 13 7 10 21 10 22 10 23 20 29 79 48 47 59
REMARK Flexibility Score: inf
ROOT
ATOM      1  C   UNL     1       4.915   9.555  -1.076  1.00  0.00     0.002 C 
ENDROOT
BRANCH   1   2
ATOM      2  C   UNL     1       4.031   8.302  -1.124  1.00  0.00     0.021 C 
BRANCH   2   3
ATOM      3  C   UNL     1       3.106   8.240  -2.342  1.00  0.00     0.116 C 
BRANCH   3   4
ATOM      4  N   UNL     1       3.873   8.011  -3.553  1.00  0.00    -0.351 N 
ATOM      5  C   UNL     1       3.914   6.928  -4.381  1.00  0.00     0.280 C 
ATOM      6  O   UNL     1       4.680   6.975  -5.348  1.00  0.00    -0.268 OA
ATOM      7  H   UNL     1       4.457   8.757  -3.819  1.00  0.00     0.163 HD
BRANCH   5   8
ATOM      8  C   UNL     1       2.986   5.713  -4.170  1.00  0.00     0.290 C 
BRANCH   8   9
ATOM      9  C   UNL     1       3.342   4.965  -2.866  1.00  0.00     0.195 C 
BRANCH   9  10
ATOM     10  N   UNL     1       2.455   3.858  -2.495  1.00  0.00    -0.325 N 
ATOM     11  N   UNL     1       1.121   2.008  -0.901  1.00  0.00    -0.332 N 
ATOM     12  C   UNL     1       1.872   1.509  -2.062  1.00  0.00     0.219 C 
ATOM     13  C   UNL     1       0.597   3.303  -0.946  1.00  0.00     0.242 C 
ATOM     14  C   UNL     1       2.869   2.541  -2.611  1.00  0.00     0.242 C 
ATOM     15  C   UNL     1       1.071   4.141  -2.128  1.00  0.00     0.220 C 
ATOM     16  O   UNL     1      -0.292   3.696  -0.193  1.00  0.00    -0.273 OA
ATOM     17  O   UNL     1       3.895   2.209  -3.199  1.00  0.00    -0.273 OA
BRANCH  11  18
ATOM     18  C   UNL     1       0.551   1.106   0.097  1.00  0.00     0.116 C 
ATOM     19  C   UNL     1       1.058  -0.325   0.108  1.00  0.00     0.027 C 
ENDBRANCH  11  18
ENDBRANCH   9  10
ENDBRANCH   8   9
BRANCH   8  20
ATOM     20  N   UNL     1       1.573   6.160  -4.305  1.00  0.00    -0.346 N 
ATOM     21  H   UNL     1       1.373   6.873  -3.603  1.00  0.00     0.345 HD
ATOM     22  H   UNL     1       0.950   5.364  -4.168  1.00  0.00     0.345 HD
ATOM     23  H   UNL     1       1.426   6.550  -5.236  1.00  0.00     0.345 HD
ENDBRANCH   8  20
ENDBRANCH   5   8
ENDBRANCH   3   4
ENDBRANCH   2   3
ENDBRANCH   1   2
BRANCH   1  24
ATOM     24  C   UNL     1       4.154  10.884  -1.031  1.00  0.00     0.002 C 
BRANCH  24  25
ATOM     25  C   UNL     1       3.143  11.014   0.111  1.00  0.00     0.021 C 
BRANCH  25  26
ATOM     26  C   UNL     1       3.740  10.876   1.508  1.00  0.00     0.116 C 
BRANCH  26  27
ATOM     27  N   UNL     1       4.691  11.935   1.806  1.00  0.00    -0.352 N 
ATOM     28  C   UNL     1       4.750  12.770   2.892  1.00  0.00     0.251 C 
ATOM     29  H   UNL     1       5.394  12.072   1.131  1.00  0.00     0.163 HD
ATOM     30  O   UNL     1       5.513  13.734   2.889  1.00  0.00    -0.269 OA
BRANCH  28  31
ATOM     31  C   UNL     1       3.883  12.526   4.063  1.00  0.00     0.039 A 
ATOM     32  C   UNL     1       3.226  13.608   4.654  1.00  0.00     0.014 A 
ATOM     33  C   UNL     1       3.735  11.240   4.592  1.00  0.00     0.014 A 
ATOM     34  C   UNL     1       2.380  13.395   5.744  1.00  0.00     0.010 A 
ATOM     35  C   UNL     1       2.841  11.019   5.637  1.00  0.00     0.010 A 
ATOM     36  C   UNL     1       2.161  12.095   6.227  1.00  0.00    -0.014 A 
BRANCH  36  37
ATOM     37  C   UNL     1       1.231  11.845   7.356  1.00  0.00     0.031 A 
ATOM     38  C   UNL     1       1.755  11.324   8.665  1.00  0.00     0.074 A 
ATOM     39  C   UNL     1      -0.091  12.033   7.185  1.00  0.00     0.049 A 
ATOM     40  N   UNL     1       1.098  10.990   9.747  1.00  0.00    -0.248 NA
ATOM     41  C   UNL     1       3.210  11.126   8.761  1.00  0.00     0.031 C 
ATOM     42  C   UNL     1      -0.726  12.492   5.948  1.00  0.00     0.029 A 
ATOM     43  N   UNL     1      -1.141  11.852   8.050  1.00  0.00    -0.354 N 
ATOM     44  C   UNL     1       2.054  10.531  10.643  1.00  0.00     0.074 A 
ATOM     45  C   UNL     1       3.330  10.580   9.962  1.00  0.00     0.031 C 
ATOM     46  C   UNL     1      -2.052  12.578   6.141  1.00  0.00     0.029 A 
ATOM     47  C   UNL     1      -2.364  12.149   7.502  1.00  0.00     0.049 A 
ATOM     48  H   UNL     1      -1.027  11.540   8.977  1.00  0.00     0.167 HD
ATOM     49  C   UNL     1       1.887  10.128  11.925  1.00  0.00     0.037 A 
ATOM     50  C   UNL     1      -3.597  12.081   8.036  1.00  0.00     0.037 A 
ATOM     51  C   UNL     1       0.620  10.105  12.608  1.00  0.00     0.049 A 
ATOM     52  C   UNL     1      -3.756  11.632   9.463  1.00  0.00     0.074 A 
ATOM     53  C   UNL     1       0.353   9.769  13.924  1.00  0.00     0.029 A 
ATOM     54  N   UNL     1      -0.596  10.432  12.025  1.00  0.00    -0.354 N 
ATOM     55  N   UNL     1      -2.838  11.263  10.322  1.00  0.00    -0.248 NA
ATOM     56  C   UNL     1      -5.125  11.597   9.996  1.00  0.00     0.031 C 
ATOM     57  C   UNL     1      -1.029   9.853  14.126  1.00  0.00     0.029 A 
ATOM     58  C   UNL     1      -1.618  10.287  12.950  1.00  0.00     0.049 A 
ATOM     59  H   UNL     1      -0.715  10.723  11.092  1.00  0.00     0.167 HD
ATOM     60  C   UNL     1      -3.510  10.981  11.503  1.00  0.00     0.074 A 
ATOM     61  C   UNL     1      -4.915  11.233  11.254  1.00  0.00     0.031 C 
ATOM     62  C   UNL     1      -3.010  10.551  12.687  1.00  0.00     0.037 A 
BRANCH  49  63
ATOM     63  C   UNL     1       3.108   9.681  12.675  1.00  0.00     0.064 A 
ATOM     64  C   UNL     1       4.104  10.589  13.066  1.00  0.00     0.173 A 
ATOM     65  C   UNL     1       3.274   8.334  13.030  1.00  0.00     0.173 A 
ATOM     66  F   UNL     1       4.000  11.887  12.740  1.00  0.00    -0.203 F 
ATOM     67  C   UNL     1       5.235  10.161  13.756  1.00  0.00     0.198 A 
ATOM     68  C   UNL     1       4.392   7.914  13.747  1.00  0.00     0.198 A 
ATOM     69  F   UNL     1       2.350   7.424  12.687  1.00  0.00    -0.203 F 
ATOM     70  F   UNL     1       6.197  11.039  14.072  1.00  0.00    -0.200 F 
ATOM     71  C   UNL     1       5.375   8.825  14.101  1.00  0.00     0.200 A 
ATOM     72  F   UNL     1       4.520   6.625  14.092  1.00  0.00    -0.200 F 
ATOM     73  F   UNL     1       6.462   8.415  14.769  1.00  0.00    -0.200 F 
ENDBRANCH  49  63
BRANCH  50  74
ATOM     74  C   UNL     1      -4.777  12.481   7.228  1.00  0.00     0.064 A 
ATOM     75  C   UNL     1      -5.479  13.660   7.518  1.00  0.00     0.173 A 
ATOM     76  C   UNL     1      -5.225  11.702   6.152  1.00  0.00     0.173 A 
ATOM     77  F   UNL     1      -5.099  14.427   8.550  1.00  0.00    -0.203 F 
ATOM     78  C   UNL     1      -6.595  14.035   6.773  1.00  0.00     0.198 A 
ATOM     79  C   UNL     1      -6.326  12.091   5.391  1.00  0.00     0.198 A 
ATOM     80  F   UNL     1      -4.585  10.568   5.831  1.00  0.00    -0.203 F 
ATOM     81  F   UNL     1      -7.271  15.145   7.098  1.00  0.00    -0.200 F 
ATOM     82  C   UNL     1      -7.014  13.254   5.707  1.00  0.00     0.200 A 
ATOM     83  F   UNL     1      -6.720  11.341   4.353  1.00  0.00    -0.200 F 
ATOM     84  F   UNL     1      -8.085  13.617   4.988  1.00  0.00    -0.200 F 
ENDBRANCH  50  74
BRANCH  62  85
ATOM     85  C   UNL     1      -3.982  10.360  13.814  1.00  0.00     0.064 A 
ATOM     86  C   UNL     1      -4.888   9.290  13.832  1.00  0.00     0.173 A 
ATOM     87  C   UNL     1      -3.981  11.240  14.907  1.00  0.00     0.173 A 
ATOM     88  F   UNL     1      -4.939   8.431  12.803  1.00  0.00    -0.203 F 
ATOM     89  C   UNL     1      -5.776   9.123  14.892  1.00  0.00     0.198 A 
ATOM     90  C   UNL     1      -4.850  11.053  15.978  1.00  0.00     0.198 A 
ATOM     91  F   UNL     1      -3.130  12.276  14.941  1.00  0.00    -0.203 F 
ATOM     92  F   UNL     1      -6.665   8.120  14.866  1.00  0.00    -0.200 F 
ATOM     93  C   UNL     1      -5.751   9.999  15.966  1.00  0.00     0.200 A 
ATOM     94  F   UNL     1      -4.817  11.894  17.022  1.00  0.00    -0.200 F 
ATOM     95  F   UNL     1      -6.602   9.833  16.988  1.00  0.00    -0.200 F 
ENDBRANCH  62  85
ENDBRANCH  36  37
ENDBRANCH  28  31
ENDBRANCH  26  27
ENDBRANCH  25  26
ENDBRANCH  24  25
ENDBRANCH   1  24
TORSDOF 17
