REMARK SMILES CC[C@H](C)[NH+]1CCN(C(=O)CC(=O)NCCCCCCNC(=O)c2ccc(-c3c4nc(c(-c5c(F)c(F)c(F)c(F)c5F)c5ccc([nH]5)c(-c5c(F)c(F)c(F)c(F)c5F)c5nc(c(-c6c(F)c(F)c(F)c(F)c6F)c6ccc3[nH]6)C=C5)C=C4)cc2)CC1
REMARK SMILES IDX 17 1 16 2 15 3 14 4 12 5 13 6 11 8 9 9 5 10 6 11 88 12 7 14
REMARK SMILES IDX 87 15 8 16 10 17 3 18 4 19 2 20 1 21 18 22 19 23 20 24 21 25
REMARK SMILES IDX 22 26 23 28 24 29 25 30 86 31 26 32 85 33 27 34 28 35 29 36
REMARK SMILES IDX 79 37 30 38 84 39 78 40 80 41 31 42 83 43 77 44 76 45 32 47
REMARK SMILES IDX 64 48 44 49 63 50 45 51 48 52 62 53 81 54 46 55 47 56 61 58
REMARK SMILES IDX 82 59 49 60 33 61 34 62 42 63 35 64 36 65 40 66 43 67 37 68
REMARK SMILES IDX 38 69 41 70 39 71 65 72 66 73 74 74 67 75 68 76 72 77 75 78
REMARK SMILES IDX 69 79 70 80 73 81 71 82 50 83 51 84 59 85 52 86 53 87 57 88
REMARK SMILES IDX 60 89 54 90 55 91 58 92 56 93
REMARK H PARENT 14 7 5 13 21 27 80 46 48 57
REMARK Flexibility Score: inf
ROOT
ATOM      1  C   UNL     1       1.880   1.650   5.151  1.00  0.00     0.002 C 
ENDROOT
BRANCH   1   2
ATOM      2  C   UNL     1       0.546   1.853   4.415  1.00  0.00     0.021 C 
BRANCH   2   3
ATOM      3  C   UNL     1      -0.193   3.131   4.814  1.00  0.00     0.116 C 
BRANCH   3   4
ATOM      4  N   UNL     1       0.570   4.301   4.426  1.00  0.00    -0.356 N 
ATOM      5  C   UNL     1       0.298   5.255   3.498  1.00  0.00     0.229 C 
ATOM      6  O   UNL     1       1.176   6.088   3.260  1.00  0.00    -0.275 OA
ATOM      7  H   UNL     1       1.419   4.423   4.910  1.00  0.00     0.163 HD
BRANCH   5   8
ATOM      8  C   UNL     1      -1.051   5.354   2.847  1.00  0.00     0.200 C 
BRANCH   8   9
ATOM      9  C   UNL     1      -1.545   4.161   2.075  1.00  0.00     0.232 C 
ATOM     10  N   UNL     1       0.207   2.907  -1.676  1.00  0.00    -0.330 N 
ATOM     11  C   UNL     1      -1.162   2.621  -1.243  1.00  0.00     0.284 C 
ATOM     12  C   UNL     1       0.715   4.107  -0.990  1.00  0.00     0.284 C 
ATOM     13  H   UNL     1       0.120   3.108  -2.672  1.00  0.00     0.348 HD
ATOM     14  C   UNL     1      -1.346   2.529   0.274  1.00  0.00     0.181 C 
ATOM     15  C   UNL     1       0.467   4.206   0.533  1.00  0.00     0.181 C 
ATOM     16  N   UNL     1      -0.853   3.723   0.961  1.00  0.00    -0.331 N 
ATOM     17  O   UNL     1      -2.598   3.619   2.429  1.00  0.00    -0.274 OA
BRANCH  10  18
ATOM     18  C   UNL     1       1.163   1.795  -1.810  1.00  0.00     0.180 C 
ATOM     19  C   UNL     1       1.594   1.077  -0.529  1.00  0.00     0.075 C 
BRANCH  18  20
ATOM     20  C   UNL     1       0.748   0.793  -2.924  1.00  0.00     0.061 C 
ATOM     21  C   UNL     1      -0.065  -0.427  -2.503  1.00  0.00     0.010 C 
ENDBRANCH  18  20
ENDBRANCH  10  18
ENDBRANCH   8   9
ENDBRANCH   5   8
ENDBRANCH   3   4
ENDBRANCH   2   3
ENDBRANCH   1   2
BRANCH   1  22
ATOM     22  C   UNL     1       1.781   1.647   6.681  1.00  0.00     0.002 C 
BRANCH  22  23
ATOM     23  C   UNL     1       0.824   0.603   7.259  1.00  0.00     0.021 C 
BRANCH  23  24
ATOM     24  C   UNL     1       1.189  -0.839   6.921  1.00  0.00     0.116 C 
BRANCH  24  25
ATOM     25  N   UNL     1       2.464  -1.231   7.502  1.00  0.00    -0.352 N 
ATOM     26  C   UNL     1       2.760  -2.299   8.309  1.00  0.00     0.251 C 
ATOM     27  H   UNL     1       3.224  -0.644   7.284  1.00  0.00     0.163 HD
ATOM     28  O   UNL     1       3.851  -2.368   8.871  1.00  0.00    -0.269 OA
BRANCH  26  29
ATOM     29  C   UNL     1       1.756  -3.363   8.519  1.00  0.00     0.039 A 
ATOM     30  C   UNL     1       1.549  -3.853   9.810  1.00  0.00     0.014 A 
ATOM     31  C   UNL     1       1.024  -3.878   7.446  1.00  0.00     0.014 A 
ATOM     32  C   UNL     1       0.564  -4.817  10.034  1.00  0.00     0.010 A 
ATOM     33  C   UNL     1      -0.009  -4.780   7.682  1.00  0.00     0.010 A 
ATOM     34  C   UNL     1      -0.248  -5.262   8.978  1.00  0.00    -0.014 A 
BRANCH  34  35
ATOM     35  C   UNL     1      -1.345  -6.237   9.207  1.00  0.00     0.031 A 
ATOM     36  C   UNL     1      -1.298  -7.592   8.556  1.00  0.00     0.074 A 
ATOM     37  C   UNL     1      -2.405  -5.886   9.963  1.00  0.00     0.049 A 
ATOM     38  N   UNL     1      -2.189  -8.552   8.573  1.00  0.00    -0.248 NA
ATOM     39  C   UNL     1      -0.100  -7.903   7.759  1.00  0.00     0.031 C 
ATOM     40  C   UNL     1      -2.582  -4.591  10.623  1.00  0.00     0.029 A 
ATOM     41  N   UNL     1      -3.538  -6.585  10.297  1.00  0.00    -0.354 N 
ATOM     42  C   UNL     1      -1.659  -9.574   7.797  1.00  0.00     0.074 A 
ATOM     43  C   UNL     1      -0.403  -9.095   7.266  1.00  0.00     0.031 C 
ATOM     44  C   UNL     1      -3.740  -4.598  11.303  1.00  0.00     0.029 A 
ATOM     45  C   UNL     1      -4.409  -5.878  11.091  1.00  0.00     0.049 A 
ATOM     46  H   UNL     1      -3.710  -7.507   9.997  1.00  0.00     0.167 HD
ATOM     47  C   UNL     1      -2.160 -10.813   7.574  1.00  0.00     0.037 A 
ATOM     48  C   UNL     1      -5.616  -6.221  11.581  1.00  0.00     0.037 A 
ATOM     49  C   UNL     1      -3.406 -11.292   8.111  1.00  0.00     0.049 A 
ATOM     50  C   UNL     1      -6.171  -7.586  11.267  1.00  0.00     0.074 A 
ATOM     51  C   UNL     1      -3.992 -12.536   7.955  1.00  0.00     0.029 A 
ATOM     52  N   UNL     1      -4.260 -10.545   8.909  1.00  0.00    -0.354 N 
ATOM     53  N   UNL     1      -5.635  -8.563  10.576  1.00  0.00    -0.248 NA
ATOM     54  C   UNL     1      -7.502  -7.899  11.809  1.00  0.00     0.031 C 
ATOM     55  C   UNL     1      -5.221 -12.528   8.622  1.00  0.00     0.029 A 
ATOM     56  C   UNL     1      -5.374 -11.299   9.242  1.00  0.00     0.049 A 
ATOM     57  H   UNL     1      -4.099  -9.618   9.197  1.00  0.00     0.167 HD
ATOM     58  C   UNL     1      -6.539  -9.615  10.638  1.00  0.00     0.074 A 
ATOM     59  C   UNL     1      -7.651  -9.164  11.447  1.00  0.00     0.031 C 
ATOM     60  C   UNL     1      -6.459 -10.845  10.073  1.00  0.00     0.037 A 
BRANCH  47  61
ATOM     61  C   UNL     1      -1.348 -11.750   6.726  1.00  0.00     0.064 A 
ATOM     62  C   UNL     1      -0.137 -12.289   7.188  1.00  0.00     0.173 A 
ATOM     63  C   UNL     1      -1.810 -12.161   5.466  1.00  0.00     0.173 A 
ATOM     64  F   UNL     1       0.355 -11.920   8.380  1.00  0.00    -0.203 F 
ATOM     65  C   UNL     1       0.591 -13.186   6.412  1.00  0.00     0.198 A 
ATOM     66  C   UNL     1      -1.095 -13.083   4.707  1.00  0.00     0.198 A 
ATOM     67  F   UNL     1      -2.964 -11.681   4.979  1.00  0.00    -0.203 F 
ATOM     68  F   UNL     1       1.766 -13.654   6.856  1.00  0.00    -0.200 F 
ATOM     69  C   UNL     1       0.107 -13.590   5.177  1.00  0.00     0.200 A 
ATOM     70  F   UNL     1      -1.571 -13.485   3.520  1.00  0.00    -0.200 F 
ATOM     71  F   UNL     1       0.802 -14.466   4.438  1.00  0.00    -0.200 F 
ENDBRANCH  47  61
BRANCH  48  72
ATOM     72  C   UNL     1      -6.389  -5.271  12.426  1.00  0.00     0.064 A 
ATOM     73  C   UNL     1      -6.663  -5.563  13.771  1.00  0.00     0.173 A 
ATOM     74  C   UNL     1      -6.920  -4.085  11.899  1.00  0.00     0.173 A 
ATOM     75  F   UNL     1      -6.195  -6.694  14.318  1.00  0.00    -0.203 F 
ATOM     76  C   UNL     1      -7.472  -4.730  14.540  1.00  0.00     0.198 A 
ATOM     77  C   UNL     1      -7.699  -3.233  12.680  1.00  0.00     0.198 A 
ATOM     78  F   UNL     1      -6.686  -3.753  10.621  1.00  0.00    -0.203 F 
ATOM     79  F   UNL     1      -7.778  -5.074  15.799  1.00  0.00    -0.200 F 
ATOM     80  C   UNL     1      -7.988  -3.564  13.995  1.00  0.00     0.200 A 
ATOM     81  F   UNL     1      -8.182  -2.100  12.153  1.00  0.00    -0.200 F 
ATOM     82  F   UNL     1      -8.776  -2.769  14.731  1.00  0.00    -0.200 F 
ENDBRANCH  48  72
BRANCH  60  83
ATOM     83  C   UNL     1      -7.572 -11.812  10.362  1.00  0.00     0.064 A 
ATOM     84  C   UNL     1      -8.860 -11.640   9.835  1.00  0.00     0.173 A 
ATOM     85  C   UNL     1      -7.332 -12.948  11.151  1.00  0.00     0.173 A 
ATOM     86  F   UNL     1      -9.145 -10.563   9.086  1.00  0.00    -0.203 F 
ATOM     87  C   UNL     1      -9.875 -12.551  10.113  1.00  0.00     0.198 A 
ATOM     88  C   UNL     1      -8.340 -13.876  11.397  1.00  0.00     0.198 A 
ATOM     89  F   UNL     1      -6.116 -13.166  11.673  1.00  0.00    -0.203 F 
ATOM     90  F   UNL     1     -11.112 -12.336   9.645  1.00  0.00    -0.200 F 
ATOM     91  C   UNL     1      -9.613 -13.672  10.887  1.00  0.00     0.200 A 
ATOM     92  F   UNL     1      -8.079 -14.967  12.130  1.00  0.00    -0.200 F 
ATOM     93  F   UNL     1     -10.589 -14.552  11.146  1.00  0.00    -0.200 F 
ENDBRANCH  60  83
ENDBRANCH  34  35
ENDBRANCH  26  29
ENDBRANCH  24  25
ENDBRANCH  23  24
ENDBRANCH  22  23
ENDBRANCH   1  22
TORSDOF 16
