REMARK SMILES Cc1nn(C)c(OCC(C)(C)[NH+](C)C)c1C(=O)NCCCCCCNC(=O)c1ccc(-c2c3nc(c(-c4c(F)c(F)c(F)c(F)c4F)c4ccc([nH]4)c(-c4c(F)c(F)c(F)c(F)c4F)c4nc(c(-c5c(F)c(F)c(F)c(F)c5F)c5ccc2[nH]5)C=C4)C=C3)cc1
REMARK SMILES IDX 20 1 19 2 18 3 16 4 17 5 15 7 1 8 2 9 3 10 4 11 6 12 5 13
REMARK SMILES IDX 7 14 8 15 9 16 10 17 11 18 12 19 13 20 14 21 21 23 22 24
REMARK SMILES IDX 23 25 24 26 25 27 26 28 27 30 28 31 29 32 90 33 30 34 89 35
REMARK SMILES IDX 31 36 32 37 33 38 83 39 34 40 88 41 82 42 84 43 35 44 87 45
REMARK SMILES IDX 81 46 80 47 36 49 68 50 48 51 67 52 49 53 52 54 66 55 85 56
REMARK SMILES IDX 50 57 51 58 65 60 86 61 53 62 37 63 38 64 46 65 39 66 40 67
REMARK SMILES IDX 44 68 47 69 41 70 42 71 45 72 43 73 69 74 70 75 78 76 71 77
REMARK SMILES IDX 72 78 76 79 79 80 73 81 74 82 77 83 75 84 54 85 55 86 63 87
REMARK SMILES IDX 56 88 57 89 61 90 64 91 58 92 59 93 62 94 60 95
REMARK H PARENT 18 6 12 22 25 29 84 48 52 59
REMARK Flexibility Score: inf
ROOT
ATOM      1  C   UNL     1      -4.734  -1.064  -1.028  1.00  0.00     0.021 C 
ENDROOT
BRANCH   1   2
ATOM      2  C   UNL     1      -3.636  -1.514  -0.067  1.00  0.00     0.116 C 
BRANCH   2   3
ATOM      3  N   UNL     1      -2.707  -2.299  -0.843  1.00  0.00    -0.352 N 
ATOM      4  C   UNL     1      -1.472  -1.991  -1.335  1.00  0.00     0.258 C 
ATOM      5  O   UNL     1      -1.043  -2.710  -2.237  1.00  0.00    -0.269 OA
ATOM      6  H   UNL     1      -3.016  -3.210  -1.053  1.00  0.00     0.163 HD
BRANCH   4   7
ATOM      7  C   UNL     1      -0.660  -0.950  -0.740  1.00  0.00     0.124 A 
ATOM      8  C   UNL     1      -2.054   1.320  -0.819  1.00  0.00     0.070 C 
ATOM      9  C   UNL     1      -0.871   0.458  -0.572  1.00  0.00     0.076 A 
ATOM     10  N   UNL     1       0.232   1.075  -0.134  1.00  0.00    -0.174 NA
ATOM     11  N   UNL     1       1.148   0.100  -0.090  1.00  0.00    -0.236 N 
ATOM     12  C   UNL     1       0.629  -1.160  -0.252  1.00  0.00     0.225 A 
ATOM     13  C   UNL     1       2.536   0.459   0.077  1.00  0.00     0.178 C 
BRANCH  12  14
ATOM     14  O   UNL     1       1.426  -2.200   0.012  1.00  0.00    -0.471 OA
BRANCH  14  15
ATOM     15  C   UNL     1       0.913  -3.517   0.207  1.00  0.00     0.299 C 
BRANCH  15  16
ATOM     16  C   UNL     1       0.301  -3.893   1.620  1.00  0.00     0.126 C 
ATOM     17  C   UNL     1      -1.031  -3.161   1.873  1.00  0.00     0.082 C 
ATOM     18  C   UNL     1      -0.049  -5.406   1.483  1.00  0.00     0.082 C 
BRANCH  16  19
ATOM     19  N   UNL     1       1.258  -3.740   2.764  1.00  0.00    -0.333 N 
ATOM     20  C   UNL     1       1.894  -2.423   2.839  1.00  0.00     0.333 C 
ATOM     21  C   UNL     1       0.696  -4.059   4.082  1.00  0.00     0.333 C 
ATOM     22  H   UNL     1       1.965  -4.440   2.539  1.00  0.00     0.348 HD
ENDBRANCH  16  19
ENDBRANCH  15  16
ENDBRANCH  14  15
ENDBRANCH  12  14
ENDBRANCH   4   7
ENDBRANCH   2   3
ENDBRANCH   1   2
BRANCH   1  23
ATOM     23  C   UNL     1      -5.843  -2.114  -1.137  1.00  0.00     0.002 C 
BRANCH  23  24
ATOM     24  C   UNL     1      -6.791  -2.107   0.065  1.00  0.00     0.002 C 
BRANCH  24  25
ATOM     25  C   UNL     1      -7.482  -0.763   0.309  1.00  0.00     0.021 C 
BRANCH  25  26
ATOM     26  C   UNL     1      -8.210  -0.218  -0.913  1.00  0.00     0.116 C 
BRANCH  26  27
ATOM     27  N   UNL     1      -9.290  -1.102  -1.320  1.00  0.00    -0.352 N 
ATOM     28  C   UNL     1     -10.623  -0.808  -1.460  1.00  0.00     0.251 C 
ATOM     29  H   UNL     1      -9.032  -2.030  -1.521  1.00  0.00     0.163 HD
ATOM     30  O   UNL     1     -11.459  -1.696  -1.543  1.00  0.00    -0.269 OA
BRANCH  28  31
ATOM     31  C   UNL     1     -11.031   0.609  -1.498  1.00  0.00     0.039 A 
ATOM     32  C   UNL     1     -12.106   1.030  -0.715  1.00  0.00     0.014 A 
ATOM     33  C   UNL     1     -10.328   1.519  -2.294  1.00  0.00     0.014 A 
ATOM     34  C   UNL     1     -12.448   2.381  -0.695  1.00  0.00     0.010 A 
ATOM     35  C   UNL     1     -10.617   2.874  -2.208  1.00  0.00     0.010 A 
ATOM     36  C   UNL     1     -11.688   3.317  -1.417  1.00  0.00    -0.014 A 
BRANCH  36  37
ATOM     37  C   UNL     1     -12.005   4.765  -1.369  1.00  0.00     0.031 A 
ATOM     38  C   UNL     1     -12.429   5.481  -2.620  1.00  0.00     0.074 A 
ATOM     39  C   UNL     1     -11.851   5.441  -0.215  1.00  0.00     0.049 A 
ATOM     40  N   UNL     1     -12.689   6.751  -2.799  1.00  0.00    -0.248 NA
ATOM     41  C   UNL     1     -12.550   4.667  -3.841  1.00  0.00     0.031 C 
ATOM     42  C   UNL     1     -11.398   4.862   1.051  1.00  0.00     0.029 A 
ATOM     43  N   UNL     1     -12.049   6.767   0.078  1.00  0.00    -0.354 N 
ATOM     44  C   UNL     1     -12.990   6.888  -4.148  1.00  0.00     0.074 A 
ATOM     45  C   UNL     1     -12.821   5.586  -4.755  1.00  0.00     0.031 C 
ATOM     46  C   UNL     1     -11.379   5.821   1.990  1.00  0.00     0.029 A 
ATOM     47  C   UNL     1     -11.774   7.088   1.385  1.00  0.00     0.049 A 
ATOM     48  H   UNL     1     -12.358   7.425  -0.585  1.00  0.00     0.167 HD
ATOM     49  C   UNL     1     -13.398   7.994  -4.813  1.00  0.00     0.037 A 
ATOM     50  C   UNL     1     -11.827   8.275   2.018  1.00  0.00     0.037 A 
ATOM     51  C   UNL     1     -13.581   9.281  -4.197  1.00  0.00     0.049 A 
ATOM     52  C   UNL     1     -12.266   9.494   1.251  1.00  0.00     0.074 A 
ATOM     53  C   UNL     1     -14.043  10.453  -4.769  1.00  0.00     0.029 A 
ATOM     54  N   UNL     1     -13.306   9.566  -2.867  1.00  0.00    -0.354 N 
ATOM     55  N   UNL     1     -12.619   9.597  -0.007  1.00  0.00    -0.248 NA
ATOM     56  C   UNL     1     -12.321  10.760   1.994  1.00  0.00     0.031 C 
ATOM     57  C   UNL     1     -13.991  11.461  -3.802  1.00  0.00     0.029 A 
ATOM     58  C   UNL     1     -13.562  10.903  -2.608  1.00  0.00     0.049 A 
ATOM     59  H   UNL     1     -12.976   8.915  -2.206  1.00  0.00     0.167 HD
ATOM     60  C   UNL     1     -12.971  10.927  -0.198  1.00  0.00     0.074 A 
ATOM     61  C   UNL     1     -12.800  11.589   1.079  1.00  0.00     0.031 C 
ATOM     62  C   UNL     1     -13.399  11.543  -1.327  1.00  0.00     0.037 A 
BRANCH  49  63
ATOM     63  C   UNL     1     -13.672   7.861  -6.285  1.00  0.00     0.064 A 
ATOM     64  C   UNL     1     -14.755   7.111  -6.769  1.00  0.00     0.173 A 
ATOM     65  C   UNL     1     -12.863   8.521  -7.222  1.00  0.00     0.173 A 
ATOM     66  F   UNL     1     -15.554   6.450  -5.917  1.00  0.00    -0.203 F 
ATOM     67  C   UNL     1     -14.998   7.001  -8.136  1.00  0.00     0.198 A 
ATOM     68  C   UNL     1     -13.130   8.437  -8.586  1.00  0.00     0.198 A 
ATOM     69  F   UNL     1     -11.817   9.256  -6.815  1.00  0.00    -0.203 F 
ATOM     70  F   UNL     1     -16.006   6.234  -8.575  1.00  0.00    -0.200 F 
ATOM     71  C   UNL     1     -14.191   7.671  -9.042  1.00  0.00     0.200 A 
ATOM     72  F   UNL     1     -12.358   9.098  -9.460  1.00  0.00    -0.200 F 
ATOM     73  F   UNL     1     -14.432   7.572 -10.357  1.00  0.00    -0.200 F 
ENDBRANCH  49  63
BRANCH  50  74
ATOM     74  C   UNL     1     -11.476   8.366   3.461  1.00  0.00     0.064 A 
ATOM     75  C   UNL     1     -12.452   8.662   4.423  1.00  0.00     0.173 A 
ATOM     76  C   UNL     1     -10.162   8.166   3.907  1.00  0.00     0.173 A 
ATOM     77  F   UNL     1     -13.721   8.878   4.045  1.00  0.00    -0.203 F 
ATOM     78  C   UNL     1     -12.122   8.782   5.771  1.00  0.00     0.198 A 
ATOM     79  C   UNL     1      -9.839   8.254   5.260  1.00  0.00     0.198 A 
ATOM     80  F   UNL     1      -9.191   7.872   3.030  1.00  0.00    -0.203 F 
ATOM     81  F   UNL     1     -13.065   9.118   6.662  1.00  0.00    -0.200 F 
ATOM     82  C   UNL     1     -10.817   8.572   6.189  1.00  0.00     0.200 A 
ATOM     83  F   UNL     1      -8.580   8.032   5.661  1.00  0.00    -0.200 F 
ATOM     84  F   UNL     1     -10.500   8.684   7.486  1.00  0.00    -0.200 F 
ENDBRANCH  50  74
BRANCH  62  85
ATOM     85  C   UNL     1     -13.763  12.997  -1.226  1.00  0.00     0.064 A 
ATOM     86  C   UNL     1     -12.792  13.993  -1.045  1.00  0.00     0.173 A 
ATOM     87  C   UNL     1     -15.101  13.401  -1.360  1.00  0.00     0.173 A 
ATOM     88  F   UNL     1     -11.501  13.659  -0.897  1.00  0.00    -0.203 F 
ATOM     89  C   UNL     1     -13.151  15.337  -0.976  1.00  0.00     0.198 A 
ATOM     90  C   UNL     1     -15.451  14.747  -1.326  1.00  0.00     0.198 A 
ATOM     91  F   UNL     1     -16.068  12.489  -1.542  1.00  0.00    -0.203 F 
ATOM     92  F   UNL     1     -12.213  16.267  -0.752  1.00  0.00    -0.200 F 
ATOM     93  C   UNL     1     -14.477  15.713  -1.126  1.00  0.00     0.200 A 
ATOM     94  F   UNL     1     -16.731  15.109  -1.489  1.00  0.00    -0.200 F 
ATOM     95  F   UNL     1     -14.818  17.008  -1.071  1.00  0.00    -0.200 F 
ENDBRANCH  62  85
ENDBRANCH  36  37
ENDBRANCH  28  31
ENDBRANCH  26  27
ENDBRANCH  25  26
ENDBRANCH  24  25
ENDBRANCH  23  24
ENDBRANCH   1  23
TORSDOF 17
