REMARK SMILES O=C(NCCCCCCNC(=O)[C@H]1CC2=c3ccccc3=N[C@H]2[C@@H](c2ccccc2)[NH2+]1)c1ccc(-c2c3nc(c(-c4c(F)c(F)c(F)c(F)c4F)c4ccc([nH]4)c(-c4c(F)c(F)c(F)c(F)c4F)c4nc(c(-c5c(F)c(F)c(F)c(F)c5F)c5ccc2[nH]5)C=C4)C=C3)cc1
REMARK SMILES IDX 6 1 5 2 4 3 3 4 1 5 2 6 32 8 33 9 94 10 34 11 93 12 35 13
REMARK SMILES IDX 36 14 37 15 87 16 38 17 92 18 86 19 88 20 39 21 91 22 85 23
REMARK SMILES IDX 84 24 40 26 72 27 52 28 71 29 53 30 56 31 70 32 89 33 54 34
REMARK SMILES IDX 55 35 69 37 90 38 57 39 41 40 42 41 50 42 43 43 44 44 48 45
REMARK SMILES IDX 51 46 45 47 46 48 49 49 47 50 73 51 74 52 82 53 75 54 76 55
REMARK SMILES IDX 80 56 83 57 77 58 78 59 81 60 79 61 58 62 59 63 67 64 60 65
REMARK SMILES IDX 61 66 65 67 68 68 62 69 63 70 66 71 64 72 7 73 8 74 9 75
REMARK SMILES IDX 10 76 11 77 12 79 13 80 14 81 31 82 15 83 24 84 16 87 23 88
REMARK SMILES IDX 17 89 21 90 22 91 18 92 20 93 19 94 25 95 26 96 30 97 27 98
REMARK SMILES IDX 29 99 28 100
REMARK H PARENT 3 7 88 25 56 36 10 78 31 85 31 86
REMARK Flexibility Score: inf
ROOT
ATOM      1  C   UNL     1       4.308   0.565  -3.921  1.00  0.00     0.002 C 
ENDROOT
BRANCH   1   2
ATOM      2  C   UNL     1       4.753  -0.267  -2.714  1.00  0.00     0.021 C 
BRANCH   2   3
ATOM      3  C   UNL     1       4.484   0.347  -1.343  1.00  0.00     0.116 C 
BRANCH   3   4
ATOM      4  N   UNL     1       3.066   0.456  -1.038  1.00  0.00    -0.352 N 
ATOM      5  O   UNL     1       1.121   0.077   0.030  1.00  0.00    -0.269 OA
ATOM      6  C   UNL     1       2.357  -0.002   0.041  1.00  0.00     0.251 C 
ATOM      7  H   UNL     1       2.532   0.933  -1.713  1.00  0.00     0.163 HD
BRANCH   6   8
ATOM      8  C   UNL     1       3.026  -0.603   1.218  1.00  0.00     0.039 A 
ATOM      9  C   UNL     1       2.418  -1.692   1.853  1.00  0.00     0.014 A 
ATOM     10  C   UNL     1       4.208  -0.075   1.744  1.00  0.00     0.014 A 
ATOM     11  C   UNL     1       3.007  -2.266   2.985  1.00  0.00     0.010 A 
ATOM     12  C   UNL     1       4.837  -0.698   2.823  1.00  0.00     0.010 A 
ATOM     13  C   UNL     1       4.232  -1.785   3.472  1.00  0.00    -0.014 A 
BRANCH  13  14
ATOM     14  C   UNL     1       4.854  -2.363   4.694  1.00  0.00     0.031 A 
ATOM     15  C   UNL     1       5.017  -1.513   5.928  1.00  0.00     0.074 A 
ATOM     16  C   UNL     1       5.292  -3.638   4.698  1.00  0.00     0.049 A 
ATOM     17  N   UNL     1       5.575  -1.813   7.074  1.00  0.00    -0.248 NA
ATOM     18  C   UNL     1       4.507  -0.133   5.859  1.00  0.00     0.031 C 
ATOM     19  C   UNL     1       5.223  -4.559   3.562  1.00  0.00     0.029 A 
ATOM     20  N   UNL     1       5.881  -4.383   5.691  1.00  0.00    -0.354 N 
ATOM     21  C   UNL     1       5.496  -0.662   7.847  1.00  0.00     0.074 A 
ATOM     22  C   UNL     1       4.888   0.361   7.027  1.00  0.00     0.031 C 
ATOM     23  C   UNL     1       5.717  -5.751   3.932  1.00  0.00     0.029 A 
ATOM     24  C   UNL     1       6.173  -5.673   5.318  1.00  0.00     0.049 A 
ATOM     25  H   UNL     1       6.077  -4.025   6.588  1.00  0.00     0.167 HD
ATOM     26  C   UNL     1       5.864  -0.483   9.137  1.00  0.00     0.037 A 
ATOM     27  C   UNL     1       6.741  -6.678   6.013  1.00  0.00     0.037 A 
ATOM     28  C   UNL     1       6.416  -1.514   9.973  1.00  0.00     0.049 A 
ATOM     29  C   UNL     1       7.148  -6.449   7.445  1.00  0.00     0.074 A 
ATOM     30  C   UNL     1       6.761  -1.442  11.311  1.00  0.00     0.029 A 
ATOM     31  N   UNL     1       6.691  -2.806   9.555  1.00  0.00    -0.354 N 
ATOM     32  N   UNL     1       7.016  -5.371   8.178  1.00  0.00    -0.248 NA
ATOM     33  C   UNL     1       7.781  -7.575   8.149  1.00  0.00     0.031 C 
ATOM     34  C   UNL     1       7.281  -2.679  11.695  1.00  0.00     0.029 A 
ATOM     35  C   UNL     1       7.220  -3.536  10.607  1.00  0.00     0.049 A 
ATOM     36  H   UNL     1       6.535  -3.153   8.647  1.00  0.00     0.167 HD
ATOM     37  C   UNL     1       7.522  -5.695   9.430  1.00  0.00     0.074 A 
ATOM     38  C   UNL     1       7.954  -7.074   9.365  1.00  0.00     0.031 C 
ATOM     39  C   UNL     1       7.622  -4.915  10.533  1.00  0.00     0.037 A 
BRANCH  26  40
ATOM     40  C   UNL     1       5.654   0.870   9.751  1.00  0.00     0.064 A 
ATOM     41  C   UNL     1       4.371   1.329  10.082  1.00  0.00     0.173 A 
ATOM     42  C   UNL     1       6.751   1.671  10.103  1.00  0.00     0.173 A 
ATOM     43  F   UNL     1       3.291   0.603   9.758  1.00  0.00    -0.203 F 
ATOM     44  C   UNL     1       4.192   2.546  10.733  1.00  0.00     0.198 A 
ATOM     45  C   UNL     1       6.570   2.875  10.779  1.00  0.00     0.198 A 
ATOM     46  F   UNL     1       8.000   1.273   9.816  1.00  0.00    -0.203 F 
ATOM     47  F   UNL     1       2.955   2.977  11.016  1.00  0.00    -0.200 F 
ATOM     48  C   UNL     1       5.292   3.312  11.092  1.00  0.00     0.200 A 
ATOM     49  F   UNL     1       7.634   3.607  11.139  1.00  0.00    -0.200 F 
ATOM     50  F   UNL     1       5.119   4.471  11.741  1.00  0.00    -0.200 F 
ENDBRANCH  26  40
BRANCH  27  51
ATOM     51  C   UNL     1       6.933  -8.008   5.375  1.00  0.00     0.064 A 
ATOM     52  C   UNL     1       6.184  -9.118   5.791  1.00  0.00     0.173 A 
ATOM     53  C   UNL     1       7.863  -8.200   4.343  1.00  0.00     0.173 A 
ATOM     54  F   UNL     1       5.298  -8.992   6.790  1.00  0.00    -0.203 F 
ATOM     55  C   UNL     1       6.369 -10.372   5.211  1.00  0.00     0.198 A 
ATOM     56  C   UNL     1       8.028  -9.447   3.745  1.00  0.00     0.198 A 
ATOM     57  F   UNL     1       8.604  -7.171   3.907  1.00  0.00    -0.203 F 
ATOM     58  F   UNL     1       5.670 -11.424   5.657  1.00  0.00    -0.200 F 
ATOM     59  C   UNL     1       7.286 -10.534   4.183  1.00  0.00     0.200 A 
ATOM     60  F   UNL     1       8.906  -9.598   2.744  1.00  0.00    -0.200 F 
ATOM     61  F   UNL     1       7.461 -11.738   3.622  1.00  0.00    -0.200 F 
ENDBRANCH  27  51
BRANCH  39  62
ATOM     62  C   UNL     1       8.196  -5.524  11.778  1.00  0.00     0.064 A 
ATOM     63  C   UNL     1       9.572  -5.750  11.910  1.00  0.00     0.173 A 
ATOM     64  C   UNL     1       7.376  -5.768  12.890  1.00  0.00     0.173 A 
ATOM     65  F   UNL     1      10.394  -5.540  10.871  1.00  0.00    -0.203 F 
ATOM     66  C   UNL     1      10.109  -6.199  13.114  1.00  0.00     0.198 A 
ATOM     67  C   UNL     1       7.918  -6.192  14.100  1.00  0.00     0.198 A 
ATOM     68  F   UNL     1       6.053  -5.555  12.815  1.00  0.00    -0.203 F 
ATOM     69  F   UNL     1      11.426  -6.424  13.216  1.00  0.00    -0.200 F 
ATOM     70  C   UNL     1       9.284  -6.406  14.210  1.00  0.00     0.200 A 
ATOM     71  F   UNL     1       7.123  -6.373  15.163  1.00  0.00    -0.200 F 
ATOM     72  F   UNL     1       9.807  -6.810  15.377  1.00  0.00    -0.200 F 
ENDBRANCH  39  62
ENDBRANCH  13  14
ENDBRANCH   6   8
ENDBRANCH   3   4
ENDBRANCH   2   3
ENDBRANCH   1   2
BRANCH   1  73
ATOM     73  C   UNL     1       4.861   1.994  -4.005  1.00  0.00     0.002 C 
BRANCH  73  74
ATOM     74  C   UNL     1       6.385   2.130  -3.906  1.00  0.00     0.021 C 
BRANCH  74  75
ATOM     75  C   UNL     1       7.172   1.614  -5.116  1.00  0.00     0.116 C 
BRANCH  75  76
ATOM     76  N   UNL     1       7.271   2.619  -6.166  1.00  0.00    -0.351 N 
ATOM     77  C   UNL     1       8.220   2.997  -7.064  1.00  0.00     0.278 C 
ATOM     78  H   UNL     1       6.449   3.157  -6.244  1.00  0.00     0.163 HD
ATOM     79  O   UNL     1       7.955   4.040  -7.684  1.00  0.00    -0.268 OA
BRANCH  77  80
ATOM     80  C   UNL     1       9.561   2.276  -7.382  1.00  0.00     0.277 C 
ATOM     81  C   UNL     1      10.790   3.189  -7.052  1.00  0.00     0.109 C 
ATOM     82  N   UNL     1       9.647   0.865  -6.931  1.00  0.00    -0.327 N 
ATOM     83  C   UNL     1      11.137   2.997  -5.609  1.00  0.00    -0.024 C 
ATOM     84  C   UNL     1      10.913   0.590  -6.218  1.00  0.00     0.243 C 
ATOM     85  H   UNL     1       9.589   0.254  -7.746  1.00  0.00     0.347 HD
ATOM     86  H   UNL     1       8.877   0.692  -6.285  1.00  0.00     0.347 HD
ATOM     87  C   UNL     1      10.826   3.857  -4.649  1.00  0.00     0.002 A 
ATOM     88  C   UNL     1      11.271   1.595  -5.077  1.00  0.00     0.196 C 
ATOM     89  C   UNL     1      10.542   5.254  -4.644  1.00  0.00     0.010 A 
ATOM     90  C   UNL     1      10.268   2.921  -3.648  1.00  0.00     0.066 A 
ATOM     91  N   UNL     1      10.412   1.636  -3.852  1.00  0.00    -0.270 NA
ATOM     92  C   UNL     1       9.795   5.758  -3.654  1.00  0.00     0.001 A 
ATOM     93  C   UNL     1       9.443   3.564  -2.590  1.00  0.00     0.028 A 
ATOM     94  C   UNL     1       9.227   4.894  -2.634  1.00  0.00     0.002 A 
BRANCH  84  95
ATOM     95  C   UNL     1      11.175  -0.893  -5.990  1.00  0.00     0.012 A 
ATOM     96  C   UNL     1      12.487  -1.375  -6.189  1.00  0.00     0.010 A 
ATOM     97  C   UNL     1      10.158  -1.827  -5.759  1.00  0.00     0.010 A 
ATOM     98  C   UNL     1      12.756  -2.744  -6.235  1.00  0.00     0.001 A 
ATOM     99  C   UNL     1      10.431  -3.200  -5.803  1.00  0.00     0.001 A 
ATOM    100  C   UNL     1      11.723  -3.657  -6.059  1.00  0.00     0.000 A 
ENDBRANCH  84  95
ENDBRANCH  77  80
ENDBRANCH  75  76
ENDBRANCH  74  75
ENDBRANCH  73  74
ENDBRANCH   1  73
TORSDOF 14
