REMARK SMILES Cc1c(CC(=O)NCCCCCCNC(=O)c2ccc(-c3c4nc(c(-c5c(F)c(F)c(F)c(F)c5F)c5ccc([nH]5)c(-c5c(F)c(F)c(F)c(F)c5F)c5nc(c(-c6c(F)c(F)c(F)c(F)c6F)c6ccc3[nH]6)C=C5)C=C4)cc2)c(O)oc2cc(=O)cc(O)c1-2
REMARK SMILES IDX 10 1 9 2 8 3 7 4 5 5 6 6 4 8 3 9 1 10 2 11 90 12 80 13 83 14
REMARK SMILES IDX 88 15 82 16 84 17 87 18 85 19 86 20 81 21 89 23 11 25 12 26
REMARK SMILES IDX 13 27 14 28 15 29 16 31 17 32 18 33 79 34 19 35 78 36 20 37
REMARK SMILES IDX 21 38 22 39 72 40 23 41 77 42 71 43 73 44 24 45 76 46 70 47
REMARK SMILES IDX 69 48 25 50 57 51 37 52 56 53 38 54 41 55 55 56 74 57 39 58
REMARK SMILES IDX 40 59 54 61 75 62 42 63 26 64 27 65 35 66 28 67 29 68 33 69
REMARK SMILES IDX 36 70 30 71 31 72 34 73 32 74 58 75 59 76 67 77 60 78 61 79
REMARK SMILES IDX 65 80 68 81 62 82 63 83 66 84 64 85 43 86 44 87 52 88 45 89
REMARK SMILES IDX 46 90 50 91 53 92 47 93 48 94 51 95 49 96
REMARK H PARENT 7 7 81 22 89 24 14 30 73 49 41 60
REMARK Flexibility Score: inf
ROOT
ATOM      1  C   UNL     1       4.824   1.407   3.724  1.00  0.00     0.002 C 
ENDROOT
BRANCH   1   2
ATOM      2  C   UNL     1       3.297   1.332   3.858  1.00  0.00     0.021 C 
BRANCH   2   3
ATOM      3  C   UNL     1       2.591   2.638   3.497  1.00  0.00     0.116 C 
BRANCH   3   4
ATOM      4  N   UNL     1       2.684   2.899   2.076  1.00  0.00    -0.356 N 
ATOM      5  C   UNL     1       1.728   2.777   1.114  1.00  0.00     0.224 C 
ATOM      6  O   UNL     1       2.052   2.978  -0.058  1.00  0.00    -0.275 OA
ATOM      7  H   UNL     1       3.563   3.210   1.760  1.00  0.00     0.163 HD
BRANCH   5   8
ATOM      8  C   UNL     1       0.277   2.487   1.498  1.00  0.00     0.143 C 
BRANCH   8   9
ATOM      9  C   UNL     1       0.005   1.118   2.104  1.00  0.00     0.046 A 
ATOM     10  C   UNL     1       0.746   0.056  -0.102  1.00  0.00     0.046 C 
ATOM     11  C   UNL     1       0.352  -0.117   1.351  1.00  0.00    -0.026 A 
ATOM     12  C   UNL     1       0.282  -1.334   1.965  1.00  0.00     0.063 A 
ATOM     13  C   UNL     1      -0.524   0.989   3.344  1.00  0.00     0.286 A 
ATOM     14  C   UNL     1      -0.252  -1.394   3.339  1.00  0.00     0.146 A 
ATOM     15  C   UNL     1       0.695  -2.622   1.361  1.00  0.00     0.130 A 
ATOM     16  O   UNL     1      -0.663  -0.232   3.959  1.00  0.00    -0.425 OA
ATOM     17  C   UNL     1      -0.396  -2.548   3.999  1.00  0.00     0.100 A 
ATOM     18  C   UNL     1       0.544  -3.784   2.013  1.00  0.00     0.099 A 
ATOM     19  C   UNL     1      -0.018  -3.825   3.376  1.00  0.00     0.186 A 
ATOM     20  O   UNL     1      -0.151  -4.887   3.971  1.00  0.00    -0.290 OA
BRANCH  13  21
ATOM     21  O   UNL     1      -0.921   2.061   4.116  1.00  0.00    -0.480 OA
ATOM     22  H   UNL     1      -0.860   2.932   3.776  1.00  0.00     0.297 HD
ENDBRANCH  13  21
BRANCH  15  23
ATOM     23  O   UNL     1       1.296  -2.592   0.121  1.00  0.00    -0.507 OA
ATOM     24  H   UNL     1       1.568  -3.391  -0.287  1.00  0.00     0.293 HD
ENDBRANCH  15  23
ENDBRANCH   8   9
ENDBRANCH   5   8
ENDBRANCH   3   4
ENDBRANCH   2   3
ENDBRANCH   1   2
BRANCH   1  25
ATOM     25  C   UNL     1       5.489   2.518   4.545  1.00  0.00     0.002 C 
BRANCH  25  26
ATOM     26  C   UNL     1       5.154   2.497   6.038  1.00  0.00     0.021 C 
BRANCH  26  27
ATOM     27  C   UNL     1       5.556   1.208   6.745  1.00  0.00     0.116 C 
BRANCH  27  28
ATOM     28  N   UNL     1       6.999   1.019   6.742  1.00  0.00    -0.352 N 
ATOM     29  C   UNL     1       7.859   0.912   7.805  1.00  0.00     0.251 C 
ATOM     30  H   UNL     1       7.417   0.960   5.853  1.00  0.00     0.163 HD
ATOM     31  O   UNL     1       9.074   0.975   7.634  1.00  0.00    -0.269 OA
BRANCH  29  32
ATOM     32  C   UNL     1       7.314   0.737   9.165  1.00  0.00     0.039 A 
ATOM     33  C   UNL     1       7.827   1.513  10.206  1.00  0.00     0.014 A 
ATOM     34  C   UNL     1       6.293  -0.187   9.406  1.00  0.00     0.014 A 
ATOM     35  C   UNL     1       7.275   1.401  11.482  1.00  0.00     0.010 A 
ATOM     36  C   UNL     1       5.691  -0.239  10.659  1.00  0.00     0.010 A 
ATOM     37  C   UNL     1       6.183   0.547  11.711  1.00  0.00    -0.014 A 
BRANCH  37  38
ATOM     38  C   UNL     1       5.558   0.451  13.052  1.00  0.00     0.031 A 
ATOM     39  C   UNL     1       5.628  -0.837  13.823  1.00  0.00     0.074 A 
ATOM     40  C   UNL     1       4.899   1.512  13.559  1.00  0.00     0.049 A 
ATOM     41  N   UNL     1       5.123  -1.127  14.995  1.00  0.00    -0.248 NA
ATOM     42  C   UNL     1       6.342  -1.954  13.185  1.00  0.00     0.031 C 
ATOM     43  C   UNL     1       4.736   2.802  12.888  1.00  0.00     0.029 A 
ATOM     44  N   UNL     1       4.247   1.674  14.756  1.00  0.00    -0.354 N 
ATOM     45  C   UNL     1       5.459  -2.452  15.231  1.00  0.00     0.074 A 
ATOM     46  C   UNL     1       6.152  -2.933  14.057  1.00  0.00     0.031 C 
ATOM     47  C   UNL     1       4.062   3.635  13.697  1.00  0.00     0.029 A 
ATOM     48  C   UNL     1       3.710   2.927  14.925  1.00  0.00     0.049 A 
ATOM     49  H   UNL     1       4.171   0.960  15.429  1.00  0.00     0.167 HD
ATOM     50  C   UNL     1       5.239  -3.191  16.343  1.00  0.00     0.037 A 
ATOM     51  C   UNL     1       3.013   3.445  15.955  1.00  0.00     0.037 A 
ATOM     52  C   UNL     1       4.566  -2.703  17.517  1.00  0.00     0.049 A 
ATOM     53  C   UNL     1       2.746   2.588  17.163  1.00  0.00     0.074 A 
ATOM     54  C   UNL     1       4.330  -3.361  18.710  1.00  0.00     0.029 A 
ATOM     55  N   UNL     1       4.018  -1.434  17.642  1.00  0.00    -0.354 N 
ATOM     56  N   UNL     1       3.122   1.355  17.401  1.00  0.00    -0.248 NA
ATOM     57  C   UNL     1       1.960   3.194  18.247  1.00  0.00     0.031 C 
ATOM     58  C   UNL     1       3.593  -2.511  19.538  1.00  0.00     0.029 A 
ATOM     59  C   UNL     1       3.419  -1.301  18.885  1.00  0.00     0.049 A 
ATOM     60  H   UNL     1       4.050  -0.733  16.952  1.00  0.00     0.167 HD
ATOM     61  C   UNL     1       2.642   1.045  18.666  1.00  0.00     0.074 A 
ATOM     62  C   UNL     1       1.961   2.227  19.154  1.00  0.00     0.031 C 
ATOM     63  C   UNL     1       2.751  -0.115  19.359  1.00  0.00     0.037 A 
BRANCH  50  64
ATOM     64  C   UNL     1       5.748  -4.604  16.357  1.00  0.00     0.064 A 
ATOM     65  C   UNL     1       7.122  -4.886  16.413  1.00  0.00     0.173 A 
ATOM     66  C   UNL     1       4.855  -5.685  16.382  1.00  0.00     0.173 A 
ATOM     67  F   UNL     1       8.018  -3.888  16.380  1.00  0.00    -0.203 F 
ATOM     68  C   UNL     1       7.582  -6.198  16.476  1.00  0.00     0.198 A 
ATOM     69  C   UNL     1       5.319  -6.995  16.477  1.00  0.00     0.198 A 
ATOM     70  F   UNL     1       3.532  -5.471  16.335  1.00  0.00    -0.203 F 
ATOM     71  F   UNL     1       8.900  -6.443  16.491  1.00  0.00    -0.200 F 
ATOM     72  C   UNL     1       6.681  -7.250  16.519  1.00  0.00     0.200 A 
ATOM     73  F   UNL     1       4.446  -8.010  16.535  1.00  0.00    -0.200 F 
ATOM     74  F   UNL     1       7.125  -8.512  16.600  1.00  0.00    -0.200 F 
ENDBRANCH  50  64
BRANCH  51  75
ATOM     75  C   UNL     1       2.553   4.857  15.899  1.00  0.00     0.064 A 
ATOM     76  C   UNL     1       3.114   5.828  16.741  1.00  0.00     0.173 A 
ATOM     77  C   UNL     1       1.564   5.272  14.995  1.00  0.00     0.173 A 
ATOM     78  F   UNL     1       4.049   5.478  17.636  1.00  0.00    -0.203 F 
ATOM     79  C   UNL     1       2.697   7.157  16.688  1.00  0.00     0.198 A 
ATOM     80  C   UNL     1       1.168   6.607  14.923  1.00  0.00     0.198 A 
ATOM     81  F   UNL     1       0.997   4.385  14.165  1.00  0.00    -0.203 F 
ATOM     82  F   UNL     1       3.224   8.056  17.529  1.00  0.00    -0.200 F 
ATOM     83  C   UNL     1       1.730   7.546  15.773  1.00  0.00     0.200 A 
ATOM     84  F   UNL     1       0.246   6.982  14.026  1.00  0.00    -0.200 F 
ATOM     85  F   UNL     1       1.339   8.827  15.713  1.00  0.00    -0.200 F 
ENDBRANCH  51  75
BRANCH  63  86
ATOM     86  C   UNL     1       2.138  -0.172  20.728  1.00  0.00     0.064 A 
ATOM     87  C   UNL     1       0.748  -0.218  20.907  1.00  0.00     0.173 A 
ATOM     88  C   UNL     1       2.951  -0.274  21.868  1.00  0.00     0.173 A 
ATOM     89  F   UNL     1      -0.072  -0.113  19.851  1.00  0.00    -0.203 F 
ATOM     90  C   UNL     1       0.195  -0.351  22.177  1.00  0.00     0.198 A 
ATOM     91  C   UNL     1       2.395  -0.440  23.133  1.00  0.00     0.198 A 
ATOM     92  F   UNL     1       4.288  -0.245  21.750  1.00  0.00    -0.203 F 
ATOM     93  F   UNL     1      -1.137  -0.359  22.328  1.00  0.00    -0.200 F 
ATOM     94  C   UNL     1       1.018  -0.474  23.287  1.00  0.00     0.200 A 
ATOM     95  F   UNL     1       3.192  -0.578  24.201  1.00  0.00    -0.200 F 
ATOM     96  F   UNL     1       0.483  -0.626  24.506  1.00  0.00    -0.200 F 
ENDBRANCH  63  86
ENDBRANCH  37  38
ENDBRANCH  29  32
ENDBRANCH  27  28
ENDBRANCH  26  27
ENDBRANCH  25  26
ENDBRANCH   1  25
TORSDOF 16
