REMARK SMILES O=C(NCCCCCCNC(=O)[C@@H]1C[C@@H]2CC(=O)[C@H]1C2)c1ccc(-c2c3nc(c(-c4c(F)c(F)c(F)c(F)c4F)c4ccc([nH]4)c(-c4c(F)c(F)c(F)c(F)c4F)c4nc(c(-c5c(F)c(F)c(F)c(F)c5F)c5ccc2[nH]5)C=C4)C=C3)cc1
REMARK SMILES IDX 5 1 4 2 3 3 1 4 2 5 21 7 22 8 83 9 23 10 82 11 24 12 25 13
REMARK SMILES IDX 26 14 76 15 27 16 81 17 75 18 77 19 28 20 80 21 74 22 73 23
REMARK SMILES IDX 29 25 61 26 41 27 60 28 42 29 45 30 59 31 78 32 43 33 44 34
REMARK SMILES IDX 58 36 79 37 46 38 30 39 31 40 39 41 32 42 33 43 37 44 40 45
REMARK SMILES IDX 34 46 35 47 38 48 36 49 62 50 63 51 71 52 64 53 65 54 69 55
REMARK SMILES IDX 72 56 66 57 67 58 70 59 68 60 47 61 48 62 56 63 49 64 50 65
REMARK SMILES IDX 54 66 57 67 51 68 52 69 55 70 53 71 6 72 7 73 8 74 9 75
REMARK SMILES IDX 10 76 11 77 12 79 13 80 14 81 19 82 15 83 17 84 20 85 16 86
REMARK SMILES IDX 18 87
REMARK H PARENT 3 6 77 24 45 35 10 78
REMARK Flexibility Score: inf
ROOT
ATOM      1  C   UNL     1       4.662   2.460   0.741  1.00  0.00     0.021 C 
ENDROOT
BRANCH   1   2
ATOM      2  C   UNL     1       4.380   0.965   0.772  1.00  0.00     0.116 C 
BRANCH   2   3
ATOM      3  N   UNL     1       2.956   0.675   0.774  1.00  0.00    -0.352 N 
ATOM      4  O   UNL     1       1.021  -0.125  -0.079  1.00  0.00    -0.269 OA
ATOM      5  C   UNL     1       2.248  -0.121  -0.089  1.00  0.00     0.251 C 
ATOM      6  H   UNL     1       2.432   1.107   1.486  1.00  0.00     0.163 HD
BRANCH   5   7
ATOM      7  C   UNL     1       2.983  -0.976  -1.043  1.00  0.00     0.039 A 
ATOM      8  C   UNL     1       4.069  -1.741  -0.606  1.00  0.00     0.014 A 
ATOM      9  C   UNL     1       2.575  -1.023  -2.377  1.00  0.00     0.014 A 
ATOM     10  C   UNL     1       4.809  -2.475  -1.522  1.00  0.00     0.010 A 
ATOM     11  C   UNL     1       3.267  -1.832  -3.281  1.00  0.00     0.010 A 
ATOM     12  C   UNL     1       4.388  -2.563  -2.858  1.00  0.00    -0.014 A 
BRANCH  12  13
ATOM     13  C   UNL     1       5.041  -3.544  -3.757  1.00  0.00     0.031 A 
ATOM     14  C   UNL     1       5.809  -3.111  -4.969  1.00  0.00     0.074 A 
ATOM     15  C   UNL     1       4.903  -4.852  -3.461  1.00  0.00     0.049 A 
ATOM     16  N   UNL     1       6.392  -3.852  -5.877  1.00  0.00    -0.248 NA
ATOM     17  C   UNL     1       5.936  -1.664  -5.203  1.00  0.00     0.031 C 
ATOM     18  C   UNL     1       4.159  -5.379  -2.312  1.00  0.00     0.029 A 
ATOM     19  N   UNL     1       5.371  -5.975  -4.092  1.00  0.00    -0.354 N 
ATOM     20  C   UNL     1       6.935  -2.968  -6.799  1.00  0.00     0.074 A 
ATOM     21  C   UNL     1       6.605  -1.632  -6.349  1.00  0.00     0.031 C 
ATOM     22  C   UNL     1       4.236  -6.716  -2.311  1.00  0.00     0.029 A 
ATOM     23  C   UNL     1       4.965  -7.145  -3.497  1.00  0.00     0.049 A 
ATOM     24  H   UNL     1       5.941  -5.946  -4.894  1.00  0.00     0.167 HD
ATOM     25  C   UNL     1       7.642  -3.258  -7.918  1.00  0.00     0.037 A 
ATOM     26  C   UNL     1       5.121  -8.423  -3.886  1.00  0.00     0.037 A 
ATOM     27  C   UNL     1       7.977  -4.596  -8.339  1.00  0.00     0.049 A 
ATOM     28  C   UNL     1       5.873  -8.703  -5.155  1.00  0.00     0.074 A 
ATOM     29  C   UNL     1       8.762  -4.988  -9.409  1.00  0.00     0.029 A 
ATOM     30  N   UNL     1       7.532  -5.756  -7.723  1.00  0.00    -0.354 N 
ATOM     31  N   UNL     1       6.455  -7.860  -5.973  1.00  0.00    -0.248 NA
ATOM     32  C   UNL     1       5.984 -10.109  -5.562  1.00  0.00     0.031 C 
ATOM     33  C   UNL     1       8.731  -6.383  -9.486  1.00  0.00     0.029 A 
ATOM     34  C   UNL     1       7.981  -6.864  -8.425  1.00  0.00     0.049 A 
ATOM     35  H   UNL     1       6.979  -5.788  -6.909  1.00  0.00     0.167 HD
ATOM     36  C   UNL     1       7.008  -8.632  -6.983  1.00  0.00     0.074 A 
ATOM     37  C   UNL     1       6.722 -10.013  -6.658  1.00  0.00     0.031 C 
ATOM     38  C   UNL     1       7.683  -8.232  -8.088  1.00  0.00     0.037 A 
BRANCH  25  39
ATOM     39  C   UNL     1       8.092  -2.127  -8.795  1.00  0.00     0.064 A 
ATOM     40  C   UNL     1       9.141  -1.274  -8.426  1.00  0.00     0.173 A 
ATOM     41  C   UNL     1       7.538  -1.970 -10.076  1.00  0.00     0.173 A 
ATOM     42  F   UNL     1       9.701  -1.378  -7.212  1.00  0.00    -0.203 F 
ATOM     43  C   UNL     1       9.616  -0.302  -9.305  1.00  0.00     0.198 A 
ATOM     44  C   UNL     1       8.033  -1.016 -10.961  1.00  0.00     0.198 A 
ATOM     45  F   UNL     1       6.537  -2.766 -10.482  1.00  0.00    -0.203 F 
ATOM     46  F   UNL     1      10.609   0.514  -8.925  1.00  0.00    -0.200 F 
ATOM     47  C   UNL     1       9.071  -0.182 -10.575  1.00  0.00     0.200 A 
ATOM     48  F   UNL     1       7.515  -0.914 -12.193  1.00  0.00    -0.200 F 
ATOM     49  F   UNL     1       9.548   0.735 -11.428  1.00  0.00    -0.200 F 
ENDBRANCH  25  39
BRANCH  26  50
ATOM     50  C   UNL     1       4.505  -9.523  -3.099  1.00  0.00     0.064 A 
ATOM     51  C   UNL     1       5.293 -10.488  -2.458  1.00  0.00     0.173 A 
ATOM     52  C   UNL     1       3.110  -9.647  -2.994  1.00  0.00     0.173 A 
ATOM     53  F   UNL     1       6.630 -10.423  -2.542  1.00  0.00    -0.203 F 
ATOM     54  C   UNL     1       4.711 -11.553  -1.774  1.00  0.00     0.198 A 
ATOM     55  C   UNL     1       2.530 -10.689  -2.276  1.00  0.00     0.198 A 
ATOM     56  F   UNL     1       2.308  -8.747  -3.582  1.00  0.00    -0.203 F 
ATOM     57  F   UNL     1       5.488 -12.497  -1.226  1.00  0.00    -0.200 F 
ATOM     58  C   UNL     1       3.331 -11.650  -1.679  1.00  0.00     0.200 A 
ATOM     59  F   UNL     1       1.197 -10.766  -2.170  1.00  0.00    -0.200 F 
ATOM     60  F   UNL     1       2.772 -12.675  -1.022  1.00  0.00    -0.200 F 
ENDBRANCH  26  50
BRANCH  38  61
ATOM     61  C   UNL     1       8.165  -9.305  -9.020  1.00  0.00     0.064 A 
ATOM     62  C   UNL     1       7.272 -10.032  -9.820  1.00  0.00     0.173 A 
ATOM     63  C   UNL     1       9.535  -9.579  -9.145  1.00  0.00     0.173 A 
ATOM     64  F   UNL     1       5.950  -9.822  -9.721  1.00  0.00    -0.203 F 
ATOM     65  C   UNL     1       7.732 -11.010 -10.698  1.00  0.00     0.198 A 
ATOM     66  C   UNL     1       9.994 -10.532 -10.048  1.00  0.00     0.198 A 
ATOM     67  F   UNL     1      10.430  -8.908  -8.404  1.00  0.00    -0.203 F 
ATOM     68  F   UNL     1       6.858 -11.726 -11.418  1.00  0.00    -0.200 F 
ATOM     69  C   UNL     1       9.092 -11.251 -10.819  1.00  0.00     0.200 A 
ATOM     70  F   UNL     1      11.309 -10.754 -10.175  1.00  0.00    -0.200 F 
ATOM     71  F   UNL     1       9.534 -12.183 -11.674  1.00  0.00    -0.200 F 
ENDBRANCH  38  61
ENDBRANCH  12  13
ENDBRANCH   5   7
ENDBRANCH   2   3
ENDBRANCH   1   2
BRANCH   1  72
ATOM     72  C   UNL     1       4.200   3.210   1.989  1.00  0.00     0.002 C 
BRANCH  72  73
ATOM     73  C   UNL     1       4.760   2.668   3.308  1.00  0.00     0.002 C 
BRANCH  73  74
ATOM     74  C   UNL     1       6.288   2.561   3.371  1.00  0.00     0.021 C 
BRANCH  74  75
ATOM     75  C   UNL     1       7.024   3.869   3.094  1.00  0.00     0.116 C 
BRANCH  75  76
ATOM     76  N   UNL     1       6.676   4.881   4.069  1.00  0.00    -0.356 N 
ATOM     77  C   UNL     1       7.482   5.620   4.875  1.00  0.00     0.223 C 
ATOM     78  H   UNL     1       5.712   5.059   4.162  1.00  0.00     0.163 HD
ATOM     79  O   UNL     1       6.965   6.367   5.702  1.00  0.00    -0.275 OA
BRANCH  77  80
ATOM     80  C   UNL     1       8.989   5.497   4.707  1.00  0.00     0.089 C 
ATOM     81  C   UNL     1       9.790   6.335   5.739  1.00  0.00     0.018 C 
ATOM     82  C   UNL     1       9.482   6.072   3.365  1.00  0.00     0.069 C 
ATOM     83  C   UNL     1      10.576   7.331   4.860  1.00  0.00    -0.002 C 
ATOM     84  C   UNL     1       8.911   7.471   3.252  1.00  0.00     0.137 C 
ATOM     85  C   UNL     1      10.933   6.447   3.664  1.00  0.00     0.016 C 
ATOM     86  C   UNL     1       9.614   8.371   4.241  1.00  0.00     0.079 C 
ATOM     87  O   UNL     1       8.019   7.802   2.487  1.00  0.00    -0.299 OA
ENDBRANCH  77  80
ENDBRANCH  75  76
ENDBRANCH  74  75
ENDBRANCH  73  74
ENDBRANCH  72  73
ENDBRANCH   1  72
TORSDOF 13
