REMARK SMILES Cc1c(CC(=O)NCCCCCCNC(=O)c2ccc(-c3c4nc(c(-c5c(F)c(F)c(F)c(F)c5F)c5ccc([nH]5)c(-c5c(F)c(F)c(F)c(F)c5F)c5nc(c(-c6c(F)c(F)c(F)c(F)c6F)c6ccc3[nH]6)C=C5)C=C4)cc2)c(=O)oc2cc(OCc3c(F)cccc3Cl)ccc12
REMARK SMILES IDX 9 1 8 2 7 3 5 4 6 5 4 7 3 8 1 9 2 10 98 11 80 12 83 13 97 14
REMARK SMILES IDX 81 15 82 16 84 17 96 18 85 19 86 20 87 21 88 22 89 23 94 24
REMARK SMILES IDX 90 25 91 26 93 27 95 28 92 29 10 30 11 31 12 32 13 33 14 34
REMARK SMILES IDX 15 35 16 37 17 38 18 39 79 40 19 41 78 42 20 43 21 44 22 45
REMARK SMILES IDX 72 46 23 47 77 48 71 49 73 50 24 51 76 52 70 53 69 54 25 56
REMARK SMILES IDX 57 57 37 58 56 59 38 60 41 61 55 62 74 63 39 64 40 65 54 67
REMARK SMILES IDX 75 68 42 69 26 70 27 71 35 72 28 73 29 74 33 75 36 76 30 77
REMARK SMILES IDX 31 78 34 79 32 80 58 81 59 82 67 83 60 84 61 85 65 86 68 87
REMARK SMILES IDX 62 88 63 89 66 90 64 91 43 92 44 93 52 94 45 95 46 96 50 97
REMARK SMILES IDX 53 98 47 99 48 100 51 101 49 102
REMARK H PARENT 7 6 14 36 73 55 41 66
REMARK Flexibility Score: inf
ROOT
ATOM      1  C   UNL     1      -1.862  -0.301  -3.458  1.00  0.00     0.021 C 
ENDROOT
BRANCH   1   2
ATOM      2  C   UNL     1      -3.161  -0.653  -2.732  1.00  0.00     0.116 C 
BRANCH   2   3
ATOM      3  N   UNL     1      -3.208  -2.063  -2.408  1.00  0.00    -0.356 N 
ATOM      4  C   UNL     1      -3.112  -2.684  -1.201  1.00  0.00     0.224 C 
ATOM      5  O   UNL     1      -3.121  -3.917  -1.187  1.00  0.00    -0.275 OA
ATOM      6  H   UNL     1      -3.329  -2.665  -3.178  1.00  0.00     0.163 HD
BRANCH   4   7
ATOM      7  C   UNL     1      -3.047  -1.880   0.095  1.00  0.00     0.143 C 
BRANCH   7   8
ATOM      8  C   UNL     1      -1.777  -1.077   0.286  1.00  0.00     0.051 A 
ATOM      9  C   UNL     1      -0.226  -3.066   0.211  1.00  0.00     0.046 C 
ATOM     10  C   UNL     1      -0.527  -1.591   0.314  1.00  0.00    -0.029 A 
ATOM     11  C   UNL     1       0.625  -0.673   0.404  1.00  0.00     0.021 A 
ATOM     12  C   UNL     1      -2.011   0.384   0.477  1.00  0.00     0.340 A 
ATOM     13  C   UNL     1       0.396   0.698   0.488  1.00  0.00     0.142 A 
ATOM     14  C   UNL     1       1.958  -1.093   0.342  1.00  0.00     0.016 A 
ATOM     15  O   UNL     1      -3.141   0.859   0.533  1.00  0.00    -0.246 OA
ATOM     16  O   UNL     1      -0.906   1.209   0.563  1.00  0.00    -0.422 OA
ATOM     17  C   UNL     1       1.423   1.646   0.447  1.00  0.00     0.094 A 
ATOM     18  C   UNL     1       2.998  -0.159   0.284  1.00  0.00     0.047 A 
ATOM     19  C   UNL     1       2.730   1.211   0.273  1.00  0.00     0.123 A 
BRANCH  19  20
ATOM     20  O   UNL     1       3.810   1.986  -0.040  1.00  0.00    -0.489 OA
BRANCH  20  21
ATOM     21  C   UNL     1       3.624   3.363  -0.368  1.00  0.00     0.270 C 
BRANCH  21  22
ATOM     22  C   UNL     1       2.814   3.758  -1.592  1.00  0.00     0.044 A 
ATOM     23  C   UNL     1       2.447   5.113  -1.656  1.00  0.00     0.131 A 
ATOM     24  C   UNL     1       2.406   2.944  -2.658  1.00  0.00     0.050 A 
ATOM     25  F   UNL     1       2.892   5.960  -0.715  1.00  0.00    -0.207 F 
ATOM     26  C   UNL     1       1.635   5.627  -2.665  1.00  0.00     0.040 A 
ATOM     27  C   UNL     1       1.543   3.443  -3.649  1.00  0.00     0.021 A 
ATOM     28  Cl  UNL     1       2.951   1.325  -2.907  1.00  0.00    -0.084 Cl
ATOM     29  C   UNL     1       1.149   4.779  -3.649  1.00  0.00     0.005 A 
ENDBRANCH  21  22
ENDBRANCH  20  21
ENDBRANCH  19  20
ENDBRANCH   7   8
ENDBRANCH   4   7
ENDBRANCH   2   3
ENDBRANCH   1   2
BRANCH   1  30
ATOM     30  C   UNL     1      -1.746  -0.913  -4.861  1.00  0.00     0.002 C 
BRANCH  30  31
ATOM     31  C   UNL     1      -2.892  -0.566  -5.819  1.00  0.00     0.002 C 
BRANCH  31  32
ATOM     32  C   UNL     1      -3.147   0.931  -6.004  1.00  0.00     0.021 C 
BRANCH  32  33
ATOM     33  C   UNL     1      -1.960   1.709  -6.561  1.00  0.00     0.116 C 
BRANCH  33  34
ATOM     34  N   UNL     1      -1.613   1.288  -7.909  1.00  0.00    -0.352 N 
ATOM     35  C   UNL     1      -1.494   2.035  -9.053  1.00  0.00     0.251 C 
ATOM     36  H   UNL     1      -1.438   0.325  -8.016  1.00  0.00     0.163 HD
ATOM     37  O   UNL     1      -1.396   1.486 -10.145  1.00  0.00    -0.269 OA
BRANCH  35  38
ATOM     38  C   UNL     1      -1.502   3.512  -8.971  1.00  0.00     0.039 A 
ATOM     39  C   UNL     1      -2.255   4.235  -9.899  1.00  0.00     0.014 A 
ATOM     40  C   UNL     1      -0.762   4.180  -7.992  1.00  0.00     0.014 A 
ATOM     41  C   UNL     1      -2.312   5.626  -9.808  1.00  0.00     0.010 A 
ATOM     42  C   UNL     1      -0.883   5.560  -7.854  1.00  0.00     0.010 A 
ATOM     43  C   UNL     1      -1.655   6.298  -8.764  1.00  0.00    -0.014 A 
BRANCH  43  44
ATOM     44  C   UNL     1      -1.769   7.771  -8.611  1.00  0.00     0.031 A 
ATOM     45  C   UNL     1      -0.551   8.644  -8.736  1.00  0.00     0.074 A 
ATOM     46  C   UNL     1      -2.962   8.317  -8.305  1.00  0.00     0.049 A 
ATOM     47  N   UNL     1      -0.443   9.940  -8.587  1.00  0.00    -0.248 NA
ATOM     48  C   UNL     1       0.720   7.968  -9.040  1.00  0.00     0.031 C 
ATOM     49  C   UNL     1      -4.207   7.572  -8.108  1.00  0.00     0.029 A 
ATOM     50  N   UNL     1      -3.324   9.625  -8.099  1.00  0.00    -0.354 N 
ATOM     51  C   UNL     1       0.902  10.231  -8.771  1.00  0.00     0.074 A 
ATOM     52  C   UNL     1       1.582   8.971  -8.979  1.00  0.00     0.031 C 
ATOM     53  C   UNL     1      -5.199   8.435  -7.839  1.00  0.00     0.029 A 
ATOM     54  C   UNL     1      -4.655   9.789  -7.803  1.00  0.00     0.049 A 
ATOM     55  H   UNL     1      -2.689  10.375  -8.158  1.00  0.00     0.167 HD
ATOM     56  C   UNL     1       1.510  11.441  -8.791  1.00  0.00     0.037 A 
ATOM     57  C   UNL     1      -5.357  10.904  -7.526  1.00  0.00     0.037 A 
ATOM     58  C   UNL     1       0.825  12.694  -8.606  1.00  0.00     0.049 A 
ATOM     59  C   UNL     1      -4.654  12.235  -7.539  1.00  0.00     0.074 A 
ATOM     60  C   UNL     1       1.341  13.977  -8.668  1.00  0.00     0.029 A 
ATOM     61  N   UNL     1      -0.526  12.820  -8.316  1.00  0.00    -0.354 N 
ATOM     62  N   UNL     1      -3.395  12.504  -7.789  1.00  0.00    -0.248 NA
ATOM     63  C   UNL     1      -5.471  13.419  -7.239  1.00  0.00     0.031 C 
ATOM     64  C   UNL     1       0.316  14.876  -8.359  1.00  0.00     0.029 A 
ATOM     65  C   UNL     1      -0.854  14.159  -8.166  1.00  0.00     0.049 A 
ATOM     66  H   UNL     1      -1.158  12.071  -8.229  1.00  0.00     0.167 HD
ATOM     67  C   UNL     1      -3.276  13.885  -7.705  1.00  0.00     0.074 A 
ATOM     68  C   UNL     1      -4.594  14.399  -7.399  1.00  0.00     0.031 C 
ATOM     69  C   UNL     1      -2.173  14.657  -7.867  1.00  0.00     0.037 A 
BRANCH  56  70
ATOM     70  C   UNL     1       2.994  11.471  -9.025  1.00  0.00     0.064 A 
ATOM     71  C   UNL     1       3.554  11.123 -10.264  1.00  0.00     0.173 A 
ATOM     72  C   UNL     1       3.867  11.890  -8.008  1.00  0.00     0.173 A 
ATOM     73  F   UNL     1       2.767  10.705 -11.267  1.00  0.00    -0.203 F 
ATOM     74  C   UNL     1       4.931  11.164 -10.467  1.00  0.00     0.198 A 
ATOM     75  C   UNL     1       5.240  11.962  -8.226  1.00  0.00     0.198 A 
ATOM     76  F   UNL     1       3.386  12.240  -6.806  1.00  0.00    -0.203 F 
ATOM     77  F   UNL     1       5.445  10.775 -11.642  1.00  0.00    -0.200 F 
ATOM     78  C   UNL     1       5.772  11.590  -9.451  1.00  0.00     0.200 A 
ATOM     79  F   UNL     1       6.050  12.389  -7.247  1.00  0.00    -0.200 F 
ATOM     80  F   UNL     1       7.097  11.637  -9.650  1.00  0.00    -0.200 F 
ENDBRANCH  56  70
BRANCH  57  81
ATOM     81  C   UNL     1      -6.812  10.815  -7.233  1.00  0.00     0.064 A 
ATOM     82  C   UNL     1      -7.761  11.343  -8.121  1.00  0.00     0.173 A 
ATOM     83  C   UNL     1      -7.285  10.210  -6.059  1.00  0.00     0.173 A 
ATOM     84  F   UNL     1      -7.358  11.949  -9.247  1.00  0.00    -0.203 F 
ATOM     85  C   UNL     1      -9.123  11.291  -7.834  1.00  0.00     0.198 A 
ATOM     86  C   UNL     1      -8.650  10.130  -5.789  1.00  0.00     0.198 A 
ATOM     87  F   UNL     1      -6.421   9.684  -5.179  1.00  0.00    -0.203 F 
ATOM     88  F   UNL     1     -10.004  11.850  -8.675  1.00  0.00    -0.200 F 
ATOM     89  C   UNL     1      -9.567  10.680  -6.671  1.00  0.00     0.200 A 
ATOM     90  F   UNL     1      -9.075   9.524  -4.672  1.00  0.00    -0.200 F 
ATOM     91  F   UNL     1     -10.878  10.628  -6.398  1.00  0.00    -0.200 F 
ENDBRANCH  57  81
BRANCH  69  92
ATOM     92  C   UNL     1      -2.349  16.144  -7.752  1.00  0.00     0.064 A 
ATOM     93  C   UNL     1      -2.612  16.764  -6.521  1.00  0.00     0.173 A 
ATOM     94  C   UNL     1      -2.211  16.964  -8.883  1.00  0.00     0.173 A 
ATOM     95  F   UNL     1      -2.767  16.024  -5.413  1.00  0.00    -0.203 F 
ATOM     96  C   UNL     1      -2.757  18.146  -6.432  1.00  0.00     0.198 A 
ATOM     97  C   UNL     1      -2.323  18.348  -8.784  1.00  0.00     0.198 A 
ATOM     98  F   UNL     1      -1.952  16.424 -10.083  1.00  0.00    -0.203 F 
ATOM     99  F   UNL     1      -3.059  18.711  -5.255  1.00  0.00    -0.200 F 
ATOM    100  C   UNL     1      -2.604  18.937  -7.561  1.00  0.00     0.200 A 
ATOM    101  F   UNL     1      -2.159  19.112  -9.873  1.00  0.00    -0.200 F 
ATOM    102  F   UNL     1      -2.735  20.268  -7.471  1.00  0.00    -0.200 F 
ENDBRANCH  69  92
ENDBRANCH  43  44
ENDBRANCH  35  38
ENDBRANCH  33  34
ENDBRANCH  32  33
ENDBRANCH  31  32
ENDBRANCH  30  31
ENDBRANCH   1  30
TORSDOF 17
