REMARK SMILES CCN1C(=O)[C@H](CC(=O)Nc2ccc(C(=O)NCCCCCCNC(=O)c3ccc(-c4c5nc(c(-c6c(F)c(F)c(F)c(F)c6F)c6ccc([nH]6)c(-c6c(F)c(F)c(F)c(F)c6F)c6nc(c(-c7c(F)c(F)c(F)c(F)c7F)c7ccc4[nH]7)C=C6)C=C5)cc3)cc2)S/C1=[NH+]\c1ccc(Cl)cc1
REMARK SMILES IDX 19 1 18 2 17 3 15 4 16 5 14 7 11 8 12 9 91 10 13 11 90 12
REMARK SMILES IDX 10 13 8 14 9 15 7 17 6 18 3 19 4 20 93 21 5 22 92 23 94 24
REMARK SMILES IDX 2 26 1 27 95 28 96 29 101 30 97 31 100 32 98 33 99 34 20 35
REMARK SMILES IDX 21 36 22 37 23 38 24 39 25 40 26 42 27 43 28 44 89 45 29 46
REMARK SMILES IDX 88 47 30 48 31 49 32 50 82 51 33 52 87 53 81 54 83 55 34 56
REMARK SMILES IDX 86 57 80 58 79 59 35 61 67 62 47 63 66 64 48 65 51 66 65 67
REMARK SMILES IDX 84 68 49 69 50 70 64 72 85 73 52 74 36 75 37 76 45 77 38 78
REMARK SMILES IDX 39 79 43 80 46 81 40 82 41 83 44 84 42 85 68 86 69 87 77 88
REMARK SMILES IDX 70 89 71 90 75 91 78 92 72 93 73 94 76 95 74 96 53 97 54 98
REMARK SMILES IDX 62 99 55 100 56 101 60 102 63 103 57 104 58 105 61 106
REMARK SMILES IDX 59 107
REMARK H PARENT 17 6 10 16 94 25 24 41 83 60 51 71
REMARK Flexibility Score: inf
ROOT
ATOM      1  C   UNL     1       1.849   1.664  -2.094  1.00  0.00     0.021 C 
ENDROOT
BRANCH   1   2
ATOM      2  C   UNL     1       0.591   1.587  -1.224  1.00  0.00     0.116 C 
BRANCH   2   3
ATOM      3  N   UNL     1      -0.554   1.034  -1.948  1.00  0.00    -0.352 N 
ATOM      4  C   UNL     1      -1.687   0.638  -1.254  1.00  0.00     0.251 C 
ATOM      5  O   UNL     1      -2.317   1.418  -0.550  1.00  0.00    -0.269 OA
ATOM      6  H   UNL     1      -0.519   0.943  -2.927  1.00  0.00     0.163 HD
BRANCH   4   7
ATOM      7  C   UNL     1      -2.058  -0.813  -1.328  1.00  0.00     0.039 A 
ATOM      8  C   UNL     1      -2.384  -3.589  -1.004  1.00  0.00     0.041 A 
ATOM      9  C   UNL     1      -3.213  -2.711  -0.311  1.00  0.00     0.027 A 
ATOM     10  C   UNL     1      -1.553  -3.083  -1.999  1.00  0.00     0.027 A 
ATOM     11  C   UNL     1      -3.029  -1.324  -0.452  1.00  0.00     0.016 A 
ATOM     12  C   UNL     1      -1.390  -1.702  -2.170  1.00  0.00     0.016 A 
BRANCH   8  13
ATOM     13  N   UNL     1      -2.441  -4.972  -0.757  1.00  0.00    -0.326 N 
ATOM     14  C   UNL     1      -1.357  -5.822  -0.633  1.00  0.00     0.226 C 
ATOM     15  O   UNL     1      -1.386  -6.946  -1.131  1.00  0.00    -0.275 OA
ATOM     16  H   UNL     1      -3.336  -5.373  -0.664  1.00  0.00     0.169 HD
BRANCH  14  17
ATOM     17  C   UNL     1      -0.250  -5.420   0.346  1.00  0.00     0.128 C 
BRANCH  17  18
ATOM     18  C   UNL     1       1.156  -5.361  -0.261  1.00  0.00     0.183 C 
ATOM     19  N   UNL     1       1.617  -3.080   0.061  1.00  0.00    -0.190 N 
ATOM     20  C   UNL     1       1.319  -4.006  -0.902  1.00  0.00     0.324 C 
ATOM     21  C   UNL     1       2.506  -3.525   0.988  1.00  0.00     0.319 C 
ATOM     22  O   UNL     1       1.243  -3.793  -2.103  1.00  0.00    -0.245 OA
ATOM     23  S   UNL     1       2.494  -5.259   1.049  1.00  0.00    -0.022 SA
ATOM     24  N   UNL     1       3.193  -2.633   1.603  1.00  0.00    -0.235 N 
ATOM     25  H   UNL     1       2.889  -1.706   1.467  1.00  0.00     0.313 HD
BRANCH  19  26
ATOM     26  C   UNL     1       1.340  -1.665  -0.062  1.00  0.00     0.243 C 
ATOM     27  C   UNL     1       0.652  -1.143   1.205  1.00  0.00     0.054 C 
ENDBRANCH  19  26
BRANCH  24  28
ATOM     28  C   UNL     1       4.291  -2.774   2.426  1.00  0.00     0.125 A 
ATOM     29  C   UNL     1       4.311  -1.989   3.584  1.00  0.00     0.053 A 
ATOM     30  C   UNL     1       5.478  -3.347   1.966  1.00  0.00     0.053 A 
ATOM     31  C   UNL     1       5.500  -1.775   4.280  1.00  0.00     0.025 A 
ATOM     32  C   UNL     1       6.671  -3.140   2.662  1.00  0.00     0.025 A 
ATOM     33  C   UNL     1       6.678  -2.349   3.811  1.00  0.00     0.041 A 
ATOM     34  Cl  UNL     1       8.164  -2.036   4.620  1.00  0.00    -0.084 Cl
ENDBRANCH  24  28
ENDBRANCH  17  18
ENDBRANCH  14  17
ENDBRANCH   8  13
ENDBRANCH   4   7
ENDBRANCH   2   3
ENDBRANCH   1   2
BRANCH   1  35
ATOM     35  C   UNL     1       2.884   2.671  -1.574  1.00  0.00     0.002 C 
BRANCH  35  36
ATOM     36  C   UNL     1       3.551   2.332  -0.237  1.00  0.00     0.002 C 
BRANCH  36  37
ATOM     37  C   UNL     1       4.607   1.222  -0.266  1.00  0.00     0.021 C 
BRANCH  37  38
ATOM     38  C   UNL     1       5.740   1.383  -1.279  1.00  0.00     0.116 C 
BRANCH  38  39
ATOM     39  N   UNL     1       6.429   2.662  -1.186  1.00  0.00    -0.352 N 
ATOM     40  C   UNL     1       7.772   2.950  -1.215  1.00  0.00     0.251 C 
ATOM     41  H   UNL     1       5.840   3.444  -1.087  1.00  0.00     0.163 HD
ATOM     42  O   UNL     1       8.154   4.100  -1.020  1.00  0.00    -0.269 OA
BRANCH  40  43
ATOM     43  C   UNL     1       8.770   1.882  -1.450  1.00  0.00     0.039 A 
ATOM     44  C   UNL     1       9.933   1.869  -0.673  1.00  0.00     0.014 A 
ATOM     45  C   UNL     1       8.584   0.913  -2.439  1.00  0.00     0.014 A 
ATOM     46  C   UNL     1      10.872   0.847  -0.840  1.00  0.00     0.010 A 
ATOM     47  C   UNL     1       9.484  -0.144  -2.556  1.00  0.00     0.010 A 
ATOM     48  C   UNL     1      10.636  -0.191  -1.756  1.00  0.00    -0.014 A 
BRANCH  48  49
ATOM     49  C   UNL     1      11.576  -1.336  -1.879  1.00  0.00     0.031 A 
ATOM     50  C   UNL     1      12.313  -1.579  -3.168  1.00  0.00     0.074 A 
ATOM     51  C   UNL     1      11.715  -2.193  -0.848  1.00  0.00     0.049 A 
ATOM     52  N   UNL     1      13.116  -2.562  -3.490  1.00  0.00    -0.248 NA
ATOM     53  C   UNL     1      12.101  -0.602  -4.248  1.00  0.00     0.031 C 
ATOM     54  C   UNL     1      11.022  -2.089   0.438  1.00  0.00     0.029 A 
ATOM     55  N   UNL     1      12.478  -3.328  -0.721  1.00  0.00    -0.354 N 
ATOM     56  C   UNL     1      13.490  -2.330  -4.808  1.00  0.00     0.074 A 
ATOM     57  C   UNL     1      12.791  -1.141  -5.243  1.00  0.00     0.031 C 
ATOM     58  C   UNL     1      11.407  -3.103   1.229  1.00  0.00     0.029 A 
ATOM     59  C   UNL     1      12.338  -3.954   0.494  1.00  0.00     0.049 A 
ATOM     60  H   UNL     1      13.070  -3.661  -1.434  1.00  0.00     0.167 HD
ATOM     61  C   UNL     1      14.355  -3.034  -5.577  1.00  0.00     0.037 A 
ATOM     62  C   UNL     1      12.889  -5.093   0.958  1.00  0.00     0.037 A 
ATOM     63  C   UNL     1      15.072  -4.200  -5.129  1.00  0.00     0.049 A 
ATOM     64  C   UNL     1      13.840  -5.858   0.075  1.00  0.00     0.074 A 
ATOM     65  C   UNL     1      16.019  -4.944  -5.811  1.00  0.00     0.029 A 
ATOM     66  N   UNL     1      14.917  -4.794  -3.885  1.00  0.00    -0.354 N 
ATOM     67  N   UNL     1      14.244  -5.585  -1.142  1.00  0.00    -0.248 NA
ATOM     68  C   UNL     1      14.419  -7.088   0.634  1.00  0.00     0.031 C 
ATOM     69  C   UNL     1      16.395  -6.020  -5.003  1.00  0.00     0.029 A 
ATOM     70  C   UNL     1      15.731  -5.911  -3.792  1.00  0.00     0.049 A 
ATOM     71  H   UNL     1      14.318  -4.469  -3.175  1.00  0.00     0.167 HD
ATOM     72  C   UNL     1      15.146  -6.586  -1.479  1.00  0.00     0.074 A 
ATOM     73  C   UNL     1      15.245  -7.463  -0.332  1.00  0.00     0.031 C 
ATOM     74  C   UNL     1      15.831  -6.764  -2.636  1.00  0.00     0.037 A 
BRANCH  61  75
ATOM     75  C   UNL     1      14.588  -2.567  -6.985  1.00  0.00     0.064 A 
ATOM     76  C   UNL     1      15.292  -1.385  -7.263  1.00  0.00     0.173 A 
ATOM     77  C   UNL     1      14.164  -3.348  -8.072  1.00  0.00     0.173 A 
ATOM     78  F   UNL     1      15.711  -0.597  -6.262  1.00  0.00    -0.203 F 
ATOM     79  C   UNL     1      15.547  -0.995  -8.576  1.00  0.00     0.198 A 
ATOM     80  C   UNL     1      14.448  -2.970  -9.382  1.00  0.00     0.198 A 
ATOM     81  F   UNL     1      13.493  -4.490  -7.863  1.00  0.00    -0.203 F 
ATOM     82  F   UNL     1      16.189   0.157  -8.817  1.00  0.00    -0.200 F 
ATOM     83  C   UNL     1      15.135  -1.792  -9.633  1.00  0.00     0.200 A 
ATOM     84  F   UNL     1      14.063  -3.750 -10.401  1.00  0.00    -0.200 F 
ATOM     85  F   UNL     1      15.397  -1.423 -10.894  1.00  0.00    -0.200 F 
ENDBRANCH  61  75
BRANCH  62  86
ATOM     86  C   UNL     1      12.565  -5.581   2.326  1.00  0.00     0.064 A 
ATOM     87  C   UNL     1      13.547  -5.631   3.326  1.00  0.00     0.173 A 
ATOM     88  C   UNL     1      11.281  -6.041   2.653  1.00  0.00     0.173 A 
ATOM     89  F   UNL     1      14.796  -5.221   3.059  1.00  0.00    -0.203 F 
ATOM     90  C   UNL     1      13.267  -6.158   4.586  1.00  0.00     0.198 A 
ATOM     91  C   UNL     1      10.993  -6.536   3.923  1.00  0.00     0.198 A 
ATOM     92  F   UNL     1      10.301  -6.009   1.737  1.00  0.00    -0.203 F 
ATOM     93  F   UNL     1      14.243  -6.256   5.499  1.00  0.00    -0.200 F 
ATOM     94  C   UNL     1      11.990  -6.607   4.885  1.00  0.00     0.200 A 
ATOM     95  F   UNL     1       9.754  -6.956   4.211  1.00  0.00    -0.200 F 
ATOM     96  F   UNL     1      11.724  -7.122   6.093  1.00  0.00    -0.200 F 
ENDBRANCH  62  86
BRANCH  74  97
ATOM     97  C   UNL     1      16.783  -7.924  -2.703  1.00  0.00     0.064 A 
ATOM     98  C   UNL     1      16.331  -9.251  -2.756  1.00  0.00     0.173 A 
ATOM     99  C   UNL     1      18.168  -7.700  -2.757  1.00  0.00     0.173 A 
ATOM    100  F   UNL     1      15.018  -9.520  -2.695  1.00  0.00    -0.203 F 
ATOM    101  C   UNL     1      17.231 -10.311  -2.831  1.00  0.00     0.198 A 
ATOM    102  C   UNL     1      19.063  -8.761  -2.867  1.00  0.00     0.198 A 
ATOM    103  F   UNL     1      18.654  -6.450  -2.719  1.00  0.00    -0.203 F 
ATOM    104  F   UNL     1      16.778 -11.572  -2.826  1.00  0.00    -0.200 F 
ATOM    105  C   UNL     1      18.594 -10.065  -2.894  1.00  0.00     0.200 A 
ATOM    106  F   UNL     1      20.379  -8.520  -2.946  1.00  0.00    -0.200 F 
ATOM    107  F   UNL     1      19.457 -11.087  -2.975  1.00  0.00    -0.200 F 
ENDBRANCH  74  97
ENDBRANCH  48  49
ENDBRANCH  40  43
ENDBRANCH  38  39
ENDBRANCH  37  38
ENDBRANCH  36  37
ENDBRANCH  35  36
ENDBRANCH   1  35
TORSDOF 18
