REMARK SMILES CC[NH2+][C@]1(C(=O)NCCCCCCNC(=O)c2ccc(-c3c4nc(c(-c5c(F)c(F)c(F)c(F)c5F)c5ccc([nH]5)c(-c5c(F)c(F)c(F)c(F)c5F)c5nc(c(-c6c(F)c(F)c(F)c(F)c6F)c6ccc3[nH]6)C=C5)C=C4)cc2)CCC[C@H]1CCSc1ccc(Cl)cc1
REMARK SMILES IDX 9 1 8 2 7 3 5 4 6 5 4 7 80 8 83 9 81 10 82 11 3 12 2 15 1 16
REMARK SMILES IDX 84 17 85 18 86 19 87 20 88 21 93 22 89 23 92 24 90 25 91 26
REMARK SMILES IDX 10 27 11 28 12 29 13 30 14 31 15 32 16 34 17 35 18 36 79 37
REMARK SMILES IDX 19 38 78 39 20 40 21 41 22 42 72 43 23 44 77 45 71 46 73 47
REMARK SMILES IDX 24 48 76 49 70 50 69 51 25 53 57 54 37 55 56 56 38 57 41 58
REMARK SMILES IDX 55 59 74 60 39 61 40 62 54 64 75 65 42 66 26 67 27 68 35 69
REMARK SMILES IDX 28 70 29 71 33 72 36 73 30 74 31 75 34 76 32 77 58 78 59 79
REMARK SMILES IDX 67 80 60 81 61 82 65 83 68 84 62 85 63 86 66 87 64 88 43 89
REMARK SMILES IDX 44 90 52 91 45 92 46 93 50 94 53 95 47 96 48 97 51 98 49 99
REMARK H PARENT 7 6 3 13 3 14 14 33 73 52 41 63
REMARK Flexibility Score: inf
ROOT
ATOM      1  C   UNL     1       5.281  -0.384  -2.357  1.00  0.00     0.021 C 
ENDROOT
BRANCH   1   2
ATOM      2  C   UNL     1       3.913  -0.469  -3.029  1.00  0.00     0.116 C 
BRANCH   2   3
ATOM      3  N   UNL     1       2.839  -0.364  -2.076  1.00  0.00    -0.351 N 
ATOM      4  C   UNL     1       1.500  -0.211  -2.161  1.00  0.00     0.281 C 
ATOM      5  O   UNL     1       0.970  -0.324  -1.049  1.00  0.00    -0.268 OA
ATOM      6  H   UNL     1       3.154  -0.416  -1.145  1.00  0.00     0.163 HD
BRANCH   4   7
ATOM      7  C   UNL     1       0.703   0.114  -3.482  1.00  0.00     0.178 C 
ATOM      8  C   UNL     1       1.137   1.539  -3.944  1.00  0.00     0.079 C 
ATOM      9  C   UNL     1       0.903  -0.760  -4.792  1.00  0.00     0.061 C 
ATOM     10  C   UNL     1       0.930   1.566  -5.449  1.00  0.00     0.008 C 
ATOM     11  C   UNL     1       1.444   0.204  -5.871  1.00  0.00     0.011 C 
BRANCH   7  12
ATOM     12  N   UNL     1      -0.784   0.296  -3.266  1.00  0.00    -0.334 N 
ATOM     13  H   UNL     1      -0.957   1.301  -3.239  1.00  0.00     0.347 HD
ATOM     14  H   UNL     1      -1.198  -0.231  -4.035  1.00  0.00     0.347 HD
BRANCH  12  15
ATOM     15  C   UNL     1      -1.427  -0.273  -2.088  1.00  0.00     0.257 C 
ATOM     16  C   UNL     1      -2.947  -0.219  -2.183  1.00  0.00     0.071 C 
ENDBRANCH  12  15
ENDBRANCH   7  12
BRANCH   9  17
ATOM     17  C   UNL     1       1.631  -2.125  -4.852  1.00  0.00     0.022 C 
BRANCH  17  18
ATOM     18  C   UNL     1       1.504  -3.074  -3.651  1.00  0.00     0.075 C 
BRANCH  18  19
ATOM     19  S   UNL     1       0.843  -4.747  -4.028  1.00  0.00    -0.126 SA
BRANCH  19  20
ATOM     20  C   UNL     1      -0.903  -4.489  -4.293  1.00  0.00     0.007 A 
ATOM     21  C   UNL     1      -1.504  -3.235  -4.295  1.00  0.00     0.016 A 
ATOM     22  C   UNL     1      -1.713  -5.597  -4.565  1.00  0.00     0.016 A 
ATOM     23  C   UNL     1      -2.830  -3.054  -4.681  1.00  0.00     0.021 A 
ATOM     24  C   UNL     1      -3.069  -5.433  -4.883  1.00  0.00     0.021 A 
ATOM     25  C   UNL     1      -3.615  -4.157  -4.968  1.00  0.00     0.041 A 
ATOM     26  Cl  UNL     1      -5.257  -3.931  -5.417  1.00  0.00    -0.084 Cl
ENDBRANCH  19  20
ENDBRANCH  18  19
ENDBRANCH  17  18
ENDBRANCH   9  17
ENDBRANCH   4   7
ENDBRANCH   2   3
ENDBRANCH   1   2
BRANCH   1  27
ATOM     27  C   UNL     1       5.539  -1.403  -1.233  1.00  0.00     0.002 C 
BRANCH  27  28
ATOM     28  C   UNL     1       5.213  -2.872  -1.524  1.00  0.00     0.002 C 
BRANCH  28  29
ATOM     29  C   UNL     1       5.863  -3.486  -2.763  1.00  0.00     0.021 C 
BRANCH  29  30
ATOM     30  C   UNL     1       7.360  -3.251  -2.908  1.00  0.00     0.116 C 
BRANCH  30  31
ATOM     31  N   UNL     1       8.139  -3.712  -1.773  1.00  0.00    -0.352 N 
ATOM     32  C   UNL     1       9.386  -4.286  -1.763  1.00  0.00     0.251 C 
ATOM     33  H   UNL     1       7.716  -3.597  -0.891  1.00  0.00     0.163 HD
ATOM     34  O   UNL     1       9.882  -4.680  -0.712  1.00  0.00    -0.269 OA
BRANCH  32  35
ATOM     35  C   UNL     1      10.116  -4.471  -3.036  1.00  0.00     0.039 A 
ATOM     36  C   UNL     1      10.687  -5.718  -3.304  1.00  0.00     0.014 A 
ATOM     37  C   UNL     1      10.214  -3.438  -3.971  1.00  0.00     0.014 A 
ATOM     38  C   UNL     1      11.296  -5.951  -4.539  1.00  0.00     0.010 A 
ATOM     39  C   UNL     1      10.753  -3.693  -5.229  1.00  0.00     0.010 A 
ATOM     40  C   UNL     1      11.299  -4.952  -5.526  1.00  0.00    -0.014 A 
BRANCH  40  41
ATOM     41  C   UNL     1      11.868  -5.200  -6.875  1.00  0.00     0.031 A 
ATOM     42  C   UNL     1      13.060  -4.412  -7.342  1.00  0.00     0.074 A 
ATOM     43  C   UNL     1      11.266  -6.074  -7.705  1.00  0.00     0.049 A 
ATOM     44  N   UNL     1      13.642  -4.405  -8.515  1.00  0.00    -0.248 NA
ATOM     45  C   UNL     1      13.664  -3.487  -6.369  1.00  0.00     0.031 C 
ATOM     46  C   UNL     1      10.082  -6.872  -7.381  1.00  0.00     0.029 A 
ATOM     47  N   UNL     1      11.560  -6.429  -8.999  1.00  0.00    -0.354 N 
ATOM     48  C   UNL     1      14.657  -3.461  -8.428  1.00  0.00     0.074 A 
ATOM     49  C   UNL     1      14.588  -2.886  -7.103  1.00  0.00     0.031 C 
ATOM     50  C   UNL     1       9.764  -7.637  -8.438  1.00  0.00     0.029 A 
ATOM     51  C   UNL     1      10.691  -7.352  -9.529  1.00  0.00     0.049 A 
ATOM     52  H   UNL     1      12.321  -6.057  -9.500  1.00  0.00     0.167 HD
ATOM     53  C   UNL     1      15.573  -3.121  -9.364  1.00  0.00     0.037 A 
ATOM     54  C   UNL     1      10.641  -7.896 -10.761  1.00  0.00     0.037 A 
ATOM     55  C   UNL     1      15.663  -3.728 -10.666  1.00  0.00     0.049 A 
ATOM     56  C   UNL     1      11.668  -7.487 -11.784  1.00  0.00     0.074 A 
ATOM     57  C   UNL     1      16.607  -3.510 -11.654  1.00  0.00     0.029 A 
ATOM     58  N   UNL     1      14.774  -4.670 -11.161  1.00  0.00    -0.354 N 
ATOM     59  N   UNL     1      12.670  -6.650 -11.665  1.00  0.00    -0.248 NA
ATOM     60  C   UNL     1      11.556  -8.100 -13.116  1.00  0.00     0.031 C 
ATOM     61  C   UNL     1      16.258  -4.279 -12.768  1.00  0.00     0.029 A 
ATOM     62  C   UNL     1      15.130  -5.020 -12.453  1.00  0.00     0.049 A 
ATOM     63  H   UNL     1      14.004  -5.035 -10.668  1.00  0.00     0.167 HD
ATOM     64  C   UNL     1      13.329  -6.668 -12.887  1.00  0.00     0.074 A 
ATOM     65  C   UNL     1      12.619  -7.604 -13.732  1.00  0.00     0.031 C 
ATOM     66  C   UNL     1      14.426  -5.972 -13.273  1.00  0.00     0.037 A 
BRANCH  53  67
ATOM     67  C   UNL     1      16.557  -2.039  -9.023  1.00  0.00     0.064 A 
ATOM     68  C   UNL     1      17.582  -2.239  -8.087  1.00  0.00     0.173 A 
ATOM     69  C   UNL     1      16.508  -0.804  -9.689  1.00  0.00     0.173 A 
ATOM     70  F   UNL     1      17.667  -3.397  -7.415  1.00  0.00    -0.203 F 
ATOM     71  C   UNL     1      18.508  -1.235  -7.813  1.00  0.00     0.198 A 
ATOM     72  C   UNL     1      17.454   0.185  -9.436  1.00  0.00     0.198 A 
ATOM     73  F   UNL     1      15.551  -0.563 -10.598  1.00  0.00    -0.203 F 
ATOM     74  F   UNL     1      19.453  -1.434  -6.884  1.00  0.00    -0.200 F 
ATOM     75  C   UNL     1      18.449  -0.028  -8.494  1.00  0.00     0.200 A 
ATOM     76  F   UNL     1      17.404   1.345 -10.105  1.00  0.00    -0.200 F 
ATOM     77  F   UNL     1      19.350   0.931  -8.240  1.00  0.00    -0.200 F 
ENDBRANCH  53  67
BRANCH  54  78
ATOM     78  C   UNL     1       9.595  -8.898 -11.100  1.00  0.00     0.064 A 
ATOM     79  C   UNL     1       9.938 -10.232 -11.362  1.00  0.00     0.173 A 
ATOM     80  C   UNL     1       8.243  -8.542 -11.203  1.00  0.00     0.173 A 
ATOM     81  F   UNL     1      11.222 -10.617 -11.298  1.00  0.00    -0.203 F 
ATOM     82  C   UNL     1       8.975 -11.164 -11.743  1.00  0.00     0.198 A 
ATOM     83  C   UNL     1       7.275  -9.482 -11.554  1.00  0.00     0.198 A 
ATOM     84  F   UNL     1       7.859  -7.280 -10.960  1.00  0.00    -0.203 F 
ATOM     85  F   UNL     1       9.341 -12.416 -12.046  1.00  0.00    -0.200 F 
ATOM     86  C   UNL     1       7.644 -10.789 -11.835  1.00  0.00     0.200 A 
ATOM     87  F   UNL     1       5.988  -9.118 -11.629  1.00  0.00    -0.200 F 
ATOM     88  F   UNL     1       6.718 -11.683 -12.207  1.00  0.00    -0.200 F 
ENDBRANCH  54  78
BRANCH  66  89
ATOM     89  C   UNL     1      14.963  -6.233 -14.650  1.00  0.00     0.064 A 
ATOM     90  C   UNL     1      14.296  -5.787 -15.801  1.00  0.00     0.173 A 
ATOM     91  C   UNL     1      16.191  -6.893 -14.816  1.00  0.00     0.173 A 
ATOM     92  F   UNL     1      13.112  -5.165 -15.697  1.00  0.00    -0.203 F 
ATOM     93  C   UNL     1      14.829  -6.012 -17.067  1.00  0.00     0.198 A 
ATOM     94  C   UNL     1      16.736  -7.086 -16.081  1.00  0.00     0.198 A 
ATOM     95  F   UNL     1      16.872  -7.332 -13.747  1.00  0.00    -0.203 F 
ATOM     96  F   UNL     1      14.154  -5.617 -18.155  1.00  0.00    -0.200 F 
ATOM     97  C   UNL     1      16.052  -6.652 -17.206  1.00  0.00     0.200 A 
ATOM     98  F   UNL     1      17.926  -7.690 -16.212  1.00  0.00    -0.200 F 
ATOM     99  F   UNL     1      16.569  -6.854 -18.426  1.00  0.00    -0.200 F 
ENDBRANCH  66  89
ENDBRANCH  40  41
ENDBRANCH  32  35
ENDBRANCH  30  31
ENDBRANCH  29  30
ENDBRANCH  28  29
ENDBRANCH  27  28
ENDBRANCH   1  27
TORSDOF 19
