REMARK SMILES Cc1c(F)cccc1NCc1ccc(C(=O)NCCCCCCNC(=O)c2ccc(-c3c4nc(c(-c5c(F)c(F)c(F)c(F)c5F)c5ccc([nH]5)c(-c5c(F)c(F)c(F)c(F)c5F)c5nc(c(-c6c(F)c(F)c(F)c(F)c6F)c6ccc3[nH]6)C=C5)C=C4)cc2)cn1
REMARK SMILES IDX 20 1 19 2 18 3 17 4 15 5 16 6 14 8 11 9 12 10 91 11 13 12
REMARK SMILES IDX 90 13 10 14 9 15 8 17 1 18 2 19 3 20 4 21 5 22 7 23 6 24
REMARK SMILES IDX 21 25 22 26 23 27 24 28 25 29 26 31 27 32 28 33 89 34 29 35
REMARK SMILES IDX 88 36 30 37 31 38 32 39 82 40 33 41 87 42 81 43 83 44 34 45
REMARK SMILES IDX 86 46 80 47 79 48 35 50 67 51 47 52 66 53 48 54 51 55 65 56
REMARK SMILES IDX 84 57 49 58 50 59 64 61 85 62 52 63 36 64 37 65 45 66 38 67
REMARK SMILES IDX 39 68 43 69 46 70 40 71 41 72 44 73 42 74 68 75 69 76 77 77
REMARK SMILES IDX 70 78 71 79 75 80 78 81 72 82 73 83 76 84 74 85 53 86 54 87
REMARK SMILES IDX 62 88 55 89 56 90 60 91 63 92 57 93 58 94 61 95 59 96
REMARK H PARENT 17 7 9 16 24 30 83 49 51 60
REMARK Flexibility Score: inf
ROOT
ATOM      1  C   UNL     1      -2.793   5.049   8.561  1.00  0.00     0.002 C 
ENDROOT
BRANCH   1   2
ATOM      2  C   UNL     1      -2.709   4.322   7.212  1.00  0.00     0.021 C 
BRANCH   2   3
ATOM      3  C   UNL     1      -3.708   4.863   6.191  1.00  0.00     0.116 C 
BRANCH   3   4
ATOM      4  N   UNL     1      -3.236   6.118   5.660  1.00  0.00    -0.352 N 
ATOM      5  C   UNL     1      -2.783   6.500   4.431  1.00  0.00     0.252 C 
ATOM      6  O   UNL     1      -2.472   7.683   4.292  1.00  0.00    -0.269 OA
ATOM      7  H   UNL     1      -3.241   6.849   6.319  1.00  0.00     0.163 HD
BRANCH   5   8
ATOM      8  C   UNL     1      -2.700   5.591   3.265  1.00  0.00     0.058 A 
ATOM      9  C   UNL     1      -2.601   4.164   0.896  1.00  0.00     0.059 A 
ATOM     10  C   UNL     1      -2.610   3.478   2.107  1.00  0.00     0.026 A 
ATOM     11  N   UNL     1      -2.627   5.517   0.834  1.00  0.00    -0.259 NA
ATOM     12  C   UNL     1      -2.610   4.203   3.297  1.00  0.00     0.017 A 
ATOM     13  C   UNL     1      -2.682   6.192   2.010  1.00  0.00     0.125 A 
BRANCH   9  14
ATOM     14  C   UNL     1      -2.452   3.403  -0.405  1.00  0.00     0.169 C 
BRANCH  14  15
ATOM     15  N   UNL     1      -1.173   2.704  -0.420  1.00  0.00    -0.379 N 
ATOM     16  H   UNL     1      -0.378   3.255  -0.603  1.00  0.00     0.160 HD
BRANCH  15  17
ATOM     17  C   UNL     1      -0.947   1.357  -0.209  1.00  0.00     0.040 A 
ATOM     18  C   UNL     1       1.607   1.708  -0.068  1.00  0.00     0.050 C 
ATOM     19  C   UNL     1       0.366   0.855  -0.076  1.00  0.00     0.008 A 
ATOM     20  C   UNL     1       0.566  -0.533   0.044  1.00  0.00     0.128 A 
ATOM     21  F   UNL     1       1.815  -1.016   0.139  1.00  0.00    -0.207 F 
ATOM     22  C   UNL     1      -0.489  -1.432   0.064  1.00  0.00     0.039 A 
ATOM     23  C   UNL     1      -2.003   0.426  -0.170  1.00  0.00     0.026 A 
ATOM     24  C   UNL     1      -1.784  -0.949  -0.031  1.00  0.00     0.005 A 
ENDBRANCH  15  17
ENDBRANCH  14  15
ENDBRANCH   9  14
ENDBRANCH   5   8
ENDBRANCH   3   4
ENDBRANCH   2   3
ENDBRANCH   1   2
BRANCH   1  25
ATOM     25  C   UNL     1      -4.215   5.179   9.151  1.00  0.00     0.002 C 
BRANCH  25  26
ATOM     26  C   UNL     1      -5.103   3.924   9.058  1.00  0.00     0.021 C 
BRANCH  26  27
ATOM     27  C   UNL     1      -4.544   2.815   9.904  1.00  0.00     0.116 C 
BRANCH  27  28
ATOM     28  N   UNL     1      -4.890   2.948  11.304  1.00  0.00    -0.352 N 
ATOM     29  C   UNL     1      -4.870   1.988  12.293  1.00  0.00     0.251 C 
ATOM     30  H   UNL     1      -5.178   3.845  11.588  1.00  0.00     0.163 HD
ATOM     31  O   UNL     1      -5.505   2.158  13.318  1.00  0.00    -0.269 OA
BRANCH  29  32
ATOM     32  C   UNL     1      -4.011   0.790  12.141  1.00  0.00     0.039 A 
ATOM     33  C   UNL     1      -4.128  -0.280  13.039  1.00  0.00     0.014 A 
ATOM     34  C   UNL     1      -2.956   0.809  11.236  1.00  0.00     0.014 A 
ATOM     35  C   UNL     1      -3.112  -1.231  13.101  1.00  0.00     0.010 A 
ATOM     36  C   UNL     1      -2.067  -0.204  11.159  1.00  0.00     0.010 A 
ATOM     37  C   UNL     1      -2.068  -1.123  12.189  1.00  0.00    -0.014 A 
BRANCH  37  38
ATOM     38  C   UNL     1      -0.843  -1.875  12.183  1.00  0.00     0.031 A 
ATOM     39  C   UNL     1      -0.924  -3.224  11.650  1.00  0.00     0.074 A 
ATOM     40  C   UNL     1       0.281  -1.153  12.396  1.00  0.00     0.049 A 
ATOM     41  N   UNL     1      -0.235  -4.213  12.078  1.00  0.00    -0.248 NA
ATOM     42  C   UNL     1      -1.881  -3.583  10.603  1.00  0.00     0.031 C 
ATOM     43  C   UNL     1       1.670  -1.462  12.109  1.00  0.00     0.029 A 
ATOM     44  N   UNL     1       0.342   0.105  13.025  1.00  0.00    -0.354 N 
ATOM     45  C   UNL     1      -0.353  -5.192  11.118  1.00  0.00     0.074 A 
ATOM     46  C   UNL     1      -1.531  -4.849  10.359  1.00  0.00     0.031 C 
ATOM     47  C   UNL     1       2.450  -0.635  12.836  1.00  0.00     0.029 A 
ATOM     48  C   UNL     1       1.580   0.164  13.687  1.00  0.00     0.049 A 
ATOM     49  H   UNL     1      -0.348   0.807  13.005  1.00  0.00     0.167 HD
ATOM     50  C   UNL     1       0.711  -6.018  10.910  1.00  0.00     0.037 A 
ATOM     51  C   UNL     1       1.572   0.156  15.055  1.00  0.00     0.037 A 
ATOM     52  C   UNL     1       1.836  -5.572  11.744  1.00  0.00     0.049 A 
ATOM     53  C   UNL     1       2.034  -1.171  15.592  1.00  0.00     0.074 A 
ATOM     54  C   UNL     1       2.929  -4.769  11.453  1.00  0.00     0.029 A 
ATOM     55  N   UNL     1       1.710  -5.565  13.131  1.00  0.00    -0.354 N 
ATOM     56  N   UNL     1       2.003  -2.282  14.906  1.00  0.00    -0.248 NA
ATOM     57  C   UNL     1       2.635  -1.333  16.908  1.00  0.00     0.031 C 
ATOM     58  C   UNL     1       3.425  -4.238  12.674  1.00  0.00     0.029 A 
ATOM     59  C   UNL     1       2.640  -4.717  13.710  1.00  0.00     0.049 A 
ATOM     60  H   UNL     1       1.048  -6.092  13.634  1.00  0.00     0.167 HD
ATOM     61  C   UNL     1       2.585  -3.281  15.633  1.00  0.00     0.074 A 
ATOM     62  C   UNL     1       2.975  -2.632  16.874  1.00  0.00     0.031 C 
ATOM     63  C   UNL     1       2.707  -4.558  15.159  1.00  0.00     0.037 A 
BRANCH  50  64
ATOM     64  C   UNL     1       0.860  -6.954   9.731  1.00  0.00     0.064 A 
ATOM     65  C   UNL     1       2.140  -7.366   9.301  1.00  0.00     0.173 A 
ATOM     66  C   UNL     1      -0.210  -7.496   8.990  1.00  0.00     0.173 A 
ATOM     67  F   UNL     1       3.249  -7.008   9.960  1.00  0.00    -0.203 F 
ATOM     68  C   UNL     1       2.334  -8.180   8.181  1.00  0.00     0.198 A 
ATOM     69  C   UNL     1      -0.015  -8.270   7.840  1.00  0.00     0.198 A 
ATOM     70  F   UNL     1      -1.480  -7.352   9.384  1.00  0.00    -0.203 F 
ATOM     71  F   UNL     1       3.576  -8.541   7.833  1.00  0.00    -0.200 F 
ATOM     72  C   UNL     1       1.258  -8.612   7.435  1.00  0.00     0.200 A 
ATOM     73  F   UNL     1      -1.075  -8.697   7.138  1.00  0.00    -0.200 F 
ATOM     74  F   UNL     1       1.445  -9.380   6.354  1.00  0.00    -0.200 F 
ENDBRANCH  50  64
BRANCH  51  75
ATOM     75  C   UNL     1       0.475   1.024  15.596  1.00  0.00     0.064 A 
ATOM     76  C   UNL     1       0.597   2.393  15.279  1.00  0.00     0.173 A 
ATOM     77  C   UNL     1      -0.820   0.524  15.796  1.00  0.00     0.173 A 
ATOM     78  F   UNL     1       1.817   2.942  15.156  1.00  0.00    -0.203 F 
ATOM     79  C   UNL     1      -0.510   3.137  14.882  1.00  0.00     0.198 A 
ATOM     80  C   UNL     1      -1.935   1.298  15.454  1.00  0.00     0.198 A 
ATOM     81  F   UNL     1      -1.007  -0.751  16.167  1.00  0.00    -0.203 F 
ATOM     82  F   UNL     1      -0.338   4.359  14.356  1.00  0.00    -0.200 F 
ATOM     83  C   UNL     1      -1.770   2.568  14.916  1.00  0.00     0.200 A 
ATOM     84  F   UNL     1      -3.165   0.779  15.561  1.00  0.00    -0.200 F 
ATOM     85  F   UNL     1      -2.808   3.228  14.384  1.00  0.00    -0.200 F 
ENDBRANCH  51  75
BRANCH  63  86
ATOM     86  C   UNL     1       3.004  -5.772  16.008  1.00  0.00     0.064 A 
ATOM     87  C   UNL     1       2.772  -5.833  17.392  1.00  0.00     0.173 A 
ATOM     88  C   UNL     1       3.402  -6.993  15.409  1.00  0.00     0.173 A 
ATOM     89  F   UNL     1       2.239  -4.805  18.064  1.00  0.00    -0.203 F 
ATOM     90  C   UNL     1       3.021  -6.988  18.133  1.00  0.00     0.198 A 
ATOM     91  C   UNL     1       3.555  -8.169  16.138  1.00  0.00     0.198 A 
ATOM     92  F   UNL     1       3.627  -7.100  14.092  1.00  0.00    -0.203 F 
ATOM     93  F   UNL     1       2.862  -6.964  19.463  1.00  0.00    -0.200 F 
ATOM     94  C   UNL     1       3.396  -8.159  17.506  1.00  0.00     0.200 A 
ATOM     95  F   UNL     1       3.838  -9.313  15.499  1.00  0.00    -0.200 F 
ATOM     96  F   UNL     1       3.580  -9.279  18.214  1.00  0.00    -0.200 F 
ENDBRANCH  63  86
ENDBRANCH  37  38
ENDBRANCH  29  32
ENDBRANCH  27  28
ENDBRANCH  26  27
ENDBRANCH  25  26
ENDBRANCH   1  25
TORSDOF 16
