REMARK SMILES O=C(NCCCCCCNC(=O)[C@]1([NH2+]C2CC2)CCC[C@@H](n2cc(Br)cn2)C1)c1ccc(-c2c3nc(c(-c4c(F)c(F)c(F)c(F)c4F)c4ccc([nH]4)c(-c4c(F)c(F)c(F)c(F)c4F)c4nc(c(-c5c(F)c(F)c(F)c(F)c5F)c5ccc2[nH]5)C=C4)C=C3)cc1
REMARK SMILES IDX 6 1 5 2 4 3 3 4 1 5 2 6 29 8 30 9 91 10 31 11 90 12 32 13
REMARK SMILES IDX 33 14 34 15 84 16 35 17 89 18 83 19 85 20 36 21 88 22 82 23
REMARK SMILES IDX 81 24 37 26 69 27 49 28 68 29 50 30 53 31 67 32 86 33 51 34
REMARK SMILES IDX 52 35 66 37 87 38 54 39 38 40 39 41 47 42 40 43 41 44 45 45
REMARK SMILES IDX 48 46 42 47 43 48 46 49 44 50 70 51 71 52 79 53 72 54 73 55
REMARK SMILES IDX 77 56 80 57 74 58 75 59 78 60 76 61 55 62 56 63 64 64 57 65
REMARK SMILES IDX 58 66 62 67 65 68 59 69 60 70 63 71 61 72 7 73 8 74 9 75
REMARK SMILES IDX 10 76 11 77 12 79 13 80 18 81 28 82 19 83 21 84 20 85 14 86
REMARK SMILES IDX 15 89 16 90 17 91 22 92 23 93 27 94 24 95 26 96 25 97
REMARK H PARENT 3 7 85 25 53 36 10 78 14 87 14 88
REMARK Flexibility Score: inf
ROOT
ATOM      1  C   UNL     1       7.388   9.751  -1.333  1.00  0.00     0.002 C 
ENDROOT
BRANCH   1   2
ATOM      2  C   UNL     1       6.394  10.697  -0.644  1.00  0.00     0.021 C 
BRANCH   2   3
ATOM      3  C   UNL     1       6.778  12.174  -0.630  1.00  0.00     0.116 C 
BRANCH   3   4
ATOM      4  N   UNL     1       7.070  12.727  -1.934  1.00  0.00    -0.352 N 
ATOM      5  O   UNL     1       6.995  13.716  -3.904  1.00  0.00    -0.269 OA
ATOM      6  C   UNL     1       6.344  13.277  -2.948  1.00  0.00     0.251 C 
ATOM      7  H   UNL     1       8.033  12.700  -2.141  1.00  0.00     0.163 HD
BRANCH   6   8
ATOM      8  C   UNL     1       4.861  13.342  -3.018  1.00  0.00     0.039 A 
ATOM      9  C   UNL     1       3.981  13.207  -1.943  1.00  0.00     0.014 A 
ATOM     10  C   UNL     1       4.325  13.588  -4.297  1.00  0.00     0.014 A 
ATOM     11  C   UNL     1       2.602  13.249  -2.154  1.00  0.00     0.010 A 
ATOM     12  C   UNL     1       2.953  13.647  -4.510  1.00  0.00     0.010 A 
ATOM     13  C   UNL     1       2.088  13.449  -3.440  1.00  0.00    -0.014 A 
BRANCH  13  14
ATOM     14  C   UNL     1       0.641  13.604  -3.598  1.00  0.00     0.031 A 
ATOM     15  C   UNL     1       0.051  14.794  -2.909  1.00  0.00     0.074 A 
ATOM     16  C   UNL     1      -0.103  12.849  -4.432  1.00  0.00     0.049 A 
ATOM     17  N   UNL     1      -0.919  14.834  -2.051  1.00  0.00    -0.248 NA
ATOM     18  C   UNL     1       0.674  16.104  -3.162  1.00  0.00     0.031 C 
ATOM     19  C   UNL     1       0.351  11.852  -5.404  1.00  0.00     0.029 A 
ATOM     20  N   UNL     1      -1.450  12.892  -4.646  1.00  0.00    -0.354 N 
ATOM     21  C   UNL     1      -1.125  16.183  -1.756  1.00  0.00     0.074 A 
ATOM     22  C   UNL     1      -0.056  16.909  -2.389  1.00  0.00     0.031 C 
ATOM     23  C   UNL     1      -0.668  11.543  -6.239  1.00  0.00     0.029 A 
ATOM     24  C   UNL     1      -1.874  12.212  -5.780  1.00  0.00     0.049 A 
ATOM     25  H   UNL     1      -2.070  13.367  -4.046  1.00  0.00     0.167 HD
ATOM     26  C   UNL     1      -2.257  16.631  -1.144  1.00  0.00     0.037 A 
ATOM     27  C   UNL     1      -3.113  12.244  -6.331  1.00  0.00     0.037 A 
ATOM     28  C   UNL     1      -2.935  15.576  -0.443  1.00  0.00     0.049 A 
ATOM     29  C   UNL     1      -4.056  12.728  -5.295  1.00  0.00     0.074 A 
ATOM     30  C   UNL     1      -2.612  14.763   0.626  1.00  0.00     0.029 A 
ATOM     31  N   UNL     1      -4.023  14.986  -1.034  1.00  0.00    -0.354 N 
ATOM     32  N   UNL     1      -4.382  12.053  -4.229  1.00  0.00    -0.248 NA
ATOM     33  C   UNL     1      -4.314  14.158  -5.235  1.00  0.00     0.031 C 
ATOM     34  C   UNL     1      -3.179  13.494   0.306  1.00  0.00     0.029 A 
ATOM     35  C   UNL     1      -3.855  13.631  -0.906  1.00  0.00     0.049 A 
ATOM     36  H   UNL     1      -4.779  15.447  -1.465  1.00  0.00     0.167 HD
ATOM     37  C   UNL     1      -4.473  13.006  -3.227  1.00  0.00     0.074 A 
ATOM     38  C   UNL     1      -4.511  14.290  -3.921  1.00  0.00     0.031 C 
ATOM     39  C   UNL     1      -4.233  12.681  -1.924  1.00  0.00     0.037 A 
BRANCH  26  40
ATOM     40  C   UNL     1      -2.901  17.967  -1.417  1.00  0.00     0.064 A 
ATOM     41  C   UNL     1      -3.952  18.423  -0.596  1.00  0.00     0.173 A 
ATOM     42  C   UNL     1      -2.717  18.679  -2.622  1.00  0.00     0.173 A 
ATOM     43  F   UNL     1      -4.236  17.804   0.560  1.00  0.00    -0.203 F 
ATOM     44  C   UNL     1      -4.790  19.474  -0.983  1.00  0.00     0.198 A 
ATOM     45  C   UNL     1      -3.523  19.759  -2.981  1.00  0.00     0.198 A 
ATOM     46  F   UNL     1      -1.827  18.291  -3.543  1.00  0.00    -0.203 F 
ATOM     47  F   UNL     1      -5.845  19.799  -0.224  1.00  0.00    -0.200 F 
ATOM     48  C   UNL     1      -4.577  20.138  -2.177  1.00  0.00     0.200 A 
ATOM     49  F   UNL     1      -3.313  20.376  -4.153  1.00  0.00    -0.200 F 
ATOM     50  F   UNL     1      -5.411  21.107  -2.577  1.00  0.00    -0.200 F 
ENDBRANCH  26  40
BRANCH  27  51
ATOM     51  C   UNL     1      -3.488  12.191  -7.764  1.00  0.00     0.064 A 
ATOM     52  C   UNL     1      -4.802  11.897  -8.165  1.00  0.00     0.173 A 
ATOM     53  C   UNL     1      -2.634  12.714  -8.753  1.00  0.00     0.173 A 
ATOM     54  F   UNL     1      -5.694  11.443  -7.273  1.00  0.00    -0.203 F 
ATOM     55  C   UNL     1      -5.240  12.136  -9.473  1.00  0.00     0.198 A 
ATOM     56  C   UNL     1      -3.070  12.946 -10.058  1.00  0.00     0.198 A 
ATOM     57  F   UNL     1      -1.388  13.105  -8.447  1.00  0.00    -0.203 F 
ATOM     58  F   UNL     1      -6.518  11.903  -9.804  1.00  0.00    -0.200 F 
ATOM     59  C   UNL     1      -4.376  12.670 -10.415  1.00  0.00     0.200 A 
ATOM     60  F   UNL     1      -2.235  13.502 -10.948  1.00  0.00    -0.200 F 
ATOM     61  F   UNL     1      -4.812  12.958 -11.649  1.00  0.00    -0.200 F 
ENDBRANCH  27  51
BRANCH  39  62
ATOM     62  C   UNL     1      -4.104  11.222  -1.580  1.00  0.00     0.064 A 
ATOM     63  C   UNL     1      -3.103  10.379  -2.096  1.00  0.00     0.173 A 
ATOM     64  C   UNL     1      -4.940  10.692  -0.589  1.00  0.00     0.173 A 
ATOM     65  F   UNL     1      -2.195  10.838  -2.965  1.00  0.00    -0.203 F 
ATOM     66  C   UNL     1      -2.980   9.056  -1.675  1.00  0.00     0.198 A 
ATOM     67  C   UNL     1      -4.791   9.381  -0.142  1.00  0.00     0.198 A 
ATOM     68  F   UNL     1      -5.876  11.464  -0.015  1.00  0.00    -0.203 F 
ATOM     69  F   UNL     1      -2.024   8.271  -2.194  1.00  0.00    -0.200 F 
ATOM     70  C   UNL     1      -3.821   8.560  -0.693  1.00  0.00     0.200 A 
ATOM     71  F   UNL     1      -5.571   8.923   0.847  1.00  0.00    -0.200 F 
ATOM     72  F   UNL     1      -3.676   7.301  -0.256  1.00  0.00    -0.200 F 
ENDBRANCH  39  62
ENDBRANCH  13  14
ENDBRANCH   6   8
ENDBRANCH   3   4
ENDBRANCH   2   3
ENDBRANCH   1   2
BRANCH   1  73
ATOM     73  C   UNL     1       8.869   9.859  -0.939  1.00  0.00     0.002 C 
BRANCH  73  74
ATOM     74  C   UNL     1       9.203   9.817   0.552  1.00  0.00     0.021 C 
BRANCH  74  75
ATOM     75  C   UNL     1       8.606   8.660   1.336  1.00  0.00     0.116 C 
BRANCH  75  76
ATOM     76  N   UNL     1       9.241   7.376   1.165  1.00  0.00    -0.351 N 
ATOM     77  C   UNL     1       9.224   6.275   1.979  1.00  0.00     0.281 C 
ATOM     78  H   UNL     1       9.766   7.277   0.338  1.00  0.00     0.163 HD
ATOM     79  O   UNL     1       9.537   5.213   1.422  1.00  0.00    -0.268 OA
BRANCH  77  80
ATOM     80  C   UNL     1       8.920   6.312   3.533  1.00  0.00     0.177 C 
ATOM     81  C   UNL     1       9.694   7.399   4.307  1.00  0.00     0.079 C 
ATOM     82  C   UNL     1       9.378   4.934   4.140  1.00  0.00     0.106 C 
ATOM     83  C   UNL     1      11.205   7.231   4.163  1.00  0.00     0.009 C 
ATOM     84  C   UNL     1      10.907   4.701   4.126  1.00  0.00     0.114 C 
ATOM     85  C   UNL     1      11.655   5.899   4.742  1.00  0.00     0.028 C 
BRANCH  80  86
ATOM     86  N   UNL     1       7.450   6.332   3.815  1.00  0.00    -0.331 N 
ATOM     87  H   UNL     1       7.343   6.272   4.828  1.00  0.00     0.347 HD
ATOM     88  H   UNL     1       7.093   5.554   3.261  1.00  0.00     0.347 HD
BRANCH  86  89
ATOM     89  C   UNL     1       6.640   7.462   3.371  1.00  0.00     0.183 C 
ATOM     90  C   UNL     1       5.640   7.212   2.269  1.00  0.00     0.071 C 
ATOM     91  C   UNL     1       5.162   7.493   3.656  1.00  0.00     0.071 C 
ENDBRANCH  86  89
ENDBRANCH  80  86
BRANCH  84  92
ATOM     92  N   UNL     1      11.261   3.431   4.778  1.00  0.00    -0.268 N 
ATOM     93  C   UNL     1      10.842   2.179   4.408  1.00  0.00     0.124 A 
ATOM     94  N   UNL     1      12.127   3.404   5.819  1.00  0.00    -0.180 NA
ATOM     95  C   UNL     1      11.473   1.311   5.258  1.00  0.00     0.055 A 
ATOM     96  C   UNL     1      12.260   2.103   6.099  1.00  0.00     0.150 A 
ATOM     97  Br  UNL     1      11.357  -0.549   5.318  1.00  0.00    -0.047 Br
ENDBRANCH  84  92
ENDBRANCH  77  80
ENDBRANCH  75  76
ENDBRANCH  74  75
ENDBRANCH  73  74
ENDBRANCH   1  73
TORSDOF 16
