REMARK SMILES Cc1ccc(NC(=O)C[C@@H](C(=O)NCCCCCCNC(=O)c2ccc(-c3c4nc(c(-c5c(F)c(F)c(F)c(F)c5F)c5ccc([nH]5)c(-c5c(F)c(F)c(F)c(F)c5F)c5nc(c(-c6c(F)c(F)c(F)c(F)c6F)c6ccc3[nH]6)C=C5)C=C4)cc2)[NH+]2CCOCC2)cc1
REMARK SMILES IDX 16 1 15 2 14 3 13 4 11 5 12 6 10 8 9 9 7 10 6 11 8 13 5 14
REMARK SMILES IDX 1 15 2 16 3 17 93 18 4 19 92 20 86 21 87 22 91 23 88 25
REMARK SMILES IDX 90 26 89 27 17 28 18 29 19 30 20 31 21 32 22 34 23 35 24 36
REMARK SMILES IDX 85 37 25 38 84 39 26 40 27 41 28 42 78 43 29 44 83 45 77 46
REMARK SMILES IDX 79 47 30 48 82 49 76 50 75 51 31 53 63 54 43 55 62 56 44 57
REMARK SMILES IDX 47 58 61 59 80 60 45 61 46 62 60 64 81 65 48 66 32 67 33 68
REMARK SMILES IDX 41 69 34 70 35 71 39 72 42 73 36 74 37 75 40 76 38 77 64 78
REMARK SMILES IDX 65 79 73 80 66 81 67 82 71 83 74 84 68 85 69 86 72 87 70 88
REMARK SMILES IDX 49 89 50 90 58 91 51 92 52 93 56 94 59 95 53 96 54 97 57 98
REMARK SMILES IDX 55 99
REMARK H PARENT 13 7 6 12 86 24 20 33 79 52 47 63
REMARK Flexibility Score: inf
ROOT
ATOM      1  C   UNL     1      -3.015   2.562  -0.926  1.00  0.00     0.002 C 
ENDROOT
BRANCH   1   2
ATOM      2  C   UNL     1      -3.942   1.338  -0.803  1.00  0.00     0.021 C 
BRANCH   2   3
ATOM      3  C   UNL     1      -3.698   0.196  -1.800  1.00  0.00     0.116 C 
BRANCH   3   4
ATOM      4  N   UNL     1      -2.301  -0.171  -1.851  1.00  0.00    -0.351 N 
ATOM      5  C   UNL     1      -1.615  -1.327  -1.685  1.00  0.00     0.278 C 
ATOM      6  O   UNL     1      -0.395  -1.207  -1.858  1.00  0.00    -0.268 OA
ATOM      7  H   UNL     1      -1.714   0.593  -2.052  1.00  0.00     0.163 HD
BRANCH   5   8
ATOM      8  C   UNL     1      -2.295  -2.718  -1.429  1.00  0.00     0.283 C 
BRANCH   8   9
ATOM      9  C   UNL     1      -2.849  -2.946  -0.006  1.00  0.00     0.175 C 
BRANCH   9  10
ATOM     10  C   UNL     1      -3.350  -1.794   0.825  1.00  0.00     0.230 C 
ATOM     11  N   UNL     1      -2.526  -0.936   1.491  1.00  0.00    -0.326 N 
ATOM     12  H   UNL     1      -2.984  -0.338   2.125  1.00  0.00     0.169 HD
ATOM     13  O   UNL     1      -4.569  -1.595   0.910  1.00  0.00    -0.274 OA
BRANCH  11  14
ATOM     14  C   UNL     1      -1.135  -0.759   1.426  1.00  0.00     0.041 A 
ATOM     15  C   UNL     1       2.885   0.128   0.214  1.00  0.00     0.044 C 
ATOM     16  C   UNL     1       1.526  -0.163   0.772  1.00  0.00    -0.051 A 
ATOM     17  C   UNL     1       1.111  -1.489   0.919  1.00  0.00     0.005 A 
ATOM     18  C   UNL     1       0.632   0.864   1.080  1.00  0.00     0.005 A 
ATOM     19  C   UNL     1      -0.212  -1.785   1.254  1.00  0.00     0.026 A 
ATOM     20  C   UNL     1      -0.684   0.565   1.435  1.00  0.00     0.026 A 
ENDBRANCH  11  14
ENDBRANCH   9  10
ENDBRANCH   8   9
BRANCH   8  21
ATOM     21  N   UNL     1      -1.306  -3.780  -1.809  1.00  0.00    -0.320 N 
ATOM     22  C   UNL     1      -0.884  -3.771  -3.225  1.00  0.00     0.291 C 
ATOM     23  C   UNL     1      -1.437  -5.160  -1.327  1.00  0.00     0.291 C 
ATOM     24  H   UNL     1      -0.566  -3.419  -1.207  1.00  0.00     0.348 HD
ATOM     25  C   UNL     1      -1.655  -4.756  -4.114  1.00  0.00     0.221 C 
ATOM     26  C   UNL     1      -2.168  -6.116  -2.276  1.00  0.00     0.221 C 
ATOM     27  O   UNL     1      -1.605  -6.085  -3.590  1.00  0.00    -0.370 OA
ENDBRANCH   8  21
ENDBRANCH   5   8
ENDBRANCH   3   4
ENDBRANCH   2   3
ENDBRANCH   1   2
BRANCH   1  28
ATOM     28  C   UNL     1      -3.084   3.348  -2.241  1.00  0.00     0.002 C 
BRANCH  28  29
ATOM     29  C   UNL     1      -4.484   3.743  -2.710  1.00  0.00     0.021 C 
BRANCH  29  30
ATOM     30  C   UNL     1      -5.275   4.565  -1.704  1.00  0.00     0.116 C 
BRANCH  30  31
ATOM     31  N   UNL     1      -5.071   5.999  -1.786  1.00  0.00    -0.352 N 
ATOM     32  C   UNL     1      -5.619   7.019  -1.034  1.00  0.00     0.251 C 
ATOM     33  H   UNL     1      -4.444   6.290  -2.487  1.00  0.00     0.163 HD
ATOM     34  O   UNL     1      -5.459   8.179  -1.410  1.00  0.00    -0.269 OA
BRANCH  32  35
ATOM     35  C   UNL     1      -6.258   6.763   0.288  1.00  0.00     0.039 A 
ATOM     36  C   UNL     1      -6.172   7.776   1.260  1.00  0.00     0.014 A 
ATOM     37  C   UNL     1      -6.766   5.521   0.653  1.00  0.00     0.014 A 
ATOM     38  C   UNL     1      -6.357   7.471   2.607  1.00  0.00     0.010 A 
ATOM     39  C   UNL     1      -6.840   5.184   1.985  1.00  0.00     0.010 A 
ATOM     40  C   UNL     1      -6.569   6.145   2.960  1.00  0.00    -0.014 A 
BRANCH  40  41
ATOM     41  C   UNL     1      -6.497   5.622   4.311  1.00  0.00     0.031 A 
ATOM     42  C   UNL     1      -7.742   5.328   5.042  1.00  0.00     0.074 A 
ATOM     43  C   UNL     1      -5.293   5.202   4.760  1.00  0.00     0.049 A 
ATOM     44  N   UNL     1      -7.785   5.002   6.286  1.00  0.00    -0.248 NA
ATOM     45  C   UNL     1      -9.068   5.436   4.432  1.00  0.00     0.031 C 
ATOM     46  C   UNL     1      -5.014   4.274   5.853  1.00  0.00     0.029 A 
ATOM     47  N   UNL     1      -4.032   5.718   4.414  1.00  0.00    -0.354 N 
ATOM     48  C   UNL     1      -9.055   4.545   6.543  1.00  0.00     0.074 A 
ATOM     49  C   UNL     1      -9.844   4.979   5.421  1.00  0.00     0.031 C 
ATOM     50  C   UNL     1      -3.763   4.487   6.294  1.00  0.00     0.029 A 
ATOM     51  C   UNL     1      -3.280   5.677   5.614  1.00  0.00     0.049 A 
ATOM     52  H   UNL     1      -3.735   6.037   3.531  1.00  0.00     0.167 HD
ATOM     53  C   UNL     1      -9.233   3.710   7.603  1.00  0.00     0.037 A 
ATOM     54  C   UNL     1      -2.914   6.830   6.250  1.00  0.00     0.037 A 
ATOM     55  C   UNL     1      -8.070   3.755   8.489  1.00  0.00     0.049 A 
ATOM     56  C   UNL     1      -3.452   6.942   7.658  1.00  0.00     0.074 A 
ATOM     57  C   UNL     1      -7.033   2.877   8.747  1.00  0.00     0.029 A 
ATOM     58  N   UNL     1      -7.704   4.977   9.051  1.00  0.00    -0.354 N 
ATOM     59  N   UNL     1      -4.504   6.301   8.089  1.00  0.00    -0.248 NA
ATOM     60  C   UNL     1      -2.853   7.790   8.684  1.00  0.00     0.031 C 
ATOM     61  C   UNL     1      -5.983   3.620   9.356  1.00  0.00     0.029 A 
ATOM     62  C   UNL     1      -6.408   4.929   9.521  1.00  0.00     0.049 A 
ATOM     63  H   UNL     1      -8.290   5.766   9.105  1.00  0.00     0.167 HD
ATOM     64  C   UNL     1      -4.731   6.627   9.399  1.00  0.00     0.074 A 
ATOM     65  C   UNL     1      -3.665   7.555   9.729  1.00  0.00     0.031 C 
ATOM     66  C   UNL     1      -5.782   6.110  10.103  1.00  0.00     0.037 A 
BRANCH  53  67
ATOM     67  C   UNL     1     -10.352   2.696   7.741  1.00  0.00     0.064 A 
ATOM     68  C   UNL     1     -10.445   1.905   8.908  1.00  0.00     0.173 A 
ATOM     69  C   UNL     1     -11.268   2.346   6.723  1.00  0.00     0.173 A 
ATOM     70  F   UNL     1      -9.630   2.114   9.952  1.00  0.00    -0.203 F 
ATOM     71  C   UNL     1     -11.362   0.854   9.035  1.00  0.00     0.198 A 
ATOM     72  C   UNL     1     -12.219   1.331   6.873  1.00  0.00     0.198 A 
ATOM     73  F   UNL     1     -11.249   2.914   5.514  1.00  0.00    -0.203 F 
ATOM     74  F   UNL     1     -11.361   0.099  10.142  1.00  0.00    -0.200 F 
ATOM     75  C   UNL     1     -12.257   0.575   8.022  1.00  0.00     0.200 A 
ATOM     76  F   UNL     1     -13.074   1.075   5.872  1.00  0.00    -0.200 F 
ATOM     77  F   UNL     1     -13.135  -0.430   8.141  1.00  0.00    -0.200 F 
ENDBRANCH  53  67
BRANCH  54  78
ATOM     78  C   UNL     1      -2.732   7.970   5.308  1.00  0.00     0.064 A 
ATOM     79  C   UNL     1      -1.735   7.853   4.318  1.00  0.00     0.173 A 
ATOM     80  C   UNL     1      -3.747   8.911   5.096  1.00  0.00     0.173 A 
ATOM     81  F   UNL     1      -0.737   6.969   4.475  1.00  0.00    -0.203 F 
ATOM     82  C   UNL     1      -1.834   8.536   3.107  1.00  0.00     0.198 A 
ATOM     83  C   UNL     1      -3.828   9.611   3.890  1.00  0.00     0.198 A 
ATOM     84  F   UNL     1      -4.728   9.065   5.996  1.00  0.00    -0.203 F 
ATOM     85  F   UNL     1      -0.944   8.299   2.132  1.00  0.00    -0.200 F 
ATOM     86  C   UNL     1      -2.899   9.390   2.882  1.00  0.00     0.200 A 
ATOM     87  F   UNL     1      -4.869  10.425   3.661  1.00  0.00    -0.200 F 
ATOM     88  F   UNL     1      -3.056   9.967   1.683  1.00  0.00    -0.200 F 
ENDBRANCH  54  78
BRANCH  66  89
ATOM     89  C   UNL     1      -6.267   6.611  11.443  1.00  0.00     0.064 A 
ATOM     90  C   UNL     1      -6.119   7.937  11.884  1.00  0.00     0.173 A 
ATOM     91  C   UNL     1      -7.050   5.777  12.278  1.00  0.00     0.173 A 
ATOM     92  F   UNL     1      -5.515   8.862  11.126  1.00  0.00    -0.203 F 
ATOM     93  C   UNL     1      -6.644   8.376  13.103  1.00  0.00     0.198 A 
ATOM     94  C   UNL     1      -7.625   6.235  13.463  1.00  0.00     0.198 A 
ATOM     95  F   UNL     1      -7.304   4.501  11.954  1.00  0.00    -0.203 F 
ATOM     96  F   UNL     1      -6.433   9.638  13.500  1.00  0.00    -0.200 F 
ATOM     97  C   UNL     1      -7.405   7.529  13.886  1.00  0.00     0.200 A 
ATOM     98  F   UNL     1      -8.408   5.418  14.182  1.00  0.00    -0.200 F 
ATOM     99  F   UNL     1      -7.944   7.966  15.032  1.00  0.00    -0.200 F 
ENDBRANCH  66  89
ENDBRANCH  40  41
ENDBRANCH  32  35
ENDBRANCH  30  31
ENDBRANCH  29  30
ENDBRANCH  28  29
ENDBRANCH   1  28
TORSDOF 17
