REMARK SMILES O=C(NCCCCCCNC(=O)[C@H]1CCCC[C@H]1C(=O)N1CCN(S(=O)(=O)c2ccc(F)cc2)CC1)c1ccc(-c2c3nc(c(-c4c(F)c(F)c(F)c(F)c4F)c4ccc([nH]4)c(-c4c(F)c(F)c(F)c(F)c4F)c4nc(c(-c5c(F)c(F)c(F)c(F)c5F)c5ccc2[nH]5)C=C4)C=C3)cc1
REMARK SMILES IDX 7 1 6 2 5 3 4 4 3 5 1 6 2 7 37 9 38 10 99 11 39 12 98 13
REMARK SMILES IDX 40 14 41 15 42 16 92 17 43 18 97 19 91 20 93 21 44 22 96 23
REMARK SMILES IDX 90 24 89 25 45 27 77 28 57 29 76 30 58 31 61 32 75 33 94 34
REMARK SMILES IDX 59 35 60 36 74 38 95 39 62 40 46 41 47 42 55 43 48 44 49 45
REMARK SMILES IDX 53 46 56 47 50 48 51 49 54 50 52 51 78 52 79 53 87 54 80 55
REMARK SMILES IDX 81 56 85 57 88 58 82 59 83 60 86 61 84 62 63 63 64 64 72 65
REMARK SMILES IDX 65 66 66 67 70 68 73 69 67 70 68 71 71 72 69 73 8 74 9 75
REMARK SMILES IDX 10 76 11 77 12 79 13 80 14 81 18 82 15 83 17 84 16 85 19 86
REMARK SMILES IDX 20 87 21 88 22 89 36 90 23 91 35 92 24 93 25 94 26 95 27 96
REMARK SMILES IDX 28 97 29 98 34 99 30 100 33 101 31 102 32 103
REMARK H PARENT 3 8 93 26 61 37 10 78
REMARK Flexibility Score: inf
ROOT
ATOM      1  C   UNL     1      10.991 -10.656  -5.675  1.00  0.00     0.002 C 
ENDROOT
BRANCH   1   2
ATOM      2  C   UNL     1      12.484 -10.520  -5.369  1.00  0.00     0.002 C 
BRANCH   2   3
ATOM      3  C   UNL     1      13.066 -11.476  -4.331  1.00  0.00     0.021 C 
BRANCH   3   4
ATOM      4  C   UNL     1      12.727 -12.947  -4.513  1.00  0.00     0.116 C 
BRANCH   4   5
ATOM      5  N   UNL     1      13.252 -13.528  -5.735  1.00  0.00    -0.352 N 
ATOM      6  O   UNL     1      14.312 -15.079  -6.997  1.00  0.00    -0.269 OA
ATOM      7  C   UNL     1      13.854 -14.754  -5.907  1.00  0.00     0.251 C 
ATOM      8  H   UNL     1      13.167 -12.975  -6.545  1.00  0.00     0.163 HD
BRANCH   7   9
ATOM      9  C   UNL     1      13.991 -15.664  -4.747  1.00  0.00     0.039 A 
ATOM     10  C   UNL     1      12.907 -15.913  -3.902  1.00  0.00     0.014 A 
ATOM     11  C   UNL     1      15.237 -16.237  -4.479  1.00  0.00     0.014 A 
ATOM     12  C   UNL     1      13.109 -16.596  -2.708  1.00  0.00     0.010 A 
ATOM     13  C   UNL     1      15.416 -16.999  -3.321  1.00  0.00     0.010 A 
ATOM     14  C   UNL     1      14.364 -17.149  -2.404  1.00  0.00    -0.014 A 
BRANCH  14  15
ATOM     15  C   UNL     1      14.540 -17.904  -1.137  1.00  0.00     0.031 A 
ATOM     16  C   UNL     1      15.462 -17.411  -0.057  1.00  0.00     0.074 A 
ATOM     17  C   UNL     1      13.822 -19.028  -0.948  1.00  0.00     0.049 A 
ATOM     18  N   UNL     1      15.710 -17.935   1.118  1.00  0.00    -0.248 NA
ATOM     19  C   UNL     1      16.208 -16.173  -0.328  1.00  0.00     0.031 C 
ATOM     20  C   UNL     1      12.900 -19.607  -1.927  1.00  0.00     0.029 A 
ATOM     21  N   UNL     1      13.733 -19.869   0.131  1.00  0.00    -0.354 N 
ATOM     22  C   UNL     1      16.650 -17.105   1.716  1.00  0.00     0.074 A 
ATOM     23  C   UNL     1      16.950 -16.056   0.765  1.00  0.00     0.031 C 
ATOM     24  C   UNL     1      12.297 -20.673  -1.384  1.00  0.00     0.029 A 
ATOM     25  C   UNL     1      12.832 -20.890  -0.044  1.00  0.00     0.049 A 
ATOM     26  H   UNL     1      14.263 -19.751   0.953  1.00  0.00     0.167 HD
ATOM     27  C   UNL     1      17.203 -17.207   2.949  1.00  0.00     0.037 A 
ATOM     28  C   UNL     1      12.478 -21.895   0.777  1.00  0.00     0.037 A 
ATOM     29  C   UNL     1      16.889 -18.245   3.897  1.00  0.00     0.049 A 
ATOM     30  C   UNL     1      13.111 -21.989   2.135  1.00  0.00     0.074 A 
ATOM     31  C   UNL     1      17.390 -18.427   5.175  1.00  0.00     0.029 A 
ATOM     32  N   UNL     1      15.989 -19.277   3.672  1.00  0.00    -0.354 N 
ATOM     33  N   UNL     1      13.994 -21.195   2.688  1.00  0.00    -0.248 NA
ATOM     34  C   UNL     1      12.702 -23.118   2.980  1.00  0.00     0.031 C 
ATOM     35  C   UNL     1      16.823 -19.589   5.708  1.00  0.00     0.029 A 
ATOM     36  C   UNL     1      15.929 -20.104   4.783  1.00  0.00     0.049 A 
ATOM     37  H   UNL     1      15.470 -19.404   2.845  1.00  0.00     0.167 HD
ATOM     38  C   UNL     1      14.235 -21.715   3.951  1.00  0.00     0.074 A 
ATOM     39  C   UNL     1      13.393 -22.886   4.088  1.00  0.00     0.031 C 
ATOM     40  C   UNL     1      15.081 -21.262   4.908  1.00  0.00     0.037 A 
BRANCH  27  41
ATOM     41  C   UNL     1      18.216 -16.173   3.350  1.00  0.00     0.064 A 
ATOM     42  C   UNL     1      19.569 -16.520   3.497  1.00  0.00     0.173 A 
ATOM     43  C   UNL     1      17.843 -14.855   3.650  1.00  0.00     0.173 A 
ATOM     44  F   UNL     1      19.979 -17.769   3.231  1.00  0.00    -0.203 F 
ATOM     45  C   UNL     1      20.505 -15.589   3.939  1.00  0.00     0.198 A 
ATOM     46  C   UNL     1      18.787 -13.919   4.065  1.00  0.00     0.198 A 
ATOM     47  F   UNL     1      16.565 -14.468   3.515  1.00  0.00    -0.203 F 
ATOM     48  F   UNL     1      21.786 -15.952   4.099  1.00  0.00    -0.200 F 
ATOM     49  C   UNL     1      20.115 -14.288   4.218  1.00  0.00     0.200 A 
ATOM     50  F   UNL     1      18.412 -12.656   4.312  1.00  0.00    -0.200 F 
ATOM     51  F   UNL     1      21.019 -13.389   4.630  1.00  0.00    -0.200 F 
ENDBRANCH  27  41
BRANCH  28  52
ATOM     52  C   UNL     1      11.451 -22.868   0.329  1.00  0.00     0.064 A 
ATOM     53  C   UNL     1      11.713 -23.779  -0.706  1.00  0.00     0.173 A 
ATOM     54  C   UNL     1      10.164 -22.860   0.883  1.00  0.00     0.173 A 
ATOM     55  F   UNL     1      12.928 -23.817  -1.274  1.00  0.00    -0.203 F 
ATOM     56  C   UNL     1      10.718 -24.624  -1.189  1.00  0.00     0.198 A 
ATOM     57  C   UNL     1       9.177 -23.725   0.417  1.00  0.00     0.198 A 
ATOM     58  F   UNL     1       9.872 -22.016   1.884  1.00  0.00    -0.203 F 
ATOM     59  F   UNL     1      10.981 -25.450  -2.210  1.00  0.00    -0.200 F 
ATOM     60  C   UNL     1       9.451 -24.598  -0.626  1.00  0.00     0.200 A 
ATOM     61  F   UNL     1       7.959 -23.709   0.975  1.00  0.00    -0.200 F 
ATOM     62  F   UNL     1       8.493 -25.412  -1.090  1.00  0.00    -0.200 F 
ENDBRANCH  28  52
BRANCH  40  63
ATOM     63  C   UNL     1      15.123 -22.015   6.205  1.00  0.00     0.064 A 
ATOM     64  C   UNL     1      14.587 -21.447   7.370  1.00  0.00     0.173 A 
ATOM     65  C   UNL     1      15.745 -23.267   6.308  1.00  0.00     0.173 A 
ATOM     66  F   UNL     1      13.988 -20.247   7.324  1.00  0.00    -0.203 F 
ATOM     67  C   UNL     1      14.683 -22.101   8.595  1.00  0.00     0.198 A 
ATOM     68  C   UNL     1      15.815 -23.931   7.529  1.00  0.00     0.198 A 
ATOM     69  F   UNL     1      16.259 -23.857   5.218  1.00  0.00    -0.203 F 
ATOM     70  F   UNL     1      14.189 -21.527   9.700  1.00  0.00    -0.200 F 
ATOM     71  C   UNL     1      15.293 -23.344   8.673  1.00  0.00     0.200 A 
ATOM     72  F   UNL     1      16.383 -25.143   7.599  1.00  0.00    -0.200 F 
ATOM     73  F   UNL     1      15.372 -23.980   9.850  1.00  0.00    -0.200 F 
ENDBRANCH  40  63
ENDBRANCH  14  15
ENDBRANCH   7   9
ENDBRANCH   4   5
ENDBRANCH   3   4
ENDBRANCH   2   3
ENDBRANCH   1   2
BRANCH   1  74
ATOM     74  C   UNL     1      10.011 -10.659  -4.493  1.00  0.00     0.021 C 
BRANCH  74  75
ATOM     75  C   UNL     1      10.155  -9.546  -3.460  1.00  0.00     0.116 C 
BRANCH  75  76
ATOM     76  N   UNL     1      10.247  -8.226  -4.042  1.00  0.00    -0.356 N 
ATOM     77  C   UNL     1      10.450  -7.104  -3.286  1.00  0.00     0.223 C 
ATOM     78  H   UNL     1      10.159  -8.131  -5.018  1.00  0.00     0.163 HD
ATOM     79  O   UNL     1      11.494  -6.490  -3.487  1.00  0.00    -0.275 OA
BRANCH  77  80
ATOM     80  C   UNL     1       9.351  -6.631  -2.330  1.00  0.00     0.091 C 
ATOM     81  C   UNL     1       9.479  -7.358  -0.979  1.00  0.00     0.014 C 
ATOM     82  C   UNL     1       9.394  -5.112  -2.034  1.00  0.00     0.091 C 
ATOM     83  C   UNL     1      10.816  -7.049  -0.309  1.00  0.00     0.001 C 
ATOM     84  C   UNL     1      10.693  -4.684  -1.323  1.00  0.00     0.014 C 
ATOM     85  C   UNL     1      11.027  -5.551  -0.106  1.00  0.00     0.001 C 
BRANCH  82  86
ATOM     86  C   UNL     1       9.019  -4.055  -3.095  1.00  0.00     0.226 C 
ATOM     87  O   UNL     1       8.310  -3.101  -2.754  1.00  0.00    -0.275 OA
ATOM     88  N   UNL     1       9.662  -4.035  -4.313  1.00  0.00    -0.340 N 
ATOM     89  C   UNL     1      10.051  -2.740  -4.885  1.00  0.00     0.136 C 
ATOM     90  C   UNL     1       9.433  -5.048  -5.333  1.00  0.00     0.136 C 
ATOM     91  C   UNL     1      11.277  -2.875  -5.814  1.00  0.00     0.124 C 
ATOM     92  C   UNL     1      10.691  -5.232  -6.190  1.00  0.00     0.124 C 
ATOM     93  N   UNL     1      11.107  -3.958  -6.852  1.00  0.00    -0.194 NA
BRANCH  93  94
ATOM     94  S   UNL     1      10.288  -3.475  -8.262  1.00  0.00     0.243 S 
ATOM     95  O   UNL     1       8.873  -3.373  -7.953  1.00  0.00    -0.207 OA
ATOM     96  O   UNL     1      11.003  -2.358  -8.825  1.00  0.00    -0.207 OA
BRANCH  94  97
ATOM     97  C   UNL     1      10.487  -4.866  -9.362  1.00  0.00     0.082 A 
ATOM     98  C   UNL     1       9.592  -5.943  -9.280  1.00  0.00     0.025 A 
ATOM     99  C   UNL     1      11.491  -4.849 -10.337  1.00  0.00     0.025 A 
ATOM    100  C   UNL     1       9.753  -7.042 -10.122  1.00  0.00     0.040 A 
ATOM    101  C   UNL     1      11.624  -5.940 -11.200  1.00  0.00     0.040 A 
ATOM    102  C   UNL     1      10.765  -7.030 -11.075  1.00  0.00     0.123 A 
ATOM    103  F   UNL     1      10.911  -8.083 -11.890  1.00  0.00    -0.207 F 
ENDBRANCH  94  97
ENDBRANCH  93  94
ENDBRANCH  82  86
ENDBRANCH  77  80
ENDBRANCH  75  76
ENDBRANCH  74  75
ENDBRANCH   1  74
TORSDOF 16
