REMARK SMILES CCCCCCNC(=O)Oc1cccc(-c2ccc([C@@H](C)C(=O)NCCCCCCNC(=O)c3ccc(-c4c5nc(c(-c6c(F)c(F)c(F)c(F)c6F)c6ccc([nH]6)c(-c6c(F)c(F)c(F)c(F)c6F)c6nc(c(-c7c(F)c(F)c(F)c(F)c7F)c7ccc4[nH]7)C=C6)C=C5)cc3)cc2Cl)c1
REMARK SMILES IDX 22 1 23 2 24 3 20 5 21 6 19 7 16 8 17 9 98 10 18 11 97 12
REMARK SMILES IDX 99 13 15 14 11 15 12 16 100 17 13 18 14 19 10 20 8 21 7 22
REMARK SMILES IDX 9 24 6 25 5 26 4 27 3 28 2 29 1 30 25 31 26 32 27 33 28 34
REMARK SMILES IDX 29 35 30 36 31 37 32 38 33 40 34 41 35 42 96 43 36 44 95 45
REMARK SMILES IDX 37 46 38 47 39 48 89 49 40 50 94 51 88 52 90 53 41 54 93 55
REMARK SMILES IDX 87 56 86 57 42 59 74 60 54 61 73 62 55 63 58 64 72 65 91 66
REMARK SMILES IDX 56 67 57 68 71 70 92 71 59 72 43 73 44 74 52 75 45 76 46 77
REMARK SMILES IDX 50 78 53 79 47 80 48 81 51 82 49 83 75 84 76 85 84 86 77 87
REMARK SMILES IDX 78 88 82 89 85 90 79 91 80 92 83 93 81 94 60 95 61 96 69 97
REMARK SMILES IDX 62 98 63 99 67 100 70 101 64 102 65 103 68 104 66 105
REMARK H PARENT 24 4 7 23 31 39 90 58 58 69
REMARK Flexibility Score: inf
ROOT
ATOM      1  C   UNL     1      -3.780   3.857  13.793  1.00  0.00     0.227 C 
ATOM      2  O   UNL     1      -2.837   4.649  13.674  1.00  0.00    -0.274 OA
ATOM      3  N   UNL     1      -3.637   2.888  14.737  1.00  0.00    -0.356 N 
ATOM      4  H   UNL     1      -2.823   2.978  15.283  1.00  0.00     0.163 HD
ENDROOT
BRANCH   1   5
ATOM      5  C   UNL     1      -5.027   4.018  12.910  1.00  0.00     0.105 C 
ATOM      6  C   UNL     1      -6.323   4.245  13.688  1.00  0.00     0.023 C 
BRANCH   5   7
ATOM      7  C   UNL     1      -5.116   3.013  11.771  1.00  0.00    -0.034 A 
ATOM      8  C   UNL     1      -5.163   1.140   9.593  1.00  0.00     0.000 A 
ATOM      9  C   UNL     1      -5.678   0.828  10.866  1.00  0.00     0.010 A 
ATOM     10  C   UNL     1      -4.654   2.444   9.429  1.00  0.00     0.049 A 
ATOM     11  C   UNL     1      -5.695   1.754  11.914  1.00  0.00     0.005 A 
ATOM     12  C   UNL     1      -4.601   3.345  10.509  1.00  0.00     0.025 A 
ATOM     13  Cl  UNL     1      -4.135   3.070   7.897  1.00  0.00    -0.084 Cl
BRANCH   8  14
ATOM     14  C   UNL     1      -5.209   0.095   8.538  1.00  0.00    -0.013 A 
ATOM     15  C   UNL     1      -4.212  -1.145   6.698  1.00  0.00     0.133 A 
ATOM     16  C   UNL     1      -5.344  -1.944   6.571  1.00  0.00     0.047 A 
ATOM     17  C   UNL     1      -4.128  -0.150   7.676  1.00  0.00     0.056 A 
ATOM     18  C   UNL     1      -6.413  -1.742   7.434  1.00  0.00     0.004 A 
ATOM     19  C   UNL     1      -6.350  -0.724   8.390  1.00  0.00     0.009 A 
BRANCH  15  20
ATOM     20  O   UNL     1      -3.238  -1.282   5.694  1.00  0.00    -0.410 OA
BRANCH  20  21
ATOM     21  C   UNL     1      -1.897  -1.349   6.033  1.00  0.00     0.412 C 
ATOM     22  N   UNL     1      -1.075  -1.302   4.939  1.00  0.00    -0.321 N 
ATOM     23  H   UNL     1      -0.108  -1.381   5.107  1.00  0.00     0.167 HD
ATOM     24  O   UNL     1      -1.445  -1.454   7.165  1.00  0.00    -0.224 OA
BRANCH  22  25
ATOM     25  C   UNL     1      -1.486  -1.146   3.557  1.00  0.00     0.119 C 
BRANCH  25  26
ATOM     26  C   UNL     1      -0.895   0.112   2.921  1.00  0.00     0.021 C 
BRANCH  26  27
ATOM     27  C   UNL     1       0.634   0.116   2.802  1.00  0.00     0.002 C 
BRANCH  27  28
ATOM     28  C   UNL     1       1.237  -1.053   2.014  1.00  0.00    -0.000 C 
BRANCH  28  29
ATOM     29  C   UNL     1       0.741  -1.200   0.574  1.00  0.00    -0.003 C 
ATOM     30  C   UNL     1       1.092  -0.011  -0.307  1.00  0.00     0.004 C 
ENDBRANCH  28  29
ENDBRANCH  27  28
ENDBRANCH  26  27
ENDBRANCH  25  26
ENDBRANCH  22  25
ENDBRANCH  20  21
ENDBRANCH  15  20
ENDBRANCH   8  14
ENDBRANCH   5   7
ENDBRANCH   1   5
BRANCH   3  31
ATOM     31  C   UNL     1      -4.460   1.751  15.087  1.00  0.00     0.116 C 
BRANCH  31  32
ATOM     32  C   UNL     1      -3.910   0.453  14.490  1.00  0.00     0.021 C 
BRANCH  32  33
ATOM     33  C   UNL     1      -2.911  -0.272  15.397  1.00  0.00     0.002 C 
BRANCH  33  34
ATOM     34  C   UNL     1      -3.488  -0.781  16.724  1.00  0.00     0.002 C 
BRANCH  34  35
ATOM     35  C   UNL     1      -4.716  -1.689  16.605  1.00  0.00     0.021 C 
BRANCH  35  36
ATOM     36  C   UNL     1      -4.488  -2.970  15.806  1.00  0.00     0.116 C 
BRANCH  36  37
ATOM     37  N   UNL     1      -3.511  -3.838  16.445  1.00  0.00    -0.352 N 
ATOM     38  C   UNL     1      -3.651  -5.121  16.912  1.00  0.00     0.251 C 
ATOM     39  H   UNL     1      -2.615  -3.447  16.558  1.00  0.00     0.163 HD
ATOM     40  O   UNL     1      -2.785  -5.615  17.627  1.00  0.00    -0.269 OA
BRANCH  38  41
ATOM     41  C   UNL     1      -4.850  -5.912  16.564  1.00  0.00     0.039 A 
ATOM     42  C   UNL     1      -5.472  -6.673  17.558  1.00  0.00     0.014 A 
ATOM     43  C   UNL     1      -5.336  -5.939  15.253  1.00  0.00     0.014 A 
ATOM     44  C   UNL     1      -6.612  -7.419  17.250  1.00  0.00     0.010 A 
ATOM     45  C   UNL     1      -6.508  -6.633  14.961  1.00  0.00     0.010 A 
ATOM     46  C   UNL     1      -7.154  -7.384  15.955  1.00  0.00    -0.014 A 
BRANCH  46  47
ATOM     47  C   UNL     1      -8.383  -8.143  15.612  1.00  0.00     0.031 A 
ATOM     48  C   UNL     1      -8.313  -9.280  14.631  1.00  0.00     0.074 A 
ATOM     49  C   UNL     1      -9.567  -7.773  16.137  1.00  0.00     0.049 A 
ATOM     50  N   UNL     1      -9.282 -10.000  14.124  1.00  0.00    -0.248 NA
ATOM     51  C   UNL     1      -6.975  -9.642  14.134  1.00  0.00     0.031 C 
ATOM     52  C   UNL     1      -9.768  -6.671  17.079  1.00  0.00     0.029 A 
ATOM     53  N   UNL     1     -10.828  -8.278  15.942  1.00  0.00    -0.354 N 
ATOM     54  C   UNL     1      -8.675 -10.889  13.248  1.00  0.00     0.074 A 
ATOM     55  C   UNL     1      -7.260 -10.586  13.250  1.00  0.00     0.031 C 
ATOM     56  C   UNL     1     -11.071  -6.594  17.394  1.00  0.00     0.029 A 
ATOM     57  C   UNL     1     -11.802  -7.613  16.647  1.00  0.00     0.049 A 
ATOM     58  H   UNL     1     -11.017  -9.044  15.353  1.00  0.00     0.167 HD
ATOM     59  C   UNL     1      -9.242 -11.885  12.527  1.00  0.00     0.037 A 
ATOM     60  C   UNL     1     -13.135  -7.801  16.677  1.00  0.00     0.037 A 
ATOM     61  C   UNL     1     -10.646 -12.199  12.542  1.00  0.00     0.049 A 
ATOM     62  C   UNL     1     -13.741  -8.899  15.845  1.00  0.00     0.074 A 
ATOM     63  C   UNL     1     -11.316 -13.202  11.863  1.00  0.00     0.029 A 
ATOM     64  N   UNL     1     -11.598 -11.515  13.284  1.00  0.00    -0.354 N 
ATOM     65  N   UNL     1     -13.151  -9.758  15.050  1.00  0.00    -0.248 NA
ATOM     66  C   UNL     1     -15.201  -9.057  15.918  1.00  0.00     0.031 C 
ATOM     67  C   UNL     1     -12.677 -13.106  12.170  1.00  0.00     0.029 A 
ATOM     68  C   UNL     1     -12.849 -12.070  13.073  1.00  0.00     0.049 A 
ATOM     69  H   UNL     1     -11.411 -10.748  13.873  1.00  0.00     0.167 HD
ATOM     70  C   UNL     1     -14.158 -10.579  14.561  1.00  0.00     0.074 A 
ATOM     71  C   UNL     1     -15.396 -10.122  15.155  1.00  0.00     0.031 C 
ATOM     72  C   UNL     1     -14.066 -11.618  13.696  1.00  0.00     0.037 A 
BRANCH  59  73
ATOM     73  C   UNL     1      -8.339 -12.722  11.668  1.00  0.00     0.064 A 
ATOM     74  C   UNL     1      -7.440 -13.639  12.232  1.00  0.00     0.173 A 
ATOM     75  C   UNL     1      -8.407 -12.644  10.269  1.00  0.00     0.173 A 
ATOM     76  F   UNL     1      -7.330 -13.743  13.565  1.00  0.00    -0.203 F 
ATOM     77  C   UNL     1      -6.627 -14.433  11.428  1.00  0.00     0.198 A 
ATOM     78  C   UNL     1      -7.612 -13.459   9.467  1.00  0.00     0.198 A 
ATOM     79  F   UNL     1      -9.254 -11.787   9.679  1.00  0.00    -0.203 F 
ATOM     80  F   UNL     1      -5.747 -15.273  11.990  1.00  0.00    -0.200 F 
ATOM     81  C   UNL     1      -6.719 -14.348  10.047  1.00  0.00     0.200 A 
ATOM     82  F   UNL     1      -7.711 -13.386   8.133  1.00  0.00    -0.200 F 
ATOM     83  F   UNL     1      -5.944 -15.121   9.274  1.00  0.00    -0.200 F 
ENDBRANCH  59  73
BRANCH  60  84
ATOM     84  C   UNL     1     -13.994  -6.945  17.538  1.00  0.00     0.064 A 
ATOM     85  C   UNL     1     -14.648  -7.481  18.657  1.00  0.00     0.173 A 
ATOM     86  C   UNL     1     -14.207  -5.591  17.245  1.00  0.00     0.173 A 
ATOM     87  F   UNL     1     -14.493  -8.777  18.965  1.00  0.00    -0.203 F 
ATOM     88  C   UNL     1     -15.505  -6.703  19.432  1.00  0.00     0.198 A 
ATOM     89  C   UNL     1     -15.042  -4.806  18.038  1.00  0.00     0.198 A 
ATOM     90  F   UNL     1     -13.603  -5.029  16.188  1.00  0.00    -0.203 F 
ATOM     91  F   UNL     1     -16.161  -7.255  20.462  1.00  0.00    -0.200 F 
ATOM     92  C   UNL     1     -15.698  -5.365  19.124  1.00  0.00     0.200 A 
ATOM     93  F   UNL     1     -15.216  -3.510  17.744  1.00  0.00    -0.200 F 
ATOM     94  F   UNL     1     -16.527  -4.617  19.866  1.00  0.00    -0.200 F 
ENDBRANCH  60  84
BRANCH  72  95
ATOM     95  C   UNL     1     -15.328 -12.367  13.383  1.00  0.00     0.064 A 
ATOM     96  C   UNL     1     -16.328 -11.819  12.569  1.00  0.00     0.173 A 
ATOM     97  C   UNL     1     -15.516 -13.668  13.874  1.00  0.00     0.173 A 
ATOM     98  F   UNL     1     -16.201 -10.573  12.089  1.00  0.00    -0.203 F 
ATOM     99  C   UNL     1     -17.484 -12.538  12.277  1.00  0.00     0.198 A 
ATOM    100  C   UNL     1     -16.660 -14.394  13.557  1.00  0.00     0.198 A 
ATOM    101  F   UNL     1     -14.585 -14.239  14.653  1.00  0.00    -0.203 F 
ATOM    102  F   UNL     1     -18.449 -11.977  11.534  1.00  0.00    -0.200 F 
ATOM    103  C   UNL     1     -17.646 -13.826  12.764  1.00  0.00     0.200 A 
ATOM    104  F   UNL     1     -16.809 -15.644  14.018  1.00  0.00    -0.200 F 
ATOM    105  F   UNL     1     -18.756 -14.519  12.475  1.00  0.00    -0.200 F 
ENDBRANCH  72  95
ENDBRANCH  46  47
ENDBRANCH  38  41
ENDBRANCH  36  37
ENDBRANCH  35  36
ENDBRANCH  34  35
ENDBRANCH  33  34
ENDBRANCH  32  33
ENDBRANCH  31  32
ENDBRANCH   3  31
TORSDOF 22
