REMARK SMILES COc1ccc(OC)c(/C=N/[NH+]=C2/NC(=O)[C@@H](CC(=O)NCCCCCCNC(=O)c3ccc(-c4c5nc(c(-c6c(F)c(F)c(F)c(F)c6F)c6ccc([nH]6)c(-c6c(F)c(F)c(F)c(F)c6F)c6nc(c(-c7c(F)c(F)c(F)c(F)c7F)c7ccc4[nH]7)C=C6)C=C5)cc3)S2)c1
REMARK SMILES IDX 23 1 22 2 21 3 19 4 20 5 18 7 17 8 12 9 13 10 14 12 94 13
REMARK SMILES IDX 15 14 16 16 11 17 10 18 9 19 3 20 4 21 95 22 5 23 6 24 2 25
REMARK SMILES IDX 1 26 7 27 8 28 24 29 25 30 26 31 27 32 28 33 29 34 30 36
REMARK SMILES IDX 31 37 32 38 93 39 33 40 92 41 34 42 35 43 36 44 86 45 37 46
REMARK SMILES IDX 91 47 85 48 87 49 38 50 90 51 84 52 83 53 39 55 71 56 51 57
REMARK SMILES IDX 70 58 52 59 55 60 69 61 88 62 53 63 54 64 68 66 89 67 56 68
REMARK SMILES IDX 40 69 41 70 49 71 42 72 43 73 47 74 50 75 44 76 45 77 48 78
REMARK SMILES IDX 46 79 72 80 73 81 81 82 74 83 75 84 79 85 82 86 76 87 77 88
REMARK SMILES IDX 80 89 78 90 57 91 58 92 66 93 59 94 60 95 64 96 67 97 61 98
REMARK SMILES IDX 62 99 65 100 63 101
REMARK H PARENT 21 6 12 11 14 15 28 35 87 54 55 65
REMARK Flexibility Score: inf
ROOT
ATOM      1  C   UNL     1       7.812  -0.161   5.303  1.00  0.00     0.021 C 
ENDROOT
BRANCH   1   2
ATOM      2  C   UNL     1       8.665  -0.355   4.050  1.00  0.00     0.116 C 
BRANCH   2   3
ATOM      3  N   UNL     1       7.851  -0.230   2.856  1.00  0.00    -0.356 N 
ATOM      4  C   UNL     1       7.878   0.668   1.837  1.00  0.00     0.221 C 
ATOM      5  O   UNL     1       7.031   0.546   0.950  1.00  0.00    -0.275 OA
ATOM      6  H   UNL     1       7.154  -0.920   2.768  1.00  0.00     0.163 HD
BRANCH   4   7
ATOM      7  C   UNL     1       8.918   1.769   1.779  1.00  0.00     0.127 C 
BRANCH   7   8
ATOM      8  C   UNL     1       8.569   3.087   2.471  1.00  0.00     0.183 C 
ATOM      9  N   UNL     1       5.750   2.931   5.036  1.00  0.00    -0.142 N 
ATOM     10  C   UNL     1       6.750   3.188   4.267  1.00  0.00     0.337 C 
ATOM     11  H   UNL     1       5.875   2.693   5.983  1.00  0.00     0.343 HD
ATOM     12  N   UNL     1       8.001   3.149   4.780  1.00  0.00    -0.202 N 
ATOM     13  S   UNL     1       6.795   3.506   2.565  1.00  0.00    -0.020 SA
ATOM     14  C   UNL     1       9.042   3.086   3.910  1.00  0.00     0.322 C 
ATOM     15  H   UNL     1       8.152   3.167   5.753  1.00  0.00     0.316 HD
ATOM     16  O   UNL     1      10.206   2.946   4.268  1.00  0.00    -0.246 OA
BRANCH   9  17
ATOM     17  N   UNL     1       4.487   3.007   4.465  1.00  0.00    -0.093 NA
ATOM     18  C   UNL     1       4.008   1.855   4.118  1.00  0.00     0.170 C 
BRANCH  18  19
ATOM     19  C   UNL     1       2.593   1.729   3.748  1.00  0.00     0.042 A 
ATOM     20  C   UNL     1       0.990   1.325   1.977  1.00  0.00     0.119 A 
ATOM     21  C   UNL     1      -0.028   1.760   2.823  1.00  0.00     0.050 A 
ATOM     22  C   UNL     1       2.309   1.305   2.435  1.00  0.00     0.060 A 
ATOM     23  C   UNL     1       0.256   2.128   4.138  1.00  0.00     0.051 A 
ATOM     24  C   UNL     1       1.565   2.100   4.627  1.00  0.00     0.128 A 
BRANCH  20  25
ATOM     25  O   UNL     1       0.596   1.052   0.696  1.00  0.00    -0.497 OA
ATOM     26  C   UNL     1       1.234  -0.059   0.081  1.00  0.00     0.278 C 
ENDBRANCH  20  25
BRANCH  24  27
ATOM     27  O   UNL     1       1.636   2.487   5.937  1.00  0.00    -0.496 OA
ATOM     28  C   UNL     1       2.723   2.049   6.741  1.00  0.00     0.278 C 
ENDBRANCH  24  27
ENDBRANCH  18  19
ENDBRANCH   9  17
ENDBRANCH   7   8
ENDBRANCH   4   7
ENDBRANCH   2   3
ENDBRANCH   1   2
BRANCH   1  29
ATOM     29  C   UNL     1       6.840  -1.305   5.603  1.00  0.00     0.002 C 
BRANCH  29  30
ATOM     30  C   UNL     1       7.499  -2.585   6.119  1.00  0.00     0.002 C 
BRANCH  30  31
ATOM     31  C   UNL     1       8.380  -2.404   7.357  1.00  0.00     0.021 C 
BRANCH  31  32
ATOM     32  C   UNL     1       7.698  -1.704   8.529  1.00  0.00     0.116 C 
BRANCH  32  33
ATOM     33  N   UNL     1       6.606  -2.496   9.073  1.00  0.00    -0.352 N 
ATOM     34  C   UNL     1       6.482  -3.042  10.325  1.00  0.00     0.251 C 
ATOM     35  H   UNL     1       5.854  -2.663   8.460  1.00  0.00     0.163 HD
ATOM     36  O   UNL     1       5.616  -3.883  10.556  1.00  0.00    -0.269 OA
BRANCH  34  37
ATOM     37  C   UNL     1       7.407  -2.624  11.397  1.00  0.00     0.039 A 
ATOM     38  C   UNL     1       8.015  -3.598  12.191  1.00  0.00     0.014 A 
ATOM     39  C   UNL     1       7.674  -1.268  11.613  1.00  0.00     0.014 A 
ATOM     40  C   UNL     1       8.937  -3.214  13.167  1.00  0.00     0.010 A 
ATOM     41  C   UNL     1       8.649  -0.893  12.534  1.00  0.00     0.010 A 
ATOM     42  C   UNL     1       9.286  -1.862  13.325  1.00  0.00    -0.014 A 
BRANCH  42  43
ATOM     43  C   UNL     1      10.305  -1.441  14.321  1.00  0.00     0.031 A 
ATOM     44  C   UNL     1       9.912  -0.557  15.473  1.00  0.00     0.074 A 
ATOM     45  C   UNL     1      11.589  -1.818  14.165  1.00  0.00     0.049 A 
ATOM     46  N   UNL     1      10.662  -0.031  16.408  1.00  0.00    -0.248 NA
ATOM     47  C   UNL     1       8.488  -0.198  15.576  1.00  0.00     0.031 C 
ATOM     48  C   UNL     1      12.102  -2.647  13.073  1.00  0.00     0.029 A 
ATOM     49  N   UNL     1      12.701  -1.548  14.925  1.00  0.00    -0.354 N 
ATOM     50  C   UNL     1       9.804   0.713  17.208  1.00  0.00     0.074 A 
ATOM     51  C   UNL     1       8.490   0.630  16.610  1.00  0.00     0.031 C 
ATOM     52  C   UNL     1      13.420  -2.838  13.246  1.00  0.00     0.029 A 
ATOM     53  C   UNL     1      13.855  -2.110  14.435  1.00  0.00     0.049 A 
ATOM     54  H   UNL     1      12.674  -1.002  15.744  1.00  0.00     0.167 HD
ATOM     55  C   UNL     1      10.079   1.377  18.356  1.00  0.00     0.037 A 
ATOM     56  C   UNL     1      15.121  -2.037  14.888  1.00  0.00     0.037 A 
ATOM     57  C   UNL     1      11.386   1.453  18.954  1.00  0.00     0.049 A 
ATOM     58  C   UNL     1      15.405  -1.243  16.137  1.00  0.00     0.074 A 
ATOM     59  C   UNL     1      11.766   2.089  20.122  1.00  0.00     0.029 A 
ATOM     60  N   UNL     1      12.530   0.870  18.427  1.00  0.00    -0.354 N 
ATOM     61  N   UNL     1      14.575  -0.590  16.914  1.00  0.00    -0.248 NA
ATOM     62  C   UNL     1      16.807  -1.182  16.577  1.00  0.00     0.031 C 
ATOM     63  C   UNL     1      13.146   1.929  20.280  1.00  0.00     0.029 A 
ATOM     64  C   UNL     1      13.617   1.145  19.240  1.00  0.00     0.049 A 
ATOM     65  H   UNL     1      12.563   0.339  17.598  1.00  0.00     0.167 HD
ATOM     66  C   UNL     1      15.344  -0.079  17.951  1.00  0.00     0.074 A 
ATOM     67  C   UNL     1      16.705  -0.512  17.715  1.00  0.00     0.031 C 
ATOM     68  C   UNL     1      14.961   0.683  19.005  1.00  0.00     0.037 A 
BRANCH  55  69
ATOM     69  C   UNL     1       8.939   2.060  19.055  1.00  0.00     0.064 A 
ATOM     70  C   UNL     1       7.922   1.324  19.683  1.00  0.00     0.173 A 
ATOM     71  C   UNL     1       8.887   3.459  19.147  1.00  0.00     0.173 A 
ATOM     72  F   UNL     1       7.918  -0.016  19.615  1.00  0.00    -0.203 F 
ATOM     73  C   UNL     1       6.883   1.962  20.355  1.00  0.00     0.198 A 
ATOM     74  C   UNL     1       7.864   4.093  19.848  1.00  0.00     0.198 A 
ATOM     75  F   UNL     1       9.836   4.211  18.571  1.00  0.00    -0.203 F 
ATOM     76  F   UNL     1       5.900   1.238  20.907  1.00  0.00    -0.200 F 
ATOM     77  C   UNL     1       6.861   3.346  20.446  1.00  0.00     0.200 A 
ATOM     78  F   UNL     1       7.852   5.430  19.948  1.00  0.00    -0.200 F 
ATOM     79  F   UNL     1       5.868   3.959  21.105  1.00  0.00    -0.200 F 
ENDBRANCH  55  69
BRANCH  56  80
ATOM     80  C   UNL     1      16.224  -2.734  14.172  1.00  0.00     0.064 A 
ATOM     81  C   UNL     1      16.926  -3.786  14.780  1.00  0.00     0.173 A 
ATOM     82  C   UNL     1      16.637  -2.332  12.894  1.00  0.00     0.173 A 
ATOM     83  F   UNL     1      16.583  -4.197  16.010  1.00  0.00    -0.203 F 
ATOM     84  C   UNL     1      18.023  -4.377  14.157  1.00  0.00     0.198 A 
ATOM     85  C   UNL     1      17.712  -2.948  12.256  1.00  0.00     0.198 A 
ATOM     86  F   UNL     1      15.999  -1.335  12.263  1.00  0.00    -0.203 F 
ATOM     87  F   UNL     1      18.720  -5.328  14.793  1.00  0.00    -0.200 F 
ATOM     88  C   UNL     1      18.414  -3.959  12.894  1.00  0.00     0.200 A 
ATOM     89  F   UNL     1      18.076  -2.552  11.029  1.00  0.00    -0.200 F 
ATOM     90  F   UNL     1      19.475  -4.520  12.299  1.00  0.00    -0.200 F 
ENDBRANCH  56  80
BRANCH  68  91
ATOM     91  C   UNL     1      16.013   1.047  20.013  1.00  0.00     0.064 A 
ATOM     92  C   UNL     1      17.042   1.952  19.717  1.00  0.00     0.173 A 
ATOM     93  C   UNL     1      15.967   0.506  21.308  1.00  0.00     0.173 A 
ATOM     94  F   UNL     1      17.139   2.486  18.490  1.00  0.00    -0.203 F 
ATOM     95  C   UNL     1      18.006   2.277  20.668  1.00  0.00     0.198 A 
ATOM     96  C   UNL     1      16.911   0.861  22.267  1.00  0.00     0.198 A 
ATOM     97  F   UNL     1      14.999  -0.358  21.647  1.00  0.00    -0.203 F 
ATOM     98  F   UNL     1      19.013   3.100  20.344  1.00  0.00    -0.200 F 
ATOM     99  C   UNL     1      17.935   1.738  21.944  1.00  0.00     0.200 A 
ATOM    100  F   UNL     1      16.831   0.352  23.504  1.00  0.00    -0.200 F 
ATOM    101  F   UNL     1      18.859   2.058  22.860  1.00  0.00    -0.200 F 
ENDBRANCH  68  91
ENDBRANCH  42  43
ENDBRANCH  34  37
ENDBRANCH  32  33
ENDBRANCH  31  32
ENDBRANCH  30  31
ENDBRANCH  29  30
ENDBRANCH   1  29
TORSDOF 18
