REMARK SMILES CC[C@@H]1CC(=O)N(Cc2ccc(/C=C/C(=O)NCCCCCCNC(=O)c3ccc(-c4c5nc(c(-c6c(F)c(F)c(F)c(F)c6F)c6ccc([nH]6)c(-c6c(F)c(F)c(F)c(F)c6F)c6nc(c(-c7c(F)c(F)c(F)c(F)c7F)c7ccc4[nH]7)C=C6)C=C5)cc3)cc2F)C1
REMARK SMILES IDX 19 1 18 2 17 3 15 4 16 5 14 7 13 8 12 9 9 10 10 11 91 12
REMARK SMILES IDX 11 13 90 14 92 15 8 16 7 17 3 18 4 19 93 20 5 21 6 22 2 23
REMARK SMILES IDX 1 24 20 25 21 26 22 27 23 28 24 29 25 30 26 32 27 33 28 34
REMARK SMILES IDX 89 35 29 36 88 37 30 38 31 39 32 40 82 41 33 42 87 43 81 44
REMARK SMILES IDX 83 45 34 46 86 47 80 48 79 49 35 51 67 52 47 53 66 54 48 55
REMARK SMILES IDX 51 56 65 57 84 58 49 59 50 60 64 62 85 63 52 64 36 65 37 66
REMARK SMILES IDX 45 67 38 68 39 69 43 70 46 71 40 72 41 73 44 74 42 75 68 76
REMARK SMILES IDX 69 77 77 78 70 79 71 80 75 81 78 82 72 83 73 84 76 85 74 86
REMARK SMILES IDX 53 87 54 88 62 89 55 90 56 91 60 92 63 93 57 94 58 95 61 96
REMARK SMILES IDX 59 97
REMARK H PARENT 17 6 24 31 83 50 51 61
REMARK Flexibility Score: inf
ROOT
ATOM      1  C   UNL     1      -3.064  10.068  -6.492  1.00  0.00     0.021 C 
ENDROOT
BRANCH   1   2
ATOM      2  C   UNL     1      -1.544  10.030  -6.324  1.00  0.00     0.116 C 
BRANCH   2   3
ATOM      3  N   UNL     1      -1.061  11.314  -5.850  1.00  0.00    -0.353 N 
ATOM      4  C   UNL     1      -0.495  11.686  -4.672  1.00  0.00     0.243 C 
ATOM      5  O   UNL     1      -0.128  12.849  -4.519  1.00  0.00    -0.270 OA
ATOM      6  H   UNL     1      -1.162  12.048  -6.499  1.00  0.00     0.163 HD
BRANCH   4   7
ATOM      7  C   UNL     1      -0.214  10.694  -3.609  1.00  0.00     0.072 C 
ATOM      8  C   UNL     1      -1.078   9.756  -3.196  1.00  0.00     0.014 C 
BRANCH   8   9
ATOM      9  C   UNL     1      -0.789   8.731  -2.185  1.00  0.00    -0.023 A 
ATOM     10  C   UNL     1      -0.408   6.699  -0.247  1.00  0.00     0.007 A 
ATOM     11  C   UNL     1       0.245   7.933  -0.128  1.00  0.00     0.009 A 
ATOM     12  C   UNL     1      -1.247   6.508  -1.346  1.00  0.00     0.128 A 
ATOM     13  C   UNL     1       0.046   8.943  -1.081  1.00  0.00     0.008 A 
ATOM     14  C   UNL     1      -1.428   7.495  -2.310  1.00  0.00     0.047 A 
ATOM     15  F   UNL     1      -1.919   5.357  -1.492  1.00  0.00    -0.207 F 
BRANCH  10  16
ATOM     16  C   UNL     1      -0.242   5.621   0.794  1.00  0.00     0.158 C 
BRANCH  16  17
ATOM     17  N   UNL     1       0.570   4.499   0.356  1.00  0.00    -0.338 N 
ATOM     18  C   UNL     1       1.063   2.382  -0.520  1.00  0.00     0.017 C 
ATOM     19  C   UNL     1       2.338   2.992   0.081  1.00  0.00     0.105 C 
ATOM     20  C   UNL     1       0.155   3.595  -0.685  1.00  0.00     0.124 C 
ATOM     21  C   UNL     1       1.836   4.208   0.832  1.00  0.00     0.223 C 
ATOM     22  O   UNL     1       2.463   4.830   1.669  1.00  0.00    -0.275 OA
BRANCH  18  23
ATOM     23  C   UNL     1       0.427   1.324   0.401  1.00  0.00     0.002 C 
ATOM     24  C   UNL     1       1.013  -0.060   0.156  1.00  0.00     0.004 C 
ENDBRANCH  18  23
ENDBRANCH  16  17
ENDBRANCH  10  16
ENDBRANCH   8   9
ENDBRANCH   4   7
ENDBRANCH   2   3
ENDBRANCH   1   2
BRANCH   1  25
ATOM     25  C   UNL     1      -3.515  10.809  -7.759  1.00  0.00     0.002 C 
BRANCH  25  26
ATOM     26  C   UNL     1      -3.014  10.195  -9.072  1.00  0.00     0.002 C 
BRANCH  26  27
ATOM     27  C   UNL     1      -3.354   8.715  -9.258  1.00  0.00     0.021 C 
BRANCH  27  28
ATOM     28  C   UNL     1      -4.850   8.421  -9.275  1.00  0.00     0.116 C 
BRANCH  28  29
ATOM     29  N   UNL     1      -5.505   9.055 -10.409  1.00  0.00    -0.352 N 
ATOM     30  C   UNL     1      -6.228   8.482 -11.424  1.00  0.00     0.251 C 
ATOM     31  H   UNL     1      -5.418  10.034 -10.454  1.00  0.00     0.163 HD
ATOM     32  O   UNL     1      -6.496   9.124 -12.434  1.00  0.00    -0.269 OA
BRANCH  30  33
ATOM     33  C   UNL     1      -6.679   7.082 -11.297  1.00  0.00     0.039 A 
ATOM     34  C   UNL     1      -6.573   6.232 -12.400  1.00  0.00     0.014 A 
ATOM     35  C   UNL     1      -7.222   6.616 -10.096  1.00  0.00     0.014 A 
ATOM     36  C   UNL     1      -6.968   4.899 -12.283  1.00  0.00     0.010 A 
ATOM     37  C   UNL     1      -7.538   5.269  -9.957  1.00  0.00     0.010 A 
ATOM     38  C   UNL     1      -7.426   4.400 -11.052  1.00  0.00    -0.014 A 
BRANCH  38  39
ATOM     39  C   UNL     1      -7.807   2.975 -10.894  1.00  0.00     0.031 A 
ATOM     40  C   UNL     1      -9.225   2.608 -10.557  1.00  0.00     0.074 A 
ATOM     41  C   UNL     1      -6.866   2.018 -11.004  1.00  0.00     0.049 A 
ATOM     42  N   UNL     1      -9.739   1.428 -10.319  1.00  0.00    -0.248 NA
ATOM     43  C   UNL     1     -10.191   3.714 -10.449  1.00  0.00     0.031 C 
ATOM     44  C   UNL     1      -5.452   2.256 -11.292  1.00  0.00     0.029 A 
ATOM     45  N   UNL     1      -6.956   0.653 -10.884  1.00  0.00    -0.354 N 
ATOM     46  C   UNL     1     -11.078   1.652 -10.028  1.00  0.00     0.074 A 
ATOM     47  C   UNL     1     -11.287   3.082 -10.057  1.00  0.00     0.031 C 
ATOM     48  C   UNL     1      -4.813   1.077 -11.360  1.00  0.00     0.029 A 
ATOM     49  C   UNL     1      -5.761   0.004 -11.075  1.00  0.00     0.049 A 
ATOM     50  H   UNL     1      -7.797   0.185 -10.680  1.00  0.00     0.167 HD
ATOM     51  C   UNL     1     -12.051   0.742  -9.788  1.00  0.00     0.037 A 
ATOM     52  C   UNL     1      -5.462  -1.308 -11.020  1.00  0.00     0.037 A 
ATOM     53  C   UNL     1     -11.840  -0.682  -9.786  1.00  0.00     0.049 A 
ATOM     54  C   UNL     1      -6.556  -2.298 -10.725  1.00  0.00     0.074 A 
ATOM     55  C   UNL     1     -12.771  -1.688  -9.601  1.00  0.00     0.029 A 
ATOM     56  N   UNL     1     -10.614  -1.301  -9.979  1.00  0.00    -0.354 N 
ATOM     57  N   UNL     1      -7.829  -2.079 -10.502  1.00  0.00    -0.248 NA
ATOM     58  C   UNL     1      -6.175  -3.717 -10.678  1.00  0.00     0.031 C 
ATOM     59  C   UNL     1     -12.100  -2.913  -9.622  1.00  0.00     0.029 A 
ATOM     60  C   UNL     1     -10.761  -2.676  -9.890  1.00  0.00     0.049 A 
ATOM     61  H   UNL     1      -9.765  -0.833 -10.153  1.00  0.00     0.167 HD
ATOM     62  C   UNL     1      -8.406  -3.328 -10.318  1.00  0.00     0.074 A 
ATOM     63  C   UNL     1      -7.346  -4.303 -10.466  1.00  0.00     0.031 C 
ATOM     64  C   UNL     1      -9.699  -3.636 -10.052  1.00  0.00     0.037 A 
BRANCH  51  65
ATOM     65  C   UNL     1     -13.439   1.248  -9.521  1.00  0.00     0.064 A 
ATOM     66  C   UNL     1     -14.033   1.070  -8.262  1.00  0.00     0.173 A 
ATOM     67  C   UNL     1     -14.212   1.838 -10.533  1.00  0.00     0.173 A 
ATOM     68  F   UNL     1     -13.340   0.506  -7.261  1.00  0.00    -0.203 F 
ATOM     69  C   UNL     1     -15.353   1.447  -8.032  1.00  0.00     0.198 A 
ATOM     70  C   UNL     1     -15.521   2.245 -10.290  1.00  0.00     0.198 A 
ATOM     71  F   UNL     1     -13.689   2.042 -11.751  1.00  0.00    -0.203 F 
ATOM     72  F   UNL     1     -15.911   1.230  -6.833  1.00  0.00    -0.200 F 
ATOM     73  C   UNL     1     -16.095   2.038  -9.044  1.00  0.00     0.200 A 
ATOM     74  F   UNL     1     -16.227   2.840 -11.261  1.00  0.00    -0.200 F 
ATOM     75  F   UNL     1     -17.362   2.409  -8.818  1.00  0.00    -0.200 F 
ENDBRANCH  51  65
BRANCH  52  76
ATOM     76  C   UNL     1      -4.069  -1.755 -11.287  1.00  0.00     0.064 A 
ATOM     77  C   UNL     1      -3.021  -1.454 -10.405  1.00  0.00     0.173 A 
ATOM     78  C   UNL     1      -3.754  -2.465 -12.454  1.00  0.00     0.173 A 
ATOM     79  F   UNL     1      -3.268  -0.771  -9.277  1.00  0.00    -0.203 F 
ATOM     80  C   UNL     1      -1.709  -1.826 -10.690  1.00  0.00     0.198 A 
ATOM     81  C   UNL     1      -2.446  -2.863 -12.724  1.00  0.00     0.198 A 
ATOM     82  F   UNL     1      -4.723  -2.793 -13.320  1.00  0.00    -0.203 F 
ATOM     83  F   UNL     1      -0.722  -1.489  -9.849  1.00  0.00    -0.200 F 
ATOM     84  C   UNL     1      -1.423  -2.534 -11.847  1.00  0.00     0.200 A 
ATOM     85  F   UNL     1      -2.178  -3.569 -13.831  1.00  0.00    -0.200 F 
ATOM     86  F   UNL     1      -0.163  -2.902 -12.116  1.00  0.00    -0.200 F 
ENDBRANCH  52  76
BRANCH  64  87
ATOM     87  C   UNL     1     -10.064  -5.088  -9.931  1.00  0.00     0.064 A 
ATOM     88  C   UNL     1     -10.893  -5.690 -10.891  1.00  0.00     0.173 A 
ATOM     89  C   UNL     1      -9.679  -5.854  -8.822  1.00  0.00     0.173 A 
ATOM     90  F   UNL     1     -11.298  -4.997 -11.966  1.00  0.00    -0.203 F 
ATOM     91  C   UNL     1     -11.342  -6.998 -10.732  1.00  0.00     0.198 A 
ATOM     92  C   UNL     1     -10.103  -7.174  -8.684  1.00  0.00     0.198 A 
ATOM     93  F   UNL     1      -8.878  -5.329  -7.883  1.00  0.00    -0.203 F 
ATOM     94  F   UNL     1     -12.171  -7.535 -11.638  1.00  0.00    -0.200 F 
ATOM     95  C   UNL     1     -10.944  -7.739  -9.631  1.00  0.00     0.200 A 
ATOM     96  F   UNL     1      -9.697  -7.898  -7.632  1.00  0.00    -0.200 F 
ATOM     97  F   UNL     1     -11.371  -9.001  -9.482  1.00  0.00    -0.200 F 
ENDBRANCH  64  87
ENDBRANCH  38  39
ENDBRANCH  30  33
ENDBRANCH  28  29
ENDBRANCH  27  28
ENDBRANCH  26  27
ENDBRANCH  25  26
ENDBRANCH   1  25
TORSDOF 17
