REMARK SMILES C#CC[N@@H+](CC(=O)NCCCCCCNC(=O)c1ccc(-c2c3nc(c(-c4c(F)c(F)c(F)c(F)c4F)c4ccc([nH]4)c(-c4c(F)c(F)c(F)c(F)c4F)c4nc(c(-c5c(F)c(F)c(F)c(F)c5F)c5ccc2[nH]5)C=C4)C=C3)cc1)[C@H]1CC[C@@H](c2ccccc2)CC1
REMARK SMILES IDX 11 1 10 2 9 3 8 4 6 5 7 6 5 8 4 9 3 11 2 12 1 13 81 14 92 15
REMARK SMILES IDX 82 16 91 17 83 18 84 19 85 20 86 21 90 22 87 23 89 24 88 25
REMARK SMILES IDX 12 26 13 27 14 28 15 29 16 30 17 32 18 33 19 34 80 35 20 36
REMARK SMILES IDX 79 37 21 38 22 39 23 40 73 41 24 42 78 43 72 44 74 45 25 46
REMARK SMILES IDX 77 47 71 48 70 49 26 51 58 52 38 53 57 54 39 55 42 56 56 57
REMARK SMILES IDX 75 58 40 59 41 60 55 62 76 63 43 64 27 65 28 66 36 67 29 68
REMARK SMILES IDX 30 69 34 70 37 71 31 72 32 73 35 74 33 75 59 76 60 77 68 78
REMARK SMILES IDX 61 79 62 80 66 81 69 82 63 83 64 84 67 85 65 86 44 87 45 88
REMARK SMILES IDX 53 89 46 90 47 91 51 92 54 93 48 94 49 95 52 96 50 97
REMARK H PARENT 8 7 4 10 15 31 74 50 42 61
REMARK Flexibility Score: inf
ROOT
ATOM      1  C   UNL     1      -3.439   1.946   4.023  1.00  0.00     0.002 C 
ENDROOT
BRANCH   1   2
ATOM      2  C   UNL     1      -3.082   1.219   2.730  1.00  0.00     0.021 C 
BRANCH   2   3
ATOM      3  C   UNL     1      -4.199   0.392   2.074  1.00  0.00     0.116 C 
BRANCH   3   4
ATOM      4  N   UNL     1      -4.878   1.135   1.027  1.00  0.00    -0.351 N 
ATOM      5  C   UNL     1      -4.887   1.056  -0.333  1.00  0.00     0.275 C 
ATOM      6  O   UNL     1      -5.748   1.755  -0.886  1.00  0.00    -0.269 OA
ATOM      7  H   UNL     1      -5.457   1.851   1.375  1.00  0.00     0.163 HD
BRANCH   5   8
ATOM      8  C   UNL     1      -3.983   0.140  -1.191  1.00  0.00     0.364 C 
BRANCH   8   9
ATOM      9  N   UNL     1      -2.525   0.446  -1.279  1.00  0.00    -0.315 N 
ATOM     10  H   UNL     1      -2.099  -0.090  -2.034  1.00  0.00     0.349 HD
BRANCH   9  11
ATOM     11  C   UNL     1      -1.855  -0.049  -0.082  1.00  0.00     0.354 C 
BRANCH  11  12
ATOM     12  C   UNL     1      -0.335  -0.049  -0.082  1.00  0.00    -0.047 C 
ATOM     13  C   UNL     1       0.969  -0.049  -0.082  1.00  0.00     0.010 C 
ENDBRANCH  11  12
ENDBRANCH   9  11
BRANCH   9  14
ATOM     14  C   UNL     1      -2.127   1.742  -1.926  1.00  0.00     0.185 C 
ATOM     15  C   UNL     1      -3.064   2.941  -1.673  1.00  0.00     0.066 C 
ATOM     16  C   UNL     1      -0.645   2.163  -1.746  1.00  0.00     0.066 C 
ATOM     17  C   UNL     1      -2.553   4.308  -2.148  1.00  0.00     0.014 C 
ATOM     18  C   UNL     1      -0.248   3.547  -2.249  1.00  0.00     0.014 C 
ATOM     19  C   UNL     1      -1.143   4.631  -1.624  1.00  0.00     0.019 C 
BRANCH  19  20
ATOM     20  C   UNL     1      -1.021   4.771  -0.098  1.00  0.00    -0.045 A 
ATOM     21  C   UNL     1      -2.136   5.034   0.719  1.00  0.00     0.004 A 
ATOM     22  C   UNL     1       0.226   4.666   0.544  1.00  0.00     0.004 A 
ATOM     23  C   UNL     1      -2.027   5.101   2.111  1.00  0.00     0.000 A 
ATOM     24  C   UNL     1       0.339   4.739   1.939  1.00  0.00     0.000 A 
ATOM     25  C   UNL     1      -0.790   4.944   2.724  1.00  0.00     0.000 A 
ENDBRANCH  19  20
ENDBRANCH   9  14
ENDBRANCH   8   9
ENDBRANCH   5   8
ENDBRANCH   3   4
ENDBRANCH   2   3
ENDBRANCH   1   2
BRANCH   1  26
ATOM     26  C   UNL     1      -3.696   1.049   5.235  1.00  0.00     0.002 C 
BRANCH  26  27
ATOM     27  C   UNL     1      -2.611   0.016   5.557  1.00  0.00     0.021 C 
BRANCH  27  28
ATOM     28  C   UNL     1      -1.182   0.553   5.651  1.00  0.00     0.116 C 
BRANCH  28  29
ATOM     29  N   UNL     1      -1.042   1.589   6.659  1.00  0.00    -0.352 N 
ATOM     30  C   UNL     1      -0.417   1.559   7.880  1.00  0.00     0.251 C 
ATOM     31  H   UNL     1      -1.461   2.450   6.429  1.00  0.00     0.163 HD
ATOM     32  O   UNL     1      -0.573   2.480   8.675  1.00  0.00    -0.269 OA
BRANCH  30  33
ATOM     33  C   UNL     1       0.433   0.410   8.255  1.00  0.00     0.039 A 
ATOM     34  C   UNL     1       0.269  -0.163   9.519  1.00  0.00     0.014 A 
ATOM     35  C   UNL     1       1.411  -0.078   7.385  1.00  0.00     0.014 A 
ATOM     36  C   UNL     1       1.044  -1.265   9.888  1.00  0.00     0.010 A 
ATOM     37  C   UNL     1       2.141  -1.214   7.728  1.00  0.00     0.010 A 
ATOM     38  C   UNL     1       1.965  -1.818   8.983  1.00  0.00    -0.014 A 
BRANCH  38  39
ATOM     39  C   UNL     1       2.746  -3.030   9.335  1.00  0.00     0.031 A 
ATOM     40  C   UNL     1       4.238  -2.953   9.495  1.00  0.00     0.074 A 
ATOM     41  C   UNL     1       2.114  -4.214   9.454  1.00  0.00     0.049 A 
ATOM     42  N   UNL     1       5.094  -3.911   9.751  1.00  0.00    -0.248 NA
ATOM     43  C   UNL     1       4.854  -1.629   9.318  1.00  0.00     0.031 C 
ATOM     44  C   UNL     1       0.678  -4.426   9.272  1.00  0.00     0.029 A 
ATOM     45  N   UNL     1       2.600  -5.463   9.746  1.00  0.00    -0.354 N 
ATOM     46  C   UNL     1       6.345  -3.309   9.754  1.00  0.00     0.074 A 
ATOM     47  C   UNL     1       6.144  -1.914   9.426  1.00  0.00     0.031 C 
ATOM     48  C   UNL     1       0.396  -5.722   9.476  1.00  0.00     0.029 A 
ATOM     49  C   UNL     1       1.633  -6.437   9.774  1.00  0.00     0.049 A 
ATOM     50  H   UNL     1       3.552  -5.644   9.920  1.00  0.00     0.167 HD
ATOM     51  C   UNL     1       7.550  -3.865  10.027  1.00  0.00     0.037 A 
ATOM     52  C   UNL     1       1.734  -7.759  10.010  1.00  0.00     0.037 A 
ATOM     53  C   UNL     1       7.744  -5.247  10.379  1.00  0.00     0.049 A 
ATOM     54  C   UNL     1       3.082  -8.349  10.320  1.00  0.00     0.074 A 
ATOM     55  C   UNL     1       8.916  -5.892  10.736  1.00  0.00     0.029 A 
ATOM     56  N   UNL     1       6.737  -6.200  10.417  1.00  0.00    -0.354 N 
ATOM     57  N   UNL     1       4.248  -7.756  10.389  1.00  0.00    -0.248 NA
ATOM     58  C   UNL     1       3.125  -9.793  10.593  1.00  0.00     0.031 C 
ATOM     59  C   UNL     1       8.624  -7.243  10.953  1.00  0.00     0.029 A 
ATOM     60  C   UNL     1       7.263  -7.432  10.773  1.00  0.00     0.049 A 
ATOM     61  H   UNL     1       5.788  -6.027  10.220  1.00  0.00     0.167 HD
ATOM     62  C   UNL     1       5.159  -8.745  10.733  1.00  0.00     0.074 A 
ATOM     63  C   UNL     1       4.407  -9.974  10.878  1.00  0.00     0.031 C 
ATOM     64  C   UNL     1       6.499  -8.645  10.912  1.00  0.00     0.037 A 
BRANCH  51  65
ATOM     65  C   UNL     1       8.755  -2.973   9.962  1.00  0.00     0.064 A 
ATOM     66  C   UNL     1       8.986  -1.979  10.926  1.00  0.00     0.173 A 
ATOM     67  C   UNL     1       9.709  -3.135   8.946  1.00  0.00     0.173 A 
ATOM     68  F   UNL     1       8.098  -1.776  11.911  1.00  0.00    -0.203 F 
ATOM     69  C   UNL     1      10.112  -1.163  10.858  1.00  0.00     0.198 A 
ATOM     70  C   UNL     1      10.848  -2.335   8.898  1.00  0.00     0.198 A 
ATOM     71  F   UNL     1       9.540  -4.074   8.003  1.00  0.00    -0.203 F 
ATOM     72  F   UNL     1      10.286  -0.190  11.763  1.00  0.00    -0.200 F 
ATOM     73  C   UNL     1      11.045  -1.345   9.849  1.00  0.00     0.200 A 
ATOM     74  F   UNL     1      11.755  -2.520   7.928  1.00  0.00    -0.200 F 
ATOM     75  F   UNL     1      12.131  -0.562   9.789  1.00  0.00    -0.200 F 
ENDBRANCH  51  65
BRANCH  52  76
ATOM     76  C   UNL     1       0.515  -8.609   9.995  1.00  0.00     0.064 A 
ATOM     77  C   UNL     1      -0.001  -9.144  11.183  1.00  0.00     0.173 A 
ATOM     78  C   UNL     1      -0.156  -8.902   8.799  1.00  0.00     0.173 A 
ATOM     79  F   UNL     1       0.619  -8.908  12.348  1.00  0.00    -0.203 F 
ATOM     80  C   UNL     1      -1.134  -9.955  11.174  1.00  0.00     0.198 A 
ATOM     81  C   UNL     1      -1.304  -9.692   8.795  1.00  0.00     0.198 A 
ATOM     82  F   UNL     1       0.296  -8.409   7.637  1.00  0.00    -0.203 F 
ATOM     83  F   UNL     1      -1.583 -10.487  12.319  1.00  0.00    -0.200 F 
ATOM     84  C   UNL     1      -1.788 -10.223   9.981  1.00  0.00     0.200 A 
ATOM     85  F   UNL     1      -1.940  -9.938   7.642  1.00  0.00    -0.200 F 
ATOM     86  F   UNL     1      -2.880 -10.999   9.973  1.00  0.00    -0.200 F 
ENDBRANCH  52  76
BRANCH  64  87
ATOM     87  C   UNL     1       7.231  -9.893  11.306  1.00  0.00     0.064 A 
ATOM     88  C   UNL     1       7.453 -10.932  10.391  1.00  0.00     0.173 A 
ATOM     89  C   UNL     1       7.743 -10.038  12.604  1.00  0.00     0.173 A 
ATOM     90  F   UNL     1       6.970 -10.847   9.143  1.00  0.00    -0.203 F 
ATOM     91  C   UNL     1       8.139 -12.084  10.769  1.00  0.00     0.198 A 
ATOM     92  C   UNL     1       8.451 -11.179  12.971  1.00  0.00     0.198 A 
ATOM     93  F   UNL     1       7.561  -9.070  13.515  1.00  0.00    -0.203 F 
ATOM     94  F   UNL     1       8.299 -13.084   9.893  1.00  0.00    -0.200 F 
ATOM     95  C   UNL     1       8.643 -12.203  12.056  1.00  0.00     0.200 A 
ATOM     96  F   UNL     1       8.947 -11.288  14.212  1.00  0.00    -0.200 F 
ATOM     97  F   UNL     1       9.305 -13.310  12.417  1.00  0.00    -0.200 F 
ENDBRANCH  64  87
ENDBRANCH  38  39
ENDBRANCH  30  33
ENDBRANCH  28  29
ENDBRANCH  27  28
ENDBRANCH  26  27
ENDBRANCH   1  26
TORSDOF 18
