REMARK SMILES CCOc1ccc(C2=C[C@@H](C(=O)NCCCCCCNC(=O)c3ccc(-c4c5nc(c(-c6c(F)c(F)c(F)c(F)c6F)c6ccc([nH]6)c(-c6c(F)c(F)c(F)c(F)c6F)c6nc(c(-c7c(F)c(F)c(F)c(F)c7F)c7ccc4[nH]7)C=C6)C=C5)cc3)N=N2)cc1
REMARK SMILES IDX 16 1 15 2 14 3 13 4 11 5 12 6 10 8 8 9 9 10 87 11 86 12 7 13
REMARK SMILES IDX 4 14 5 15 89 16 6 17 88 18 3 19 2 20 1 21 17 22 18 23 19 24
REMARK SMILES IDX 20 25 21 26 22 28 23 29 24 30 85 31 25 32 84 33 26 34 27 35
REMARK SMILES IDX 28 36 78 37 29 38 83 39 77 40 79 41 30 42 82 43 76 44 75 45
REMARK SMILES IDX 31 47 63 48 43 49 62 50 44 51 47 52 61 53 80 54 45 55 46 56
REMARK SMILES IDX 60 58 81 59 48 60 32 61 33 62 41 63 34 64 35 65 39 66 42 67
REMARK SMILES IDX 36 68 37 69 40 70 38 71 64 72 65 73 73 74 66 75 67 76 71 77
REMARK SMILES IDX 74 78 68 79 69 80 72 81 70 82 49 83 50 84 58 85 51 86 52 87
REMARK SMILES IDX 56 88 59 89 53 90 54 91 57 92 55 93
REMARK H PARENT 13 7 20 27 79 46 47 57
REMARK Flexibility Score: inf
ROOT
ATOM      1  C   UNL     1      11.831  -1.475   6.520  1.00  0.00     0.002 C 
ENDROOT
BRANCH   1   2
ATOM      2  C   UNL     1      11.263  -0.907   5.214  1.00  0.00     0.021 C 
BRANCH   2   3
ATOM      3  C   UNL     1      11.174  -1.911   4.065  1.00  0.00     0.116 C 
BRANCH   3   4
ATOM      4  N   UNL     1      10.277  -3.005   4.385  1.00  0.00    -0.354 N 
ATOM      5  C   UNL     1       9.110  -3.403   3.797  1.00  0.00     0.250 C 
ATOM      6  O   UNL     1       8.506  -4.338   4.330  1.00  0.00    -0.272 OA
ATOM      7  H   UNL     1      10.556  -3.552   5.154  1.00  0.00     0.163 HD
BRANCH   5   8
ATOM      8  C   UNL     1       8.599  -2.688   2.542  1.00  0.00     0.242 C 
ATOM      9  C   UNL     1       6.502  -2.842   1.784  1.00  0.00     0.091 C 
ATOM     10  C   UNL     1       7.215  -2.191   2.705  1.00  0.00     0.042 C 
ATOM     11  N   UNL     1       7.255  -3.733   1.063  1.00  0.00    -0.155 NA
ATOM     12  N   UNL     1       8.457  -3.698   1.455  1.00  0.00    -0.171 NA
BRANCH   9  13
ATOM     13  C   UNL     1       5.078  -2.622   1.543  1.00  0.00     0.002 A 
ATOM     14  C   UNL     1       2.350  -2.147   1.121  1.00  0.00     0.119 A 
ATOM     15  C   UNL     1       2.819  -3.455   1.228  1.00  0.00     0.047 A 
ATOM     16  C   UNL     1       3.230  -1.077   1.250  1.00  0.00     0.047 A 
ATOM     17  C   UNL     1       4.184  -3.694   1.426  1.00  0.00     0.014 A 
ATOM     18  C   UNL     1       4.588  -1.313   1.439  1.00  0.00     0.014 A 
BRANCH  14  19
ATOM     19  O   UNL     1       1.003  -1.941   1.016  1.00  0.00    -0.494 OA
BRANCH  19  20
ATOM     20  C   UNL     1       0.609  -1.393  -0.248  1.00  0.00     0.226 C 
ATOM     21  C   UNL     1       0.634   0.128  -0.253  1.00  0.00     0.049 C 
ENDBRANCH  19  20
ENDBRANCH  14  19
ENDBRANCH   9  13
ENDBRANCH   5   8
ENDBRANCH   3   4
ENDBRANCH   2   3
ENDBRANCH   1   2
BRANCH   1  22
ATOM     22  C   UNL     1      13.185  -2.190   6.410  1.00  0.00     0.002 C 
BRANCH  22  23
ATOM     23  C   UNL     1      14.321  -1.401   5.745  1.00  0.00     0.021 C 
BRANCH  23  24
ATOM     24  C   UNL     1      14.724  -0.137   6.490  1.00  0.00     0.116 C 
BRANCH  24  25
ATOM     25  N   UNL     1      15.339  -0.422   7.783  1.00  0.00    -0.352 N 
ATOM     26  C   UNL     1      15.749   0.477   8.742  1.00  0.00     0.251 C 
ATOM     27  H   UNL     1      15.478  -1.373   7.996  1.00  0.00     0.163 HD
ATOM     28  O   UNL     1      16.583   0.162   9.590  1.00  0.00    -0.269 OA
BRANCH  26  29
ATOM     29  C   UNL     1      15.179   1.833   8.739  1.00  0.00     0.039 A 
ATOM     30  C   UNL     1      15.990   2.950   8.952  1.00  0.00     0.014 A 
ATOM     31  C   UNL     1      13.816   1.977   8.488  1.00  0.00     0.014 A 
ATOM     32  C   UNL     1      15.433   4.218   8.818  1.00  0.00     0.010 A 
ATOM     33  C   UNL     1      13.297   3.224   8.228  1.00  0.00     0.010 A 
ATOM     34  C   UNL     1      14.090   4.350   8.424  1.00  0.00    -0.014 A 
BRANCH  34  35
ATOM     35  C   UNL     1      13.567   5.664   8.051  1.00  0.00     0.031 A 
ATOM     36  C   UNL     1      14.381   6.354   7.013  1.00  0.00     0.074 A 
ATOM     37  C   UNL     1      12.354   6.127   8.428  1.00  0.00     0.049 A 
ATOM     38  N   UNL     1      15.068   7.438   7.148  1.00  0.00    -0.248 NA
ATOM     39  C   UNL     1      14.571   5.693   5.710  1.00  0.00     0.031 C 
ATOM     40  C   UNL     1      11.321   5.394   9.169  1.00  0.00     0.029 A 
ATOM     41  N   UNL     1      11.729   7.309   8.135  1.00  0.00    -0.354 N 
ATOM     42  C   UNL     1      15.575   7.726   5.882  1.00  0.00     0.074 A 
ATOM     43  C   UNL     1      15.417   6.530   5.103  1.00  0.00     0.031 C 
ATOM     44  C   UNL     1      10.136   6.030   9.050  1.00  0.00     0.029 A 
ATOM     45  C   UNL     1      10.360   7.303   8.392  1.00  0.00     0.049 A 
ATOM     46  H   UNL     1      12.204   8.092   7.776  1.00  0.00     0.167 HD
ATOM     47  C   UNL     1      15.759   9.024   5.511  1.00  0.00     0.037 A 
ATOM     48  C   UNL     1       9.460   8.269   8.090  1.00  0.00     0.037 A 
ATOM     49  C   UNL     1      15.714   9.885   6.666  1.00  0.00     0.049 A 
ATOM     50  C   UNL     1      10.199   9.538   7.922  1.00  0.00     0.074 A 
ATOM     51  C   UNL     1      16.543  10.225   7.711  1.00  0.00     0.029 A 
ATOM     52  N   UNL     1      14.443  10.242   7.021  1.00  0.00    -0.354 N 
ATOM     53  N   UNL     1      10.801  10.153   8.902  1.00  0.00    -0.248 NA
ATOM     54  C   UNL     1      10.564   9.986   6.582  1.00  0.00     0.031 C 
ATOM     55  C   UNL     1      15.695  10.701   8.758  1.00  0.00     0.029 A 
ATOM     56  C   UNL     1      14.377  10.679   8.313  1.00  0.00     0.049 A 
ATOM     57  H   UNL     1      13.667  10.190   6.417  1.00  0.00     0.167 HD
ATOM     58  C   UNL     1      11.907  10.721   8.309  1.00  0.00     0.074 A 
ATOM     59  C   UNL     1      11.612  10.756   6.883  1.00  0.00     0.031 C 
ATOM     60  C   UNL     1      13.096  10.775   8.973  1.00  0.00     0.037 A 
BRANCH  47  61
ATOM     61  C   UNL     1      15.428   9.595   4.139  1.00  0.00     0.064 A 
ATOM     62  C   UNL     1      15.662  10.971   3.909  1.00  0.00     0.173 A 
ATOM     63  C   UNL     1      14.592   8.965   3.191  1.00  0.00     0.173 A 
ATOM     64  F   UNL     1      16.434  11.682   4.745  1.00  0.00    -0.203 F 
ATOM     65  C   UNL     1      15.031  11.671   2.875  1.00  0.00     0.198 A 
ATOM     66  C   UNL     1      14.003   9.658   2.133  1.00  0.00     0.198 A 
ATOM     67  F   UNL     1      14.215   7.688   3.303  1.00  0.00    -0.203 F 
ATOM     68  F   UNL     1      15.183  12.999   2.780  1.00  0.00    -0.200 F 
ATOM     69  C   UNL     1      14.194  11.016   1.994  1.00  0.00     0.200 A 
ATOM     70  F   UNL     1      13.175   9.008   1.302  1.00  0.00    -0.200 F 
ATOM     71  F   UNL     1      13.535  11.692   1.044  1.00  0.00    -0.200 F 
ENDBRANCH  47  61
BRANCH  48  72
ATOM     72  C   UNL     1       8.021   8.150   7.761  1.00  0.00     0.064 A 
ATOM     73  C   UNL     1       7.164   9.261   7.837  1.00  0.00     0.173 A 
ATOM     74  C   UNL     1       7.525   7.020   7.085  1.00  0.00     0.173 A 
ATOM     75  F   UNL     1       7.572  10.388   8.437  1.00  0.00    -0.203 F 
ATOM     76  C   UNL     1       5.904   9.258   7.230  1.00  0.00     0.198 A 
ATOM     77  C   UNL     1       6.265   7.016   6.484  1.00  0.00     0.198 A 
ATOM     78  F   UNL     1       8.294   5.935   6.908  1.00  0.00    -0.203 F 
ATOM     79  F   UNL     1       5.146  10.363   7.259  1.00  0.00    -0.200 F 
ATOM     80  C   UNL     1       5.463   8.141   6.540  1.00  0.00     0.200 A 
ATOM     81  F   UNL     1       5.863   5.942   5.790  1.00  0.00    -0.200 F 
ATOM     82  F   UNL     1       4.289   8.164   5.894  1.00  0.00    -0.200 F 
ENDBRANCH  48  72
BRANCH  60  83
ATOM     83  C   UNL     1      13.055  10.774  10.466  1.00  0.00     0.064 A 
ATOM     84  C   UNL     1      12.625   9.697  11.256  1.00  0.00     0.173 A 
ATOM     85  C   UNL     1      13.535  11.914  11.125  1.00  0.00     0.173 A 
ATOM     86  F   UNL     1      12.221   8.548  10.697  1.00  0.00    -0.203 F 
ATOM     87  C   UNL     1      12.641   9.779  12.648  1.00  0.00     0.198 A 
ATOM     88  C   UNL     1      13.584  11.979  12.512  1.00  0.00     0.198 A 
ATOM     89  F   UNL     1      13.989  12.959  10.415  1.00  0.00    -0.203 F 
ATOM     90  F   UNL     1      12.204   8.748  13.386  1.00  0.00    -0.200 F 
ATOM     91  C   UNL     1      13.126  10.917  13.273  1.00  0.00     0.200 A 
ATOM     92  F   UNL     1      14.090  13.067  13.108  1.00  0.00    -0.200 F 
ATOM     93  F   UNL     1      13.169  10.984  14.611  1.00  0.00    -0.200 F 
ENDBRANCH  60  83
ENDBRANCH  34  35
ENDBRANCH  26  29
ENDBRANCH  24  25
ENDBRANCH  23  24
ENDBRANCH  22  23
ENDBRANCH   1  22
TORSDOF 16
