REMARK SMILES C[C@H](C(=O)NCCCCCCNC(=O)c1ccc(-c2c3nc(c(-c4c(F)c(F)c(F)c(F)c4F)c4ccc([nH]4)c(-c4c(F)c(F)c(F)c(F)c4F)c4nc(c(-c5c(F)c(F)c(F)c(F)c5F)c5ccc2[nH]5)C=C4)C=C3)cc1)N1C(=O)C[C@@H](N2C(=O)/C(=C/c3ccccc3)SC2=S)C1=O
REMARK SMILES IDX 8 1 7 2 6 3 5 4 3 5 4 6 2 8 1 9 78 10 79 11 97 12 80 13
REMARK SMILES IDX 81 14 82 15 98 16 83 17 84 18 95 19 85 20 86 21 94 22 96 23
REMARK SMILES IDX 87 24 88 25 89 26 93 27 90 28 92 29 91 30 9 31 10 32 11 33
REMARK SMILES IDX 12 34 13 35 14 37 15 38 16 39 77 40 17 41 76 42 18 43 19 44
REMARK SMILES IDX 20 45 70 46 21 47 75 48 69 49 71 50 22 51 74 52 68 53 67 54
REMARK SMILES IDX 23 56 55 57 35 58 54 59 36 60 39 61 53 62 72 63 37 64 38 65
REMARK SMILES IDX 52 67 73 68 40 69 24 70 25 71 33 72 26 73 27 74 31 75 34 76
REMARK SMILES IDX 28 77 29 78 32 79 30 80 56 81 57 82 65 83 58 84 59 85 63 86
REMARK SMILES IDX 66 87 60 88 61 89 64 90 62 91 41 92 42 93 50 94 43 95 44 96
REMARK SMILES IDX 48 97 51 98 45 99 46 100 49 101 47 102
REMARK H PARENT 5 7 12 36 71 55 39 66
REMARK Flexibility Score: inf
ROOT
ATOM      1  C   UNL     1      -0.073  -3.920  -1.148  1.00  0.00     0.002 C 
ENDROOT
BRANCH   1   2
ATOM      2  C   UNL     1      -0.405  -3.069   0.082  1.00  0.00     0.021 C 
BRANCH   2   3
ATOM      3  C   UNL     1       0.775  -2.266   0.632  1.00  0.00     0.116 C 
BRANCH   3   4
ATOM      4  N   UNL     1       1.054  -1.115  -0.206  1.00  0.00    -0.354 N 
ATOM      5  C   UNL     1       0.862   0.219   0.016  1.00  0.00     0.243 C 
ATOM      6  O   UNL     1       1.094   0.978  -0.928  1.00  0.00    -0.273 OA
ATOM      7  H   UNL     1       1.448  -1.331  -1.082  1.00  0.00     0.163 HD
BRANCH   5   8
ATOM      8  C   UNL     1       0.325   0.729   1.370  1.00  0.00     0.179 C 
ATOM      9  C   UNL     1       1.101   1.987   1.769  1.00  0.00     0.042 C 
BRANCH   8  10
ATOM     10  N   UNL     1      -1.129   0.910   1.284  1.00  0.00    -0.268 N 
ATOM     11  C   UNL     1      -1.776   2.048   0.884  1.00  0.00     0.232 C 
ATOM     12  C   UNL     1      -2.009  -0.104   1.549  1.00  0.00     0.253 C 
ATOM     13  O   UNL     1      -1.292   3.144   0.646  1.00  0.00    -0.274 OA
ATOM     14  C   UNL     1      -3.260   1.814   0.913  1.00  0.00     0.136 C 
ATOM     15  C   UNL     1      -3.396   0.315   1.114  1.00  0.00     0.191 C 
ATOM     16  O   UNL     1      -1.744  -1.207   2.006  1.00  0.00    -0.272 OA
BRANCH  15  17
ATOM     17  N   UNL     1      -3.831  -0.455  -0.069  1.00  0.00    -0.280 N 
ATOM     18  C   UNL     1      -3.246  -0.212  -1.298  1.00  0.00     0.266 C 
ATOM     19  C   UNL     1      -4.775  -1.463  -0.050  1.00  0.00     0.149 C 
ATOM     20  O   UNL     1      -2.292   0.523  -1.494  1.00  0.00    -0.268 OA
ATOM     21  C   UNL     1      -3.941  -0.955  -2.374  1.00  0.00     0.081 C 
ATOM     22  S   UNL     1      -5.086  -2.029  -1.691  1.00  0.00    -0.054 SA
ATOM     23  S   UNL     1      -5.586  -2.095   1.262  1.00  0.00    -0.052 S 
ATOM     24  C   UNL     1      -3.678  -0.702  -3.662  1.00  0.00     0.029 C 
BRANCH  24  25
ATOM     25  C   UNL     1      -4.392  -1.237  -4.825  1.00  0.00    -0.024 A 
ATOM     26  C   UNL     1      -3.705  -1.989  -5.783  1.00  0.00     0.008 A 
ATOM     27  C   UNL     1      -5.741  -0.924  -5.037  1.00  0.00     0.008 A 
ATOM     28  C   UNL     1      -4.365  -2.437  -6.930  1.00  0.00     0.001 A 
ATOM     29  C   UNL     1      -6.398  -1.371  -6.184  1.00  0.00     0.001 A 
ATOM     30  C   UNL     1      -5.710  -2.128  -7.129  1.00  0.00     0.000 A 
ENDBRANCH  24  25
ENDBRANCH  15  17
ENDBRANCH   8  10
ENDBRANCH   5   8
ENDBRANCH   3   4
ENDBRANCH   2   3
ENDBRANCH   1   2
BRANCH   1  31
ATOM     31  C   UNL     1       0.979  -5.010  -0.924  1.00  0.00     0.002 C 
BRANCH  31  32
ATOM     32  C   UNL     1       0.705  -5.958   0.247  1.00  0.00     0.021 C 
BRANCH  32  33
ATOM     33  C   UNL     1      -0.634  -6.688   0.188  1.00  0.00     0.116 C 
BRANCH  33  34
ATOM     34  N   UNL     1      -0.732  -7.567  -0.966  1.00  0.00    -0.352 N 
ATOM     35  C   UNL     1      -1.028  -8.905  -1.024  1.00  0.00     0.251 C 
ATOM     36  H   UNL     1      -0.560  -7.138  -1.836  1.00  0.00     0.163 HD
ATOM     37  O   UNL     1      -0.888  -9.523  -2.075  1.00  0.00    -0.269 OA
BRANCH  35  38
ATOM     38  C   UNL     1      -1.496  -9.616   0.185  1.00  0.00     0.039 A 
ATOM     39  C   UNL     1      -0.947 -10.865   0.486  1.00  0.00     0.014 A 
ATOM     40  C   UNL     1      -2.487  -9.069   1.005  1.00  0.00     0.014 A 
ATOM     41  C   UNL     1      -1.348 -11.540   1.642  1.00  0.00     0.010 A 
ATOM     42  C   UNL     1      -2.842  -9.714   2.188  1.00  0.00     0.010 A 
ATOM     43  C   UNL     1      -2.277 -10.955   2.518  1.00  0.00    -0.014 A 
BRANCH  43  44
ATOM     44  C   UNL     1      -2.665 -11.626   3.784  1.00  0.00     0.031 A 
ATOM     45  C   UNL     1      -4.073 -12.112   3.983  1.00  0.00     0.074 A 
ATOM     46  C   UNL     1      -1.765 -11.739   4.780  1.00  0.00     0.049 A 
ATOM     47  N   UNL     1      -4.622 -12.650   5.044  1.00  0.00    -0.248 NA
ATOM     48  C   UNL     1      -4.995 -11.950   2.848  1.00  0.00     0.031 C 
ATOM     49  C   UNL     1      -0.380 -11.268   4.725  1.00  0.00     0.029 A 
ATOM     50  N   UNL     1      -1.884 -12.273   6.039  1.00  0.00    -0.354 N 
ATOM     51  C   UNL     1      -5.951 -12.873   4.710  1.00  0.00     0.074 A 
ATOM     52  C   UNL     1      -6.139 -12.376   3.365  1.00  0.00     0.031 C 
ATOM     53  C   UNL     1       0.225 -11.544   5.891  1.00  0.00     0.029 A 
ATOM     54  C   UNL     1      -0.736 -12.181   6.787  1.00  0.00     0.049 A 
ATOM     55  H   UNL     1      -2.714 -12.683   6.374  1.00  0.00     0.167 HD
ATOM     56  C   UNL     1      -6.921 -13.457   5.453  1.00  0.00     0.037 A 
ATOM     57  C   UNL     1      -0.489 -12.560   8.056  1.00  0.00     0.037 A 
ATOM     58  C   UNL     1      -6.724 -13.981   6.779  1.00  0.00     0.049 A 
ATOM     59  C   UNL     1      -1.584 -13.213   8.855  1.00  0.00     0.074 A 
ATOM     60  C   UNL     1      -7.628 -14.649   7.587  1.00  0.00     0.029 A 
ATOM     61  N   UNL     1      -5.538 -13.896   7.493  1.00  0.00    -0.354 N 
ATOM     62  N   UNL     1      -2.818 -13.479   8.504  1.00  0.00    -0.248 NA
ATOM     63  C   UNL     1      -1.248 -13.626  10.225  1.00  0.00     0.031 C 
ATOM     64  C   UNL     1      -7.001 -14.934   8.804  1.00  0.00     0.029 A 
ATOM     65  C   UNL     1      -5.693 -14.483   8.738  1.00  0.00     0.049 A 
ATOM     66  H   UNL     1      -4.709 -13.480   7.164  1.00  0.00     0.167 HD
ATOM     67  C   UNL     1      -3.396 -14.114   9.595  1.00  0.00     0.074 A 
ATOM     68  C   UNL     1      -2.374 -14.206  10.616  1.00  0.00     0.031 C 
ATOM     69  C   UNL     1      -4.661 -14.579   9.738  1.00  0.00     0.037 A 
BRANCH  56  70
ATOM     70  C   UNL     1      -8.289 -13.572   4.848  1.00  0.00     0.064 A 
ATOM     71  C   UNL     1      -8.558 -14.475   3.808  1.00  0.00     0.173 A 
ATOM     72  C   UNL     1      -9.356 -12.811   5.349  1.00  0.00     0.173 A 
ATOM     73  F   UNL     1      -7.569 -15.218   3.287  1.00  0.00    -0.203 F 
ATOM     74  C   UNL     1      -9.840 -14.597   3.280  1.00  0.00     0.198 A 
ATOM     75  C   UNL     1     -10.642 -12.956   4.837  1.00  0.00     0.198 A 
ATOM     76  F   UNL     1      -9.153 -11.938   6.348  1.00  0.00    -0.203 F 
ATOM     77  F   UNL     1     -10.065 -15.439   2.262  1.00  0.00    -0.200 F 
ATOM     78  C   UNL     1     -10.882 -13.844   3.799  1.00  0.00     0.200 A 
ATOM     79  F   UNL     1     -11.651 -12.237   5.348  1.00  0.00    -0.200 F 
ATOM     80  F   UNL     1     -12.118 -13.972   3.297  1.00  0.00    -0.200 F 
ENDBRANCH  56  70
BRANCH  57  81
ATOM     81  C   UNL     1       0.858 -12.349   8.647  1.00  0.00     0.064 A 
ATOM     82  C   UNL     1       1.700 -13.435   8.922  1.00  0.00     0.173 A 
ATOM     83  C   UNL     1       1.324 -11.065   8.963  1.00  0.00     0.173 A 
ATOM     84  F   UNL     1       1.289 -14.684   8.657  1.00  0.00    -0.203 F 
ATOM     85  C   UNL     1       2.948 -13.247   9.512  1.00  0.00     0.198 A 
ATOM     86  C   UNL     1       2.583 -10.875   9.527  1.00  0.00     0.198 A 
ATOM     87  F   UNL     1       0.557  -9.992   8.716  1.00  0.00    -0.203 F 
ATOM     88  F   UNL     1       3.712 -14.306   9.809  1.00  0.00    -0.200 F 
ATOM     89  C   UNL     1       3.390 -11.967   9.810  1.00  0.00     0.200 A 
ATOM     90  F   UNL     1       3.013  -9.636   9.803  1.00  0.00    -0.200 F 
ATOM     91  F   UNL     1       4.590 -11.786  10.378  1.00  0.00    -0.200 F 
ENDBRANCH  57  81
BRANCH  69  92
ATOM     92  C   UNL     1      -5.001 -15.262  11.029  1.00  0.00     0.064 A 
ATOM     93  C   UNL     1      -5.164 -14.542  12.221  1.00  0.00     0.173 A 
ATOM     94  C   UNL     1      -5.204 -16.650  11.065  1.00  0.00     0.173 A 
ATOM     95  F   UNL     1      -4.965 -13.215  12.241  1.00  0.00    -0.203 F 
ATOM     96  C   UNL     1      -5.497 -15.190  13.408  1.00  0.00     0.198 A 
ATOM     97  C   UNL     1      -5.563 -17.291  12.247  1.00  0.00     0.198 A 
ATOM     98  F   UNL     1      -5.065 -17.382   9.950  1.00  0.00    -0.203 F 
ATOM     99  F   UNL     1      -5.605 -14.488  14.544  1.00  0.00    -0.200 F 
ATOM    100  C   UNL     1      -5.703 -16.562  13.418  1.00  0.00     0.200 A 
ATOM    101  F   UNL     1      -5.773 -18.614  12.253  1.00  0.00    -0.200 F 
ATOM    102  F   UNL     1      -6.029 -17.183  14.560  1.00  0.00    -0.200 F 
ENDBRANCH  69  92
ENDBRANCH  43  44
ENDBRANCH  35  38
ENDBRANCH  33  34
ENDBRANCH  32  33
ENDBRANCH  31  32
ENDBRANCH   1  31
TORSDOF 16
