REMARK SMILES O=C(NCCCCCCNC(=O)c1cncnc1N1CC[C@H]2[NH2+]CCC[C@]2(CO)C1)c1ccc(-c2c3nc(c(-c4c(F)c(F)c(F)c(F)c4F)c4ccc([nH]4)c(-c4c(F)c(F)c(F)c(F)c4F)c4nc(c(-c5c(F)c(F)c(F)c(F)c5F)c5ccc2[nH]5)C=C4)C=C3)cc1
REMARK SMILES IDX 7 1 6 2 5 3 4 4 3 5 1 6 2 7 31 9 32 10 93 11 33 12 92 13
REMARK SMILES IDX 34 14 35 15 36 16 86 17 37 18 91 19 85 20 87 21 38 22 90 23
REMARK SMILES IDX 84 24 83 25 39 27 71 28 51 29 70 30 52 31 55 32 69 33 88 34
REMARK SMILES IDX 53 35 54 36 68 38 89 39 56 40 40 41 41 42 49 43 42 44 43 45
REMARK SMILES IDX 47 46 50 47 44 48 45 49 48 50 46 51 72 52 73 53 81 54 74 55
REMARK SMILES IDX 75 56 79 57 82 58 76 59 77 60 80 61 78 62 57 63 58 64 66 65
REMARK SMILES IDX 59 66 60 67 64 68 67 69 61 70 62 71 65 72 63 73 8 74 9 75
REMARK SMILES IDX 10 76 11 77 12 79 13 80 14 81 18 82 15 83 17 84 16 85 19 86
REMARK SMILES IDX 20 87 30 88 21 89 27 90 22 91 26 92 23 93 25 94 24 95 28 98
REMARK SMILES IDX 29 99
REMARK H PARENT 3 8 87 26 55 37 10 78 23 96 23 97 29 100
REMARK Flexibility Score: inf
ROOT
ATOM      1  C   UNL     1       4.903  -4.061   1.647  1.00  0.00     0.002 C 
ENDROOT
BRANCH   1   2
ATOM      2  C   UNL     1       4.354  -2.923   2.514  1.00  0.00     0.002 C 
BRANCH   2   3
ATOM      3  C   UNL     1       4.824  -1.520   2.129  1.00  0.00     0.021 C 
BRANCH   3   4
ATOM      4  C   UNL     1       4.557  -1.130   0.680  1.00  0.00     0.116 C 
BRANCH   4   5
ATOM      5  N   UNL     1       3.138  -1.075   0.372  1.00  0.00    -0.352 N 
ATOM      6  O   UNL     1       1.167  -0.105  -0.139  1.00  0.00    -0.269 OA
ATOM      7  C   UNL     1       2.388  -0.026  -0.102  1.00  0.00     0.251 C 
ATOM      8  H   UNL     1       2.642  -1.911   0.526  1.00  0.00     0.163 HD
BRANCH   7   9
ATOM      9  C   UNL     1       3.061   1.214  -0.547  1.00  0.00     0.039 A 
ATOM     10  C   UNL     1       4.194   1.160  -1.362  1.00  0.00     0.014 A 
ATOM     11  C   UNL     1       2.537   2.447  -0.150  1.00  0.00     0.014 A 
ATOM     12  C   UNL     1       4.883   2.329  -1.666  1.00  0.00     0.010 A 
ATOM     13  C   UNL     1       3.183   3.626  -0.528  1.00  0.00     0.010 A 
ATOM     14  C   UNL     1       4.377   3.575  -1.264  1.00  0.00    -0.014 A 
BRANCH  14  15
ATOM     15  C   UNL     1       5.077   4.822  -1.664  1.00  0.00     0.031 A 
ATOM     16  C   UNL     1       5.679   5.734  -0.634  1.00  0.00     0.074 A 
ATOM     17  C   UNL     1       5.157   5.132  -2.972  1.00  0.00     0.049 A 
ATOM     18  N   UNL     1       6.278   6.887  -0.798  1.00  0.00    -0.248 NA
ATOM     19  C   UNL     1       5.588   5.300   0.768  1.00  0.00     0.031 C 
ATOM     20  C   UNL     1       4.609   4.324  -4.062  1.00  0.00     0.029 A 
ATOM     21  N   UNL     1       5.725   6.207  -3.606  1.00  0.00    -0.354 N 
ATOM     22  C   UNL     1       6.617   7.325   0.475  1.00  0.00     0.074 A 
ATOM     23  C   UNL     1       6.130   6.328   1.405  1.00  0.00     0.031 C 
ATOM     24  C   UNL     1       4.885   4.919  -5.231  1.00  0.00     0.029 A 
ATOM     25  C   UNL     1       5.570   6.180  -4.970  1.00  0.00     0.049 A 
ATOM     26  H   UNL     1       6.198   6.928  -3.130  1.00  0.00     0.167 HD
ATOM     27  C   UNL     1       7.279   8.453   0.831  1.00  0.00     0.037 A 
ATOM     28  C   UNL     1       5.912   7.084  -5.906  1.00  0.00     0.037 A 
ATOM     29  C   UNL     1       7.760   9.438  -0.106  1.00  0.00     0.049 A 
ATOM     30  C   UNL     1       6.603   8.348  -5.482  1.00  0.00     0.074 A 
ATOM     31  C   UNL     1       8.472  10.598   0.150  1.00  0.00     0.029 A 
ATOM     32  N   UNL     1       7.569   9.384  -1.480  1.00  0.00    -0.354 N 
ATOM     33  N   UNL     1       6.950   8.737  -4.279  1.00  0.00    -0.248 NA
ATOM     34  C   UNL     1       6.949   9.300  -6.545  1.00  0.00     0.031 C 
ATOM     35  C   UNL     1       8.656  11.275  -1.060  1.00  0.00     0.029 A 
ATOM     36  C   UNL     1       8.122  10.505  -2.080  1.00  0.00     0.049 A 
ATOM     37  H   UNL     1       7.107   8.658  -1.958  1.00  0.00     0.167 HD
ATOM     38  C   UNL     1       7.581   9.962  -4.441  1.00  0.00     0.074 A 
ATOM     39  C   UNL     1       7.577  10.247  -5.862  1.00  0.00     0.031 C 
ATOM     40  C   UNL     1       8.118  10.774  -3.498  1.00  0.00     0.037 A 
BRANCH  27  41
ATOM     41  C   UNL     1       7.494   8.701   2.298  1.00  0.00     0.064 A 
ATOM     42  C   UNL     1       8.361   7.909   3.066  1.00  0.00     0.173 A 
ATOM     43  C   UNL     1       6.842   9.766   2.941  1.00  0.00     0.173 A 
ATOM     44  F   UNL     1       9.004   6.873   2.506  1.00  0.00    -0.203 F 
ATOM     45  C   UNL     1       8.538   8.149   4.427  1.00  0.00     0.198 A 
ATOM     46  C   UNL     1       7.048  10.024   4.294  1.00  0.00     0.198 A 
ATOM     47  F   UNL     1       6.009  10.562   2.255  1.00  0.00    -0.203 F 
ATOM     48  F   UNL     1       9.327   7.342   5.151  1.00  0.00    -0.200 F 
ATOM     49  C   UNL     1       7.887   9.210   5.038  1.00  0.00     0.200 A 
ATOM     50  F   UNL     1       6.430  11.060   4.879  1.00  0.00    -0.200 F 
ATOM     51  F   UNL     1       8.061   9.441   6.347  1.00  0.00    -0.200 F 
ENDBRANCH  27  41
BRANCH  28  52
ATOM     52  C   UNL     1       5.597   6.815  -7.332  1.00  0.00     0.064 A 
ATOM     53  C   UNL     1       6.614   6.554  -8.259  1.00  0.00     0.173 A 
ATOM     54  C   UNL     1       4.271   6.785  -7.790  1.00  0.00     0.173 A 
ATOM     55  F   UNL     1       7.897   6.588  -7.873  1.00  0.00    -0.203 F 
ATOM     56  C   UNL     1       6.317   6.286  -9.594  1.00  0.00     0.198 A 
ATOM     57  C   UNL     1       3.974   6.485  -9.117  1.00  0.00     0.198 A 
ATOM     58  F   UNL     1       3.261   7.020  -6.940  1.00  0.00    -0.203 F 
ATOM     59  F   UNL     1       7.311   6.077 -10.469  1.00  0.00    -0.200 F 
ATOM     60  C   UNL     1       4.998   6.243 -10.020  1.00  0.00     0.200 A 
ATOM     61  F   UNL     1       2.697   6.425  -9.519  1.00  0.00    -0.200 F 
ATOM     62  F   UNL     1       4.714   5.971 -11.301  1.00  0.00    -0.200 F 
ENDBRANCH  28  52
BRANCH  40  63
ATOM     63  C   UNL     1       8.793  12.029  -3.972  1.00  0.00     0.064 A 
ATOM     64  C   UNL     1       8.068  13.113  -4.487  1.00  0.00     0.173 A 
ATOM     65  C   UNL     1      10.187  12.162  -3.869  1.00  0.00     0.173 A 
ATOM     66  F   UNL     1       6.736  13.031  -4.623  1.00  0.00    -0.203 F 
ATOM     67  C   UNL     1       8.715  14.274  -4.903  1.00  0.00     0.198 A 
ATOM     68  C   UNL     1      10.827  13.336  -4.255  1.00  0.00     0.198 A 
ATOM     69  F   UNL     1      10.928  11.156  -3.380  1.00  0.00    -0.203 F 
ATOM     70  F   UNL     1       8.007  15.279  -5.437  1.00  0.00    -0.200 F 
ATOM     71  C   UNL     1      10.092  14.388  -4.778  1.00  0.00     0.200 A 
ATOM     72  F   UNL     1      12.155  13.449  -4.118  1.00  0.00    -0.200 F 
ATOM     73  F   UNL     1      10.711  15.511  -5.168  1.00  0.00    -0.200 F 
ENDBRANCH  40  63
ENDBRANCH  14  15
ENDBRANCH   7   9
ENDBRANCH   4   5
ENDBRANCH   3   4
ENDBRANCH   2   3
ENDBRANCH   1   2
BRANCH   1  74
ATOM     74  C   UNL     1       6.428  -4.116   1.513  1.00  0.00     0.021 C 
BRANCH  74  75
ATOM     75  C   UNL     1       7.189  -4.163   2.834  1.00  0.00     0.116 C 
BRANCH  75  76
ATOM     76  N   UNL     1       6.864  -5.345   3.617  1.00  0.00    -0.352 N 
ATOM     77  C   UNL     1       7.696  -6.345   4.065  1.00  0.00     0.256 C 
ATOM     78  H   UNL     1       5.915  -5.443   3.861  1.00  0.00     0.163 HD
ATOM     79  O   UNL     1       7.238  -7.285   4.706  1.00  0.00    -0.269 OA
BRANCH  77  80
ATOM     80  C   UNL     1       9.134  -6.245   3.809  1.00  0.00     0.100 A 
ATOM     81  C   UNL     1       9.809  -5.193   4.407  1.00  0.00     0.130 A 
ATOM     82  C   UNL     1       9.898  -7.165   3.104  1.00  0.00     0.144 A 
ATOM     83  N   UNL     1      11.127  -4.967   4.275  1.00  0.00    -0.244 NA
ATOM     84  N   UNL     1      11.230  -6.958   2.962  1.00  0.00    -0.219 NA
ATOM     85  C   UNL     1      11.776  -5.877   3.541  1.00  0.00     0.224 A 
BRANCH  82  86
ATOM     86  N   UNL     1       9.446  -8.367   2.570  1.00  0.00    -0.355 N 
ATOM     87  C   UNL     1       8.180  -8.461   1.853  1.00  0.00     0.124 C 
ATOM     88  C   UNL     1       9.840  -9.505   3.420  1.00  0.00     0.133 C 
ATOM     89  C   UNL     1       8.111  -9.764   1.050  1.00  0.00     0.087 C 
ATOM     90  C   UNL     1       9.762 -10.846   2.662  1.00  0.00     0.063 C 
ATOM     91  C   UNL     1       8.380 -10.959   1.973  1.00  0.00     0.194 C 
ATOM     92  C   UNL     1       9.859 -12.002   3.690  1.00  0.00     0.023 C 
ATOM     93  N   UNL     1       8.255 -12.238   1.252  1.00  0.00    -0.343 N 
ATOM     94  C   UNL     1       9.622 -13.361   3.032  1.00  0.00     0.062 C 
ATOM     95  C   UNL     1       8.353 -13.376   2.176  1.00  0.00     0.260 C 
ATOM     96  H   UNL     1       9.001 -12.305   0.559  1.00  0.00     0.346 HD
ATOM     97  H   UNL     1       7.342 -12.267   0.797  1.00  0.00     0.346 HD
BRANCH  90  98
ATOM     98  C   UNL     1      10.928 -10.922   1.640  1.00  0.00     0.171 C 
BRANCH  98  99
ATOM     99  O   UNL     1      12.192 -10.967   2.301  1.00  0.00    -0.395 OA
ATOM    100  H   UNL     1      12.310 -10.162   2.829  1.00  0.00     0.210 HD
ENDBRANCH  98  99
ENDBRANCH  90  98
ENDBRANCH  82  86
ENDBRANCH  77  80
ENDBRANCH  75  76
ENDBRANCH  74  75
ENDBRANCH   1  74
TORSDOF 16
