REMARK SMILES O=C(NCCCCCCNC(=O)c1ccc2c(=O)n(CCC[NH+]3CCOCC3)c(=O)[nH]c2c1)c1ccc(-c2c3nc(c(-c4c(F)c(F)c(F)c(F)c4F)c4ccc([nH]4)c(-c4c(F)c(F)c(F)c(F)c4F)c4nc(c(-c5c(F)c(F)c(F)c(F)c5F)c5ccc2[nH]5)C=C4)C=C3)cc1
REMARK SMILES IDX 7 1 6 2 5 3 4 4 3 5 1 6 2 7 34 9 35 10 96 11 36 12 95 13
REMARK SMILES IDX 37 14 38 15 39 16 89 17 40 18 94 19 88 20 90 21 41 22 93 23
REMARK SMILES IDX 87 24 86 25 42 27 74 28 54 29 73 30 55 31 58 32 72 33 91 34
REMARK SMILES IDX 56 35 57 36 71 38 92 39 59 40 43 41 44 42 52 43 45 44 46 45
REMARK SMILES IDX 50 46 53 47 47 48 48 49 51 50 49 51 75 52 76 53 84 54 77 55
REMARK SMILES IDX 78 56 82 57 85 58 79 59 80 60 83 61 81 62 60 63 61 64 69 65
REMARK SMILES IDX 62 66 63 67 67 68 70 69 64 70 65 71 68 72 66 73 8 74 9 75
REMARK SMILES IDX 10 76 11 77 12 79 13 80 14 81 33 82 15 83 32 84 16 85 31 86
REMARK SMILES IDX 17 87 29 88 18 90 19 91 30 92 20 93 21 94 22 95 23 96 24 97
REMARK SMILES IDX 28 98 25 100 27 101 26 102
REMARK H PARENT 3 8 90 26 58 37 10 78 31 89 23 99
REMARK Flexibility Score: inf
ROOT
ATOM      1  C   UNL     1       4.746   1.157   4.187  1.00  0.00     0.002 C 
ENDROOT
BRANCH   1   2
ATOM      2  C   UNL     1       4.182   2.182   3.199  1.00  0.00     0.002 C 
BRANCH   2   3
ATOM      3  C   UNL     1       4.652   2.017   1.752  1.00  0.00     0.021 C 
BRANCH   3   4
ATOM      4  C   UNL     1       4.373   0.649   1.137  1.00  0.00     0.116 C 
BRANCH   4   5
ATOM      5  N   UNL     1       2.952   0.353   1.076  1.00  0.00    -0.352 N 
ATOM      6  O   UNL     1       0.972  -0.105   0.108  1.00  0.00    -0.269 OA
ATOM      7  C   UNL     1       2.196  -0.082   0.019  1.00  0.00     0.251 C 
ATOM      8  H   UNL     1       2.460   0.485   1.919  1.00  0.00     0.163 HD
BRANCH   7   9
ATOM      9  C   UNL     1       2.846  -0.522  -1.235  1.00  0.00     0.039 A 
ATOM     10  C   UNL     1       2.277  -0.143  -2.455  1.00  0.00     0.014 A 
ATOM     11  C   UNL     1       3.968  -1.355  -1.214  1.00  0.00     0.014 A 
ATOM     12  C   UNL     1       2.846  -0.579  -3.654  1.00  0.00     0.010 A 
ATOM     13  C   UNL     1       4.569  -1.741  -2.410  1.00  0.00     0.010 A 
ATOM     14  C   UNL     1       4.002  -1.374  -3.639  1.00  0.00    -0.014 A 
BRANCH  14  15
ATOM     15  C   UNL     1       4.591  -1.903  -4.894  1.00  0.00     0.031 A 
ATOM     16  C   UNL     1       4.544  -3.382  -5.164  1.00  0.00     0.074 A 
ATOM     17  C   UNL     1       5.189  -1.074  -5.769  1.00  0.00     0.049 A 
ATOM     18  N   UNL     1       5.108  -4.069  -6.125  1.00  0.00    -0.248 NA
ATOM     19  C   UNL     1       3.771  -4.200  -4.215  1.00  0.00     0.031 C 
ATOM     20  C   UNL     1       5.284   0.379  -5.630  1.00  0.00     0.029 A 
ATOM     21  N   UNL     1       5.835  -1.339  -6.951  1.00  0.00    -0.354 N 
ATOM     22  C   UNL     1       4.766  -5.395  -5.890  1.00  0.00     0.074 A 
ATOM     23  C   UNL     1       3.987  -5.425  -4.672  1.00  0.00     0.031 C 
ATOM     24  C   UNL     1       5.926   0.880  -6.697  1.00  0.00     0.029 A 
ATOM     25  C   UNL     1       6.330  -0.218  -7.571  1.00  0.00     0.049 A 
ATOM     26  H   UNL     1       5.934  -2.247  -7.319  1.00  0.00     0.167 HD
ATOM     27  C   UNL     1       5.056  -6.486  -6.637  1.00  0.00     0.037 A 
ATOM     28  C   UNL     1       7.038  -0.097  -8.710  1.00  0.00     0.037 A 
ATOM     29  C   UNL     1       5.813  -6.452  -7.861  1.00  0.00     0.049 A 
ATOM     30  C   UNL     1       7.393  -1.334  -9.492  1.00  0.00     0.074 A 
ATOM     31  C   UNL     1       6.174  -7.506  -8.682  1.00  0.00     0.029 A 
ATOM     32  N   UNL     1       6.310  -5.299  -8.447  1.00  0.00    -0.354 N 
ATOM     33  N   UNL     1       7.086  -2.584  -9.249  1.00  0.00    -0.248 NA
ATOM     34  C   UNL     1       8.198  -1.140 -10.707  1.00  0.00     0.031 C 
ATOM     35  C   UNL     1       6.911  -6.993  -9.753  1.00  0.00     0.029 A 
ATOM     36  C   UNL     1       6.973  -5.615  -9.621  1.00  0.00     0.049 A 
ATOM     37  H   UNL     1       6.207  -4.390  -8.084  1.00  0.00     0.167 HD
ATOM     38  C   UNL     1       7.627  -3.320 -10.295  1.00  0.00     0.074 A 
ATOM     39  C   UNL     1       8.275  -2.376 -11.180  1.00  0.00     0.031 C 
ATOM     40  C   UNL     1       7.591  -4.659 -10.502  1.00  0.00     0.037 A 
BRANCH  27  41
ATOM     41  C   UNL     1       4.541  -7.812  -6.163  1.00  0.00     0.064 A 
ATOM     42  C   UNL     1       3.179  -8.137  -6.251  1.00  0.00     0.173 A 
ATOM     43  C   UNL     1       5.420  -8.791  -5.677  1.00  0.00     0.173 A 
ATOM     44  F   UNL     1       2.296  -7.229  -6.694  1.00  0.00    -0.203 F 
ATOM     45  C   UNL     1       2.714  -9.389  -5.857  1.00  0.00     0.198 A 
ATOM     46  C   UNL     1       4.955 -10.051  -5.310  1.00  0.00     0.198 A 
ATOM     47  F   UNL     1       6.732  -8.531  -5.575  1.00  0.00    -0.203 F 
ATOM     48  F   UNL     1       1.404  -9.665  -5.919  1.00  0.00    -0.200 F 
ATOM     49  C   UNL     1       3.604 -10.348  -5.397  1.00  0.00     0.200 A 
ATOM     50  F   UNL     1       5.818 -10.981  -4.876  1.00  0.00    -0.200 F 
ATOM     51  F   UNL     1       3.157 -11.558  -5.035  1.00  0.00    -0.200 F 
ENDBRANCH  27  41
BRANCH  28  52
ATOM     52  C   UNL     1       7.439   1.248  -9.200  1.00  0.00     0.064 A 
ATOM     53  C   UNL     1       6.863   1.785 -10.360  1.00  0.00     0.173 A 
ATOM     54  C   UNL     1       8.404   2.016  -8.534  1.00  0.00     0.173 A 
ATOM     55  F   UNL     1       5.952   1.077 -11.044  1.00  0.00    -0.203 F 
ATOM     56  C   UNL     1       7.249   3.032 -10.845  1.00  0.00     0.198 A 
ATOM     57  C   UNL     1       8.771   3.276  -9.006  1.00  0.00     0.198 A 
ATOM     58  F   UNL     1       8.986   1.548  -7.420  1.00  0.00    -0.203 F 
ATOM     59  F   UNL     1       6.714   3.502 -11.980  1.00  0.00    -0.200 F 
ATOM     60  C   UNL     1       8.198   3.779 -10.164  1.00  0.00     0.200 A 
ATOM     61  F   UNL     1       9.680   4.000  -8.339  1.00  0.00    -0.200 F 
ATOM     62  F   UNL     1       8.568   4.981 -10.629  1.00  0.00    -0.200 F 
ENDBRANCH  28  52
BRANCH  40  63
ATOM     63  C   UNL     1       8.226  -5.182 -11.757  1.00  0.00     0.064 A 
ATOM     64  C   UNL     1       9.618  -5.234 -11.912  1.00  0.00     0.173 A 
ATOM     65  C   UNL     1       7.428  -5.688 -12.794  1.00  0.00     0.173 A 
ATOM     66  F   UNL     1      10.422  -4.751 -10.953  1.00  0.00    -0.203 F 
ATOM     67  C   UNL     1      10.189  -5.753 -13.070  1.00  0.00     0.198 A 
ATOM     68  C   UNL     1       8.002  -6.232 -13.939  1.00  0.00     0.198 A 
ATOM     69  F   UNL     1       6.090  -5.670 -12.690  1.00  0.00    -0.203 F 
ATOM     70  F   UNL     1      11.521  -5.756 -13.216  1.00  0.00    -0.200 F 
ATOM     71  C   UNL     1       9.381  -6.259 -14.079  1.00  0.00     0.200 A 
ATOM     72  F   UNL     1       7.221  -6.734 -14.906  1.00  0.00    -0.200 F 
ATOM     73  F   UNL     1       9.934  -6.768 -15.189  1.00  0.00    -0.200 F 
ENDBRANCH  40  63
ENDBRANCH  14  15
ENDBRANCH   7   9
ENDBRANCH   4   5
ENDBRANCH   3   4
ENDBRANCH   2   3
ENDBRANCH   1   2
BRANCH   1  74
ATOM     74  C   UNL     1       6.276   1.092   4.262  1.00  0.00     0.021 C 
BRANCH  74  75
ATOM     75  C   UNL     1       6.962   2.423   4.576  1.00  0.00     0.116 C 
BRANCH  75  76
ATOM     76  N   UNL     1       6.516   2.955   5.853  1.00  0.00    -0.352 N 
ATOM     77  C   UNL     1       7.255   3.268   6.961  1.00  0.00     0.251 C 
ATOM     78  H   UNL     1       5.548   3.113   5.931  1.00  0.00     0.163 HD
ATOM     79  O   UNL     1       6.720   3.480   8.042  1.00  0.00    -0.269 OA
BRANCH  77  80
ATOM     80  C   UNL     1       8.717   3.364   6.846  1.00  0.00     0.041 A 
ATOM     81  C   UNL     1       9.280   4.332   6.004  1.00  0.00     0.015 A 
ATOM     82  C   UNL     1       9.518   2.513   7.615  1.00  0.00     0.040 A 
ATOM     83  C   UNL     1      10.664   4.449   5.929  1.00  0.00     0.017 A 
ATOM     84  C   UNL     1      10.902   2.607   7.494  1.00  0.00     0.056 A 
ATOM     85  C   UNL     1      11.466   3.583   6.680  1.00  0.00     0.064 A 
ATOM     86  N   UNL     1      11.732   1.701   8.147  1.00  0.00    -0.307 N 
ATOM     87  C   UNL     1      12.931   3.660   6.595  1.00  0.00     0.264 A 
ATOM     88  C   UNL     1      13.081   1.613   7.924  1.00  0.00     0.328 A 
ATOM     89  H   UNL     1      11.328   1.090   8.805  1.00  0.00     0.171 HD
ATOM     90  O   UNL     1      13.436   4.655   6.086  1.00  0.00    -0.268 OA
ATOM     91  N   UNL     1      13.633   2.561   7.075  1.00  0.00    -0.260 N 
ATOM     92  O   UNL     1      13.714   0.705   8.460  1.00  0.00    -0.248 OA
BRANCH  91  93
ATOM     93  C   UNL     1      15.035   2.419   6.683  1.00  0.00     0.137 C 
BRANCH  93  94
ATOM     94  C   UNL     1      15.161   1.667   5.344  1.00  0.00     0.083 C 
BRANCH  94  95
ATOM     95  C   UNL     1      14.900   2.537   4.103  1.00  0.00     0.264 C 
BRANCH  95  96
ATOM     96  N   UNL     1      15.959   3.540   3.932  1.00  0.00    -0.331 N 
ATOM     97  C   UNL     1      15.467   4.784   3.299  1.00  0.00     0.291 C 
ATOM     98  C   UNL     1      17.093   3.032   3.129  1.00  0.00     0.291 C 
ATOM     99  H   UNL     1      16.277   3.747   4.878  1.00  0.00     0.348 HD
ATOM    100  C   UNL     1      15.191   4.654   1.794  1.00  0.00     0.221 C 
ATOM    101  C   UNL     1      16.799   2.939   1.619  1.00  0.00     0.221 C 
ATOM    102  O   UNL     1      16.351   4.192   1.090  1.00  0.00    -0.370 OA
ENDBRANCH  95  96
ENDBRANCH  94  95
ENDBRANCH  93  94
ENDBRANCH  91  93
ENDBRANCH  77  80
ENDBRANCH  75  76
ENDBRANCH  74  75
ENDBRANCH   1  74
TORSDOF 17
