REMARK SMILES Cc1nc2cc(C(=O)NCCCCCCNC(=O)c3ccc(-c4c5nc(c(-c6c(F)c(F)c(F)c(F)c6F)c6ccc([nH]6)c(-c6c(F)c(F)c(F)c(F)c6F)c6nc(c(-c7c(F)c(F)c(F)c(F)c7F)c7ccc4[nH]7)C=C6)C=C5)cc3)ccc2n1CCC[NH+]1CCOCC1
REMARK SMILES IDX 11 1 10 2 9 3 7 4 8 5 6 7 1 8 2 9 3 10 85 11 4 12 84 13 5 14
REMARK SMILES IDX 83 15 82 16 86 17 87 18 88 19 89 20 90 21 94 22 91 24 93 25
REMARK SMILES IDX 92 26 12 27 13 28 14 29 15 30 16 31 17 32 18 34 19 35 20 36
REMARK SMILES IDX 81 37 21 38 80 39 22 40 23 41 24 42 74 43 25 44 79 45 73 46
REMARK SMILES IDX 75 47 26 48 78 49 72 50 71 51 27 53 59 54 39 55 58 56 40 57
REMARK SMILES IDX 43 58 57 59 76 60 41 61 42 62 56 64 77 65 44 66 28 67 29 68
REMARK SMILES IDX 37 69 30 70 31 71 35 72 38 73 32 74 33 75 36 76 34 77 60 78
REMARK SMILES IDX 61 79 69 80 62 81 63 82 67 83 70 84 64 85 65 86 68 87 66 88
REMARK SMILES IDX 45 89 46 90 54 91 47 92 48 93 52 94 55 95 49 96 50 97 53 98
REMARK SMILES IDX 51 99
REMARK H PARENT 9 6 89 23 16 33 75 52 43 63
REMARK Flexibility Score: inf
ROOT
ATOM      1  C   UNL     1      -1.150  -7.712  -5.234  1.00  0.00     0.021 C 
ENDROOT
BRANCH   1   2
ATOM      2  C   UNL     1      -1.756  -7.547  -3.840  1.00  0.00     0.116 C 
BRANCH   2   3
ATOM      3  N   UNL     1      -0.750  -7.842  -2.852  1.00  0.00    -0.352 N 
ATOM      4  C   UNL     1       0.056  -7.058  -2.069  1.00  0.00     0.251 C 
ATOM      5  O   UNL     1       0.852  -7.626  -1.343  1.00  0.00    -0.269 OA
ATOM      6  H   UNL     1      -0.613  -8.807  -2.710  1.00  0.00     0.163 HD
BRANCH   4   7
ATOM      7  C   UNL     1      -0.052  -5.574  -2.043  1.00  0.00     0.042 A 
ATOM      8  C   UNL     1       1.655  -0.293  -0.050  1.00  0.00     0.088 C 
ATOM      9  C   UNL     1       0.904  -1.487  -0.496  1.00  0.00     0.106 A 
ATOM     10  N   UNL     1       1.181  -2.699  -0.059  1.00  0.00    -0.233 NA
ATOM     11  N   UNL     1      -0.102  -1.527  -1.438  1.00  0.00    -0.328 N 
ATOM     12  C   UNL     1       0.522  -3.546  -0.894  1.00  0.00     0.090 A 
ATOM     13  C   UNL     1      -0.263  -2.843  -1.794  1.00  0.00     0.068 A 
ATOM     14  C   UNL     1       0.588  -4.936  -0.971  1.00  0.00     0.044 A 
ATOM     15  C   UNL     1      -0.945  -3.444  -2.841  1.00  0.00     0.029 A 
ATOM     16  C   UNL     1      -0.716  -4.803  -3.002  1.00  0.00     0.016 A 
BRANCH  11  17
ATOM     17  C   UNL     1      -0.756  -0.447  -2.147  1.00  0.00     0.130 C 
BRANCH  17  18
ATOM     18  C   UNL     1      -1.874   0.248  -1.371  1.00  0.00     0.083 C 
BRANCH  18  19
ATOM     19  C   UNL     1      -1.356   1.181  -0.282  1.00  0.00     0.264 C 
BRANCH  19  20
ATOM     20  N   UNL     1      -0.234   2.012  -0.736  1.00  0.00    -0.331 N 
ATOM     21  C   UNL     1       0.288   2.866   0.348  1.00  0.00     0.291 C 
ATOM     22  C   UNL     1      -0.503   2.862  -1.909  1.00  0.00     0.291 C 
ATOM     23  H   UNL     1       0.459   1.321  -1.025  1.00  0.00     0.348 HD
ATOM     24  C   UNL     1      -0.624   4.063   0.644  1.00  0.00     0.221 C 
ATOM     25  C   UNL     1      -1.424   4.038  -1.585  1.00  0.00     0.221 C 
ATOM     26  O   UNL     1      -0.876   4.842  -0.533  1.00  0.00    -0.370 OA
ENDBRANCH  19  20
ENDBRANCH  18  19
ENDBRANCH  17  18
ENDBRANCH  11  17
ENDBRANCH   4   7
ENDBRANCH   2   3
ENDBRANCH   1   2
BRANCH   1  27
ATOM     27  C   UNL     1      -1.181  -9.185  -5.655  1.00  0.00     0.002 C 
BRANCH  27  28
ATOM     28  C   UNL     1      -2.603  -9.770  -5.682  1.00  0.00     0.002 C 
BRANCH  28  29
ATOM     29  C   UNL     1      -3.578  -8.981  -6.568  1.00  0.00     0.021 C 
BRANCH  29  30
ATOM     30  C   UNL     1      -3.144  -8.973  -8.026  1.00  0.00     0.116 C 
BRANCH  30  31
ATOM     31  N   UNL     1      -3.009 -10.306  -8.553  1.00  0.00    -0.352 N 
ATOM     32  C   UNL     1      -3.815 -11.132  -9.271  1.00  0.00     0.251 C 
ATOM     33  H   UNL     1      -2.135 -10.710  -8.347  1.00  0.00     0.163 HD
ATOM     34  O   UNL     1      -3.304 -12.160  -9.696  1.00  0.00    -0.269 OA
BRANCH  32  35
ATOM     35  C   UNL     1      -5.278 -10.946  -9.396  1.00  0.00     0.039 A 
ATOM     36  C   UNL     1      -6.048  -9.822  -9.114  1.00  0.00     0.014 A 
ATOM     37  C   UNL     1      -5.944 -12.110  -9.769  1.00  0.00     0.014 A 
ATOM     38  C   UNL     1      -7.404 -10.008  -8.799  1.00  0.00     0.010 A 
ATOM     39  C   UNL     1      -7.315 -12.136  -9.768  1.00  0.00     0.010 A 
ATOM     40  C   UNL     1      -8.002 -11.279  -8.941  1.00  0.00    -0.014 A 
BRANCH  40  41
ATOM     41  C   UNL     1      -9.456 -11.547  -8.813  1.00  0.00     0.031 A 
ATOM     42  C   UNL     1     -10.130 -10.516  -9.700  1.00  0.00     0.074 A 
ATOM     43  C   UNL     1     -10.041 -12.572  -8.078  1.00  0.00     0.049 A 
ATOM     44  N   UNL     1     -10.678  -9.434  -9.252  1.00  0.00    -0.248 NA
ATOM     45  C   UNL     1      -9.870 -10.403 -11.164  1.00  0.00     0.031 C 
ATOM     46  C   UNL     1      -9.456 -13.638  -7.215  1.00  0.00     0.029 A 
ATOM     47  N   UNL     1     -11.398 -12.882  -7.894  1.00  0.00    -0.354 N 
ATOM     48  C   UNL     1     -11.174  -8.748 -10.357  1.00  0.00     0.074 A 
ATOM     49  C   UNL     1     -10.449  -9.238 -11.483  1.00  0.00     0.031 C 
ATOM     50  C   UNL     1     -10.380 -14.596  -6.890  1.00  0.00     0.029 A 
ATOM     51  C   UNL     1     -11.687 -14.199  -7.380  1.00  0.00     0.049 A 
ATOM     52  H   UNL     1     -12.112 -12.237  -8.105  1.00  0.00     0.167 HD
ATOM     53  C   UNL     1     -12.381  -8.132 -10.239  1.00  0.00     0.037 A 
ATOM     54  C   UNL     1     -12.926 -14.805  -7.201  1.00  0.00     0.037 A 
ATOM     55  C   UNL     1     -12.682  -7.987  -8.834  1.00  0.00     0.049 A 
ATOM     56  C   UNL     1     -13.918 -13.697  -7.204  1.00  0.00     0.074 A 
ATOM     57  C   UNL     1     -12.103  -7.301  -7.787  1.00  0.00     0.029 A 
ATOM     58  N   UNL     1     -13.331  -9.068  -8.301  1.00  0.00    -0.354 N 
ATOM     59  N   UNL     1     -13.946 -12.817  -6.239  1.00  0.00    -0.248 NA
ATOM     60  C   UNL     1     -14.315 -13.244  -8.533  1.00  0.00     0.031 C 
ATOM     61  C   UNL     1     -12.134  -8.203  -6.683  1.00  0.00     0.029 A 
ATOM     62  C   UNL     1     -12.898  -9.315  -7.031  1.00  0.00     0.049 A 
ATOM     63  H   UNL     1     -14.017  -9.596  -8.770  1.00  0.00     0.167 HD
ATOM     64  C   UNL     1     -13.850 -11.610  -6.907  1.00  0.00     0.074 A 
ATOM     65  C   UNL     1     -14.067 -11.944  -8.330  1.00  0.00     0.031 C 
ATOM     66  C   UNL     1     -13.231 -10.532  -6.335  1.00  0.00     0.037 A 
BRANCH  53  67
ATOM     67  C   UNL     1     -13.484  -8.178 -11.275  1.00  0.00     0.064 A 
ATOM     68  C   UNL     1     -14.674  -7.465 -11.013  1.00  0.00     0.173 A 
ATOM     69  C   UNL     1     -13.560  -9.108 -12.335  1.00  0.00     0.173 A 
ATOM     70  F   UNL     1     -14.733  -6.591  -9.997  1.00  0.00    -0.203 F 
ATOM     71  C   UNL     1     -15.852  -7.690 -11.731  1.00  0.00     0.198 A 
ATOM     72  C   UNL     1     -14.727  -9.299 -13.079  1.00  0.00     0.198 A 
ATOM     73  F   UNL     1     -12.552  -9.937 -12.627  1.00  0.00    -0.203 F 
ATOM     74  F   UNL     1     -16.978  -7.056 -11.378  1.00  0.00    -0.200 F 
ATOM     75  C   UNL     1     -15.877  -8.604 -12.767  1.00  0.00     0.200 A 
ATOM     76  F   UNL     1     -14.745 -10.215 -14.059  1.00  0.00    -0.200 F 
ATOM     77  F   UNL     1     -17.012  -8.841 -13.439  1.00  0.00    -0.200 F 
ENDBRANCH  53  67
BRANCH  54  78
ATOM     78  C   UNL     1     -13.412 -16.232  -7.421  1.00  0.00     0.064 A 
ATOM     79  C   UNL     1     -14.679 -16.763  -7.036  1.00  0.00     0.173 A 
ATOM     80  C   UNL     1     -12.711 -17.023  -8.343  1.00  0.00     0.173 A 
ATOM     81  F   UNL     1     -15.485 -16.084  -6.204  1.00  0.00    -0.203 F 
ATOM     82  C   UNL     1     -15.179 -17.989  -7.546  1.00  0.00     0.198 A 
ATOM     83  C   UNL     1     -13.214 -18.226  -8.863  1.00  0.00     0.198 A 
ATOM     84  F   UNL     1     -11.549 -16.584  -8.841  1.00  0.00    -0.203 F 
ATOM     85  F   UNL     1     -16.390 -18.447  -7.183  1.00  0.00    -0.200 F 
ATOM     86  C   UNL     1     -14.447 -18.710  -8.473  1.00  0.00     0.200 A 
ATOM     87  F   UNL     1     -12.511 -18.881  -9.796  1.00  0.00    -0.200 F 
ATOM     88  F   UNL     1     -14.935 -19.837  -9.015  1.00  0.00    -0.200 F 
ENDBRANCH  54  78
BRANCH  66  89
ATOM     89  C   UNL     1     -12.808 -10.593  -4.889  1.00  0.00     0.064 A 
ATOM     90  C   UNL     1     -11.694 -11.296  -4.391  1.00  0.00     0.173 A 
ATOM     91  C   UNL     1     -13.430  -9.693  -4.017  1.00  0.00     0.173 A 
ATOM     92  F   UNL     1     -10.948 -12.062  -5.196  1.00  0.00    -0.203 F 
ATOM     93  C   UNL     1     -11.267 -11.142  -3.067  1.00  0.00     0.198 A 
ATOM     94  C   UNL     1     -12.977  -9.507  -2.715  1.00  0.00     0.198 A 
ATOM     95  F   UNL     1     -14.426  -8.916  -4.467  1.00  0.00    -0.203 F 
ATOM     96  F   UNL     1     -10.195 -11.815  -2.617  1.00  0.00    -0.200 F 
ATOM     97  C   UNL     1     -11.911 -10.245  -2.231  1.00  0.00     0.200 A 
ATOM     98  F   UNL     1     -13.544  -8.566  -1.949  1.00  0.00    -0.200 F 
ATOM     99  F   UNL     1     -11.479 -10.059  -0.976  1.00  0.00    -0.200 F 
ENDBRANCH  66  89
ENDBRANCH  40  41
ENDBRANCH  32  35
ENDBRANCH  30  31
ENDBRANCH  29  30
ENDBRANCH  28  29
ENDBRANCH  27  28
ENDBRANCH   1  27
TORSDOF 17
