REMARK SMILES CC1(C)[C@H](C(=O)NCCCCCCNC(=O)c2ccc(-c3c4nc(c(-c5c(F)c(F)c(F)c(F)c5F)c5ccc([nH]5)c(-c5c(F)c(F)c(F)c(F)c5F)c5nc(c(-c6c(F)c(F)c(F)c(F)c6F)c6ccc3[nH]6)C=C5)C=C4)cc2)[C@H]1C(=O)Nc1nc(-c2ccco2)n[nH]1
REMARK SMILES IDX 10 1 9 2 8 3 7 4 5 5 6 6 4 8 1 9 2 10 3 11 80 12 81 13 82 14
REMARK SMILES IDX 83 15 84 17 85 18 93 19 86 20 92 21 87 23 88 24 91 25 89 26
REMARK SMILES IDX 90 27 11 28 12 29 13 30 14 31 15 32 16 34 17 35 18 36 79 37
REMARK SMILES IDX 19 38 78 39 20 40 21 41 22 42 72 43 23 44 77 45 71 46 73 47
REMARK SMILES IDX 24 48 76 49 70 50 69 51 25 53 57 54 37 55 56 56 38 57 41 58
REMARK SMILES IDX 55 59 74 60 39 61 40 62 54 64 75 65 42 66 26 67 27 68 35 69
REMARK SMILES IDX 28 70 29 71 33 72 36 73 30 74 31 75 34 76 32 77 58 78 59 79
REMARK SMILES IDX 67 80 60 81 61 82 65 83 68 84 62 85 63 86 66 87 64 88 43 89
REMARK SMILES IDX 44 90 52 91 45 92 46 93 50 94 53 95 47 96 48 97 51 98 49 99
REMARK H PARENT 7 7 83 16 93 22 14 33 73 52 41 63
REMARK Flexibility Score: inf
ROOT
ATOM      1  C   UNL     1      -1.066   5.174  -1.770  1.00  0.00     0.002 C 
ENDROOT
BRANCH   1   2
ATOM      2  C   UNL     1      -0.466   4.008  -0.980  1.00  0.00     0.021 C 
BRANCH   2   3
ATOM      3  C   UNL     1      -1.502   3.030  -0.420  1.00  0.00     0.116 C 
BRANCH   3   4
ATOM      4  N   UNL     1      -1.810   2.005  -1.388  1.00  0.00    -0.356 N 
ATOM      5  C   UNL     1      -1.396   0.724  -1.602  1.00  0.00     0.224 C 
ATOM      6  O   UNL     1      -1.799   0.209  -2.646  1.00  0.00    -0.275 OA
ATOM      7  H   UNL     1      -2.476   2.301  -2.050  1.00  0.00     0.163 HD
BRANCH   5   8
ATOM      8  C   UNL     1      -0.587  -0.140  -0.699  1.00  0.00     0.098 C 
ATOM      9  C   UNL     1       1.663  -0.972   0.276  1.00  0.00     0.013 C 
ATOM     10  C   UNL     1       0.608   0.113   0.218  1.00  0.00    -0.011 C 
ATOM     11  C   UNL     1       1.227   1.477   0.353  1.00  0.00     0.013 C 
ATOM     12  C   UNL     1      -0.797  -0.156   0.791  1.00  0.00     0.098 C 
BRANCH  12  13
ATOM     13  C   UNL     1      -1.193  -1.396   1.539  1.00  0.00     0.231 C 
ATOM     14  O   UNL     1      -1.079  -1.427   2.752  1.00  0.00    -0.274 OA
ATOM     15  N   UNL     1      -1.851  -2.365   0.824  1.00  0.00    -0.295 N 
ATOM     16  H   UNL     1      -2.835  -2.354   0.799  1.00  0.00     0.173 HD
BRANCH  15  17
ATOM     17  C   UNL     1      -1.182  -3.346   0.144  1.00  0.00     0.225 A 
ATOM     18  N   UNL     1      -1.676  -4.104  -0.803  1.00  0.00    -0.188 NA
ATOM     19  N   UNL     1       0.115  -3.707   0.362  1.00  0.00    -0.244 N 
ATOM     20  C   UNL     1      -0.582  -4.811  -1.251  1.00  0.00     0.218 A 
ATOM     21  N   UNL     1       0.539  -4.599  -0.541  1.00  0.00    -0.149 NA
ATOM     22  H   UNL     1       0.671  -3.354   1.094  1.00  0.00     0.193 HD
BRANCH  20  23
ATOM     23  C   UNL     1      -0.622  -5.722  -2.434  1.00  0.00     0.173 A 
ATOM     24  C   UNL     1       0.440  -6.472  -2.909  1.00  0.00     0.054 A 
ATOM     25  O   UNL     1      -1.716  -5.938  -3.228  1.00  0.00    -0.461 OA
ATOM     26  C   UNL     1      -0.033  -7.187  -4.036  1.00  0.00     0.043 A 
ATOM     27  C   UNL     1      -1.347  -6.819  -4.193  1.00  0.00     0.196 A 
ENDBRANCH  20  23
ENDBRANCH  15  17
ENDBRANCH  12  13
ENDBRANCH   5   8
ENDBRANCH   3   4
ENDBRANCH   2   3
ENDBRANCH   1   2
BRANCH   1  28
ATOM     28  C   UNL     1      -1.976   6.104  -0.962  1.00  0.00     0.002 C 
BRANCH  28  29
ATOM     29  C   UNL     1      -1.373   6.636   0.340  1.00  0.00     0.021 C 
BRANCH  29  30
ATOM     30  C   UNL     1      -0.066   7.404   0.169  1.00  0.00     0.116 C 
BRANCH  30  31
ATOM     31  N   UNL     1      -0.240   8.594  -0.648  1.00  0.00    -0.352 N 
ATOM     32  C   UNL     1      -0.009   9.909  -0.337  1.00  0.00     0.251 C 
ATOM     33  H   UNL     1      -0.574   8.431  -1.560  1.00  0.00     0.163 HD
ATOM     34  O   UNL     1      -0.430  10.799  -1.069  1.00  0.00    -0.269 OA
BRANCH  32  35
ATOM     35  C   UNL     1       0.743  10.259   0.887  1.00  0.00     0.039 A 
ATOM     36  C   UNL     1       0.290  11.319   1.677  1.00  0.00     0.014 A 
ATOM     37  C   UNL     1       1.907   9.569   1.237  1.00  0.00     0.014 A 
ATOM     38  C   UNL     1       0.979  11.657   2.842  1.00  0.00     0.010 A 
ATOM     39  C   UNL     1       2.550   9.859   2.437  1.00  0.00     0.010 A 
ATOM     40  C   UNL     1       2.100  10.913   3.246  1.00  0.00    -0.014 A 
BRANCH  40  41
ATOM     41  C   UNL     1       2.818  11.235   4.505  1.00  0.00     0.031 A 
ATOM     42  C   UNL     1       4.244  11.711   4.462  1.00  0.00     0.074 A 
ATOM     43  C   UNL     1       2.203  11.048   5.688  1.00  0.00     0.049 A 
ATOM     44  N   UNL     1       5.054  11.995   5.452  1.00  0.00    -0.248 NA
ATOM     45  C   UNL     1       4.851  11.865   3.130  1.00  0.00     0.031 C 
ATOM     46  C   UNL     1       0.840  10.545   5.861  1.00  0.00     0.029 A 
ATOM     47  N   UNL     1       2.647  11.251   6.971  1.00  0.00    -0.354 N 
ATOM     48  C   UNL     1       6.262  12.345   4.864  1.00  0.00     0.074 A 
ATOM     49  C   UNL     1       6.099  12.187   3.435  1.00  0.00     0.031 C 
ATOM     50  C   UNL     1       0.550  10.501   7.171  1.00  0.00     0.029 A 
ATOM     51  C   UNL     1       1.718  10.936   7.932  1.00  0.00     0.049 A 
ATOM     52  H   UNL     1       3.547  11.591   7.182  1.00  0.00     0.167 HD
ATOM     53  C   UNL     1       7.396  12.784   5.460  1.00  0.00     0.037 A 
ATOM     54  C   UNL     1       1.801  10.988   9.275  1.00  0.00     0.037 A 
ATOM     55  C   UNL     1       7.545  12.964   6.881  1.00  0.00     0.049 A 
ATOM     56  C   UNL     1       3.073  11.478   9.911  1.00  0.00     0.074 A 
ATOM     57  C   UNL     1       8.633  13.457   7.580  1.00  0.00     0.029 A 
ATOM     58  N   UNL     1       6.574  12.654   7.822  1.00  0.00    -0.354 N 
ATOM     59  N   UNL     1       4.186  11.875   9.342  1.00  0.00    -0.248 NA
ATOM     60  C   UNL     1       3.097  11.539  11.379  1.00  0.00     0.031 C 
ATOM     61  C   UNL     1       8.340  13.398   8.946  1.00  0.00     0.029 A 
ATOM     62  C   UNL     1       7.046  12.924   9.097  1.00  0.00     0.049 A 
ATOM     63  H   UNL     1       5.681  12.294   7.615  1.00  0.00     0.167 HD
ATOM     64  C   UNL     1       5.027  12.262  10.376  1.00  0.00     0.074 A 
ATOM     65  C   UNL     1       4.291  12.068  11.607  1.00  0.00     0.031 C 
ATOM     66  C   UNL     1       6.296  12.735  10.312  1.00  0.00     0.037 A 
BRANCH  53  67
ATOM     67  C   UNL     1       8.569  13.104   4.578  1.00  0.00     0.064 A 
ATOM     68  C   UNL     1       8.560  14.208   3.712  1.00  0.00     0.173 A 
ATOM     69  C   UNL     1       9.733  12.322   4.628  1.00  0.00     0.173 A 
ATOM     70  F   UNL     1       7.469  14.983   3.615  1.00  0.00    -0.203 F 
ATOM     71  C   UNL     1       9.661  14.500   2.909  1.00  0.00     0.198 A 
ATOM     72  C   UNL     1      10.843  12.636   3.849  1.00  0.00     0.198 A 
ATOM     73  F   UNL     1       9.798  11.258   5.443  1.00  0.00    -0.203 F 
ATOM     74  F   UNL     1       9.610  15.530   2.054  1.00  0.00    -0.200 F 
ATOM     75  C   UNL     1      10.804  13.719   2.985  1.00  0.00     0.200 A 
ATOM     76  F   UNL     1      11.953  11.888   3.933  1.00  0.00    -0.200 F 
ATOM     77  F   UNL     1      11.866  14.007   2.219  1.00  0.00    -0.200 F 
ENDBRANCH  53  67
BRANCH  54  78
ATOM     78  C   UNL     1       0.637  10.586  10.109  1.00  0.00     0.064 A 
ATOM     79  C   UNL     1      -0.072  11.534  10.861  1.00  0.00     0.173 A 
ATOM     80  C   UNL     1       0.217   9.250  10.182  1.00  0.00     0.173 A 
ATOM     81  F   UNL     1       0.303  12.822  10.839  1.00  0.00    -0.203 F 
ATOM     82  C   UNL     1      -1.138  11.157  11.674  1.00  0.00     0.198 A 
ATOM     83  C   UNL     1      -0.869   8.879  10.972  1.00  0.00     0.198 A 
ATOM     84  F   UNL     1       0.857   8.305   9.477  1.00  0.00    -0.203 F 
ATOM     85  F   UNL     1      -1.764  12.075  12.423  1.00  0.00    -0.200 F 
ATOM     86  C   UNL     1      -1.539   9.831  11.725  1.00  0.00     0.200 A 
ATOM     87  F   UNL     1      -1.264   7.599  11.005  1.00  0.00    -0.200 F 
ATOM     88  F   UNL     1      -2.566   9.468  12.506  1.00  0.00    -0.200 F 
ENDBRANCH  54  78
BRANCH  66  89
ATOM     89  C   UNL     1       6.953  13.118  11.607  1.00  0.00     0.064 A 
ATOM     90  C   UNL     1       7.348  12.157  12.549  1.00  0.00     0.173 A 
ATOM     91  C   UNL     1       7.218  14.466  11.895  1.00  0.00     0.173 A 
ATOM     92  F   UNL     1       7.105  10.856  12.329  1.00  0.00    -0.203 F 
ATOM     93  C   UNL     1       7.953  12.533  13.746  1.00  0.00     0.198 A 
ATOM     94  C   UNL     1       7.854  14.836  13.076  1.00  0.00     0.198 A 
ATOM     95  F   UNL     1       6.869  15.425  11.024  1.00  0.00    -0.203 F 
ATOM     96  F   UNL     1       8.270  11.602  14.656  1.00  0.00    -0.200 F 
ATOM     97  C   UNL     1       8.212  13.871  14.005  1.00  0.00     0.200 A 
ATOM     98  F   UNL     1       8.117  16.128  13.317  1.00  0.00    -0.200 F 
ATOM     99  F   UNL     1       8.800  14.231  15.154  1.00  0.00    -0.200 F 
ENDBRANCH  66  89
ENDBRANCH  40  41
ENDBRANCH  32  35
ENDBRANCH  30  31
ENDBRANCH  29  30
ENDBRANCH  28  29
ENDBRANCH   1  28
TORSDOF 16
