REMARK SMILES CC[C@](C)(NC(=O)N[C@@H]1C[C@@H]1C)C(=O)NCCCCCCNC(=O)c1ccc(-c2c3nc(c(-c4c(F)c(F)c(F)c(F)c4F)c4ccc([nH]4)c(-c4c(F)c(F)c(F)c(F)c4F)c4nc(c(-c5c(F)c(F)c(F)c(F)c5F)c5ccc2[nH]5)C=C4)C=C3)cc1
REMARK SMILES IDX 18 1 17 2 16 3 15 4 13 5 14 6 3 8 4 9 2 10 1 11 5 12 6 13
REMARK SMILES IDX 7 15 8 16 9 18 10 19 11 20 12 21 19 22 20 23 21 24 22 25
REMARK SMILES IDX 23 26 24 28 25 29 26 30 87 31 27 32 86 33 28 34 29 35 30 36
REMARK SMILES IDX 80 37 31 38 85 39 79 40 81 41 32 42 84 43 78 44 77 45 33 47
REMARK SMILES IDX 65 48 45 49 64 50 46 51 49 52 63 53 82 54 47 55 48 56 62 58
REMARK SMILES IDX 83 59 50 60 34 61 35 62 43 63 36 64 37 65 41 66 44 67 38 68
REMARK SMILES IDX 39 69 42 70 40 71 66 72 67 73 75 74 68 75 69 76 73 77 76 78
REMARK SMILES IDX 70 79 71 80 74 81 72 82 51 83 52 84 60 85 53 86 54 87 58 88
REMARK SMILES IDX 61 89 55 90 56 91 59 92 57 93
REMARK H PARENT 15 7 5 14 8 17 22 27 81 46 49 57
REMARK Flexibility Score: inf
ROOT
ATOM      1  C   UNL     1       4.486   5.643  -2.459  1.00  0.00     0.002 C 
ENDROOT
BRANCH   1   2
ATOM      2  C   UNL     1       2.968   5.602  -2.297  1.00  0.00     0.021 C 
BRANCH   2   3
ATOM      3  C   UNL     1       2.277   4.389  -2.914  1.00  0.00     0.116 C 
BRANCH   3   4
ATOM      4  N   UNL     1       2.767   3.107  -2.446  1.00  0.00    -0.354 N 
ATOM      5  C   UNL     1       2.143   2.138  -1.706  1.00  0.00     0.245 C 
ATOM      6  O   UNL     1       2.608   0.996  -1.793  1.00  0.00    -0.272 OA
ATOM      7  H   UNL     1       3.696   2.901  -2.699  1.00  0.00     0.163 HD
BRANCH   5   8
ATOM      8  C   UNL     1       0.794   2.406  -1.003  1.00  0.00     0.117 C 
ATOM      9  C   UNL     1       0.452   1.418   0.134  1.00  0.00     0.045 C 
BRANCH   8  10
ATOM     10  C   UNL     1      -0.290   2.226  -2.125  1.00  0.00     0.035 C 
ATOM     11  C   UNL     1      -0.252   0.871  -2.836  1.00  0.00     0.007 C 
ENDBRANCH   8  10
BRANCH   8  12
ATOM     12  N   UNL     1       0.724   3.775  -0.465  1.00  0.00    -0.324 N 
ATOM     13  C   UNL     1       1.354   4.393   0.536  1.00  0.00     0.315 C 
ATOM     14  H   UNL     1       0.083   4.351  -0.940  1.00  0.00     0.166 HD
ATOM     15  O   UNL     1       0.762   5.355   1.040  1.00  0.00    -0.249 OA
ATOM     16  N   UNL     1       2.537   4.073   1.075  1.00  0.00    -0.335 N 
ATOM     17  H   UNL     1       2.525   4.234   2.046  1.00  0.00     0.165 HD
BRANCH  16  18
ATOM     18  C   UNL     1       3.816   3.569   0.670  1.00  0.00     0.087 C 
ATOM     19  C   UNL     1       4.434   2.261   0.266  1.00  0.00     0.030 C 
ATOM     20  C   UNL     1       4.370   2.578   1.708  1.00  0.00     0.010 C 
ATOM     21  C   UNL     1       3.439   1.740   2.532  1.00  0.00     0.010 C 
ENDBRANCH  16  18
ENDBRANCH   8  12
ENDBRANCH   5   8
ENDBRANCH   3   4
ENDBRANCH   2   3
ENDBRANCH   1   2
BRANCH   1  22
ATOM     22  C   UNL     1       4.987   5.543  -3.900  1.00  0.00     0.002 C 
BRANCH  22  23
ATOM     23  C   UNL     1       4.338   6.521  -4.881  1.00  0.00     0.021 C 
BRANCH  23  24
ATOM     24  C   UNL     1       4.444   7.988  -4.481  1.00  0.00     0.116 C 
BRANCH  24  25
ATOM     25  N   UNL     1       5.814   8.467  -4.516  1.00  0.00    -0.352 N 
ATOM     26  C   UNL     1       6.371   9.460  -5.287  1.00  0.00     0.251 C 
ATOM     27  H   UNL     1       6.434   8.017  -3.897  1.00  0.00     0.163 HD
ATOM     28  O   UNL     1       7.583   9.604  -5.335  1.00  0.00    -0.269 OA
BRANCH  26  29
ATOM     29  C   UNL     1       5.490  10.336  -6.090  1.00  0.00     0.039 A 
ATOM     30  C   UNL     1       5.810  10.567  -7.429  1.00  0.00     0.014 A 
ATOM     31  C   UNL     1       4.345  10.910  -5.530  1.00  0.00     0.014 A 
ATOM     32  C   UNL     1       4.938  11.307  -8.229  1.00  0.00     0.010 A 
ATOM     33  C   UNL     1       3.439  11.582  -6.347  1.00  0.00     0.010 A 
ATOM     34  C   UNL     1       3.722  11.779  -7.707  1.00  0.00    -0.014 A 
BRANCH  34  35
ATOM     35  C   UNL     1       2.720  12.444  -8.578  1.00  0.00     0.031 A 
ATOM     36  C   UNL     1       2.324  13.872  -8.336  1.00  0.00     0.074 A 
ATOM     37  C   UNL     1       2.109  11.731  -9.545  1.00  0.00     0.049 A 
ATOM     38  N   UNL     1       1.418  14.595  -8.946  1.00  0.00    -0.248 NA
ATOM     39  C   UNL     1       3.019  14.572  -7.247  1.00  0.00     0.031 C 
ATOM     40  C   UNL     1       2.367  10.322  -9.843  1.00  0.00     0.029 A 
ATOM     41  N   UNL     1       1.134  12.088 -10.443  1.00  0.00    -0.354 N 
ATOM     42  C   UNL     1       1.434  15.831  -8.315  1.00  0.00     0.074 A 
ATOM     43  C   UNL     1       2.392  15.739  -7.234  1.00  0.00     0.031 C 
ATOM     44  C   UNL     1       1.580   9.937 -10.860  1.00  0.00     0.029 A 
ATOM     45  C   UNL     1       0.731  11.056 -11.255  1.00  0.00     0.049 A 
ATOM     46  H   UNL     1       0.759  12.997 -10.500  1.00  0.00     0.167 HD
ATOM     47  C   UNL     1       0.732  16.948  -8.624  1.00  0.00     0.037 A 
ATOM     48  C   UNL     1      -0.229  11.009 -12.199  1.00  0.00     0.037 A 
ATOM     49  C   UNL     1      -0.224  17.032  -9.699  1.00  0.00     0.049 A 
ATOM     50  C   UNL     1      -1.021  12.250 -12.504  1.00  0.00     0.074 A 
ATOM     51  C   UNL     1      -0.949  18.130 -10.127  1.00  0.00     0.029 A 
ATOM     52  N   UNL     1      -0.601  15.967 -10.507  1.00  0.00    -0.354 N 
ATOM     53  N   UNL     1      -0.942  13.437 -11.954  1.00  0.00    -0.248 NA
ATOM     54  C   UNL     1      -2.032  12.147 -13.565  1.00  0.00     0.031 C 
ATOM     55  C   UNL     1      -1.809  17.717 -11.150  1.00  0.00     0.029 A 
ATOM     56  C   UNL     1      -1.575  16.375 -11.406  1.00  0.00     0.049 A 
ATOM     57  H   UNL     1      -0.231  15.057 -10.450  1.00  0.00     0.167 HD
ATOM     58  C   UNL     1      -1.877  14.226 -12.609  1.00  0.00     0.074 A 
ATOM     59  C   UNL     1      -2.497  13.387 -13.614  1.00  0.00     0.031 C 
ATOM     60  C   UNL     1      -2.194  15.527 -12.395  1.00  0.00     0.037 A 
BRANCH  47  61
ATOM     61  C   UNL     1       0.969  18.168  -7.777  1.00  0.00     0.064 A 
ATOM     62  C   UNL     1       2.198  18.846  -7.788  1.00  0.00     0.173 A 
ATOM     63  C   UNL     1      -0.048  18.673  -6.952  1.00  0.00     0.173 A 
ATOM     64  F   UNL     1       3.208  18.403  -8.553  1.00  0.00    -0.203 F 
ATOM     65  C   UNL     1       2.415  19.954  -6.972  1.00  0.00     0.198 A 
ATOM     66  C   UNL     1       0.161  19.803  -6.165  1.00  0.00     0.198 A 
ATOM     67  F   UNL     1      -1.246  18.072  -6.908  1.00  0.00    -0.203 F 
ATOM     68  F   UNL     1       3.619  20.542  -6.950  1.00  0.00    -0.200 F 
ATOM     69  C   UNL     1       1.395  20.434  -6.165  1.00  0.00     0.200 A 
ATOM     70  F   UNL     1      -0.832  20.276  -5.399  1.00  0.00    -0.200 F 
ATOM     71  F   UNL     1       1.605  21.500  -5.380  1.00  0.00    -0.200 F 
ENDBRANCH  47  61
BRANCH  48  72
ATOM     72  C   UNL     1      -0.487   9.733 -12.917  1.00  0.00     0.064 A 
ATOM     73  C   UNL     1      -0.164   9.585 -14.272  1.00  0.00     0.173 A 
ATOM     74  C   UNL     1      -1.039   8.627 -12.254  1.00  0.00     0.173 A 
ATOM     75  F   UNL     1       0.348  10.620 -14.955  1.00  0.00    -0.203 F 
ATOM     76  C   UNL     1      -0.395   8.384 -14.940  1.00  0.00     0.198 A 
ATOM     77  C   UNL     1      -1.240   7.417 -12.914  1.00  0.00     0.198 A 
ATOM     78  F   UNL     1      -1.360   8.713 -10.954  1.00  0.00    -0.203 F 
ATOM     79  F   UNL     1      -0.112   8.282 -16.246  1.00  0.00    -0.200 F 
ATOM     80  C   UNL     1      -0.924   7.298 -14.259  1.00  0.00     0.200 A 
ATOM     81  F   UNL     1      -1.734   6.365 -12.246  1.00  0.00    -0.200 F 
ATOM     82  F   UNL     1      -1.132   6.140 -14.898  1.00  0.00    -0.200 F 
ENDBRANCH  48  72
BRANCH  60  83
ATOM     83  C   UNL     1      -3.253  16.132 -13.273  1.00  0.00     0.064 A 
ATOM     84  C   UNL     1      -4.604  15.771 -13.153  1.00  0.00     0.173 A 
ATOM     85  C   UNL     1      -2.920  17.117 -14.216  1.00  0.00     0.173 A 
ATOM     86  F   UNL     1      -4.975  14.823 -12.279  1.00  0.00    -0.203 F 
ATOM     87  C   UNL     1      -5.577  16.357 -13.960  1.00  0.00     0.198 A 
ATOM     88  C   UNL     1      -3.899  17.724 -14.997  1.00  0.00     0.198 A 
ATOM     89  F   UNL     1      -1.644  17.503 -14.368  1.00  0.00    -0.203 F 
ATOM     90  F   UNL     1      -6.853  15.961 -13.861  1.00  0.00    -0.200 F 
ATOM     91  C   UNL     1      -5.225  17.339 -14.874  1.00  0.00     0.200 A 
ATOM     92  F   UNL     1      -3.559  18.684 -15.869  1.00  0.00    -0.200 F 
ATOM     93  F   UNL     1      -6.164  17.909 -15.642  1.00  0.00    -0.200 F 
ENDBRANCH  60  83
ENDBRANCH  34  35
ENDBRANCH  26  29
ENDBRANCH  24  25
ENDBRANCH  23  24
ENDBRANCH  22  23
ENDBRANCH   1  22
TORSDOF 16
