REMARK SMILES C[NH+](C)Cc1noc(C[C@@](C)(C(=O)NCCCCCCNC(=O)c2ccc(-c3c4nc(c(-c5c(F)c(F)c(F)c(F)c5F)c5ccc([nH]5)c(-c5c(F)c(F)c(F)c(F)c5F)c5nc(c(-c6c(F)c(F)c(F)c(F)c6F)c6ccc3[nH]6)C=C5)C=C4)cc2)c2ccccc2)n1
REMARK SMILES IDX 16 1 15 2 14 3 12 4 13 5 10 7 11 8 9 9 8 10 5 11 6 12 93 13
REMARK SMILES IDX 7 14 4 15 2 16 1 17 3 18 87 20 88 21 92 22 89 23 91 24 90 25
REMARK SMILES IDX 17 26 18 27 19 28 20 29 21 30 22 31 23 33 24 34 25 35 86 36
REMARK SMILES IDX 26 37 85 38 27 39 28 40 29 41 79 42 30 43 84 44 78 45 80 46
REMARK SMILES IDX 31 47 83 48 77 49 76 50 32 52 64 53 44 54 63 55 45 56 48 57
REMARK SMILES IDX 62 58 81 59 46 60 47 61 61 63 82 64 49 65 33 66 34 67 42 68
REMARK SMILES IDX 35 69 36 70 40 71 43 72 37 73 38 74 41 75 39 76 65 77 66 78
REMARK SMILES IDX 74 79 67 80 68 81 72 82 75 83 69 84 70 85 73 86 71 87 50 88
REMARK SMILES IDX 51 89 59 90 52 91 53 92 57 93 60 94 54 95 55 96 58 97 56 98
REMARK H PARENT 14 6 2 19 21 32 80 51 48 62
REMARK Flexibility Score: inf
ROOT
ATOM      1  C   UNL     1       0.381  -3.377  -8.614  1.00  0.00     0.021 C 
ENDROOT
BRANCH   1   2
ATOM      2  C   UNL     1      -0.602  -2.329  -8.095  1.00  0.00     0.116 C 
BRANCH   2   3
ATOM      3  N   UNL     1      -1.883  -2.924  -7.754  1.00  0.00    -0.355 N 
ATOM      4  C   UNL     1      -2.595  -3.037  -6.595  1.00  0.00     0.230 C 
ATOM      5  O   UNL     1      -3.674  -3.627  -6.712  1.00  0.00    -0.274 OA
ATOM      6  H   UNL     1      -2.334  -3.335  -8.526  1.00  0.00     0.163 HD
BRANCH   4   7
ATOM      7  C   UNL     1      -2.101  -2.454  -5.235  1.00  0.00     0.080 C 
ATOM      8  C   UNL     1      -1.991  -0.919  -5.425  1.00  0.00     0.027 C 
BRANCH   7   9
ATOM      9  C   UNL     1      -0.739  -3.117  -4.885  1.00  0.00     0.122 C 
BRANCH   9  10
ATOM     10  C   UNL     1      -0.083  -2.573  -3.673  1.00  0.00     0.228 A 
ATOM     11  C   UNL     1       0.781  -2.157  -1.816  1.00  0.00     0.226 A 
ATOM     12  N   UNL     1       1.286  -1.201  -2.612  1.00  0.00    -0.056 NA
ATOM     13  N   UNL     1      -0.057  -3.044  -2.449  1.00  0.00    -0.190 NA
ATOM     14  O   UNL     1       0.704  -1.472  -3.848  1.00  0.00    -0.339 OA
BRANCH  11  15
ATOM     15  C   UNL     1       1.144  -2.301  -0.370  1.00  0.00     0.344 C 
BRANCH  15  16
ATOM     16  N   UNL     1       0.519  -1.322   0.544  1.00  0.00    -0.333 N 
ATOM     17  C   UNL     1       0.996   0.040   0.325  1.00  0.00     0.332 C 
ATOM     18  C   UNL     1      -0.941  -1.386   0.517  1.00  0.00     0.332 C 
ATOM     19  H   UNL     1       0.815  -1.592   1.482  1.00  0.00     0.348 HD
ENDBRANCH  15  16
ENDBRANCH  11  15
ENDBRANCH   9  10
ENDBRANCH   7   9
BRANCH   7  20
ATOM     20  C   UNL     1      -3.107  -2.799  -4.089  1.00  0.00    -0.032 A 
ATOM     21  C   UNL     1      -3.740  -1.816  -3.306  1.00  0.00     0.005 A 
ATOM     22  C   UNL     1      -3.366  -4.146  -3.759  1.00  0.00     0.005 A 
ATOM     23  C   UNL     1      -4.556  -2.161  -2.224  1.00  0.00     0.000 A 
ATOM     24  C   UNL     1      -4.178  -4.490  -2.675  1.00  0.00     0.000 A 
ATOM     25  C   UNL     1      -4.766  -3.497  -1.901  1.00  0.00     0.000 A 
ENDBRANCH   7  20
ENDBRANCH   4   7
ENDBRANCH   2   3
ENDBRANCH   1   2
BRANCH   1  26
ATOM     26  C   UNL     1       0.057  -3.901 -10.017  1.00  0.00     0.002 C 
BRANCH  26  27
ATOM     27  C   UNL     1      -0.052  -2.826 -11.104  1.00  0.00     0.002 C 
BRANCH  27  28
ATOM     28  C   UNL     1       1.140  -1.870 -11.201  1.00  0.00     0.021 C 
BRANCH  28  29
ATOM     29  C   UNL     1       2.483  -2.549 -11.445  1.00  0.00     0.116 C 
BRANCH  29  30
ATOM     30  N   UNL     1       2.519  -3.254 -12.715  1.00  0.00    -0.352 N 
ATOM     31  C   UNL     1       3.428  -3.157 -13.735  1.00  0.00     0.251 C 
ATOM     32  H   UNL     1       1.784  -3.892 -12.864  1.00  0.00     0.163 HD
ATOM     33  O   UNL     1       3.200  -3.691 -14.821  1.00  0.00    -0.269 OA
BRANCH  31  34
ATOM     34  C   UNL     1       4.679  -2.396 -13.542  1.00  0.00     0.039 A 
ATOM     35  C   UNL     1       5.102  -1.524 -14.549  1.00  0.00     0.014 A 
ATOM     36  C   UNL     1       5.441  -2.551 -12.380  1.00  0.00     0.014 A 
ATOM     37  C   UNL     1       6.261  -0.768 -14.368  1.00  0.00     0.010 A 
ATOM     38  C   UNL     1       6.557  -1.746 -12.171  1.00  0.00     0.010 A 
ATOM     39  C   UNL     1       6.982  -0.852 -13.166  1.00  0.00    -0.014 A 
BRANCH  39  40
ATOM     40  C   UNL     1       8.189  -0.019 -12.935  1.00  0.00     0.031 A 
ATOM     41  C   UNL     1       9.535  -0.670 -12.775  1.00  0.00     0.074 A 
ATOM     42  C   UNL     1       8.063   1.315 -12.807  1.00  0.00     0.049 A 
ATOM     43  N   UNL     1      10.692  -0.123 -12.498  1.00  0.00    -0.248 NA
ATOM     44  C   UNL     1       9.582  -2.133 -12.918  1.00  0.00     0.031 C 
ATOM     45  C   UNL     1       6.805   2.058 -12.897  1.00  0.00     0.029 A 
ATOM     46  N   UNL     1       9.005   2.284 -12.563  1.00  0.00    -0.354 N 
ATOM     47  C   UNL     1      11.597  -1.173 -12.418  1.00  0.00     0.074 A 
ATOM     48  C   UNL     1      10.848  -2.394 -12.625  1.00  0.00     0.031 C 
ATOM     49  C   UNL     1       7.055   3.366 -12.727  1.00  0.00     0.029 A 
ATOM     50  C   UNL     1       8.482   3.551 -12.482  1.00  0.00     0.049 A 
ATOM     51  H   UNL     1       9.963   2.088 -12.455  1.00  0.00     0.167 HD
ATOM     52  C   UNL     1      12.934  -1.122 -12.214  1.00  0.00     0.037 A 
ATOM     53  C   UNL     1       9.085   4.728 -12.230  1.00  0.00     0.037 A 
ATOM     54  C   UNL     1      13.680   0.096 -12.037  1.00  0.00     0.049 A 
ATOM     55  C   UNL     1      10.573   4.758 -12.008  1.00  0.00     0.074 A 
ATOM     56  C   UNL     1      15.046   0.259 -11.888  1.00  0.00     0.029 A 
ATOM     57  N   UNL     1      13.118   1.364 -11.985  1.00  0.00    -0.354 N 
ATOM     58  N   UNL     1      11.429   3.765 -12.004  1.00  0.00    -0.248 NA
ATOM     59  C   UNL     1      11.180   6.073 -11.762  1.00  0.00     0.031 C 
ATOM     60  C   UNL     1      15.307   1.620 -11.698  1.00  0.00     0.029 A 
ATOM     61  C   UNL     1      14.109   2.312 -11.782  1.00  0.00     0.049 A 
ATOM     62  H   UNL     1      12.158   1.561 -12.077  1.00  0.00     0.167 HD
ATOM     63  C   UNL     1      12.675   4.336 -11.786  1.00  0.00     0.074 A 
ATOM     64  C   UNL     1      12.466   5.765 -11.676  1.00  0.00     0.031 C 
ATOM     65  C   UNL     1      13.885   3.731 -11.685  1.00  0.00     0.037 A 
BRANCH  52  66
ATOM     66  C   UNL     1      13.682  -2.424 -12.173  1.00  0.00     0.064 A 
ATOM     67  C   UNL     1      13.864  -3.206 -13.324  1.00  0.00     0.173 A 
ATOM     68  C   UNL     1      14.255  -2.878 -10.975  1.00  0.00     0.173 A 
ATOM     69  F   UNL     1      13.326  -2.823 -14.492  1.00  0.00    -0.203 F 
ATOM     70  C   UNL     1      14.566  -4.407 -13.272  1.00  0.00     0.198 A 
ATOM     71  C   UNL     1      14.984  -4.064 -10.933  1.00  0.00     0.198 A 
ATOM     72  F   UNL     1      14.117  -2.167  -9.846  1.00  0.00    -0.203 F 
ATOM     73  F   UNL     1      14.683  -5.161 -14.374  1.00  0.00    -0.200 F 
ATOM     74  C   UNL     1      15.131  -4.831 -12.079  1.00  0.00     0.200 A 
ATOM     75  F   UNL     1      15.541  -4.466  -9.783  1.00  0.00    -0.200 F 
ATOM     76  F   UNL     1      15.813  -5.984 -12.032  1.00  0.00    -0.200 F 
ENDBRANCH  52  66
BRANCH  53  77
ATOM     77  C   UNL     1       8.285   5.980 -12.199  1.00  0.00     0.064 A 
ATOM     78  C   UNL     1       8.424   6.948 -13.204  1.00  0.00     0.173 A 
ATOM     79  C   UNL     1       7.370   6.237 -11.168  1.00  0.00     0.173 A 
ATOM     80  F   UNL     1       9.301   6.757 -14.200  1.00  0.00    -0.203 F 
ATOM     81  C   UNL     1       7.694   8.134 -13.167  1.00  0.00     0.198 A 
ATOM     82  C   UNL     1       6.620   7.411 -11.147  1.00  0.00     0.198 A 
ATOM     83  F   UNL     1       7.196   5.340 -10.186  1.00  0.00    -0.203 F 
ATOM     84  F   UNL     1       7.880   9.062 -14.115  1.00  0.00    -0.200 F 
ATOM     85  C   UNL     1       6.789   8.362 -12.142  1.00  0.00     0.200 A 
ATOM     86  F   UNL     1       5.735   7.620 -10.163  1.00  0.00    -0.200 F 
ATOM     87  F   UNL     1       6.084   9.501 -12.108  1.00  0.00    -0.200 F 
ENDBRANCH  53  77
BRANCH  65  88
ATOM     88  C   UNL     1      15.081   4.615 -11.481  1.00  0.00     0.064 A 
ATOM     89  C   UNL     1      15.318   5.264 -10.260  1.00  0.00     0.173 A 
ATOM     90  C   UNL     1      16.023   4.779 -12.508  1.00  0.00     0.173 A 
ATOM     91  F   UNL     1      14.440   5.150  -9.253  1.00  0.00    -0.203 F 
ATOM     92  C   UNL     1      16.443   6.066 -10.084  1.00  0.00     0.198 A 
ATOM     93  C   UNL     1      17.162   5.557 -12.318  1.00  0.00     0.198 A 
ATOM     94  F   UNL     1      15.846   4.174 -13.692  1.00  0.00    -0.203 F 
ATOM     95  F   UNL     1      16.626   6.714  -8.926  1.00  0.00    -0.200 F 
ATOM     96  C   UNL     1      17.367   6.205 -11.109  1.00  0.00     0.200 A 
ATOM     97  F   UNL     1      18.060   5.679 -13.304  1.00  0.00    -0.200 F 
ATOM     98  F   UNL     1      18.453   6.971 -10.934  1.00  0.00    -0.200 F 
ENDBRANCH  65  88
ENDBRANCH  39  40
ENDBRANCH  31  34
ENDBRANCH  29  30
ENDBRANCH  28  29
ENDBRANCH  27  28
ENDBRANCH  26  27
ENDBRANCH   1  26
TORSDOF 18
