REMARK SMILES O=C(CNC(=O)N1CC(NCCCCCCNC(=O)c2ccc(-c3c4nc(c(-c5c(F)c(F)c(F)c(F)c5F)c5ccc([nH]5)c(-c5c(F)c(F)c(F)c(F)c5F)c5nc(c(-c6c(F)c(F)c(F)c(F)c6F)c6ccc3[nH]6)C=C5)C=C4)cc2)=[NH+]c2ccccc21)N[C@H](C(=O)[O-])c1ccccc1
REMARK SMILES IDX 12 1 11 2 10 3 7 4 8 5 89 6 9 7 84 8 88 9 83 10 85 11 87 12
REMARK SMILES IDX 86 15 5 16 4 17 6 19 3 20 2 21 1 22 90 23 91 25 95 26 96 27
REMARK SMILES IDX 100 28 97 29 99 30 98 31 92 32 93 33 94 34 13 35 14 36 15 37
REMARK SMILES IDX 16 38 17 39 18 40 19 42 20 43 21 44 82 45 22 46 81 47 23 48
REMARK SMILES IDX 24 49 25 50 75 51 26 52 80 53 74 54 76 55 27 56 79 57 73 58
REMARK SMILES IDX 72 59 28 61 60 62 40 63 59 64 41 65 44 66 58 67 77 68 42 69
REMARK SMILES IDX 43 70 57 72 78 73 45 74 29 75 30 76 38 77 31 78 32 79 36 80
REMARK SMILES IDX 39 81 33 82 34 83 37 84 35 85 61 86 62 87 70 88 63 89 64 90
REMARK SMILES IDX 68 91 71 92 65 93 66 94 69 95 67 96 46 97 47 98 55 99 48 100
REMARK SMILES IDX 49 101 53 102 56 103 50 104 51 105 54 106 52 107
REMARK H PARENT 10 13 83 14 4 18 90 24 17 41 76 60 44 71
REMARK Flexibility Score: inf
ROOT
ATOM      1  C   UNL     1       1.448   7.771   1.601  1.00  0.00     0.046 C 
ENDROOT
BRANCH   1   2
ATOM      2  C   UNL     1       1.393   8.316   3.027  1.00  0.00     0.233 C 
BRANCH   2   3
ATOM      3  N   UNL     1       0.651   7.415   3.872  1.00  0.00    -0.277 N 
ATOM      4  N   UNL     1       2.961   5.077   5.482  1.00  0.00    -0.278 N 
ATOM      5  C   UNL     1       2.606   6.454   5.175  1.00  0.00     0.255 C 
ATOM      6  C   UNL     1       2.072   4.439   6.383  1.00  0.00     0.093 A 
ATOM      7  C   UNL     1       1.121   6.513   4.791  1.00  0.00     0.268 C 
ATOM      8  C   UNL     1       0.709   4.786   6.292  1.00  0.00     0.148 A 
ATOM      9  C   UNL     1       2.500   3.474   7.303  1.00  0.00     0.031 A 
ATOM     10  N   UNL     1       0.238   5.732   5.357  1.00  0.00    -0.241 N 
ATOM     11  C   UNL     1      -0.217   4.093   7.071  1.00  0.00     0.054 A 
ATOM     12  C   UNL     1       1.562   2.817   8.101  1.00  0.00     0.002 A 
ATOM     13  H   UNL     1      -0.328   7.451   3.776  1.00  0.00     0.304 HD
ATOM     14  H   UNL     1      -0.720   5.803   5.140  1.00  0.00     0.312 HD
ATOM     15  C   UNL     1       0.205   3.111   7.970  1.00  0.00     0.005 A 
BRANCH   4  16
ATOM     16  C   UNL     1       4.082   4.548   4.906  1.00  0.00     0.323 C 
ATOM     17  N   UNL     1       4.096   3.245   4.522  1.00  0.00    -0.329 N 
ATOM     18  H   UNL     1       4.986   2.886   4.302  1.00  0.00     0.165 HD
ATOM     19  O   UNL     1       5.058   5.234   4.596  1.00  0.00    -0.248 OA
BRANCH  17  20
ATOM     20  C   UNL     1       2.998   2.296   4.385  1.00  0.00     0.218 C 
BRANCH  20  21
ATOM     21  C   UNL     1       2.721   1.806   2.966  1.00  0.00     0.240 C 
ATOM     22  O   UNL     1       2.103   0.759   2.770  1.00  0.00    -0.273 OA
ATOM     23  N   UNL     1       3.067   2.647   1.931  1.00  0.00    -0.342 N 
ATOM     24  H   UNL     1       3.507   3.509   2.110  1.00  0.00     0.164 HD
BRANCH  23  25
ATOM     25  C   UNL     1       2.767   2.229   0.557  1.00  0.00     0.158 C 
BRANCH  25  26
ATOM     26  C   UNL     1       2.986   3.365  -0.442  1.00  0.00    -0.020 A 
ATOM     27  C   UNL     1       3.847   3.243  -1.549  1.00  0.00     0.006 A 
ATOM     28  C   UNL     1       2.285   4.572  -0.298  1.00  0.00     0.006 A 
ATOM     29  C   UNL     1       4.028   4.290  -2.456  1.00  0.00     0.000 A 
ATOM     30  C   UNL     1       2.480   5.622  -1.203  1.00  0.00     0.000 A 
ATOM     31  C   UNL     1       3.353   5.487  -2.276  1.00  0.00     0.000 A 
ENDBRANCH  25  26
BRANCH  25  32
ATOM     32  C   UNL     1       3.589   0.965   0.206  1.00  0.00     0.068 C 
ATOM     33  O   UNL     1       3.370   0.193  -0.718  1.00  0.00    -0.548 OA
ATOM     34  O   UNL     1       4.748   0.846   0.901  1.00  0.00    -0.548 OA
ENDBRANCH  25  32
ENDBRANCH  23  25
ENDBRANCH  20  21
ENDBRANCH  17  20
ENDBRANCH   4  16
ENDBRANCH   2   3
ENDBRANCH   1   2
BRANCH   1  35
ATOM     35  C   UNL     1       0.091   7.761   0.879  1.00  0.00     0.004 C 
BRANCH  35  36
ATOM     36  C   UNL     1      -0.545   9.137   0.660  1.00  0.00     0.002 C 
BRANCH  36  37
ATOM     37  C   UNL     1       0.342  10.170  -0.037  1.00  0.00     0.021 C 
BRANCH  37  38
ATOM     38  C   UNL     1       0.852   9.765  -1.417  1.00  0.00     0.116 C 
BRANCH  38  39
ATOM     39  N   UNL     1      -0.215   9.651  -2.399  1.00  0.00    -0.352 N 
ATOM     40  C   UNL     1      -0.361  10.307  -3.598  1.00  0.00     0.251 C 
ATOM     41  H   UNL     1      -0.932   9.015  -2.174  1.00  0.00     0.163 HD
ATOM     42  O   UNL     1      -1.408  10.224  -4.233  1.00  0.00    -0.269 OA
BRANCH  40  43
ATOM     43  C   UNL     1       0.745  11.142  -4.110  1.00  0.00     0.039 A 
ATOM     44  C   UNL     1       0.477  12.448  -4.526  1.00  0.00     0.014 A 
ATOM     45  C   UNL     1       2.048  10.640  -4.155  1.00  0.00     0.014 A 
ATOM     46  C   UNL     1       1.530  13.280  -4.917  1.00  0.00     0.010 A 
ATOM     47  C   UNL     1       3.103  11.489  -4.478  1.00  0.00     0.010 A 
ATOM     48  C   UNL     1       2.856  12.819  -4.856  1.00  0.00    -0.014 A 
BRANCH  48  49
ATOM     49  C   UNL     1       4.006  13.703  -5.180  1.00  0.00     0.031 A 
ATOM     50  C   UNL     1       4.900  13.373  -6.342  1.00  0.00     0.074 A 
ATOM     51  C   UNL     1       4.298  14.747  -4.380  1.00  0.00     0.049 A 
ATOM     52  N   UNL     1       6.028  13.929  -6.706  1.00  0.00    -0.248 NA
ATOM     53  C   UNL     1       4.483  12.247  -7.192  1.00  0.00     0.031 C 
ATOM     54  C   UNL     1       3.526  15.157  -3.206  1.00  0.00     0.029 A 
ATOM     55  N   UNL     1       5.340  15.643  -4.420  1.00  0.00    -0.354 N 
ATOM     56  C   UNL     1       6.462  13.210  -7.812  1.00  0.00     0.074 A 
ATOM     57  C   UNL     1       5.505  12.147  -8.029  1.00  0.00     0.031 C 
ATOM     58  C   UNL     1       4.112  16.227  -2.646  1.00  0.00     0.029 A 
ATOM     59  C   UNL     1       5.327  16.550  -3.388  1.00  0.00     0.049 A 
ATOM     60  H   UNL     1       6.030  15.635  -5.122  1.00  0.00     0.167 HD
ATOM     61  C   UNL     1       7.551  13.429  -8.587  1.00  0.00     0.037 A 
ATOM     62  C   UNL     1       6.206  17.519  -3.066  1.00  0.00     0.037 A 
ATOM     63  C   UNL     1       8.489  14.501  -8.380  1.00  0.00     0.049 A 
ATOM     64  C   UNL     1       7.427  17.721  -3.925  1.00  0.00     0.074 A 
ATOM     65  C   UNL     1       9.595  14.838  -9.141  1.00  0.00     0.029 A 
ATOM     66  N   UNL     1       8.432  15.410  -7.333  1.00  0.00    -0.354 N 
ATOM     67  N   UNL     1       7.800  17.070  -5.000  1.00  0.00    -0.248 NA
ATOM     68  C   UNL     1       8.350  18.794  -3.526  1.00  0.00     0.031 C 
ATOM     69  C   UNL     1      10.237  15.916  -8.525  1.00  0.00     0.029 A 
ATOM     70  C   UNL     1       9.498  16.291  -7.415  1.00  0.00     0.049 A 
ATOM     71  H   UNL     1       7.737  15.426  -6.636  1.00  0.00     0.167 HD
ATOM     72  C   UNL     1       8.974  17.677  -5.427  1.00  0.00     0.074 A 
ATOM     73  C   UNL     1       9.252  18.751  -4.497  1.00  0.00     0.031 C 
ATOM     74  C   UNL     1       9.749  17.372  -6.496  1.00  0.00     0.037 A 
BRANCH  61  75
ATOM     75  C   UNL     1       7.792  12.487  -9.732  1.00  0.00     0.064 A 
ATOM     76  C   UNL     1       6.953  12.464 -10.856  1.00  0.00     0.173 A 
ATOM     77  C   UNL     1       8.898  11.624  -9.722  1.00  0.00     0.173 A 
ATOM     78  F   UNL     1       5.876  13.262 -10.912  1.00  0.00    -0.203 F 
ATOM     79  C   UNL     1       7.194  11.589 -11.913  1.00  0.00     0.198 A 
ATOM     80  C   UNL     1       9.155  10.775 -10.795  1.00  0.00     0.198 A 
ATOM     81  F   UNL     1       9.737  11.610  -8.675  1.00  0.00    -0.203 F 
ATOM     82  F   UNL     1       6.348  11.548 -12.952  1.00  0.00    -0.200 F 
ATOM     83  C   UNL     1       8.298  10.752 -11.885  1.00  0.00     0.200 A 
ATOM     84  F   UNL     1      10.232   9.977 -10.774  1.00  0.00    -0.200 F 
ATOM     85  F   UNL     1       8.533   9.917 -12.907  1.00  0.00    -0.200 F 
ENDBRANCH  61  75
BRANCH  62  86
ATOM     86  C   UNL     1       5.963  18.381  -1.879  1.00  0.00     0.064 A 
ATOM     87  C   UNL     1       5.665  19.743  -2.029  1.00  0.00     0.173 A 
ATOM     88  C   UNL     1       6.035  17.871  -0.575  1.00  0.00     0.173 A 
ATOM     89  F   UNL     1       5.605  20.284  -3.255  1.00  0.00    -0.203 F 
ATOM     90  C   UNL     1       5.471  20.566  -0.920  1.00  0.00     0.198 A 
ATOM     91  C   UNL     1       5.811  18.687   0.532  1.00  0.00     0.198 A 
ATOM     92  F   UNL     1       6.313  16.574  -0.374  1.00  0.00    -0.203 F 
ATOM     93  F   UNL     1       5.238  21.874  -1.092  1.00  0.00    -0.200 F 
ATOM     94  C   UNL     1       5.539  20.036   0.359  1.00  0.00     0.200 A 
ATOM     95  F   UNL     1       5.862  18.168   1.767  1.00  0.00    -0.200 F 
ATOM     96  F   UNL     1       5.351  20.826   1.425  1.00  0.00    -0.200 F 
ENDBRANCH  62  86
BRANCH  74  97
ATOM     97  C   UNL     1      10.945  18.240  -6.761  1.00  0.00     0.064 A 
ATOM     98  C   UNL     1      12.092  18.187  -5.958  1.00  0.00     0.173 A 
ATOM     99  C   UNL     1      10.966  19.086  -7.882  1.00  0.00     0.173 A 
ATOM    100  F   UNL     1      12.117  17.406  -4.867  1.00  0.00    -0.203 F 
ATOM    101  C   UNL     1      13.212  18.958  -6.259  1.00  0.00     0.198 A 
ATOM    102  C   UNL     1      12.097  19.831  -8.197  1.00  0.00     0.198 A 
ATOM    103  F   UNL     1       9.895  19.169  -8.686  1.00  0.00    -0.203 F 
ATOM    104  F   UNL     1      14.285  18.919  -5.457  1.00  0.00    -0.200 F 
ATOM    105  C   UNL     1      13.218  19.770  -7.383  1.00  0.00     0.200 A 
ATOM    106  F   UNL     1      12.106  20.602  -9.293  1.00  0.00    -0.200 F 
ATOM    107  F   UNL     1      14.304  20.497  -7.681  1.00  0.00    -0.200 F 
ENDBRANCH  74  97
ENDBRANCH  48  49
ENDBRANCH  40  43
ENDBRANCH  38  39
ENDBRANCH  37  38
ENDBRANCH  36  37
ENDBRANCH  35  36
ENDBRANCH   1  35
TORSDOF 18
