REMARK SMILES C[C@H]1CN(C(=O)N[C@@H]2CCCCC[C@@H]2C(=O)NCCCCCCNC(=O)c2ccc(-c3c4nc(c(-c5c(F)c(F)c(F)c(F)c5F)c5ccc([nH]5)c(-c5c(F)c(F)c(F)c(F)c5F)c5nc(c(-c6c(F)c(F)c(F)c(F)c6F)c6ccc3[nH]6)C=C5)C=C4)cc2)C[C@H](C)O1
REMARK SMILES IDX 20 1 19 2 18 3 17 4 15 5 16 6 14 8 8 9 7 10 1 11 2 12 3 13
REMARK SMILES IDX 93 14 4 15 91 16 5 17 90 18 92 19 6 20 9 22 10 23 13 25
REMARK SMILES IDX 12 26 11 27 21 29 22 30 23 31 24 32 25 33 26 35 27 36 28 37
REMARK SMILES IDX 89 38 29 39 88 40 30 41 31 42 32 43 82 44 33 45 87 46 81 47
REMARK SMILES IDX 83 48 34 49 86 50 80 51 79 52 35 54 67 55 47 56 66 57 48 58
REMARK SMILES IDX 51 59 65 60 84 61 49 62 50 63 64 65 85 66 52 67 36 68 37 69
REMARK SMILES IDX 45 70 38 71 39 72 43 73 46 74 40 75 41 76 44 77 42 78 68 79
REMARK SMILES IDX 69 80 77 81 70 82 71 83 75 84 78 85 72 86 73 87 76 88 74 89
REMARK SMILES IDX 53 90 54 91 62 92 55 93 56 94 60 95 63 96 57 97 58 98 61 99
REMARK SMILES IDX 59 100
REMARK H PARENT 17 7 7 21 24 34 83 53 51 64
REMARK Flexibility Score: 90.00
ROOT
ATOM      1  C   UNL     1      -1.713   2.491   4.868  1.00  0.00     0.002 C 
ENDROOT
BRANCH   1   2
ATOM      2  C   UNL     1      -1.104   1.113   4.604  1.00  0.00     0.021 C 
BRANCH   2   3
ATOM      3  C   UNL     1      -2.107   0.003   4.308  1.00  0.00     0.116 C 
BRANCH   3   4
ATOM      4  N   UNL     1      -2.980   0.319   3.191  1.00  0.00    -0.356 N 
ATOM      5  C   UNL     1      -3.410  -0.466   2.159  1.00  0.00     0.225 C 
ATOM      6  O   UNL     1      -4.350  -0.062   1.475  1.00  0.00    -0.275 OA
ATOM      7  H   UNL     1      -3.314   1.246   3.175  1.00  0.00     0.163 HD
BRANCH   5   8
ATOM      8  C   UNL     1      -2.793  -1.846   1.978  1.00  0.00     0.101 C 
BRANCH   8   9
ATOM      9  C   UNL     1      -2.327  -2.202   0.540  1.00  0.00     0.096 C 
BRANCH   9  10
ATOM     10  N   UNL     1      -2.530  -1.177  -0.486  1.00  0.00    -0.334 N 
ATOM     11  C   UNL     1       2.054   0.024   2.196  1.00  0.00     0.040 C 
ATOM     12  C   UNL     1       1.251   0.670   1.068  1.00  0.00     0.135 C 
ATOM     13  C   UNL     1      -0.063  -0.105   0.852  1.00  0.00     0.153 C 
ATOM     14  O   UNL     1       1.031   2.041   1.422  1.00  0.00    -0.372 OA
ATOM     15  N   UNL     1      -1.096   0.618   0.121  1.00  0.00    -0.320 N 
ATOM     16  C   UNL     1       0.190   2.725   0.476  1.00  0.00     0.135 C 
ATOM     17  C   UNL     1      -2.080   0.087  -0.667  1.00  0.00     0.317 C 
ATOM     18  C   UNL     1      -1.182   2.051   0.412  1.00  0.00     0.153 C 
ATOM     19  C   UNL     1       0.838   2.849  -0.902  1.00  0.00     0.040 C 
ATOM     20  O   UNL     1      -2.646   0.755  -1.535  1.00  0.00    -0.249 OA
ATOM     21  H   UNL     1      -3.128  -1.475  -1.209  1.00  0.00     0.165 HD
ENDBRANCH   9  10
BRANCH   9  22
ATOM     22  C   UNL     1      -2.808  -3.568   0.016  1.00  0.00     0.026 C 
BRANCH  22  23
ATOM     23  C   UNL     1      -2.199  -4.745   0.785  1.00  0.00     0.002 CG0
ATOM     24  G   UNL     1      -2.968  -5.160   2.033  1.00  0.00     0.000 G0
ENDBRANCH  22  23
ENDBRANCH   9  22
ENDBRANCH   8   9
BRANCH   8  25
ATOM     25  C   UNL     1      -3.743  -2.823   2.688  1.00  0.00     0.015 C 
BRANCH  25  26
ATOM     26  C   UNL     1      -3.050  -4.107   3.127  1.00  0.00     0.001 C 
BRANCH  26  27
ATOM     27  C   UNL     1      -2.968  -5.160   2.033  1.00  0.00     0.000 CG0
ATOM     28  G   UNL     1      -2.199  -4.745   0.785  1.00  0.00     0.000 G0
ENDBRANCH  26  27
ENDBRANCH  25  26
ENDBRANCH   8  25
ENDBRANCH   5   8
ENDBRANCH   3   4
ENDBRANCH   2   3
ENDBRANCH   1   2
BRANCH   1  29
ATOM     29  C   UNL     1      -2.864   2.514   5.877  1.00  0.00     0.002 C 
BRANCH  29  30
ATOM     30  C   UNL     1      -2.546   1.892   7.237  1.00  0.00     0.021 C 
BRANCH  30  31
ATOM     31  C   UNL     1      -1.368   2.527   7.960  1.00  0.00     0.116 C 
BRANCH  31  32
ATOM     32  N   UNL     1      -1.625   3.914   8.309  1.00  0.00    -0.352 N 
ATOM     33  C   UNL     1      -1.597   4.516   9.543  1.00  0.00     0.251 C 
ATOM     34  H   UNL     1      -1.850   4.505   7.554  1.00  0.00     0.163 HD
ATOM     35  O   UNL     1      -2.033   5.648   9.694  1.00  0.00    -0.269 OA
BRANCH  33  36
ATOM     36  C   UNL     1      -1.050   3.773  10.698  1.00  0.00     0.039 A 
ATOM     37  C   UNL     1      -1.755   3.779  11.903  1.00  0.00     0.014 A 
ATOM     38  C   UNL     1       0.151   3.067  10.585  1.00  0.00     0.014 A 
ATOM     39  C   UNL     1      -1.284   3.028  12.981  1.00  0.00     0.010 A 
ATOM     40  C   UNL     1       0.576   2.257  11.632  1.00  0.00     0.010 A 
ATOM     41  C   UNL     1      -0.133   2.235  12.844  1.00  0.00    -0.014 A 
BRANCH  41  42
ATOM     42  C   UNL     1       0.364   1.389  13.958  1.00  0.00     0.031 A 
ATOM     43  C   UNL     1       1.712   1.665  14.562  1.00  0.00     0.074 A 
ATOM     44  C   UNL     1      -0.363   0.334  14.376  1.00  0.00     0.049 A 
ATOM     45  N   UNL     1       2.371   0.986  15.467  1.00  0.00    -0.248 NA
ATOM     46  C   UNL     1       2.430   2.848  14.062  1.00  0.00     0.031 C 
ATOM     47  C   UNL     1      -1.669  -0.058  13.843  1.00  0.00     0.029 A 
ATOM     48  N   UNL     1      -0.099  -0.610  15.336  1.00  0.00    -0.354 N 
ATOM     49  C   UNL     1       3.580   1.648  15.629  1.00  0.00     0.074 A 
ATOM     50  C   UNL     1       3.591   2.749  14.692  1.00  0.00     0.031 C 
ATOM     51  C   UNL     1      -2.099  -1.150  14.495  1.00  0.00     0.029 A 
ATOM     52  C   UNL     1      -1.083  -1.560  15.460  1.00  0.00     0.049 A 
ATOM     53  H   UNL     1       0.719  -0.607  15.884  1.00  0.00     0.167 HD
ATOM     54  C   UNL     1       4.582   1.376  16.500  1.00  0.00     0.037 A 
ATOM     55  C   UNL     1      -1.151  -2.647  16.253  1.00  0.00     0.037 A 
ATOM     56  C   UNL     1       4.555   0.295  17.450  1.00  0.00     0.049 A 
ATOM     57  C   UNL     1      -0.015  -2.936  17.199  1.00  0.00     0.074 A 
ATOM     58  C   UNL     1       5.496  -0.033  18.409  1.00  0.00     0.029 A 
ATOM     59  N   UNL     1       3.530  -0.634  17.559  1.00  0.00    -0.354 N 
ATOM     60  N   UNL     1       1.098  -2.269  17.386  1.00  0.00    -0.248 NA
ATOM     61  C   UNL     1      -0.149  -4.127  18.050  1.00  0.00     0.031 C 
ATOM     62  C   UNL     1       5.065  -1.190  19.066  1.00  0.00     0.029 A 
ATOM     63  C   UNL     1       3.828  -1.548  18.556  1.00  0.00     0.049 A 
ATOM     64  H   UNL     1       2.714  -0.642  17.009  1.00  0.00     0.167 HD
ATOM     65  C   UNL     1       1.778  -2.935  18.397  1.00  0.00     0.074 A 
ATOM     66  C   UNL     1       0.948  -4.054  18.791  1.00  0.00     0.031 C 
ATOM     67  C   UNL     1       2.981  -2.645  18.950  1.00  0.00     0.037 A 
BRANCH  54  68
ATOM     68  C   UNL     1       5.792   2.265  16.469  1.00  0.00     0.064 A 
ATOM     69  C   UNL     1       5.737   3.599  16.902  1.00  0.00     0.173 A 
ATOM     70  C   UNL     1       7.032   1.766  16.043  1.00  0.00     0.173 A 
ATOM     71  F   UNL     1       4.573   4.129  17.309  1.00  0.00    -0.203 F 
ATOM     72  C   UNL     1       6.870   4.407  16.883  1.00  0.00     0.198 A 
ATOM     73  C   UNL     1       8.170   2.567  16.055  1.00  0.00     0.198 A 
ATOM     74  F   UNL     1       7.142   0.496  15.623  1.00  0.00    -0.203 F 
ATOM     75  F   UNL     1       6.782   5.691  17.254  1.00  0.00    -0.200 F 
ATOM     76  C   UNL     1       8.088   3.888  16.468  1.00  0.00     0.200 A 
ATOM     77  F   UNL     1       9.349   2.059  15.668  1.00  0.00    -0.200 F 
ATOM     78  F   UNL     1       9.180   4.664  16.459  1.00  0.00    -0.200 F 
ENDBRANCH  54  68
BRANCH  55  79
ATOM     79  C   UNL     1      -2.342  -3.536  16.202  1.00  0.00     0.064 A 
ATOM     80  C   UNL     1      -3.226  -3.619  17.287  1.00  0.00     0.173 A 
ATOM     81  C   UNL     1      -2.612  -4.333  15.080  1.00  0.00     0.173 A 
ATOM     82  F   UNL     1      -2.999  -2.892  18.391  1.00  0.00    -0.203 F 
ATOM     83  C   UNL     1      -4.318  -4.484  17.263  1.00  0.00     0.198 A 
ATOM     84  C   UNL     1      -3.722  -5.174  15.044  1.00  0.00     0.198 A 
ATOM     85  F   UNL     1      -1.802  -4.288  14.012  1.00  0.00    -0.203 F 
ATOM     86  F   UNL     1      -5.114  -4.583  18.336  1.00  0.00    -0.200 F 
ATOM     87  C   UNL     1      -4.568  -5.258  16.140  1.00  0.00     0.200 A 
ATOM     88  F   UNL     1      -3.969  -5.909  13.951  1.00  0.00    -0.200 F 
ATOM     89  F   UNL     1      -5.618  -6.089  16.117  1.00  0.00    -0.200 F 
ENDBRANCH  55  79
BRANCH  67  90
ATOM     90  C   UNL     1       3.453  -3.516  20.078  1.00  0.00     0.064 A 
ATOM     91  C   UNL     1       3.887  -4.832  19.865  1.00  0.00     0.173 A 
ATOM     92  C   UNL     1       3.522  -3.004  21.383  1.00  0.00     0.173 A 
ATOM     93  F   UNL     1       3.827  -5.373  18.638  1.00  0.00    -0.203 F 
ATOM     94  C   UNL     1       4.351  -5.611  20.921  1.00  0.00     0.198 A 
ATOM     95  C   UNL     1       4.017  -3.775  22.430  1.00  0.00     0.198 A 
ATOM     96  F   UNL     1       3.126  -1.748  21.639  1.00  0.00    -0.203 F 
ATOM     97  F   UNL     1       4.719  -6.881  20.702  1.00  0.00    -0.200 F 
ATOM     98  C   UNL     1       4.425  -5.080  22.200  1.00  0.00     0.200 A 
ATOM     99  F   UNL     1       4.103  -3.254  23.662  1.00  0.00    -0.200 F 
ATOM    100  F   UNL     1       4.885  -5.827  23.212  1.00  0.00    -0.200 F 
ENDBRANCH  67  90
ENDBRANCH  41  42
ENDBRANCH  33  36
ENDBRANCH  31  32
ENDBRANCH  30  31
ENDBRANCH  29  30
ENDBRANCH   1  29
TORSDOF 14
