REMARK SMILES CS(=O)(=O)c1ccc(C2=NN(c3ccc(C(=O)NCCCCCCNC(=O)c4ccc(-c5c6nc(c(-c7c(F)c(F)c(F)c(F)c7F)c7ccc([nH]7)c(-c7c(F)c(F)c(F)c(F)c7F)c7nc(c(-c8c(F)c(F)c(F)c(F)c8F)c8ccc5[nH]8)C=C7)C=C6)cc4)cc3)[C@H](c3ccccc3)C2)cc1
REMARK SMILES IDX 21 1 20 2 19 3 18 4 16 5 17 6 15 8 12 9 13 10 92 11 14 12
REMARK SMILES IDX 91 13 11 14 9 15 10 16 100 17 93 18 8 19 5 20 6 21 102 22
REMARK SMILES IDX 7 23 101 24 2 25 1 26 3 27 4 28 94 29 95 30 99 31 96 32
REMARK SMILES IDX 98 33 97 34 22 35 23 36 24 37 25 38 26 39 27 41 28 42 29 43
REMARK SMILES IDX 90 44 30 45 89 46 31 47 32 48 33 49 83 50 34 51 88 52 82 53
REMARK SMILES IDX 84 54 35 55 87 56 81 57 80 58 36 60 68 61 48 62 67 63 49 64
REMARK SMILES IDX 52 65 66 66 85 67 50 68 51 69 65 71 86 72 53 73 37 74 38 75
REMARK SMILES IDX 46 76 39 77 40 78 44 79 47 80 41 81 42 82 45 83 43 84 69 85
REMARK SMILES IDX 70 86 78 87 71 88 72 89 76 90 79 91 73 92 74 93 77 94 75 95
REMARK SMILES IDX 54 96 55 97 63 98 56 99 57 100 61 101 64 102 58 103 59 104
REMARK SMILES IDX 62 105 60 106
REMARK H PARENT 18 7 25 40 84 59 52 70
REMARK Flexibility Score: inf
ROOT
ATOM      1  C   UNL     1       5.210   0.251 -16.434  1.00  0.00     0.002 C 
ENDROOT
BRANCH   1   2
ATOM      2  C   UNL     1       5.045   0.563 -14.941  1.00  0.00     0.021 C 
BRANCH   2   3
ATOM      3  C   UNL     1       4.309   1.877 -14.674  1.00  0.00     0.116 C 
BRANCH   3   4
ATOM      4  N   UNL     1       2.884   1.707 -14.887  1.00  0.00    -0.352 N 
ATOM      5  C   UNL     1       1.841   1.625 -14.001  1.00  0.00     0.251 C 
ATOM      6  O   UNL     1       0.698   1.526 -14.443  1.00  0.00    -0.269 OA
ATOM      7  H   UNL     1       2.620   1.638 -15.833  1.00  0.00     0.163 HD
BRANCH   5   8
ATOM      8  C   UNL     1       2.050   1.733 -12.535  1.00  0.00     0.039 A 
ATOM      9  C   UNL     1       2.417   2.159  -9.780  1.00  0.00     0.060 A 
ATOM     10  C   UNL     1       1.293   2.674 -10.431  1.00  0.00     0.029 A 
ATOM     11  C   UNL     1       3.308   1.364 -10.505  1.00  0.00     0.029 A 
ATOM     12  C   UNL     1       1.106   2.459 -11.799  1.00  0.00     0.016 A 
ATOM     13  C   UNL     1       3.121   1.136 -11.869  1.00  0.00     0.016 A 
BRANCH   9  14
ATOM     14  N   UNL     1       2.659   2.410  -8.444  1.00  0.00    -0.257 N 
ATOM     15  C   UNL     1       2.275   2.142  -6.380  1.00  0.00     0.071 C 
ATOM     16  N   UNL     1       2.241   1.524  -7.519  1.00  0.00    -0.176 NA
ATOM     17  C   UNL     1       2.691   3.589  -6.440  1.00  0.00     0.091 C 
ATOM     18  C   UNL     1       3.163   3.672  -7.904  1.00  0.00     0.144 C 
BRANCH  15  19
ATOM     19  C   UNL     1       1.884   1.467  -5.132  1.00  0.00    -0.002 A 
ATOM     20  C   UNL     1       1.006   0.045  -2.910  1.00  0.00     0.067 A 
ATOM     21  C   UNL     1       1.730  -0.616  -3.903  1.00  0.00     0.021 A 
ATOM     22  C   UNL     1       0.719   1.412  -3.018  1.00  0.00     0.021 A 
ATOM     23  C   UNL     1       2.160   0.098  -5.019  1.00  0.00     0.011 A 
ATOM     24  C   UNL     1       1.173   2.131  -4.129  1.00  0.00     0.011 A 
BRANCH  20  25
ATOM     25  S   UNL     1       0.386  -0.879  -1.523  1.00  0.00     0.175 S 
ATOM     26  C   UNL     1       1.117  -0.090  -0.115  1.00  0.00     0.163 C 
ATOM     27  O   UNL     1       0.933  -2.216  -1.602  1.00  0.00    -0.224 OA
ATOM     28  O   UNL     1      -1.048  -0.653  -1.479  1.00  0.00    -0.224 OA
ENDBRANCH  20  25
ENDBRANCH  15  19
BRANCH  18  29
ATOM     29  C   UNL     1       4.665   3.784  -8.167  1.00  0.00    -0.023 A 
ATOM     30  C   UNL     1       5.654   3.462  -7.226  1.00  0.00     0.006 A 
ATOM     31  C   UNL     1       5.091   4.171  -9.455  1.00  0.00     0.006 A 
ATOM     32  C   UNL     1       7.013   3.541  -7.555  1.00  0.00     0.000 A 
ATOM     33  C   UNL     1       6.445   4.225  -9.791  1.00  0.00     0.000 A 
ATOM     34  C   UNL     1       7.408   3.916  -8.837  1.00  0.00     0.000 A 
ENDBRANCH  18  29
ENDBRANCH   9  14
ENDBRANCH   5   8
ENDBRANCH   3   4
ENDBRANCH   2   3
ENDBRANCH   1   2
BRANCH   1  35
ATOM     35  C   UNL     1       6.083   1.248 -17.206  1.00  0.00     0.002 C 
BRANCH  35  36
ATOM     36  C   UNL     1       7.490   1.450 -16.637  1.00  0.00     0.021 C 
BRANCH  36  37
ATOM     37  C   UNL     1       8.339   0.184 -16.594  1.00  0.00     0.116 C 
BRANCH  37  38
ATOM     38  N   UNL     1       8.627  -0.318 -17.929  1.00  0.00    -0.352 N 
ATOM     39  C   UNL     1       9.838  -0.578 -18.518  1.00  0.00     0.251 C 
ATOM     40  H   UNL     1       7.839  -0.498 -18.490  1.00  0.00     0.163 HD
ATOM     41  O   UNL     1       9.909  -0.786 -19.725  1.00  0.00    -0.269 OA
BRANCH  39  42
ATOM     42  C   UNL     1      11.067  -0.594 -17.697  1.00  0.00     0.039 A 
ATOM     43  C   UNL     1      12.214   0.040 -18.183  1.00  0.00     0.014 A 
ATOM     44  C   UNL     1      11.095  -1.250 -16.463  1.00  0.00     0.014 A 
ATOM     45  C   UNL     1      13.373   0.062 -17.405  1.00  0.00     0.010 A 
ATOM     46  C   UNL     1      12.228  -1.167 -15.660  1.00  0.00     0.010 A 
ATOM     47  C   UNL     1      13.380  -0.515 -16.125  1.00  0.00    -0.014 A 
BRANCH  47  48
ATOM     48  C   UNL     1      14.584  -0.450 -15.260  1.00  0.00     0.031 A 
ATOM     49  C   UNL     1      15.308  -1.710 -14.875  1.00  0.00     0.074 A 
ATOM     50  C   UNL     1      14.985   0.738 -14.768  1.00  0.00     0.049 A 
ATOM     51  N   UNL     1      16.333  -1.865 -14.075  1.00  0.00    -0.248 NA
ATOM     52  C   UNL     1      14.795  -2.966 -15.444  1.00  0.00     0.031 C 
ATOM     53  C   UNL     1      14.337   2.023 -15.031  1.00  0.00     0.029 A 
ATOM     54  N   UNL     1      16.027   1.056 -13.933  1.00  0.00    -0.354 N 
ATOM     55  C   UNL     1      16.575  -3.231 -14.032  1.00  0.00     0.074 A 
ATOM     56  C   UNL     1      15.561  -3.867 -14.845  1.00  0.00     0.031 C 
ATOM     57  C   UNL     1      15.008   2.993 -14.390  1.00  0.00     0.029 A 
ATOM     58  C   UNL     1      16.109   2.395 -13.641  1.00  0.00     0.049 A 
ATOM     59  H   UNL     1      16.657   0.388 -13.578  1.00  0.00     0.167 HD
ATOM     60  C   UNL     1      17.567  -3.893 -13.389  1.00  0.00     0.037 A 
ATOM     61  C   UNL     1      16.970   3.064 -12.851  1.00  0.00     0.037 A 
ATOM     62  C   UNL     1      18.590  -3.253 -12.604  1.00  0.00     0.049 A 
ATOM     63  C   UNL     1      18.063   2.305 -12.149  1.00  0.00     0.074 A 
ATOM     64  C   UNL     1      19.677  -3.829 -11.970  1.00  0.00     0.029 A 
ATOM     65  N   UNL     1      18.650  -1.892 -12.345  1.00  0.00    -0.354 N 
ATOM     66  N   UNL     1      18.324   1.021 -12.170  1.00  0.00    -0.248 NA
ATOM     67  C   UNL     1      18.985   3.090 -11.316  1.00  0.00     0.031 C 
ATOM     68  C   UNL     1      20.367  -2.823 -11.285  1.00  0.00     0.029 A 
ATOM     69  C   UNL     1      19.742  -1.612 -11.538  1.00  0.00     0.049 A 
ATOM     70  H   UNL     1      18.012  -1.223 -12.684  1.00  0.00     0.167 HD
ATOM     71  C   UNL     1      19.453   0.847 -11.381  1.00  0.00     0.074 A 
ATOM     72  C   UNL     1      19.836   2.160 -10.906  1.00  0.00     0.031 C 
ATOM     73  C   UNL     1      20.113  -0.298 -11.078  1.00  0.00     0.037 A 
BRANCH  60  74
ATOM     74  C   UNL     1      17.595  -5.390 -13.507  1.00  0.00     0.064 A 
ATOM     75  C   UNL     1      17.919  -6.029 -14.714  1.00  0.00     0.173 A 
ATOM     76  C   UNL     1      17.333  -6.197 -12.389  1.00  0.00     0.173 A 
ATOM     77  F   UNL     1      18.168  -5.304 -15.816  1.00  0.00    -0.203 F 
ATOM     78  C   UNL     1      17.952  -7.418 -14.804  1.00  0.00     0.198 A 
ATOM     79  C   UNL     1      17.398  -7.585 -12.475  1.00  0.00     0.198 A 
ATOM     80  F   UNL     1      17.024  -5.638 -11.209  1.00  0.00    -0.203 F 
ATOM     81  F   UNL     1      18.216  -8.005 -15.979  1.00  0.00    -0.200 F 
ATOM     82  C   UNL     1      17.699  -8.194 -13.684  1.00  0.00     0.200 A 
ATOM     83  F   UNL     1      17.167  -8.334 -11.388  1.00  0.00    -0.200 F 
ATOM     84  F   UNL     1      17.740  -9.531 -13.770  1.00  0.00    -0.200 F 
ENDBRANCH  60  74
BRANCH  61  85
ATOM     85  C   UNL     1      16.849   4.538 -12.705  1.00  0.00     0.064 A 
ATOM     86  C   UNL     1      17.809   5.396 -13.260  1.00  0.00     0.173 A 
ATOM     87  C   UNL     1      15.776   5.119 -12.015  1.00  0.00     0.173 A 
ATOM     88  F   UNL     1      18.865   4.887 -13.912  1.00  0.00    -0.203 F 
ATOM     89  C   UNL     1      17.710   6.778 -13.113  1.00  0.00     0.198 A 
ATOM     90  C   UNL     1      15.662   6.502 -11.893  1.00  0.00     0.198 A 
ATOM     91  F   UNL     1      14.828   4.342 -11.470  1.00  0.00    -0.203 F 
ATOM     92  F   UNL     1      18.664   7.573 -13.616  1.00  0.00    -0.200 F 
ATOM     93  C   UNL     1      16.633   7.330 -12.436  1.00  0.00     0.200 A 
ATOM     94  F   UNL     1      14.613   7.032 -11.251  1.00  0.00    -0.200 F 
ATOM     95  F   UNL     1      16.535   8.660 -12.300  1.00  0.00    -0.200 F 
ENDBRANCH  61  85
BRANCH  73  96
ATOM     96  C   UNL     1      21.338  -0.179 -10.219  1.00  0.00     0.064 A 
ATOM     97  C   UNL     1      21.253   0.122  -8.852  1.00  0.00     0.173 A 
ATOM     98  C   UNL     1      22.611  -0.411 -10.764  1.00  0.00     0.173 A 
ATOM     99  F   UNL     1      20.061   0.368  -8.288  1.00  0.00    -0.203 F 
ATOM    100  C   UNL     1      22.400   0.211  -8.067  1.00  0.00     0.198 A 
ATOM    101  C   UNL     1      23.752  -0.352  -9.969  1.00  0.00     0.198 A 
ATOM    102  F   UNL     1      22.746  -0.710 -12.065  1.00  0.00    -0.203 F 
ATOM    103  F   UNL     1      22.299   0.547  -6.774  1.00  0.00    -0.200 F 
ATOM    104  C   UNL     1      23.646  -0.034  -8.624  1.00  0.00     0.200 A 
ATOM    105  F   UNL     1      24.954  -0.604 -10.505  1.00  0.00    -0.200 F 
ATOM    106  F   UNL     1      24.748   0.044  -7.864  1.00  0.00    -0.200 F 
ENDBRANCH  73  96
ENDBRANCH  47  48
ENDBRANCH  39  42
ENDBRANCH  37  38
ENDBRANCH  36  37
ENDBRANCH  35  36
ENDBRANCH   1  35
TORSDOF 17
