REMARK SMILES C[C@](C(=O)NCCCCCCNC(=O)c1ccc(-c2c3nc(c(-c4c(F)c(F)c(F)c(F)c4F)c4ccc([nH]4)c(-c4c(F)c(F)c(F)c(F)c4F)c4nc(c(-c5c(F)c(F)c(F)c(F)c5F)c5ccc2[nH]5)C=C4)C=C3)cc1)(c1cc(F)cc(F)c1)[NH+]1CCCC1
REMARK SMILES IDX 9 1 8 2 7 3 6 4 5 5 3 6 4 7 2 9 1 10 78 11 79 12 85 13 80 14
REMARK SMILES IDX 83 15 81 16 82 17 84 18 86 19 87 20 90 21 88 23 89 24 10 25
REMARK SMILES IDX 11 26 12 27 13 28 14 30 15 31 16 32 77 33 17 34 76 35 18 36
REMARK SMILES IDX 19 37 20 38 70 39 21 40 75 41 69 42 71 43 22 44 74 45 68 46
REMARK SMILES IDX 67 47 23 49 55 50 35 51 54 52 36 53 39 54 53 55 72 56 37 57
REMARK SMILES IDX 38 58 52 60 73 61 40 62 24 63 25 64 33 65 26 66 27 67 31 68
REMARK SMILES IDX 34 69 28 70 29 71 32 72 30 73 56 74 57 75 65 76 58 77 59 78
REMARK SMILES IDX 63 79 66 80 60 81 61 82 64 83 62 84 41 85 42 86 50 87 43 88
REMARK SMILES IDX 44 89 48 90 51 91 45 92 46 93 49 94 47 95
REMARK H PARENT 5 8 86 22 12 29 71 48 39 59
REMARK Flexibility Score: inf
ROOT
ATOM      1  C   UNL     1       0.191   5.269   0.732  1.00  0.00     0.002 C 
ENDROOT
BRANCH   1   2
ATOM      2  C   UNL     1      -0.768   4.255   1.369  1.00  0.00     0.002 C 
BRANCH   2   3
ATOM      3  C   UNL     1      -1.300   3.158   0.447  1.00  0.00     0.021 C 
BRANCH   3   4
ATOM      4  C   UNL     1      -0.241   2.415  -0.353  1.00  0.00     0.116 C 
BRANCH   4   5
ATOM      5  N   UNL     1       0.408   1.344   0.357  1.00  0.00    -0.350 N 
ATOM      6  C   UNL     1       0.877   0.116   0.002  1.00  0.00     0.286 C 
ATOM      7  O   UNL     1       1.662  -0.335   0.856  1.00  0.00    -0.267 OA
ATOM      8  H   UNL     1       0.543   1.544   1.312  1.00  0.00     0.163 HD
BRANCH   6   9
ATOM      9  C   UNL     1       0.506  -0.753  -1.296  1.00  0.00     0.200 C 
ATOM     10  C   UNL     1       1.070  -2.178  -0.910  1.00  0.00     0.096 C 
BRANCH   9  11
ATOM     11  C   UNL     1      -1.054  -0.929  -1.454  1.00  0.00     0.028 A 
ATOM     12  C   UNL     1      -1.883   0.061  -2.001  1.00  0.00     0.050 A 
ATOM     13  C   UNL     1      -1.740  -2.080  -0.994  1.00  0.00     0.050 A 
ATOM     14  C   UNL     1      -3.277   0.019  -1.860  1.00  0.00     0.126 A 
ATOM     15  C   UNL     1      -3.135  -2.147  -0.933  1.00  0.00     0.126 A 
ATOM     16  F   UNL     1      -4.005   1.075  -2.246  1.00  0.00    -0.207 F 
ATOM     17  C   UNL     1      -3.916  -1.075  -1.307  1.00  0.00     0.078 A 
ATOM     18  F   UNL     1      -3.716  -3.264  -0.477  1.00  0.00    -0.207 F 
ENDBRANCH   9  11
BRANCH   9  19
ATOM     19  N   UNL     1       1.186  -0.339  -2.593  1.00  0.00    -0.319 N 
ATOM     20  C   UNL     1       2.559  -0.840  -2.830  1.00  0.00     0.263 C 
ATOM     21  C   UNL     1       1.367   1.083  -2.897  1.00  0.00     0.263 C 
ATOM     22  H   UNL     1       0.465  -0.769  -3.173  1.00  0.00     0.349 HD
ATOM     23  C   UNL     1       3.462   0.166  -2.140  1.00  0.00     0.067 C 
ATOM     24  C   UNL     1       2.751   1.486  -2.388  1.00  0.00     0.067 C 
ENDBRANCH   9  19
ENDBRANCH   6   9
ENDBRANCH   4   5
ENDBRANCH   3   4
ENDBRANCH   2   3
ENDBRANCH   1   2
BRANCH   1  25
ATOM     25  C   UNL     1      -0.257   5.896  -0.592  1.00  0.00     0.021 C 
BRANCH  25  26
ATOM     26  C   UNL     1      -1.632   6.554  -0.578  1.00  0.00     0.116 C 
BRANCH  26  27
ATOM     27  N   UNL     1      -1.755   7.562   0.459  1.00  0.00    -0.352 N 
ATOM     28  C   UNL     1      -2.172   8.865   0.369  1.00  0.00     0.251 C 
ATOM     29  H   UNL     1      -1.502   7.265   1.363  1.00  0.00     0.163 HD
ATOM     30  O   UNL     1      -2.054   9.617   1.329  1.00  0.00    -0.269 OA
BRANCH  28  31
ATOM     31  C   UNL     1      -2.745   9.371  -0.895  1.00  0.00     0.039 A 
ATOM     32  C   UNL     1      -2.336  10.624  -1.360  1.00  0.00     0.014 A 
ATOM     33  C   UNL     1      -3.693   8.631  -1.608  1.00  0.00     0.014 A 
ATOM     34  C   UNL     1      -2.842  11.114  -2.564  1.00  0.00     0.010 A 
ATOM     35  C   UNL     1      -4.141   9.088  -2.844  1.00  0.00     0.010 A 
ATOM     36  C   UNL     1      -3.727  10.337  -3.329  1.00  0.00    -0.014 A 
BRANCH  36  37
ATOM     37  C   UNL     1      -4.236  10.825  -4.634  1.00  0.00     0.031 A 
ATOM     38  C   UNL     1      -5.700  11.113  -4.813  1.00  0.00     0.074 A 
ATOM     39  C   UNL     1      -3.387  10.957  -5.670  1.00  0.00     0.049 A 
ATOM     40  N   UNL     1      -6.344  11.498  -5.886  1.00  0.00    -0.248 NA
ATOM     41  C   UNL     1      -6.560  10.917  -3.635  1.00  0.00     0.031 C 
ATOM     42  C   UNL     1      -1.953  10.665  -5.630  1.00  0.00     0.029 A 
ATOM     43  N   UNL     1      -3.606  11.365  -6.962  1.00  0.00    -0.354 N 
ATOM     44  C   UNL     1      -7.680  11.578  -5.516  1.00  0.00     0.074 A 
ATOM     45  C   UNL     1      -7.764  11.148  -4.138  1.00  0.00     0.031 C 
ATOM     46  C   UNL     1      -1.417  10.924  -6.833  1.00  0.00     0.029 A 
ATOM     47  C   UNL     1      -2.474  11.364  -7.739  1.00  0.00     0.049 A 
ATOM     48  H   UNL     1      -4.491  11.632  -7.300  1.00  0.00     0.167 HD
ATOM     49  C   UNL     1      -8.736  11.997  -6.253  1.00  0.00     0.037 A 
ATOM     50  C   UNL     1      -2.309  11.677  -9.038  1.00  0.00     0.037 A 
ATOM     51  C   UNL     1      -8.641  12.443  -7.619  1.00  0.00     0.049 A 
ATOM     52  C   UNL     1      -3.501  12.128  -9.838  1.00  0.00     0.074 A 
ATOM     53  C   UNL     1      -9.640  12.943  -8.435  1.00  0.00     0.029 A 
ATOM     54  N   UNL     1      -7.475  12.438  -8.371  1.00  0.00    -0.354 N 
ATOM     55  N   UNL     1      -4.748  12.270  -9.458  1.00  0.00    -0.248 NA
ATOM     56  C   UNL     1      -3.261  12.470 -11.247  1.00  0.00     0.031 C 
ATOM     57  C   UNL     1      -9.089  13.192  -9.697  1.00  0.00     0.029 A 
ATOM     58  C   UNL     1      -7.735  12.900  -9.651  1.00  0.00     0.049 A 
ATOM     59  H   UNL     1      -6.593  12.148  -8.043  1.00  0.00     0.167 HD
ATOM     60  C   UNL     1      -5.434  12.741 -10.569  1.00  0.00     0.074 A 
ATOM     61  C   UNL     1      -4.461  12.878 -11.633  1.00  0.00     0.031 C 
ATOM     62  C   UNL     1      -6.752  13.034 -10.696  1.00  0.00     0.037 A 
BRANCH  49  63
ATOM     63  C   UNL     1     -10.087  11.990  -5.597  1.00  0.00     0.064 A 
ATOM     64  C   UNL     1     -10.408  12.880  -4.560  1.00  0.00     0.173 A 
ATOM     65  C   UNL     1     -11.085  11.102  -6.028  1.00  0.00     0.173 A 
ATOM     66  F   UNL     1      -9.488  13.742  -4.102  1.00  0.00    -0.203 F 
ATOM     67  C   UNL     1     -11.664  12.860  -3.959  1.00  0.00     0.198 A 
ATOM     68  C   UNL     1     -12.350  11.107  -5.447  1.00  0.00     0.198 A 
ATOM     69  F   UNL     1     -10.835  10.233  -7.019  1.00  0.00    -0.203 F 
ATOM     70  F   UNL     1     -11.928  13.683  -2.935  1.00  0.00    -0.200 F 
ATOM     71  C   UNL     1     -12.636  11.978  -4.407  1.00  0.00     0.200 A 
ATOM     72  F   UNL     1     -13.293  10.264  -5.891  1.00  0.00    -0.200 F 
ATOM     73  F   UNL     1     -13.846  11.964  -3.832  1.00  0.00    -0.200 F 
ENDBRANCH  49  63
BRANCH  50  74
ATOM     74  C   UNL     1      -0.959  11.598  -9.655  1.00  0.00     0.064 A 
ATOM     75  C   UNL     1      -0.277  12.758 -10.045  1.00  0.00     0.173 A 
ATOM     76  C   UNL     1      -0.324  10.366  -9.867  1.00  0.00     0.173 A 
ATOM     77  F   UNL     1      -0.851  13.959  -9.880  1.00  0.00    -0.203 F 
ATOM     78  C   UNL     1       0.980  12.689 -10.642  1.00  0.00     0.198 A 
ATOM     79  C   UNL     1       0.946  10.299 -10.437  1.00  0.00     0.198 A 
ATOM     80  F   UNL     1      -0.930   9.225  -9.506  1.00  0.00    -0.203 F 
ATOM     81  F   UNL     1       1.590  13.811 -11.047  1.00  0.00    -0.200 F 
ATOM     82  C   UNL     1       1.593  11.460 -10.832  1.00  0.00     0.200 A 
ATOM     83  F   UNL     1       1.542   9.110 -10.603  1.00  0.00    -0.200 F 
ATOM     84  F   UNL     1       2.804  11.393 -11.401  1.00  0.00    -0.200 F 
ENDBRANCH  50  74
BRANCH  62  85
ATOM     85  C   UNL     1      -7.213  13.562 -12.024  1.00  0.00     0.064 A 
ATOM     86  C   UNL     1      -7.285  12.740 -13.159  1.00  0.00     0.173 A 
ATOM     87  C   UNL     1      -7.624  14.897 -12.153  1.00  0.00     0.173 A 
ATOM     88  F   UNL     1      -6.888  11.460 -13.092  1.00  0.00    -0.203 F 
ATOM     89  C   UNL     1      -7.726  13.244 -14.380  1.00  0.00     0.198 A 
ATOM     90  C   UNL     1      -8.095  15.389 -13.366  1.00  0.00     0.198 A 
ATOM     91  F   UNL     1      -7.582  15.723 -11.096  1.00  0.00    -0.203 F 
ATOM     92  F   UNL     1      -7.738  12.455 -15.463  1.00  0.00    -0.200 F 
ATOM     93  C   UNL     1      -8.138  14.565 -14.481  1.00  0.00     0.200 A 
ATOM     94  F   UNL     1      -8.508  16.661 -13.458  1.00  0.00    -0.200 F 
ATOM     95  F   UNL     1      -8.570  15.045 -15.655  1.00  0.00    -0.200 F 
ENDBRANCH  62  85
ENDBRANCH  36  37
ENDBRANCH  28  31
ENDBRANCH  26  27
ENDBRANCH  25  26
ENDBRANCH   1  25
TORSDOF 15
