REMARK SMILES O=C(NCCCCCCNC(=O)[C@H]1C[N@H+](Cc2ccc(Cl)c(Cl)c2)CC12CCCCC2)c1ccc(-c2c3nc(c(-c4c(F)c(F)c(F)c(F)c4F)c4ccc([nH]4)c(-c4c(F)c(F)c(F)c(F)c4F)c4nc(c(-c5c(F)c(F)c(F)c(F)c5F)c5ccc2[nH]5)C=C4)C=C3)cc1
REMARK SMILES IDX 6 1 5 2 4 3 3 4 1 5 2 6 32 8 33 9 94 10 34 11 93 12 35 13
REMARK SMILES IDX 36 14 37 15 87 16 38 17 92 18 86 19 88 20 39 21 91 22 85 23
REMARK SMILES IDX 84 24 40 26 72 27 52 28 71 29 53 30 56 31 70 32 89 33 54 34
REMARK SMILES IDX 55 35 69 37 90 38 57 39 41 40 42 41 50 42 43 43 44 44 48 45
REMARK SMILES IDX 51 46 45 47 46 48 49 49 47 50 73 51 74 52 82 53 75 54 76 55
REMARK SMILES IDX 80 56 83 57 77 58 78 59 81 60 79 61 58 62 59 63 67 64 60 65
REMARK SMILES IDX 61 66 65 67 68 68 62 69 63 70 66 71 64 72 7 73 8 74 9 75
REMARK SMILES IDX 10 76 11 77 12 79 13 80 14 81 26 82 15 83 25 84 27 85 31 86
REMARK SMILES IDX 28 88 30 89 29 90 16 91 17 92 18 93 24 94 19 95 22 96 20 97
REMARK SMILES IDX 23 98 21 99
REMARK H PARENT 3 7 88 25 56 36 10 78 15 87
REMARK Flexibility Score: inf
ROOT
ATOM      1  C   UNL     1       3.818   1.922   3.207  1.00  0.00     0.002 C 
ENDROOT
BRANCH   1   2
ATOM      2  C   UNL     1       4.337   1.913   1.768  1.00  0.00     0.021 C 
BRANCH   2   3
ATOM      3  C   UNL     1       4.202   0.564   1.079  1.00  0.00     0.116 C 
BRANCH   3   4
ATOM      4  N   UNL     1       2.811   0.160   0.967  1.00  0.00    -0.352 N 
ATOM      5  O   UNL     1       0.892  -0.284  -0.140  1.00  0.00    -0.269 OA
ATOM      6  C   UNL     1       2.114  -0.184  -0.161  1.00  0.00     0.251 C 
ATOM      7  H   UNL     1       2.304   0.128   1.810  1.00  0.00     0.163 HD
BRANCH   6   8
ATOM      8  C   UNL     1       2.861  -0.427  -1.409  1.00  0.00     0.039 A 
ATOM      9  C   UNL     1       4.014  -1.217  -1.389  1.00  0.00     0.014 A 
ATOM     10  C   UNL     1       2.403   0.137  -2.601  1.00  0.00     0.014 A 
ATOM     11  C   UNL     1       4.771  -1.355  -2.543  1.00  0.00     0.010 A 
ATOM     12  C   UNL     1       3.118  -0.078  -3.779  1.00  0.00     0.010 A 
ATOM     13  C   UNL     1       4.311  -0.817  -3.755  1.00  0.00    -0.014 A 
BRANCH  13  14
ATOM     14  C   UNL     1       5.038  -1.134  -5.006  1.00  0.00     0.031 A 
ATOM     15  C   UNL     1       5.712  -0.062  -5.807  1.00  0.00     0.074 A 
ATOM     16  C   UNL     1       5.073  -2.419  -5.408  1.00  0.00     0.049 A 
ATOM     17  N   UNL     1       6.363  -0.168  -6.938  1.00  0.00    -0.248 NA
ATOM     18  C   UNL     1       5.643   1.308  -5.279  1.00  0.00     0.031 C 
ATOM     19  C   UNL     1       4.437  -3.537  -4.704  1.00  0.00     0.029 A 
ATOM     20  N   UNL     1       5.667  -3.006  -6.493  1.00  0.00    -0.354 N 
ATOM     21  C   UNL     1       6.764   1.119  -7.267  1.00  0.00     0.074 A 
ATOM     22  C   UNL     1       6.264   1.996  -6.228  1.00  0.00     0.031 C 
ATOM     23  C   UNL     1       4.703  -4.676  -5.356  1.00  0.00     0.029 A 
ATOM     24  C   UNL     1       5.465  -4.362  -6.559  1.00  0.00     0.049 A 
ATOM     25  H   UNL     1       6.188  -2.505  -7.161  1.00  0.00     0.167 HD
ATOM     26  C   UNL     1       7.488   1.523  -8.338  1.00  0.00     0.037 A 
ATOM     27  C   UNL     1       5.825  -5.252  -7.500  1.00  0.00     0.037 A 
ATOM     28  C   UNL     1       7.984   0.634  -9.359  1.00  0.00     0.049 A 
ATOM     29  C   UNL     1       6.591  -4.767  -8.695  1.00  0.00     0.074 A 
ATOM     30  C   UNL     1       8.765   0.936 -10.461  1.00  0.00     0.029 A 
ATOM     31  N   UNL     1       7.737  -0.732  -9.408  1.00  0.00    -0.354 N 
ATOM     32  N   UNL     1       7.005  -3.555  -8.974  1.00  0.00    -0.248 NA
ATOM     33  C   UNL     1       6.937  -5.770  -9.709  1.00  0.00     0.031 C 
ATOM     34  C   UNL     1       8.943  -0.235 -11.206  1.00  0.00     0.029 A 
ATOM     35  C   UNL     1       8.323  -1.279 -10.538  1.00  0.00     0.049 A 
ATOM     36  H   UNL     1       7.222  -1.236  -8.738  1.00  0.00     0.167 HD
ATOM     37  C   UNL     1       7.673  -3.650 -10.185  1.00  0.00     0.074 A 
ATOM     38  C   UNL     1       7.629  -5.045 -10.576  1.00  0.00     0.031 C 
ATOM     39  C   UNL     1       8.267  -2.671 -10.910  1.00  0.00     0.037 A 
BRANCH  26  40
ATOM     40  C   UNL     1       7.771   2.991  -8.481  1.00  0.00     0.064 A 
ATOM     41  C   UNL     1       8.665   3.658  -7.631  1.00  0.00     0.173 A 
ATOM     42  C   UNL     1       7.180   3.729  -9.519  1.00  0.00     0.173 A 
ATOM     43  F   UNL     1       9.250   3.003  -6.617  1.00  0.00    -0.203 F 
ATOM     44  C   UNL     1       8.940   5.014  -7.801  1.00  0.00     0.198 A 
ATOM     45  C   UNL     1       7.479   5.077  -9.703  1.00  0.00     0.198 A 
ATOM     46  F   UNL     1       6.322   3.139 -10.365  1.00  0.00    -0.203 F 
ATOM     47  F   UNL     1       9.766   5.639  -6.951  1.00  0.00    -0.200 F 
ATOM     48  C   UNL     1       8.353   5.719  -8.841  1.00  0.00     0.200 A 
ATOM     49  F   UNL     1       6.921   5.753 -10.717  1.00  0.00    -0.200 F 
ATOM     50  F   UNL     1       8.627   7.020  -9.008  1.00  0.00    -0.200 F 
ENDBRANCH  26  40
BRANCH  27  51
ATOM     51  C   UNL     1       5.445  -6.680  -7.349  1.00  0.00     0.064 A 
ATOM     52  C   UNL     1       6.414  -7.665  -7.124  1.00  0.00     0.173 A 
ATOM     53  C   UNL     1       4.102  -7.085  -7.409  1.00  0.00     0.173 A 
ATOM     54  F   UNL     1       7.712  -7.329  -7.073  1.00  0.00    -0.203 F 
ATOM     55  C   UNL     1       6.058  -9.005  -6.983  1.00  0.00     0.198 A 
ATOM     56  C   UNL     1       3.744  -8.419  -7.235  1.00  0.00     0.198 A 
ATOM     57  F   UNL     1       3.135  -6.179  -7.613  1.00  0.00    -0.203 F 
ATOM     58  F   UNL     1       7.008  -9.933  -6.811  1.00  0.00    -0.200 F 
ATOM     59  C   UNL     1       4.723  -9.380  -7.030  1.00  0.00     0.200 A 
ATOM     60  F   UNL     1       2.453  -8.773  -7.261  1.00  0.00    -0.200 F 
ATOM     61  F   UNL     1       4.381 -10.667  -6.885  1.00  0.00    -0.200 F 
ENDBRANCH  27  51
BRANCH  39  62
ATOM     62  C   UNL     1       8.940  -3.082 -12.186  1.00  0.00     0.064 A 
ATOM     63  C   UNL     1       8.202  -3.467 -13.315  1.00  0.00     0.173 A 
ATOM     64  C   UNL     1      10.339  -3.060 -12.290  1.00  0.00     0.173 A 
ATOM     65  F   UNL     1       6.863  -3.523 -13.260  1.00  0.00    -0.203 F 
ATOM     66  C   UNL     1       8.842  -3.838 -14.494  1.00  0.00     0.198 A 
ATOM     67  C   UNL     1      10.974  -3.401 -13.480  1.00  0.00     0.198 A 
ATOM     68  F   UNL     1      11.089  -2.696 -11.239  1.00  0.00    -0.203 F 
ATOM     69  F   UNL     1       8.120  -4.251 -15.545  1.00  0.00    -0.200 F 
ATOM     70  C   UNL     1      10.226  -3.797 -14.578  1.00  0.00     0.200 A 
ATOM     71  F   UNL     1      12.310  -3.348 -13.563  1.00  0.00    -0.200 F 
ATOM     72  F   UNL     1      10.840  -4.147 -15.717  1.00  0.00    -0.200 F 
ENDBRANCH  39  62
ENDBRANCH  13  14
ENDBRANCH   6   8
ENDBRANCH   3   4
ENDBRANCH   2   3
ENDBRANCH   1   2
BRANCH   1  73
ATOM     73  C   UNL     1       4.463   0.872   4.122  1.00  0.00     0.002 C 
BRANCH  73  74
ATOM     74  C   UNL     1       5.996   0.885   4.125  1.00  0.00     0.021 C 
BRANCH  74  75
ATOM     75  C   UNL     1       6.574   2.256   4.448  1.00  0.00     0.116 C 
BRANCH  75  76
ATOM     76  N   UNL     1       6.331   2.598   5.835  1.00  0.00    -0.356 N 
ATOM     77  C   UNL     1       7.179   2.913   6.842  1.00  0.00     0.229 C 
ATOM     78  H   UNL     1       5.380   2.603   6.090  1.00  0.00     0.163 HD
ATOM     79  O   UNL     1       6.679   3.129   7.950  1.00  0.00    -0.275 OA
BRANCH  77  80
ATOM     80  C   UNL     1       8.678   3.042   6.648  1.00  0.00     0.145 C 
ATOM     81  C   UNL     1       9.344   1.784   6.093  1.00  0.00     0.276 C 
ATOM     82  C   UNL     1       9.206   4.266   5.835  1.00  0.00     0.037 C 
ATOM     83  N   UNL     1      10.469   2.235   5.285  1.00  0.00    -0.330 N 
ATOM     84  C   UNL     1      10.191   3.603   4.836  1.00  0.00     0.270 C 
ATOM     85  C   UNL     1       8.118   5.115   5.125  1.00  0.00     0.014 C 
ATOM     86  C   UNL     1       9.916   5.242   6.812  1.00  0.00     0.014 C 
ATOM     87  H   UNL     1      10.538   1.652   4.451  1.00  0.00     0.348 HD
ATOM     88  C   UNL     1       8.628   6.406   4.479  1.00  0.00     0.001 C 
ATOM     89  C   UNL     1      10.501   6.482   6.139  1.00  0.00     0.001 C 
ATOM     90  C   UNL     1       9.405   7.278   5.454  1.00  0.00     0.000 C 
BRANCH  83  91
ATOM     91  C   UNL     1      11.810   1.933   5.800  1.00  0.00     0.299 C 
BRANCH  91  92
ATOM     92  C   UNL     1      12.227   2.626   7.080  1.00  0.00     0.008 A 
ATOM     93  C   UNL     1      11.702   2.237   8.323  1.00  0.00     0.011 A 
ATOM     94  C   UNL     1      13.095   3.729   7.038  1.00  0.00     0.031 A 
ATOM     95  C   UNL     1      11.913   3.014   9.463  1.00  0.00     0.022 A 
ATOM     96  C   UNL     1      13.331   4.497   8.187  1.00  0.00     0.060 A 
ATOM     97  C   UNL     1      12.707   4.159   9.393  1.00  0.00     0.059 A 
ATOM     98  Cl  UNL     1      14.336   5.892   8.025  1.00  0.00    -0.083 Cl
ATOM     99  Cl  UNL     1      12.832   5.137  10.811  1.00  0.00    -0.083 Cl
ENDBRANCH  91  92
ENDBRANCH  83  91
ENDBRANCH  77  80
ENDBRANCH  75  76
ENDBRANCH  74  75
ENDBRANCH  73  74
ENDBRANCH   1  73
TORSDOF 15
