REMARK SMILES CCOC(=O)N[C@H]1C=C[C@H](C(=O)NCCCCCCNC(=O)c2ccc(-c3c4nc(c(-c5c(F)c(F)c(F)c(F)c5F)c5ccc([nH]5)c(-c5c(F)c(F)c(F)c(F)c5F)c5nc(c(-c6c(F)c(F)c(F)c(F)c6F)c6ccc3[nH]6)C=C5)C=C4)cc2)C1
REMARK SMILES IDX 16 1 15 2 14 3 13 4 11 5 12 6 10 8 7 9 8 10 86 11 9 12 6 13
REMARK SMILES IDX 4 14 5 15 3 17 2 18 1 19 17 20 18 21 19 22 20 23 21 24 22 26
REMARK SMILES IDX 23 27 24 28 85 29 25 30 84 31 26 32 27 33 28 34 78 35 29 36
REMARK SMILES IDX 83 37 77 38 79 39 30 40 82 41 76 42 75 43 31 45 63 46 43 47
REMARK SMILES IDX 62 48 44 49 47 50 61 51 80 52 45 53 46 54 60 56 81 57 48 58
REMARK SMILES IDX 32 59 33 60 41 61 34 62 35 63 39 64 42 65 36 66 37 67 40 68
REMARK SMILES IDX 38 69 64 70 65 71 73 72 66 73 67 74 71 75 74 76 68 77 69 78
REMARK SMILES IDX 72 79 70 80 49 81 50 82 58 83 51 84 52 85 56 86 59 87 53 88
REMARK SMILES IDX 54 89 57 90 55 91
REMARK H PARENT 13 7 6 16 20 25 79 44 47 55
REMARK Flexibility Score: inf
ROOT
ATOM      1  C   UNL     1      -0.840   5.772   5.591  1.00  0.00     0.002 C 
ENDROOT
BRANCH   1   2
ATOM      2  C   UNL     1       0.420   4.994   5.193  1.00  0.00     0.021 C 
BRANCH   2   3
ATOM      3  C   UNL     1       1.327   4.635   6.372  1.00  0.00     0.116 C 
BRANCH   3   4
ATOM      4  N   UNL     1       0.682   3.670   7.241  1.00  0.00    -0.356 N 
ATOM      5  C   UNL     1       0.980   2.354   7.452  1.00  0.00     0.227 C 
ATOM      6  O   UNL     1       0.235   1.711   8.193  1.00  0.00    -0.274 OA
ATOM      7  H   UNL     1      -0.083   4.014   7.755  1.00  0.00     0.163 HD
BRANCH   5   8
ATOM      8  C   UNL     1       2.250   1.769   6.821  1.00  0.00     0.103 C 
ATOM      9  C   UNL     1       1.969   0.224   4.923  1.00  0.00     0.109 C 
ATOM     10  C   UNL     1       2.319  -0.498   6.178  1.00  0.00    -0.006 C 
ATOM     11  C   UNL     1       2.206   1.692   5.287  1.00  0.00     0.047 C 
ATOM     12  C   UNL     1       2.467   0.337   7.212  1.00  0.00    -0.016 C 
BRANCH   9  13
ATOM     13  N   UNL     1       2.860  -0.217   3.881  1.00  0.00    -0.315 N 
ATOM     14  C   UNL     1       2.514  -0.542   2.607  1.00  0.00     0.407 C 
ATOM     15  O   UNL     1       3.342  -0.966   1.809  1.00  0.00    -0.225 OA
ATOM     16  H   UNL     1       3.814  -0.289   4.114  1.00  0.00     0.167 HD
BRANCH  14  17
ATOM     17  O   UNL     1       1.196  -0.363   2.346  1.00  0.00    -0.450 OA
BRANCH  17  18
ATOM     18  C   UNL     1       0.737  -0.862   1.081  1.00  0.00     0.231 C 
ATOM     19  C   UNL     1       1.036   0.112  -0.043  1.00  0.00     0.049 C 
ENDBRANCH  17  18
ENDBRANCH  14  17
ENDBRANCH   9  13
ENDBRANCH   5   8
ENDBRANCH   3   4
ENDBRANCH   2   3
ENDBRANCH   1   2
BRANCH   1  20
ATOM     20  C   UNL     1      -0.577   7.111   6.287  1.00  0.00     0.002 C 
BRANCH  20  21
ATOM     21  C   UNL     1       0.318   8.075   5.505  1.00  0.00     0.021 C 
BRANCH  21  22
ATOM     22  C   UNL     1      -0.208   8.441   4.120  1.00  0.00     0.116 C 
BRANCH  22  23
ATOM     23  N   UNL     1      -1.471   9.159   4.189  1.00  0.00    -0.352 N 
ATOM     24  C   UNL     1      -1.793  10.404   3.710  1.00  0.00     0.251 C 
ATOM     25  H   UNL     1      -2.201   8.682   4.645  1.00  0.00     0.163 HD
ATOM     26  O   UNL     1      -2.846  10.941   4.040  1.00  0.00    -0.269 OA
BRANCH  24  27
ATOM     27  C   UNL     1      -0.858  11.111   2.810  1.00  0.00     0.039 A 
ATOM     28  C   UNL     1      -0.588  12.462   3.042  1.00  0.00     0.014 A 
ATOM     29  C   UNL     1      -0.249  10.445   1.743  1.00  0.00     0.014 A 
ATOM     30  C   UNL     1       0.347  13.127   2.246  1.00  0.00     0.010 A 
ATOM     31  C   UNL     1       0.736  11.088   0.998  1.00  0.00     0.010 A 
ATOM     32  C   UNL     1       1.049  12.434   1.246  1.00  0.00    -0.014 A 
BRANCH  32  33
ATOM     33  C   UNL     1       2.130  13.091   0.466  1.00  0.00     0.031 A 
ATOM     34  C   UNL     1       1.994  13.266  -1.022  1.00  0.00     0.074 A 
ATOM     35  C   UNL     1       3.265  13.464   1.090  1.00  0.00     0.049 A 
ATOM     36  N   UNL     1       2.865  13.729  -1.883  1.00  0.00    -0.248 NA
ATOM     37  C   UNL     1       0.719  12.846  -1.626  1.00  0.00     0.031 C 
ATOM     38  C   UNL     1       3.532  13.314   2.522  1.00  0.00     0.029 A 
ATOM     39  N   UNL     1       4.416  14.030   0.599  1.00  0.00    -0.354 N 
ATOM     40  C   UNL     1       2.253  13.639  -3.126  1.00  0.00     0.074 A 
ATOM     41  C   UNL     1       0.952  13.044  -2.917  1.00  0.00     0.031 C 
ATOM     42  C   UNL     1       4.758  13.788   2.795  1.00  0.00     0.029 A 
ATOM     43  C   UNL     1       5.385  14.229   1.554  1.00  0.00     0.049 A 
ATOM     44  H   UNL     1       4.536  14.271  -0.348  1.00  0.00     0.167 HD
ATOM     45  C   UNL     1       2.731  14.033  -4.330  1.00  0.00     0.037 A 
ATOM     46  C   UNL     1       6.645  14.692   1.437  1.00  0.00     0.037 A 
ATOM     47  C   UNL     1       4.016  14.653  -4.530  1.00  0.00     0.049 A 
ATOM     48  C   UNL     1       7.153  15.096   0.077  1.00  0.00     0.074 A 
ATOM     49  C   UNL     1       4.555  15.156  -5.701  1.00  0.00     0.029 A 
ATOM     50  N   UNL     1       4.964  14.848  -3.538  1.00  0.00    -0.354 N 
ATOM     51  N   UNL     1       6.533  15.084  -1.078  1.00  0.00    -0.248 NA
ATOM     52  C   UNL     1       8.538  15.583   0.005  1.00  0.00     0.031 C 
ATOM     53  C   UNL     1       5.855  15.592  -5.433  1.00  0.00     0.029 A 
ATOM     54  C   UNL     1       6.100  15.428  -4.080  1.00  0.00     0.049 A 
ATOM     55  H   UNL     1       4.848  14.610  -2.589  1.00  0.00     0.167 HD
ATOM     56  C   UNL     1       7.436  15.594  -2.001  1.00  0.00     0.074 A 
ATOM     57  C   UNL     1       8.640  15.925  -1.270  1.00  0.00     0.031 C 
ATOM     58  C   UNL     1       7.285  15.769  -3.337  1.00  0.00     0.037 A 
BRANCH  45  59
ATOM     59  C   UNL     1       1.874  13.809  -5.542  1.00  0.00     0.064 A 
ATOM     60  C   UNL     1       0.716  14.563  -5.778  1.00  0.00     0.173 A 
ATOM     61  C   UNL     1       2.274  12.894  -6.529  1.00  0.00     0.173 A 
ATOM     62  F   UNL     1       0.286  15.445  -4.863  1.00  0.00    -0.203 F 
ATOM     63  C   UNL     1      -0.016  14.404  -6.952  1.00  0.00     0.198 A 
ATOM     64  C   UNL     1       1.557  12.759  -7.715  1.00  0.00     0.198 A 
ATOM     65  F   UNL     1       3.378  12.152  -6.356  1.00  0.00    -0.203 F 
ATOM     66  F   UNL     1      -1.135  15.116  -7.144  1.00  0.00    -0.200 F 
ATOM     67  C   UNL     1       0.412  13.512  -7.924  1.00  0.00     0.200 A 
ATOM     68  F   UNL     1       1.982  11.909  -8.660  1.00  0.00    -0.200 F 
ATOM     69  F   UNL     1      -0.279  13.378  -9.065  1.00  0.00    -0.200 F 
ENDBRANCH  45  59
BRANCH  46  70
ATOM     70  C   UNL     1       7.530  14.790   2.630  1.00  0.00     0.064 A 
ATOM     71  C   UNL     1       7.995  16.033   3.084  1.00  0.00     0.173 A 
ATOM     72  C   UNL     1       7.981  13.644   3.302  1.00  0.00     0.173 A 
ATOM     73  F   UNL     1       7.611  17.159   2.464  1.00  0.00    -0.203 F 
ATOM     74  C   UNL     1       8.910  16.123   4.131  1.00  0.00     0.198 A 
ATOM     75  C   UNL     1       8.865  13.738   4.375  1.00  0.00     0.198 A 
ATOM     76  F   UNL     1       7.565  12.429   2.914  1.00  0.00    -0.203 F 
ATOM     77  F   UNL     1       9.397  17.318   4.492  1.00  0.00    -0.200 F 
ATOM     78  C   UNL     1       9.343  14.975   4.777  1.00  0.00     0.200 A 
ATOM     79  F   UNL     1       9.267  12.627   5.007  1.00  0.00    -0.200 F 
ATOM     80  F   UNL     1      10.231  15.060   5.777  1.00  0.00    -0.200 F 
ENDBRANCH  46  70
BRANCH  58  81
ATOM     81  C   UNL     1       8.429  16.391  -4.087  1.00  0.00     0.064 A 
ATOM     82  C   UNL     1       9.639  15.711  -4.290  1.00  0.00     0.173 A 
ATOM     83  C   UNL     1       8.298  17.675  -4.640  1.00  0.00     0.173 A 
ATOM     84  F   UNL     1       9.822  14.488  -3.770  1.00  0.00    -0.203 F 
ATOM     85  C   UNL     1      10.686  16.306  -4.990  1.00  0.00     0.198 A 
ATOM     86  C   UNL     1       9.332  18.251  -5.372  1.00  0.00     0.198 A 
ATOM     87  F   UNL     1       7.159  18.366  -4.484  1.00  0.00    -0.203 F 
ATOM     88  F   UNL     1      11.853  15.660  -5.120  1.00  0.00    -0.200 F 
ATOM     89  C   UNL     1      10.529  17.570  -5.537  1.00  0.00     0.200 A 
ATOM     90  F   UNL     1       9.171  19.465  -5.915  1.00  0.00    -0.200 F 
ATOM     91  F   UNL     1      11.534  18.137  -6.218  1.00  0.00    -0.200 F 
ENDBRANCH  58  81
ENDBRANCH  32  33
ENDBRANCH  24  27
ENDBRANCH  22  23
ENDBRANCH  21  22
ENDBRANCH  20  21
ENDBRANCH   1  20
TORSDOF 16
