REMARK SMILES O=C(NCCCCCCNC(=O)[C@@H]1CC2(CCN(C(=O)C3(c4ccccc4F)CC3)CC2)C[NH2+]1)c1ccc(-c2c3nc(c(-c4c(F)c(F)c(F)c(F)c4F)c4ccc([nH]4)c(-c4c(F)c(F)c(F)c(F)c4F)c4nc(c(-c5c(F)c(F)c(F)c(F)c5F)c5ccc2[nH]5)C=C4)C=C3)cc1
REMARK SMILES IDX 6 1 5 2 4 3 3 4 1 5 2 6 35 8 36 9 97 10 37 11 96 12 38 13
REMARK SMILES IDX 39 14 40 15 90 16 41 17 95 18 89 19 91 20 42 21 94 22 88 23
REMARK SMILES IDX 87 24 43 26 75 27 55 28 74 29 56 30 59 31 73 32 92 33 57 34
REMARK SMILES IDX 58 35 72 37 93 38 60 39 44 40 45 41 53 42 46 43 47 44 51 45
REMARK SMILES IDX 54 46 48 47 49 48 52 49 50 50 76 51 77 52 85 53 78 54 79 55
REMARK SMILES IDX 83 56 86 57 80 58 81 59 84 60 82 61 61 62 62 63 70 64 63 65
REMARK SMILES IDX 64 66 68 67 71 68 65 69 66 70 69 71 67 72 7 73 8 74 9 75
REMARK SMILES IDX 10 76 11 77 12 79 13 80 14 81 34 82 15 83 33 84 16 87 32 88
REMARK SMILES IDX 17 89 31 90 18 91 19 92 20 93 21 94 29 95 30 96 22 97 23 98
REMARK SMILES IDX 27 99 24 100 26 101 28 102 25 103
REMARK H PARENT 3 7 91 25 59 36 10 78 34 85 34 86
REMARK Flexibility Score: inf
ROOT
ATOM      1  C   UNL     1       4.308  -2.495   2.789  1.00  0.00     0.002 C 
ENDROOT
BRANCH   1   2
ATOM      2  C   UNL     1       4.731  -1.120   2.274  1.00  0.00     0.021 C 
BRANCH   2   3
ATOM      3  C   UNL     1       4.523  -0.934   0.778  1.00  0.00     0.116 C 
BRANCH   3   4
ATOM      4  N   UNL     1       3.114  -0.972   0.424  1.00  0.00    -0.352 N 
ATOM      5  O   UNL     1       1.122  -0.096  -0.178  1.00  0.00    -0.269 OA
ATOM      6  C   UNL     1       2.345   0.006  -0.151  1.00  0.00     0.251 C 
ATOM      7  H   UNL     1       2.648  -1.816   0.625  1.00  0.00     0.163 HD
BRANCH   6   8
ATOM      8  C   UNL     1       3.000   1.197  -0.724  1.00  0.00     0.039 A 
ATOM      9  C   UNL     1       4.130   1.064  -1.538  1.00  0.00     0.014 A 
ATOM     10  C   UNL     1       2.473   2.459  -0.446  1.00  0.00     0.014 A 
ATOM     11  C   UNL     1       4.805   2.199  -1.973  1.00  0.00     0.010 A 
ATOM     12  C   UNL     1       3.105   3.595  -0.953  1.00  0.00     0.010 A 
ATOM     13  C   UNL     1       4.288   3.474  -1.699  1.00  0.00    -0.014 A 
BRANCH  13  14
ATOM     14  C   UNL     1       4.955   4.679  -2.246  1.00  0.00     0.031 A 
ATOM     15  C   UNL     1       5.558   5.704  -1.332  1.00  0.00     0.074 A 
ATOM     16  C   UNL     1       4.988   4.855  -3.580  1.00  0.00     0.049 A 
ATOM     17  N   UNL     1       6.100   6.857  -1.629  1.00  0.00    -0.248 NA
ATOM     18  C   UNL     1       5.545   5.399   0.107  1.00  0.00     0.031 C 
ATOM     19  C   UNL     1       4.442   3.918  -4.564  1.00  0.00     0.029 A 
ATOM     20  N   UNL     1       5.494   5.878  -4.339  1.00  0.00    -0.354 N 
ATOM     21  C   UNL     1       6.471   7.425  -0.418  1.00  0.00     0.074 A 
ATOM     22  C   UNL     1       6.071   6.502   0.622  1.00  0.00     0.031 C 
ATOM     23  C   UNL     1       4.661   4.398  -5.795  1.00  0.00     0.029 A 
ATOM     24  C   UNL     1       5.297   5.707  -5.687  1.00  0.00     0.049 A 
ATOM     25  H   UNL     1       5.954   6.660  -3.955  1.00  0.00     0.167 HD
ATOM     26  C   UNL     1       7.094   8.608  -0.203  1.00  0.00     0.037 A 
ATOM     27  C   UNL     1       5.568   6.524  -6.721  1.00  0.00     0.037 A 
ATOM     28  C   UNL     1       7.495   9.511  -1.251  1.00  0.00     0.049 A 
ATOM     29  C   UNL     1       6.207   7.855  -6.454  1.00  0.00     0.074 A 
ATOM     30  C   UNL     1       8.165  10.717  -1.137  1.00  0.00     0.029 A 
ATOM     31  N   UNL     1       7.253   9.314  -2.604  1.00  0.00    -0.354 N 
ATOM     32  N   UNL     1       6.574   8.375  -5.308  1.00  0.00    -0.248 NA
ATOM     33  C   UNL     1       6.467   8.715  -7.616  1.00  0.00     0.031 C 
ATOM     34  C   UNL     1       8.271  11.279  -2.412  1.00  0.00     0.029 A 
ATOM     35  C   UNL     1       7.733  10.392  -3.331  1.00  0.00     0.049 A 
ATOM     36  H   UNL     1       6.807   8.526  -2.989  1.00  0.00     0.167 HD
ATOM     37  C   UNL     1       7.132   9.609  -5.610  1.00  0.00     0.074 A 
ATOM     38  C   UNL     1       7.056   9.761  -7.048  1.00  0.00     0.031 C 
ATOM     39  C   UNL     1       7.663  10.526  -4.766  1.00  0.00     0.037 A 
BRANCH  26  40
ATOM     40  C   UNL     1       7.366   9.012   1.218  1.00  0.00     0.064 A 
ATOM     41  C   UNL     1       6.705  10.117   1.779  1.00  0.00     0.173 A 
ATOM     42  C   UNL     1       8.320   8.352   2.007  1.00  0.00     0.173 A 
ATOM     43  F   UNL     1       5.789  10.791   1.067  1.00  0.00    -0.203 F 
ATOM     44  C   UNL     1       6.996  10.550   3.070  1.00  0.00     0.198 A 
ATOM     45  C   UNL     1       8.585   8.768   3.310  1.00  0.00     0.198 A 
ATOM     46  F   UNL     1       8.974   7.285   1.524  1.00  0.00    -0.203 F 
ATOM     47  F   UNL     1       6.375  11.627   3.570  1.00  0.00    -0.200 F 
ATOM     48  C   UNL     1       7.930   9.872   3.837  1.00  0.00     0.200 A 
ATOM     49  F   UNL     1       9.469   8.095   4.059  1.00  0.00    -0.200 F 
ATOM     50  F   UNL     1       8.197  10.278   5.086  1.00  0.00    -0.200 F 
ENDBRANCH  26  40
BRANCH  27  51
ATOM     51  C   UNL     1       5.232   6.076  -8.096  1.00  0.00     0.064 A 
ATOM     52  C   UNL     1       3.899   5.931  -8.510  1.00  0.00     0.173 A 
ATOM     53  C   UNL     1       6.240   5.698  -8.992  1.00  0.00     0.173 A 
ATOM     54  F   UNL     1       2.898   6.269  -7.683  1.00  0.00    -0.203 F 
ATOM     55  C   UNL     1       3.587   5.392  -9.756  1.00  0.00     0.198 A 
ATOM     56  C   UNL     1       5.927   5.184 -10.249  1.00  0.00     0.198 A 
ATOM     57  F   UNL     1       7.528   5.832  -8.646  1.00  0.00    -0.203 F 
ATOM     58  F   UNL     1       2.306   5.212 -10.104  1.00  0.00    -0.200 F 
ATOM     59  C   UNL     1       4.601   5.019 -10.624  1.00  0.00     0.200 A 
ATOM     60  F   UNL     1       6.909   4.841 -11.093  1.00  0.00    -0.200 F 
ATOM     61  F   UNL     1       4.302   4.496 -11.821  1.00  0.00    -0.200 F 
ENDBRANCH  27  51
BRANCH  39  62
ATOM     62  C   UNL     1       8.248  11.774  -5.360  1.00  0.00     0.064 A 
ATOM     63  C   UNL     1       9.635  11.989  -5.317  1.00  0.00     0.173 A 
ATOM     64  C   UNL     1       7.438  12.803  -5.858  1.00  0.00     0.173 A 
ATOM     65  F   UNL     1      10.452  11.036  -4.843  1.00  0.00    -0.203 F 
ATOM     66  C   UNL     1      10.185  13.202  -5.720  1.00  0.00     0.198 A 
ATOM     67  C   UNL     1       7.995  14.005  -6.287  1.00  0.00     0.198 A 
ATOM     68  F   UNL     1       6.109  12.640  -5.933  1.00  0.00    -0.203 F 
ATOM     69  F   UNL     1      11.506  13.403  -5.619  1.00  0.00    -0.200 F 
ATOM     70  C   UNL     1       9.365  14.209  -6.203  1.00  0.00     0.200 A 
ATOM     71  F   UNL     1       7.204  14.971  -6.775  1.00  0.00    -0.200 F 
ATOM     72  F   UNL     1       9.894  15.379  -6.586  1.00  0.00    -0.200 F 
ENDBRANCH  39  62
ENDBRANCH  13  14
ENDBRANCH   6   8
ENDBRANCH   3   4
ENDBRANCH   2   3
ENDBRANCH   1   2
BRANCH   1  73
ATOM     73  C   UNL     1       5.019  -3.671   2.109  1.00  0.00     0.002 C 
BRANCH  73  74
ATOM     74  C   UNL     1       6.554  -3.588   2.130  1.00  0.00     0.021 C 
BRANCH  74  75
ATOM     75  C   UNL     1       7.136  -3.372   3.529  1.00  0.00     0.116 C 
BRANCH  75  76
ATOM     76  N   UNL     1       6.776  -4.483   4.379  1.00  0.00    -0.351 N 
ATOM     77  C   UNL     1       7.507  -5.611   4.602  1.00  0.00     0.278 C 
ATOM     78  H   UNL     1       5.912  -4.418   4.846  1.00  0.00     0.163 HD
ATOM     79  O   UNL     1       6.898  -6.626   4.932  1.00  0.00    -0.268 OA
BRANCH  77  80
ATOM     80  C   UNL     1       9.042  -5.516   4.489  1.00  0.00     0.273 C 
ATOM     81  C   UNL     1       9.727  -6.866   4.479  1.00  0.00     0.088 C 
ATOM     82  N   UNL     1       9.612  -4.871   5.689  1.00  0.00    -0.336 N 
ATOM     83  C   UNL     1       9.941  -7.232   5.964  1.00  0.00     0.029 C 
ATOM     84  C   UNL     1       9.675  -5.918   6.718  1.00  0.00     0.268 C 
ATOM     85  H   UNL     1       9.014  -4.104   5.999  1.00  0.00     0.346 HD
ATOM     86  H   UNL     1      10.534  -4.476   5.500  1.00  0.00     0.346 HD
ATOM     87  C   UNL     1      11.376  -7.743   6.189  1.00  0.00     0.034 C 
ATOM     88  C   UNL     1       8.992  -8.340   6.458  1.00  0.00     0.034 C 
ATOM     89  C   UNL     1      11.621  -9.096   5.511  1.00  0.00     0.120 C 
ATOM     90  C   UNL     1       9.227  -9.642   5.709  1.00  0.00     0.120 C 
ATOM     91  N   UNL     1      10.613 -10.087   5.877  1.00  0.00    -0.342 N 
ATOM     92  C   UNL     1      10.777 -11.399   6.327  1.00  0.00     0.233 C 
ATOM     93  O   UNL     1       9.773 -12.039   6.655  1.00  0.00    -0.274 OA
BRANCH  92  94
ATOM     94  C   UNL     1      12.109 -12.134   6.460  1.00  0.00     0.077 C 
ATOM     95  C   UNL     1      13.503 -11.700   6.020  1.00  0.00     0.023 C 
ATOM     96  C   UNL     1      13.098 -11.516   7.448  1.00  0.00     0.023 C 
BRANCH  94  97
ATOM     97  C   UNL     1      11.922 -13.665   6.419  1.00  0.00     0.003 A 
ATOM     98  C   UNL     1      12.137 -14.388   5.230  1.00  0.00     0.008 A 
ATOM     99  C   UNL     1      11.395 -14.371   7.512  1.00  0.00     0.127 A 
ATOM    100  C   UNL     1      11.814 -15.744   5.137  1.00  0.00     0.001 A 
ATOM    101  C   UNL     1      11.048 -15.716   7.421  1.00  0.00     0.039 A 
ATOM    102  F   UNL     1      11.174 -13.732   8.671  1.00  0.00    -0.207 F 
ATOM    103  C   UNL     1      11.253 -16.404   6.228  1.00  0.00     0.003 A 
ENDBRANCH  94  97
ENDBRANCH  92  94
ENDBRANCH  77  80
ENDBRANCH  75  76
ENDBRANCH  74  75
ENDBRANCH  73  74
ENDBRANCH   1  73
TORSDOF 15
