REMARK SMILES O=C(Cn1ncc2ccccc2c1=O)N[C@@H]1C[NH2+][C@H](C(=O)NCCCCCCNC(=O)c2ccc(-c3c4nc(c(-c5c(F)c(F)c(F)c(F)c5F)c5ccc([nH]5)c(-c5c(F)c(F)c(F)c(F)c5F)c5nc(c(-c6c(F)c(F)c(F)c(F)c6F)c6ccc3[nH]6)C=C5)C=C4)cc2)C1
REMARK SMILES IDX 25 1 24 2 23 3 22 4 20 5 21 6 19 8 16 9 17 10 95 11 18 12
REMARK SMILES IDX 15 15 1 16 2 17 3 19 4 20 5 21 13 22 6 23 12 24 14 25 7 26
REMARK SMILES IDX 11 27 8 28 10 29 9 30 26 31 27 32 28 33 29 34 30 35 31 37
REMARK SMILES IDX 32 38 33 39 94 40 34 41 93 42 35 43 36 44 37 45 87 46 38 47
REMARK SMILES IDX 92 48 86 49 88 50 39 51 91 52 85 53 84 54 40 56 72 57 52 58
REMARK SMILES IDX 71 59 53 60 56 61 70 62 89 63 54 64 55 65 69 67 90 68 57 69
REMARK SMILES IDX 41 70 42 71 50 72 43 73 44 74 48 75 51 76 45 77 46 78 49 79
REMARK SMILES IDX 47 80 73 81 74 82 82 83 75 84 76 85 80 86 83 87 77 88 78 89
REMARK SMILES IDX 81 90 79 91 58 92 59 93 67 94 60 95 61 96 65 97 68 98 62 99
REMARK SMILES IDX 63 100 66 101 64 102
REMARK H PARENT 22 7 18 13 18 14 15 18 29 36 88 55 56 66
REMARK Flexibility Score: inf
ROOT
ATOM      1  C   UNL     1      -3.711  -0.487   0.277  1.00  0.00     0.002 C 
ENDROOT
BRANCH   1   2
ATOM      2  C   UNL     1      -2.470  -0.288   1.156  1.00  0.00     0.021 C 
BRANCH   2   3
ATOM      3  C   UNL     1      -2.287  -1.347   2.246  1.00  0.00     0.116 C 
BRANCH   3   4
ATOM      4  N   UNL     1      -1.958  -2.641   1.684  1.00  0.00    -0.351 N 
ATOM      5  C   UNL     1      -0.776  -3.332   1.692  1.00  0.00     0.278 C 
ATOM      6  O   UNL     1      -0.761  -4.413   1.100  1.00  0.00    -0.268 OA
ATOM      7  H   UNL     1      -2.700  -3.095   1.223  1.00  0.00     0.163 HD
BRANCH   5   8
ATOM      8  C   UNL     1       0.431  -2.774   2.495  1.00  0.00     0.274 C 
ATOM      9  C   UNL     1       2.381  -1.556   1.711  1.00  0.00     0.143 C 
ATOM     10  C   UNL     1       2.477  -3.035   1.357  1.00  0.00     0.286 C 
ATOM     11  C   UNL     1       0.898  -1.398   2.010  1.00  0.00     0.106 C 
ATOM     12  N   UNL     1       1.612  -3.674   2.363  1.00  0.00    -0.334 N 
ATOM     13  H   UNL     1       2.100  -3.756   3.254  1.00  0.00     0.347 HD
ATOM     14  H   UNL     1       1.341  -4.618   2.087  1.00  0.00     0.347 HD
BRANCH   9  15
ATOM     15  N   UNL     1       2.993  -0.635   0.767  1.00  0.00    -0.346 N 
ATOM     16  O   UNL     1       1.214  -0.087  -0.603  1.00  0.00    -0.273 OA
ATOM     17  C   UNL     1       2.397   0.018  -0.295  1.00  0.00     0.242 C 
ATOM     18  H   UNL     1       3.951  -0.453   0.902  1.00  0.00     0.164 HD
BRANCH  17  19
ATOM     19  C   UNL     1       3.380   0.806  -1.159  1.00  0.00     0.248 C 
BRANCH  19  20
ATOM     20  N   UNL     1       4.069   1.832  -0.381  1.00  0.00    -0.220 N 
ATOM     21  N   UNL     1       5.158   1.423   0.367  1.00  0.00    -0.177 NA
ATOM     22  C   UNL     1       3.592   3.144  -0.428  1.00  0.00     0.275 A 
ATOM     23  C   UNL     1       5.810   2.327   1.032  1.00  0.00     0.142 A 
ATOM     24  C   UNL     1       4.364   4.152   0.319  1.00  0.00     0.050 A 
ATOM     25  O   UNL     1       2.600   3.500  -1.058  1.00  0.00    -0.267 OA
ATOM     26  C   UNL     1       5.474   3.746   1.042  1.00  0.00     0.007 A 
ATOM     27  C   UNL     1       4.010   5.506   0.293  1.00  0.00     0.014 A 
ATOM     28  C   UNL     1       6.248   4.666   1.751  1.00  0.00     0.010 A 
ATOM     29  C   UNL     1       4.779   6.437   0.995  1.00  0.00     0.001 A 
ATOM     30  C   UNL     1       5.896   6.018   1.723  1.00  0.00     0.001 A 
ENDBRANCH  19  20
ENDBRANCH  17  19
ENDBRANCH   9  15
ENDBRANCH   5   8
ENDBRANCH   3   4
ENDBRANCH   2   3
ENDBRANCH   1   2
BRANCH   1  31
ATOM     31  C   UNL     1      -5.051  -0.497   1.020  1.00  0.00     0.002 C 
BRANCH  31  32
ATOM     32  C   UNL     1      -5.304   0.710   1.924  1.00  0.00     0.021 C 
BRANCH  32  33
ATOM     33  C   UNL     1      -5.293   2.057   1.212  1.00  0.00     0.116 C 
BRANCH  33  34
ATOM     34  N   UNL     1      -6.420   2.223   0.305  1.00  0.00    -0.352 N 
ATOM     35  C   UNL     1      -7.335   3.247   0.233  1.00  0.00     0.251 C 
ATOM     36  H   UNL     1      -6.544   1.499  -0.350  1.00  0.00     0.163 HD
ATOM     37  O   UNL     1      -8.318   3.156  -0.496  1.00  0.00    -0.269 OA
BRANCH  35  38
ATOM     38  C   UNL     1      -7.152   4.449   1.074  1.00  0.00     0.039 A 
ATOM     39  C   UNL     1      -5.905   5.071   1.165  1.00  0.00     0.014 A 
ATOM     40  C   UNL     1      -8.237   4.940   1.806  1.00  0.00     0.014 A 
ATOM     41  C   UNL     1      -5.701   6.066   2.114  1.00  0.00     0.010 A 
ATOM     42  C   UNL     1      -8.048   5.997   2.702  1.00  0.00     0.010 A 
ATOM     43  C   UNL     1      -6.766   6.532   2.903  1.00  0.00    -0.014 A 
BRANCH  43  44
ATOM     44  C   UNL     1      -6.508   7.559   3.946  1.00  0.00     0.031 A 
ATOM     45  C   UNL     1      -6.668   7.229   5.405  1.00  0.00     0.074 A 
ATOM     46  C   UNL     1      -6.067   8.777   3.577  1.00  0.00     0.049 A 
ATOM     47  N   UNL     1      -6.465   7.991   6.452  1.00  0.00    -0.248 NA
ATOM     48  C   UNL     1      -7.114   5.866   5.739  1.00  0.00     0.031 C 
ATOM     49  C   UNL     1      -5.860   9.213   2.195  1.00  0.00     0.029 A 
ATOM     50  N   UNL     1      -5.689   9.861   4.328  1.00  0.00    -0.354 N 
ATOM     51  C   UNL     1      -6.774   7.210   7.559  1.00  0.00     0.074 A 
ATOM     52  C   UNL     1      -7.204   5.922   7.060  1.00  0.00     0.031 C 
ATOM     53  C   UNL     1      -5.344  10.451   2.198  1.00  0.00     0.029 A 
ATOM     54  C   UNL     1      -5.239  10.919   3.577  1.00  0.00     0.049 A 
ATOM     55  H   UNL     1      -5.736   9.879   5.312  1.00  0.00     0.167 HD
ATOM     56  C   UNL     1      -6.690   7.535   8.871  1.00  0.00     0.037 A 
ATOM     57  C   UNL     1      -4.800  12.134   3.954  1.00  0.00     0.037 A 
ATOM     58  C   UNL     1      -6.233   8.806   9.368  1.00  0.00     0.049 A 
ATOM     59  C   UNL     1      -4.755  12.480   5.415  1.00  0.00     0.074 A 
ATOM     60  C   UNL     1      -6.090   9.217  10.682  1.00  0.00     0.029 A 
ATOM     61  N   UNL     1      -5.841   9.871   8.571  1.00  0.00    -0.354 N 
ATOM     62  N   UNL     1      -5.043  11.730   6.449  1.00  0.00    -0.248 NA
ATOM     63  C   UNL     1      -4.334  13.845   5.760  1.00  0.00     0.031 C 
ATOM     64  C   UNL     1      -5.648  10.543  10.681  1.00  0.00     0.029 A 
ATOM     65  C   UNL     1      -5.474  10.945   9.367  1.00  0.00     0.049 A 
ATOM     66  H   UNL     1      -5.825   9.866   7.587  1.00  0.00     0.167 HD
ATOM     67  C   UNL     1      -4.833  12.525   7.567  1.00  0.00     0.074 A 
ATOM     68  C   UNL     1      -4.369  13.809   7.085  1.00  0.00     0.031 C 
ATOM     69  C   UNL     1      -5.016  12.218   8.874  1.00  0.00     0.037 A 
BRANCH  56  70
ATOM     70  C   UNL     1      -7.101   6.501   9.879  1.00  0.00     0.064 A 
ATOM     71  C   UNL     1      -6.293   5.390  10.160  1.00  0.00     0.173 A 
ATOM     72  C   UNL     1      -8.275   6.668  10.630  1.00  0.00     0.173 A 
ATOM     73  F   UNL     1      -5.166   5.181   9.463  1.00  0.00    -0.203 F 
ATOM     74  C   UNL     1      -6.651   4.478  11.150  1.00  0.00     0.198 A 
ATOM     75  C   UNL     1      -8.617   5.767  11.635  1.00  0.00     0.198 A 
ATOM     76  F   UNL     1      -9.078   7.719  10.405  1.00  0.00    -0.203 F 
ATOM     77  F   UNL     1      -5.876   3.410  11.386  1.00  0.00    -0.200 F 
ATOM     78  C   UNL     1      -7.806   4.673  11.893  1.00  0.00     0.200 A 
ATOM     79  F   UNL     1      -9.726   5.964  12.361  1.00  0.00    -0.200 F 
ATOM     80  F   UNL     1      -8.137   3.804  12.858  1.00  0.00    -0.200 F 
ENDBRANCH  56  70
BRANCH  57  81
ATOM     81  C   UNL     1      -4.367  13.109   2.920  1.00  0.00     0.064 A 
ATOM     82  C   UNL     1      -3.017  13.457   2.781  1.00  0.00     0.173 A 
ATOM     83  C   UNL     1      -5.288  13.690   2.036  1.00  0.00     0.173 A 
ATOM     84  F   UNL     1      -2.103  12.943   3.617  1.00  0.00    -0.203 F 
ATOM     85  C   UNL     1      -2.605  14.353   1.797  1.00  0.00     0.198 A 
ATOM     86  C   UNL     1      -4.871  14.565   1.036  1.00  0.00     0.198 A 
ATOM     87  F   UNL     1      -6.591  13.388   2.130  1.00  0.00    -0.203 F 
ATOM     88  F   UNL     1      -1.312  14.693   1.703  1.00  0.00    -0.200 F 
ATOM     89  C   UNL     1      -3.530  14.899   0.920  1.00  0.00     0.200 A 
ATOM     90  F   UNL     1      -5.766  15.078   0.181  1.00  0.00    -0.200 F 
ATOM     91  F   UNL     1      -3.131  15.750  -0.035  1.00  0.00    -0.200 F 
ENDBRANCH  57  81
BRANCH  69  92
ATOM     92  C   UNL     1      -4.709  13.284   9.883  1.00  0.00     0.064 A 
ATOM     93  C   UNL     1      -5.565  14.377  10.071  1.00  0.00     0.173 A 
ATOM     94  C   UNL     1      -3.583  13.176  10.713  1.00  0.00     0.173 A 
ATOM     95  F   UNL     1      -6.646  14.530   9.290  1.00  0.00    -0.203 F 
ATOM     96  C   UNL     1      -5.299  15.333  11.047  1.00  0.00     0.198 A 
ATOM     97  C   UNL     1      -3.335  14.120  11.706  1.00  0.00     0.198 A 
ATOM     98  F   UNL     1      -2.737  12.144  10.576  1.00  0.00    -0.203 F 
ATOM     99  F   UNL     1      -6.114  16.388  11.189  1.00  0.00    -0.200 F 
ATOM    100  C   UNL     1      -4.190  15.199  11.869  1.00  0.00     0.200 A 
ATOM    101  F   UNL     1      -2.269  13.982  12.507  1.00  0.00    -0.200 F 
ATOM    102  F   UNL     1      -3.943  16.113  12.818  1.00  0.00    -0.200 F 
ENDBRANCH  69  92
ENDBRANCH  43  44
ENDBRANCH  35  38
ENDBRANCH  33  34
ENDBRANCH  32  33
ENDBRANCH  31  32
ENDBRANCH   1  31
TORSDOF 16
