REMARK SMILES CCCOc1cncc(N[C@@](C)(C(=O)NCCCCCCNC(=O)c2ccc(-c3c4nc(c(-c5c(F)c(F)c(F)c(F)c5F)c5ccc([nH]5)c(-c5c(F)c(F)c(F)c(F)c5F)c5nc(c(-c6c(F)c(F)c(F)c(F)c6F)c6ccc3[nH]6)C=C5)C=C4)cc2)C(F)(F)F)n1
REMARK SMILES IDX 17 1 16 2 15 3 13 4 14 5 11 7 12 8 10 9 9 11 5 12 6 13 92 14
REMARK SMILES IDX 7 15 8 16 4 17 3 18 2 19 1 20 88 21 89 22 90 23 91 24 18 25
REMARK SMILES IDX 19 26 20 27 21 28 22 29 23 30 24 32 25 33 26 34 87 35 27 36
REMARK SMILES IDX 86 37 28 38 29 39 30 40 80 41 31 42 85 43 79 44 81 45 32 46
REMARK SMILES IDX 84 47 78 48 77 49 33 51 65 52 45 53 64 54 46 55 49 56 63 57
REMARK SMILES IDX 82 58 47 59 48 60 62 62 83 63 50 64 34 65 35 66 43 67 36 68
REMARK SMILES IDX 37 69 41 70 44 71 38 72 39 73 42 74 40 75 66 76 67 77 75 78
REMARK SMILES IDX 68 79 69 80 73 81 76 82 70 83 71 84 74 85 72 86 51 87 52 88
REMARK SMILES IDX 60 89 53 90 54 91 58 92 61 93 55 94 56 95 59 96 57 97
REMARK H PARENT 15 6 10 10 22 31 81 50 49 61
REMARK Flexibility Score: inf
ROOT
ATOM      1  C   UNL     1       3.941   1.854   7.840  1.00  0.00     0.021 C 
ENDROOT
BRANCH   1   2
ATOM      2  C   UNL     1       3.179   3.124   7.470  1.00  0.00     0.116 C 
BRANCH   2   3
ATOM      3  N   UNL     1       3.949   3.957   6.568  1.00  0.00    -0.354 N 
ATOM      4  C   UNL     1       3.678   4.524   5.359  1.00  0.00     0.254 C 
ATOM      5  O   UNL     1       4.652   5.062   4.823  1.00  0.00    -0.272 OA
ATOM      6  H   UNL     1       4.856   4.154   6.898  1.00  0.00     0.163 HD
BRANCH   4   7
ATOM      7  C   UNL     1       2.283   4.444   4.683  1.00  0.00     0.211 C 
ATOM      8  C   UNL     1       1.176   4.950   5.627  1.00  0.00     0.055 C 
BRANCH   7   9
ATOM      9  N   UNL     1       2.044   3.010   4.314  1.00  0.00    -0.347 N 
ATOM     10  H   UNL     1       2.562   2.375   4.859  1.00  0.00     0.163 HD
BRANCH   9  11
ATOM     11  C   UNL     1       1.255   2.405   3.376  1.00  0.00     0.149 A 
ATOM     12  C   UNL     1       0.301   0.429   2.656  1.00  0.00     0.234 A 
ATOM     13  C   UNL     1      -0.447   1.103   1.708  1.00  0.00     0.179 A 
ATOM     14  N   UNL     1       1.132   1.062   3.524  1.00  0.00    -0.193 NA
ATOM     15  N   UNL     1      -0.289   2.416   1.484  1.00  0.00    -0.255 NA
ATOM     16  C   UNL     1       0.589   3.028   2.320  1.00  0.00     0.158 A 
BRANCH  12  17
ATOM     17  O   UNL     1       0.156  -0.933   2.769  1.00  0.00    -0.477 OA
BRANCH  17  18
ATOM     18  C   UNL     1       1.071  -1.643   1.913  1.00  0.00     0.231 C 
BRANCH  18  19
ATOM     19  C   UNL     1       0.680  -1.612   0.427  1.00  0.00     0.038 C 
ATOM     20  C   UNL     1       1.498  -0.609  -0.381  1.00  0.00     0.007 C 
ENDBRANCH  18  19
ENDBRANCH  17  18
ENDBRANCH  12  17
ENDBRANCH   9  11
ENDBRANCH   7   9
BRANCH   7  21
ATOM     21  C   UNL     1       2.373   5.478   3.527  1.00  0.00     0.420 C 
ATOM     22  F   UNL     1       3.102   5.041   2.478  1.00  0.00    -0.168 F 
ATOM     23  F   UNL     1       1.132   5.772   3.048  1.00  0.00    -0.168 F 
ATOM     24  F   UNL     1       2.868   6.675   3.926  1.00  0.00    -0.168 F 
ENDBRANCH   7  21
ENDBRANCH   4   7
ENDBRANCH   2   3
ENDBRANCH   1   2
BRANCH   1  25
ATOM     25  C   UNL     1       5.291   2.081   8.531  1.00  0.00     0.002 C 
BRANCH  25  26
ATOM     26  C   UNL     1       5.249   2.946   9.793  1.00  0.00     0.002 C 
BRANCH  26  27
ATOM     27  C   UNL     1       4.266   2.482  10.868  1.00  0.00     0.021 C 
BRANCH  27  28
ATOM     28  C   UNL     1       4.449   1.040  11.322  1.00  0.00     0.116 C 
BRANCH  28  29
ATOM     29  N   UNL     1       5.743   0.814  11.944  1.00  0.00    -0.352 N 
ATOM     30  C   UNL     1       6.031   0.222  13.147  1.00  0.00     0.251 C 
ATOM     31  H   UNL     1       6.521   1.131  11.431  1.00  0.00     0.163 HD
ATOM     32  O   UNL     1       7.172   0.271  13.604  1.00  0.00    -0.269 OA
BRANCH  30  33
ATOM     33  C   UNL     1       4.963  -0.459  13.908  1.00  0.00     0.039 A 
ATOM     34  C   UNL     1       4.877  -0.249  15.286  1.00  0.00     0.014 A 
ATOM     35  C   UNL     1       4.053  -1.305  13.268  1.00  0.00     0.014 A 
ATOM     36  C   UNL     1       3.848  -0.849  16.014  1.00  0.00     0.010 A 
ATOM     37  C   UNL     1       2.980  -1.834  13.980  1.00  0.00     0.010 A 
ATOM     38  C   UNL     1       2.874  -1.623  15.363  1.00  0.00    -0.014 A 
BRANCH  38  39
ATOM     39  C   UNL     1       1.754  -2.241  16.117  1.00  0.00     0.031 A 
ATOM     40  C   UNL     1       1.626  -3.739  16.181  1.00  0.00     0.074 A 
ATOM     41  C   UNL     1       0.829  -1.458  16.705  1.00  0.00     0.049 A 
ATOM     42  N   UNL     1       0.694  -4.469  16.742  1.00  0.00    -0.248 NA
ATOM     43  C   UNL     1       2.671  -4.521  15.502  1.00  0.00     0.031 C 
ATOM     44  C   UNL     1       0.821   0.006  16.681  1.00  0.00     0.029 A 
ATOM     45  N   UNL     1      -0.288  -1.784  17.434  1.00  0.00    -0.354 N 
ATOM     46  C   UNL     1       1.039  -5.788  16.478  1.00  0.00     0.074 A 
ATOM     47  C   UNL     1       2.224  -5.759  15.650  1.00  0.00     0.031 C 
ATOM     48  C   UNL     1      -0.230   0.451  17.388  1.00  0.00     0.029 A 
ATOM     49  C   UNL     1      -0.994  -0.692  17.878  1.00  0.00     0.049 A 
ATOM     50  H   UNL     1      -0.557  -2.712  17.620  1.00  0.00     0.167 HD
ATOM     51  C   UNL     1       0.440  -6.923  16.913  1.00  0.00     0.037 A 
ATOM     52  C   UNL     1      -2.131  -0.624  18.595  1.00  0.00     0.037 A 
ATOM     53  C   UNL     1      -0.732  -6.948  17.748  1.00  0.00     0.049 A 
ATOM     54  C   UNL     1      -2.795  -1.902  19.038  1.00  0.00     0.074 A 
ATOM     55  C   UNL     1      -1.399  -8.044  18.269  1.00  0.00     0.029 A 
ATOM     56  N   UNL     1      -1.415  -5.822  18.183  1.00  0.00    -0.354 N 
ATOM     57  N   UNL     1      -2.426  -3.143  18.834  1.00  0.00    -0.248 NA
ATOM     58  C   UNL     1      -4.031  -1.766  19.822  1.00  0.00     0.031 C 
ATOM     59  C   UNL     1      -2.513  -7.582  18.976  1.00  0.00     0.029 A 
ATOM     60  C   UNL     1      -2.506  -6.197  18.952  1.00  0.00     0.049 A 
ATOM     61  H   UNL     1      -1.162  -4.893  17.977  1.00  0.00     0.167 HD
ATOM     62  C   UNL     1      -3.357  -3.933  19.497  1.00  0.00     0.074 A 
ATOM     63  C   UNL     1      -4.300  -3.029  20.121  1.00  0.00     0.031 C 
ATOM     64  C   UNL     1      -3.424  -5.284  19.584  1.00  0.00     0.037 A 
BRANCH  51  65
ATOM     65  C   UNL     1       1.049  -8.232  16.496  1.00  0.00     0.064 A 
ATOM     66  C   UNL     1       2.302  -8.646  16.976  1.00  0.00     0.173 A 
ATOM     67  C   UNL     1       0.360  -9.100  15.635  1.00  0.00     0.173 A 
ATOM     68  F   UNL     1       3.009  -7.851  17.793  1.00  0.00    -0.203 F 
ATOM     69  C   UNL     1       2.856  -9.862  16.582  1.00  0.00     0.198 A 
ATOM     70  C   UNL     1       0.901 -10.330  15.272  1.00  0.00     0.198 A 
ATOM     71  F   UNL     1      -0.844  -8.758  15.151  1.00  0.00    -0.203 F 
ATOM     72  F   UNL     1       4.078 -10.208  17.008  1.00  0.00    -0.200 F 
ATOM     73  C   UNL     1       2.152 -10.706  15.737  1.00  0.00     0.200 A 
ATOM     74  F   UNL     1       0.213 -11.152  14.467  1.00  0.00    -0.200 F 
ATOM     75  F   UNL     1       2.683 -11.879  15.366  1.00  0.00    -0.200 F 
ENDBRANCH  51  65
BRANCH  52  76
ATOM     76  C   UNL     1      -2.708   0.697  18.964  1.00  0.00     0.064 A 
ATOM     77  C   UNL     1      -2.754   1.114  20.303  1.00  0.00     0.173 A 
ATOM     78  C   UNL     1      -3.253   1.554  17.997  1.00  0.00     0.173 A 
ATOM     79  F   UNL     1      -2.264   0.322  21.268  1.00  0.00    -0.203 F 
ATOM     80  C   UNL     1      -3.351   2.320  20.662  1.00  0.00     0.198 A 
ATOM     81  C   UNL     1      -3.819   2.776  18.354  1.00  0.00     0.198 A 
ATOM     82  F   UNL     1      -3.230   1.207  16.702  1.00  0.00    -0.203 F 
ATOM     83  F   UNL     1      -3.436   2.664  21.954  1.00  0.00    -0.200 F 
ATOM     84  C   UNL     1      -3.880   3.152  19.687  1.00  0.00     0.200 A 
ATOM     85  F   UNL     1      -4.314   3.584  17.407  1.00  0.00    -0.200 F 
ATOM     86  F   UNL     1      -4.457   4.311  20.033  1.00  0.00    -0.200 F 
ENDBRANCH  52  76
BRANCH  64  87
ATOM     87  C   UNL     1      -4.518  -5.868  20.433  1.00  0.00     0.064 A 
ATOM     88  C   UNL     1      -5.867  -5.806  20.055  1.00  0.00     0.173 A 
ATOM     89  C   UNL     1      -4.203  -6.526  21.633  1.00  0.00     0.173 A 
ATOM     90  F   UNL     1      -6.223  -5.177  18.925  1.00  0.00    -0.203 F 
ATOM     91  C   UNL     1      -6.862  -6.349  20.863  1.00  0.00     0.198 A 
ATOM     92  C   UNL     1      -5.197  -7.100  22.419  1.00  0.00     0.198 A 
ATOM     93  F   UNL     1      -2.927  -6.622  22.038  1.00  0.00    -0.203 F 
ATOM     94  F   UNL     1      -8.150  -6.226  20.511  1.00  0.00    -0.200 F 
ATOM     95  C   UNL     1      -6.527  -7.003  22.040  1.00  0.00     0.200 A 
ATOM     96  F   UNL     1      -4.868  -7.746  23.547  1.00  0.00    -0.200 F 
ATOM     97  F   UNL     1      -7.486  -7.530  22.812  1.00  0.00    -0.200 F 
ENDBRANCH  64  87
ENDBRANCH  38  39
ENDBRANCH  30  33
ENDBRANCH  28  29
ENDBRANCH  27  28
ENDBRANCH  26  27
ENDBRANCH  25  26
ENDBRANCH   1  25
TORSDOF 19
