REMARK SMILES Cc1coc2cc3c(cc12)[C@@H](C)[C@H](CCC(=O)N[C@@H](Cc1c[nH]c2ccccc12)C(=O)NCCCCCCNC(=O)c1ccc(-c2c4nc(c(-c5c(F)c(F)c(F)c(F)c5F)c5ccc([nH]5)c(-c5c(F)c(F)c(F)c(F)c5F)c5nc(c(-c6c(F)c(F)c(F)c(F)c6F)c6ccc2[nH]6)C=C5)C=C4)cc1)C(=O)O3
REMARK SMILES IDX 34 1 33 2 32 3 30 4 31 5 19 7 18 8 16 9 17 10 15 12 14 13
REMARK SMILES IDX 13 14 1 15 2 16 3 17 10 18 4 19 5 20 9 21 6 22 8 23 7 24
REMARK SMILES IDX 11 25 107 26 12 27 105 28 106 29 20 30 21 31 22 32 29 33
REMARK SMILES IDX 23 34 24 35 28 36 25 38 27 39 26 40 35 41 36 42 37 43 38 44
REMARK SMILES IDX 39 45 40 46 41 48 42 49 43 50 104 51 44 52 103 53 45 54
REMARK SMILES IDX 46 55 47 56 97 57 48 58 102 59 96 60 98 61 49 62 101 63
REMARK SMILES IDX 95 64 94 65 50 67 82 68 62 69 81 70 63 71 66 72 80 73 99 74
REMARK SMILES IDX 64 75 65 76 79 78 100 79 67 80 51 81 52 82 60 83 53 84 54 85
REMARK SMILES IDX 58 86 61 87 55 88 56 89 59 90 57 91 83 92 84 93 92 94 85 95
REMARK SMILES IDX 86 96 90 97 93 98 87 99 88 100 91 101 89 102 68 103 69 104
REMARK SMILES IDX 77 105 70 106 71 107 75 108 78 109 72 110 73 111 76 112
REMARK SMILES IDX 74 113
REMARK H PARENT 32 6 18 11 23 37 39 47 98 66 66 77
REMARK Flexibility Score: inf
ROOT
ATOM      1  C   UNL     1      -5.813  -0.619  -9.971  1.00  0.00     0.021 C 
ENDROOT
BRANCH   1   2
ATOM      2  C   UNL     1      -5.482  -1.359  -8.699  1.00  0.00     0.116 C 
BRANCH   2   3
ATOM      3  N   UNL     1      -5.603  -2.794  -8.769  1.00  0.00    -0.354 N 
ATOM      4  C   UNL     1      -4.937  -3.701  -7.994  1.00  0.00     0.242 C 
ATOM      5  O   UNL     1      -5.348  -4.864  -7.962  1.00  0.00    -0.273 OA
ATOM      6  H   UNL     1      -6.226  -3.155  -9.441  1.00  0.00     0.163 HD
BRANCH   4   7
ATOM      7  C   UNL     1      -3.689  -3.280  -7.199  1.00  0.00     0.175 C 
BRANCH   7   8
ATOM      8  N   UNL     1      -2.646  -2.865  -8.165  1.00  0.00    -0.344 N 
ATOM      9  C   UNL     1      -1.363  -3.252  -8.432  1.00  0.00     0.220 C 
ATOM     10  O   UNL     1      -0.767  -2.655  -9.336  1.00  0.00    -0.275 OA
ATOM     11  H   UNL     1      -2.949  -2.137  -8.755  1.00  0.00     0.164 HD
BRANCH   9  12
ATOM     12  C   UNL     1      -0.632  -4.353  -7.655  1.00  0.00     0.101 C 
BRANCH  12  13
ATOM     13  C   UNL     1       0.127  -3.999  -6.341  1.00  0.00     0.026 C 
BRANCH  13  14
ATOM     14  C   UNL     1      -0.701  -3.138  -5.391  1.00  0.00     0.107 C 
ATOM     15  C   UNL     1       0.930   0.209   0.777  1.00  0.00     0.048 C 
ATOM     16  C   UNL     1       0.604   0.771  -0.550  1.00  0.00    -0.005 A 
ATOM     17  C   UNL     1       0.667   2.099  -0.926  1.00  0.00     0.199 A 
ATOM     18  C   UNL     1       0.283   0.042  -1.731  1.00  0.00     0.024 A 
ATOM     19  O   UNL     1       0.491   2.231  -2.263  1.00  0.00    -0.464 OA
ATOM     20  C   UNL     1       0.332   0.978  -2.757  1.00  0.00     0.137 A 
ATOM     21  C   UNL     1       0.035  -1.315  -2.047  1.00  0.00     0.020 A 
ATOM     22  C   UNL     1       0.309   0.655  -4.096  1.00  0.00     0.095 A 
ATOM     23  C   UNL     1      -0.025  -1.696  -3.394  1.00  0.00    -0.001 A 
ATOM     24  C   UNL     1       0.232  -0.711  -4.358  1.00  0.00     0.138 A 
ATOM     25  C   UNL     1      -0.390  -3.104  -3.864  1.00  0.00     0.034 C 
ATOM     26  O   UNL     1       0.496  -1.082  -5.652  1.00  0.00    -0.426 OA
ATOM     27  C   UNL     1      -1.657  -3.586  -3.104  1.00  0.00     0.014 C 
ATOM     28  C   UNL     1      -0.637  -1.741  -5.946  1.00  0.00     0.314 C 
ATOM     29  O   UNL     1      -1.457  -1.263  -6.707  1.00  0.00    -0.251 OA
ENDBRANCH  13  14
ENDBRANCH  12  13
ENDBRANCH   9  12
ENDBRANCH   7   8
BRANCH   7  30
ATOM     30  C   UNL     1      -4.012  -2.425  -5.910  1.00  0.00     0.072 C 
BRANCH  30  31
ATOM     31  C   UNL     1      -4.745  -1.087  -5.819  1.00  0.00    -0.020 A 
ATOM     32  C   UNL     1      -6.019  -1.001  -5.271  1.00  0.00     0.087 A 
ATOM     33  C   UNL     1      -4.359   0.300  -6.095  1.00  0.00     0.003 A 
ATOM     34  N   UNL     1      -6.441   0.296  -5.291  1.00  0.00    -0.361 N 
ATOM     35  C   UNL     1      -5.473   1.106  -5.826  1.00  0.00     0.046 A 
ATOM     36  C   UNL     1      -3.225   0.998  -6.573  1.00  0.00     0.010 A 
ATOM     37  H   UNL     1      -7.317   0.607  -4.967  1.00  0.00     0.166 HD
ATOM     38  C   UNL     1      -5.520   2.489  -6.088  1.00  0.00     0.026 A 
ATOM     39  C   UNL     1      -3.241   2.376  -6.832  1.00  0.00     0.001 A 
ATOM     40  C   UNL     1      -4.391   3.109  -6.618  1.00  0.00     0.002 A 
ENDBRANCH  30  31
ENDBRANCH   7  30
ENDBRANCH   4   7
ENDBRANCH   2   3
ENDBRANCH   1   2
BRANCH   1  41
ATOM     41  C   UNL     1      -7.299  -0.657 -10.315  1.00  0.00     0.002 C 
BRANCH  41  42
ATOM     42  C   UNL     1      -8.251  -0.119  -9.236  1.00  0.00     0.002 C 
BRANCH  42  43
ATOM     43  C   UNL     1      -7.967   1.302  -8.729  1.00  0.00     0.021 C 
BRANCH  43  44
ATOM     44  C   UNL     1      -7.765   2.354  -9.815  1.00  0.00     0.116 C 
BRANCH  44  45
ATOM     45  N   UNL     1      -8.794   2.328 -10.828  1.00  0.00    -0.352 N 
ATOM     46  C   UNL     1     -10.039   2.856 -10.975  1.00  0.00     0.251 C 
ATOM     47  H   UNL     1      -8.527   1.794 -11.611  1.00  0.00     0.163 HD
ATOM     48  O   UNL     1     -10.611   2.591 -12.036  1.00  0.00    -0.269 OA
BRANCH  46  49
ATOM     49  C   UNL     1     -10.762   3.667  -9.961  1.00  0.00     0.039 A 
ATOM     50  C   UNL     1     -10.256   4.111  -8.739  1.00  0.00     0.014 A 
ATOM     51  C   UNL     1     -12.097   3.977 -10.289  1.00  0.00     0.014 A 
ATOM     52  C   UNL     1     -11.085   4.776  -7.838  1.00  0.00     0.010 A 
ATOM     53  C   UNL     1     -12.923   4.649  -9.401  1.00  0.00     0.010 A 
ATOM     54  C   UNL     1     -12.427   5.010  -8.155  1.00  0.00    -0.014 A 
BRANCH  54  55
ATOM     55  C   UNL     1     -13.252   5.757  -7.210  1.00  0.00     0.031 A 
ATOM     56  C   UNL     1     -12.764   7.134  -6.919  1.00  0.00     0.074 A 
ATOM     57  C   UNL     1     -14.425   5.305  -6.721  1.00  0.00     0.049 A 
ATOM     58  N   UNL     1     -12.401   7.616  -5.775  1.00  0.00    -0.248 NA
ATOM     59  C   UNL     1     -12.547   8.052  -8.049  1.00  0.00     0.031 C 
ATOM     60  C   UNL     1     -15.154   4.091  -7.093  1.00  0.00     0.029 A 
ATOM     61  N   UNL     1     -15.270   5.902  -5.830  1.00  0.00    -0.354 N 
ATOM     62  C   UNL     1     -12.065   8.948  -6.004  1.00  0.00     0.074 A 
ATOM     63  C   UNL     1     -12.049   9.126  -7.433  1.00  0.00     0.031 C 
ATOM     64  C   UNL     1     -16.415   4.157  -6.607  1.00  0.00     0.029 A 
ATOM     65  C   UNL     1     -16.544   5.348  -5.785  1.00  0.00     0.049 A 
ATOM     66  H   UNL     1     -14.999   6.663  -5.267  1.00  0.00     0.167 HD
ATOM     67  C   UNL     1     -12.030   9.852  -4.987  1.00  0.00     0.037 A 
ATOM     68  C   UNL     1     -17.635   5.857  -5.155  1.00  0.00     0.037 A 
ATOM     69  C   UNL     1     -11.927   9.199  -3.709  1.00  0.00     0.049 A 
ATOM     70  C   UNL     1     -17.147   6.808  -4.127  1.00  0.00     0.074 A 
ATOM     71  C   UNL     1     -11.001   8.353  -3.129  1.00  0.00     0.029 A 
ATOM     72  N   UNL     1     -13.058   9.096  -2.939  1.00  0.00    -0.354 N 
ATOM     73  N   UNL     1     -16.516   6.442  -3.047  1.00  0.00    -0.248 NA
ATOM     74  C   UNL     1     -16.966   8.198  -4.521  1.00  0.00     0.031 C 
ATOM     75  C   UNL     1     -11.775   7.427  -2.371  1.00  0.00     0.029 A 
ATOM     76  C   UNL     1     -13.113   7.806  -2.480  1.00  0.00     0.049 A 
ATOM     77  H   UNL     1     -13.707   9.812  -2.752  1.00  0.00     0.167 HD
ATOM     78  C   UNL     1     -15.525   7.397  -2.887  1.00  0.00     0.074 A 
ATOM     79  C   UNL     1     -15.905   8.500  -3.767  1.00  0.00     0.031 C 
ATOM     80  C   UNL     1     -14.344   7.085  -2.282  1.00  0.00     0.037 A 
BRANCH  67  81
ATOM     81  C   UNL     1     -12.460  11.292  -5.112  1.00  0.00     0.064 A 
ATOM     82  C   UNL     1     -12.268  12.165  -4.022  1.00  0.00     0.173 A 
ATOM     83  C   UNL     1     -13.336  11.755  -6.117  1.00  0.00     0.173 A 
ATOM     84  F   UNL     1     -11.470  11.819  -3.001  1.00  0.00    -0.203 F 
ATOM     85  C   UNL     1     -12.973  13.366  -3.906  1.00  0.00     0.198 A 
ATOM     86  C   UNL     1     -13.997  12.978  -6.023  1.00  0.00     0.198 A 
ATOM     87  F   UNL     1     -13.680  10.997  -7.165  1.00  0.00    -0.203 F 
ATOM     88  F   UNL     1     -12.863  14.097  -2.788  1.00  0.00    -0.200 F 
ATOM     89  C   UNL     1     -13.843  13.767  -4.903  1.00  0.00     0.200 A 
ATOM     90  F   UNL     1     -14.853  13.338  -6.989  1.00  0.00    -0.200 F 
ATOM     91  F   UNL     1     -14.572  14.881  -4.763  1.00  0.00    -0.200 F 
ENDBRANCH  67  81
BRANCH  68  92
ATOM     92  C   UNL     1     -19.068   5.777  -5.534  1.00  0.00     0.064 A 
ATOM     93  C   UNL     1     -20.084   6.136  -4.630  1.00  0.00     0.173 A 
ATOM     94  C   UNL     1     -19.462   5.620  -6.877  1.00  0.00     0.173 A 
ATOM     95  F   UNL     1     -19.794   6.349  -3.337  1.00  0.00    -0.203 F 
ATOM     96  C   UNL     1     -21.401   6.355  -5.049  1.00  0.00     0.198 A 
ATOM     97  C   UNL     1     -20.778   5.832  -7.293  1.00  0.00     0.198 A 
ATOM     98  F   UNL     1     -18.559   5.353  -7.832  1.00  0.00    -0.203 F 
ATOM     99  F   UNL     1     -22.326   6.762  -4.167  1.00  0.00    -0.200 F 
ATOM    100  C   UNL     1     -21.744   6.214  -6.383  1.00  0.00     0.200 A 
ATOM    101  F   UNL     1     -21.088   5.726  -8.593  1.00  0.00    -0.200 F 
ATOM    102  F   UNL     1     -22.990   6.487  -6.797  1.00  0.00    -0.200 F 
ENDBRANCH  68  92
BRANCH  80 103
ATOM    103  C   UNL     1     -14.238   5.768  -1.570  1.00  0.00     0.064 A 
ATOM    104  C   UNL     1     -14.313   4.521  -2.216  1.00  0.00     0.173 A 
ATOM    105  C   UNL     1     -13.856   5.778  -0.223  1.00  0.00     0.173 A 
ATOM    106  F   UNL     1     -14.577   4.435  -3.525  1.00  0.00    -0.203 F 
ATOM    107  C   UNL     1     -14.040   3.339  -1.531  1.00  0.00     0.198 A 
ATOM    108  C   UNL     1     -13.550   4.598   0.448  1.00  0.00     0.198 A 
ATOM    109  F   UNL     1     -13.716   6.944   0.427  1.00  0.00    -0.203 F 
ATOM    110  F   UNL     1     -14.109   2.161  -2.169  1.00  0.00    -0.200 F 
ATOM    111  C   UNL     1     -13.646   3.380  -0.204  1.00  0.00     0.200 A 
ATOM    112  F   UNL     1     -13.119   4.647   1.716  1.00  0.00    -0.200 F 
ATOM    113  F   UNL     1     -13.326   2.247   0.438  1.00  0.00    -0.200 F 
ENDBRANCH  80 103
ENDBRANCH  54  55
ENDBRANCH  46  49
ENDBRANCH  44  45
ENDBRANCH  43  44
ENDBRANCH  42  43
ENDBRANCH  41  42
ENDBRANCH   1  41
TORSDOF 19
