REMARK SMILES CCc1nc(=O)n([C@H]2CCCOC2)c(CC)c1CC(=O)NCCCCCCNC(=O)c1ccc(-c2c3nc(c(-c4c(F)c(F)c(F)c(F)c4F)c4ccc([nH]4)c(-c4c(F)c(F)c(F)c(F)c4F)c4nc(c(-c5c(F)c(F)c(F)c(F)c5F)c5ccc2[nH]5)C=C4)C=C3)cc1
REMARK SMILES IDX 24 1 23 2 22 3 21 4 19 5 20 6 18 8 17 9 3 10 4 11 5 12 14 13
REMARK SMILES IDX 6 14 7 15 2 16 1 17 15 18 16 19 8 20 9 21 13 22 10 23 12 24
REMARK SMILES IDX 11 25 25 26 26 27 27 28 28 29 29 30 30 32 31 33 32 34 93 35
REMARK SMILES IDX 33 36 92 37 34 38 35 39 36 40 86 41 37 42 91 43 85 44 87 45
REMARK SMILES IDX 38 46 90 47 84 48 83 49 39 51 71 52 51 53 70 54 52 55 55 56
REMARK SMILES IDX 69 57 88 58 53 59 54 60 68 62 89 63 56 64 40 65 41 66 49 67
REMARK SMILES IDX 42 68 43 69 47 70 50 71 44 72 45 73 48 74 46 75 72 76 73 77
REMARK SMILES IDX 81 78 74 79 75 80 79 81 82 82 76 83 77 84 80 85 78 86 57 87
REMARK SMILES IDX 58 88 66 89 59 90 60 91 64 92 67 93 61 94 62 95 65 96 63 97
REMARK H PARENT 21 7 28 31 87 50 55 61
REMARK Flexibility Score: inf
ROOT
ATOM      1  C   UNL     1       3.071   6.906  -1.400  1.00  0.00     0.002 C 
ENDROOT
BRANCH   1   2
ATOM      2  C   UNL     1       2.236   6.863  -2.686  1.00  0.00     0.021 C 
BRANCH   2   3
ATOM      3  C   UNL     1       2.338   8.130  -3.535  1.00  0.00     0.116 C 
BRANCH   3   4
ATOM      4  N   UNL     1       3.641   8.254  -4.153  1.00  0.00    -0.356 N 
ATOM      5  C   UNL     1       4.030   7.982  -5.430  1.00  0.00     0.224 C 
ATOM      6  O   UNL     1       5.218   8.133  -5.721  1.00  0.00    -0.275 OA
ATOM      7  H   UNL     1       4.355   8.584  -3.561  1.00  0.00     0.163 HD
BRANCH   5   8
ATOM      8  C   UNL     1       3.008   7.583  -6.492  1.00  0.00     0.139 C 
BRANCH   8   9
ATOM      9  C   UNL     1       2.251   6.298  -6.267  1.00  0.00     0.003 A 
ATOM     10  C   UNL     1       0.772   6.309  -6.039  1.00  0.00     0.051 A 
ATOM     11  N   UNL     1       0.138   5.298  -5.557  1.00  0.00    -0.198 NA
ATOM     12  C   UNL     1       0.761   4.107  -5.350  1.00  0.00     0.348 A 
ATOM     13  C   UNL     1       2.829   5.061  -6.225  1.00  0.00     0.028 A 
ATOM     14  O   UNL     1       0.168   3.211  -4.768  1.00  0.00    -0.246 OA
ATOM     15  N   UNL     1       2.059   3.925  -5.896  1.00  0.00    -0.291 N 
BRANCH  10  16
ATOM     16  C   UNL     1      -0.200   7.485  -6.308  1.00  0.00     0.053 C 
ATOM     17  C   UNL     1       0.138   8.769  -7.028  1.00  0.00     0.011 C 
ENDBRANCH  10  16
BRANCH  13  18
ATOM     18  C   UNL     1       4.330   4.936  -6.415  1.00  0.00     0.051 C 
ATOM     19  C   UNL     1       5.083   4.801  -5.092  1.00  0.00     0.010 C 
ENDBRANCH  13  18
BRANCH  15  20
ATOM     20  C   UNL     1       2.389   2.471  -6.043  1.00  0.00     0.118 C 
ATOM     21  C   UNL     1       1.481   1.829  -7.128  1.00  0.00     0.030 C 
ATOM     22  C   UNL     1       3.808   1.901  -6.253  1.00  0.00     0.185 C 
ATOM     23  C   UNL     1       2.077   1.975  -8.522  1.00  0.00     0.031 C 
ATOM     24  O   UNL     1       4.306   2.013  -7.588  1.00  0.00    -0.379 OA
ATOM     25  C   UNL     1       3.475   1.383  -8.554  1.00  0.00     0.160 C 
ENDBRANCH  15  20
ENDBRANCH   8   9
ENDBRANCH   5   8
ENDBRANCH   3   4
ENDBRANCH   2   3
ENDBRANCH   1   2
BRANCH   1  26
ATOM     26  C   UNL     1       2.744   8.058  -0.443  1.00  0.00     0.002 C 
BRANCH  26  27
ATOM     27  C   UNL     1       1.274   8.172  -0.035  1.00  0.00     0.021 C 
BRANCH  27  28
ATOM     28  C   UNL     1       0.711   6.951   0.684  1.00  0.00     0.116 C 
BRANCH  28  29
ATOM     29  N   UNL     1       1.341   6.724   1.976  1.00  0.00    -0.352 N 
ATOM     30  C   UNL     1       0.774   6.554   3.216  1.00  0.00     0.251 C 
ATOM     31  H   UNL     1       2.325   6.688   1.958  1.00  0.00     0.163 HD
ATOM     32  O   UNL     1       1.484   6.538   4.217  1.00  0.00    -0.269 OA
BRANCH  30  33
ATOM     33  C   UNL     1      -0.694   6.419   3.356  1.00  0.00     0.039 A 
ATOM     34  C   UNL     1      -1.432   5.632   2.471  1.00  0.00     0.014 A 
ATOM     35  C   UNL     1      -1.341   7.083   4.403  1.00  0.00     0.014 A 
ATOM     36  C   UNL     1      -2.822   5.638   2.535  1.00  0.00     0.010 A 
ATOM     37  C   UNL     1      -2.734   7.021   4.517  1.00  0.00     0.010 A 
ATOM     38  C   UNL     1      -3.491   6.336   3.555  1.00  0.00    -0.014 A 
BRANCH  38  39
ATOM     39  C   UNL     1      -4.978   6.327   3.581  1.00  0.00     0.031 A 
ATOM     40  C   UNL     1      -5.762   7.587   3.333  1.00  0.00     0.074 A 
ATOM     41  C   UNL     1      -5.623   5.155   3.745  1.00  0.00     0.049 A 
ATOM     42  N   UNL     1      -7.059   7.743   3.224  1.00  0.00    -0.248 NA
ATOM     43  C   UNL     1      -4.998   8.837   3.191  1.00  0.00     0.031 C 
ATOM     44  C   UNL     1      -4.973   3.867   3.996  1.00  0.00     0.029 A 
ATOM     45  N   UNL     1      -6.959   4.847   3.686  1.00  0.00    -0.354 N 
ATOM     46  C   UNL     1      -7.263   9.099   3.005  1.00  0.00     0.074 A 
ATOM     47  C   UNL     1      -5.964   9.733   3.034  1.00  0.00     0.031 C 
ATOM     48  C   UNL     1      -5.903   2.899   3.999  1.00  0.00     0.029 A 
ATOM     49  C   UNL     1      -7.217   3.502   3.801  1.00  0.00     0.049 A 
ATOM     50  H   UNL     1      -7.665   5.524   3.573  1.00  0.00     0.167 HD
ATOM     51  C   UNL     1      -8.428   9.752   2.780  1.00  0.00     0.037 A 
ATOM     52  C   UNL     1      -8.381   2.828   3.746  1.00  0.00     0.037 A 
ATOM     53  C   UNL     1      -9.720   9.118   2.722  1.00  0.00     0.049 A 
ATOM     54  C   UNL     1      -9.661   3.585   3.526  1.00  0.00     0.074 A 
ATOM     55  C   UNL     1     -10.953   9.698   2.477  1.00  0.00     0.029 A 
ATOM     56  N   UNL     1      -9.944   7.763   2.905  1.00  0.00    -0.354 N 
ATOM     57  N   UNL     1      -9.834   4.864   3.299  1.00  0.00    -0.248 NA
ATOM     58  C   UNL     1     -10.907   2.807   3.565  1.00  0.00     0.031 C 
ATOM     59  C   UNL     1     -11.928   8.700   2.544  1.00  0.00     0.029 A 
ATOM     60  C   UNL     1     -11.298   7.492   2.795  1.00  0.00     0.049 A 
ATOM     61  H   UNL     1      -9.245   7.093   3.086  1.00  0.00     0.167 HD
ATOM     62  C   UNL     1     -11.202   5.042   3.154  1.00  0.00     0.074 A 
ATOM     63  C   UNL     1     -11.814   3.737   3.298  1.00  0.00     0.031 C 
ATOM     64  C   UNL     1     -11.890   6.187   2.932  1.00  0.00     0.037 A 
BRANCH  51  65
ATOM     65  C   UNL     1      -8.376  11.234   2.559  1.00  0.00     0.064 A 
ATOM     66  C   UNL     1      -7.928  11.773   1.345  1.00  0.00     0.173 A 
ATOM     67  C   UNL     1      -8.874  12.117   3.529  1.00  0.00     0.173 A 
ATOM     68  F   UNL     1      -7.435  10.970   0.390  1.00  0.00    -0.203 F 
ATOM     69  C   UNL     1      -7.979  13.145   1.110  1.00  0.00     0.198 A 
ATOM     70  C   UNL     1      -8.943  13.486   3.282  1.00  0.00     0.198 A 
ATOM     71  F   UNL     1      -9.322  11.649   4.703  1.00  0.00    -0.203 F 
ATOM     72  F   UNL     1      -7.531  13.641  -0.052  1.00  0.00    -0.200 F 
ATOM     73  C   UNL     1      -8.496  13.998   2.073  1.00  0.00     0.200 A 
ATOM     74  F   UNL     1      -9.456  14.308   4.208  1.00  0.00    -0.200 F 
ATOM     75  F   UNL     1      -8.565  15.316   1.836  1.00  0.00    -0.200 F 
ENDBRANCH  51  65
BRANCH  52  76
ATOM     76  C   UNL     1      -8.388   1.348   3.883  1.00  0.00     0.064 A 
ATOM     77  C   UNL     1      -8.710   0.528   2.793  1.00  0.00     0.173 A 
ATOM     78  C   UNL     1      -8.070   0.726   5.098  1.00  0.00     0.173 A 
ATOM     79  F   UNL     1      -9.043   1.078   1.616  1.00  0.00    -0.203 F 
ATOM     80  C   UNL     1      -8.726  -0.860   2.918  1.00  0.00     0.198 A 
ATOM     81  C   UNL     1      -8.059  -0.662   5.215  1.00  0.00     0.198 A 
ATOM     82  F   UNL     1      -7.755   1.468   6.170  1.00  0.00    -0.203 F 
ATOM     83  F   UNL     1      -9.076  -1.621   1.872  1.00  0.00    -0.200 F 
ATOM     84  C   UNL     1      -8.394  -1.454   4.127  1.00  0.00     0.200 A 
ATOM     85  F   UNL     1      -7.726  -1.232   6.381  1.00  0.00    -0.200 F 
ATOM     86  F   UNL     1      -8.404  -2.788   4.245  1.00  0.00    -0.200 F 
ENDBRANCH  52  76
BRANCH  64  87
ATOM     87  C   UNL     1     -13.381   6.089   2.818  1.00  0.00     0.064 A 
ATOM     88  C   UNL     1     -14.185   5.905   3.952  1.00  0.00     0.173 A 
ATOM     89  C   UNL     1     -14.015   6.258   1.579  1.00  0.00     0.173 A 
ATOM     90  F   UNL     1     -13.622   5.726   5.157  1.00  0.00    -0.203 F 
ATOM     91  C   UNL     1     -15.572   5.884   3.847  1.00  0.00     0.198 A 
ATOM     92  C   UNL     1     -15.403   6.261   1.481  1.00  0.00     0.198 A 
ATOM     93  F   UNL     1     -13.287   6.445   0.467  1.00  0.00    -0.203 F 
ATOM     94  F   UNL     1     -16.322   5.681   4.939  1.00  0.00    -0.200 F 
ATOM     95  C   UNL     1     -16.180   6.072   2.614  1.00  0.00     0.200 A 
ATOM     96  F   UNL     1     -15.989   6.455   0.291  1.00  0.00    -0.200 F 
ATOM     97  F   UNL     1     -17.517   6.068   2.517  1.00  0.00    -0.200 F 
ENDBRANCH  64  87
ENDBRANCH  38  39
ENDBRANCH  30  33
ENDBRANCH  28  29
ENDBRANCH  27  28
ENDBRANCH  26  27
ENDBRANCH   1  26
TORSDOF 17
