REMARK SMILES CC(=O)N[C@@H](C[NH2+]CCc1ccc(F)cc1C)C(=O)NCCCCCCNC(=O)c1ccc(-c2c3nc(c(-c4c(F)c(F)c(F)c(F)c4F)c4ccc([nH]4)c(-c4c(F)c(F)c(F)c(F)c4F)c4nc(c(-c5c(F)c(F)c(F)c(F)c5F)c5ccc2[nH]5)C=C4)C=C3)cc1
REMARK SMILES IDX 22 1 21 2 20 3 18 4 19 5 5 7 4 8 1 9 2 10 3 11 6 13 7 14
REMARK SMILES IDX 8 17 9 18 10 19 11 20 16 21 12 22 15 23 17 24 13 25 14 26
REMARK SMILES IDX 23 27 24 28 25 29 26 30 27 31 28 32 29 34 30 35 31 36 92 37
REMARK SMILES IDX 32 38 91 39 33 40 34 41 35 42 85 43 36 44 90 45 84 46 86 47
REMARK SMILES IDX 37 48 89 49 83 50 82 51 38 53 70 54 50 55 69 56 51 57 54 58
REMARK SMILES IDX 68 59 87 60 52 61 53 62 67 64 88 65 55 66 39 67 40 68 48 69
REMARK SMILES IDX 41 70 42 71 46 72 49 73 43 74 44 75 47 76 45 77 71 78 72 79
REMARK SMILES IDX 80 80 73 81 74 82 78 83 81 84 75 85 76 86 79 87 77 88 56 89
REMARK SMILES IDX 57 90 65 91 58 92 59 93 63 94 66 95 60 96 61 97 64 98 62 99
REMARK H PARENT 20 6 4 12 7 15 7 16 27 33 86 52 54 63
REMARK Flexibility Score: inf
ROOT
ATOM      1  C   UNL     1      -1.140   3.510  -4.674  1.00  0.00     0.021 C 
ENDROOT
BRANCH   1   2
ATOM      2  C   UNL     1       0.213   3.422  -3.985  1.00  0.00     0.116 C 
BRANCH   2   3
ATOM      3  N   UNL     1       0.196   3.950  -2.639  1.00  0.00    -0.354 N 
ATOM      4  C   UNL     1       0.928   3.593  -1.544  1.00  0.00     0.248 C 
ATOM      5  O   UNL     1       0.951   4.397  -0.605  1.00  0.00    -0.272 OA
ATOM      6  H   UNL     1      -0.445   4.682  -2.488  1.00  0.00     0.163 HD
BRANCH   4   7
ATOM      7  C   UNL     1       1.801   2.317  -1.486  1.00  0.00     0.226 C 
BRANCH   7   8
ATOM      8  N   UNL     1       1.105   1.099  -1.928  1.00  0.00    -0.340 N 
ATOM      9  C   UNL     1       0.981   0.005   0.270  1.00  0.00     0.114 C 
ATOM     10  C   UNL     1       0.609   0.081  -1.180  1.00  0.00     0.217 C 
ATOM     11  O   UNL     1      -0.105  -0.761  -1.720  1.00  0.00    -0.275 OA
ATOM     12  H   UNL     1       0.982   1.011  -2.901  1.00  0.00     0.164 HD
ENDBRANCH   7   8
BRANCH   7  13
ATOM     13  C   UNL     1       3.163   2.514  -2.195  1.00  0.00     0.296 C 
BRANCH  13  14
ATOM     14  N   UNL     1       3.039   2.548  -3.653  1.00  0.00    -0.344 N 
ATOM     15  H   UNL     1       2.442   3.336  -3.904  1.00  0.00     0.346 HD
ATOM     16  H   UNL     1       2.649   1.648  -3.933  1.00  0.00     0.346 HD
BRANCH  14  17
ATOM     17  C   UNL     1       4.305   2.691  -4.362  1.00  0.00     0.265 C 
BRANCH  17  18
ATOM     18  C   UNL     1       4.857   1.369  -4.923  1.00  0.00     0.097 C 
BRANCH  18  19
ATOM     19  C   UNL     1       3.911   0.287  -5.441  1.00  0.00    -0.039 A 
ATOM     20  C   UNL     1       4.231  -1.034  -5.043  1.00  0.00     0.007 A 
ATOM     21  C   UNL     1       2.805   0.471  -6.303  1.00  0.00    -0.045 A 
ATOM     22  C   UNL     1       3.485  -2.135  -5.463  1.00  0.00     0.039 A 
ATOM     23  C   UNL     1       2.059  -0.657  -6.711  1.00  0.00     0.043 A 
ATOM     24  C   UNL     1       2.323   1.777  -6.867  1.00  0.00     0.045 C 
ATOM     25  C   UNL     1       2.402  -1.935  -6.296  1.00  0.00     0.123 A 
ATOM     26  F   UNL     1       1.683  -2.983  -6.718  1.00  0.00    -0.207 F 
ENDBRANCH  18  19
ENDBRANCH  17  18
ENDBRANCH  14  17
ENDBRANCH  13  14
ENDBRANCH   7  13
ENDBRANCH   4   7
ENDBRANCH   2   3
ENDBRANCH   1   2
BRANCH   1  27
ATOM     27  C   UNL     1      -1.557   4.936  -5.031  1.00  0.00     0.002 C 
BRANCH  27  28
ATOM     28  C   UNL     1      -0.496   5.758  -5.780  1.00  0.00     0.002 C 
BRANCH  28  29
ATOM     29  C   UNL     1       0.100   5.095  -7.028  1.00  0.00     0.021 C 
BRANCH  29  30
ATOM     30  C   UNL     1      -0.952   4.730  -8.051  1.00  0.00     0.116 C 
BRANCH  30  31
ATOM     31  N   UNL     1      -1.599   5.929  -8.569  1.00  0.00    -0.352 N 
ATOM     32  C   UNL     1      -2.179   6.100  -9.801  1.00  0.00     0.251 C 
ATOM     33  H   UNL     1      -1.624   6.706  -7.965  1.00  0.00     0.163 HD
ATOM     34  O   UNL     1      -2.365   7.207 -10.274  1.00  0.00    -0.269 OA
BRANCH  32  35
ATOM     35  C   UNL     1      -2.624   4.894 -10.504  1.00  0.00     0.039 A 
ATOM     36  C   UNL     1      -2.539   4.788 -11.896  1.00  0.00     0.014 A 
ATOM     37  C   UNL     1      -3.186   3.884  -9.725  1.00  0.00     0.014 A 
ATOM     38  C   UNL     1      -3.037   3.648 -12.513  1.00  0.00     0.010 A 
ATOM     39  C   UNL     1      -3.527   2.707 -10.306  1.00  0.00     0.010 A 
ATOM     40  C   UNL     1      -3.540   2.634 -11.699  1.00  0.00    -0.014 A 
BRANCH  40  41
ATOM     41  C   UNL     1      -4.194   1.438 -12.173  1.00  0.00     0.031 A 
ATOM     42  C   UNL     1      -3.382   0.373 -12.760  1.00  0.00     0.074 A 
ATOM     43  C   UNL     1      -5.485   1.335 -11.786  1.00  0.00     0.049 A 
ATOM     44  N   UNL     1      -3.846  -0.562 -13.503  1.00  0.00    -0.248 NA
ATOM     45  C   UNL     1      -1.935   0.294 -12.576  1.00  0.00     0.031 C 
ATOM     46  C   UNL     1      -6.366   0.184 -11.715  1.00  0.00     0.029 A 
ATOM     47  N   UNL     1      -6.315   2.416 -11.431  1.00  0.00    -0.354 N 
ATOM     48  C   UNL     1      -2.868  -1.531 -13.597  1.00  0.00     0.074 A 
ATOM     49  C   UNL     1      -1.662  -0.889 -13.137  1.00  0.00     0.031 C 
ATOM     50  C   UNL     1      -7.639   0.626 -11.681  1.00  0.00     0.029 A 
ATOM     51  C   UNL     1      -7.601   2.071 -11.870  1.00  0.00     0.049 A 
ATOM     52  H   UNL     1      -6.047   3.244 -10.969  1.00  0.00     0.167 HD
ATOM     53  C   UNL     1      -3.265  -2.809 -13.870  1.00  0.00     0.037 A 
ATOM     54  C   UNL     1      -8.108   2.742 -12.947  1.00  0.00     0.037 A 
ATOM     55  C   UNL     1      -4.720  -2.828 -14.047  1.00  0.00     0.049 A 
ATOM     56  C   UNL     1      -8.239   1.818 -14.128  1.00  0.00     0.074 A 
ATOM     57  C   UNL     1      -5.745  -3.102 -13.155  1.00  0.00     0.029 A 
ATOM     58  N   UNL     1      -5.292  -2.128 -15.107  1.00  0.00    -0.354 N 
ATOM     59  N   UNL     1      -7.429   0.824 -14.382  1.00  0.00    -0.248 NA
ATOM     60  C   UNL     1      -9.385   1.871 -15.024  1.00  0.00     0.031 C 
ATOM     61  C   UNL     1      -6.924  -2.484 -13.648  1.00  0.00     0.029 A 
ATOM     62  C   UNL     1      -6.619  -1.846 -14.840  1.00  0.00     0.049 A 
ATOM     63  H   UNL     1      -4.817  -1.870 -15.930  1.00  0.00     0.167 HD
ATOM     64  C   UNL     1      -7.971   0.059 -15.382  1.00  0.00     0.074 A 
ATOM     65  C   UNL     1      -9.183   0.767 -15.761  1.00  0.00     0.031 C 
ATOM     66  C   UNL     1      -7.443  -1.131 -15.801  1.00  0.00     0.037 A 
BRANCH  53  67
ATOM     67  C   UNL     1      -2.445  -4.065 -13.652  1.00  0.00     0.064 A 
ATOM     68  C   UNL     1      -3.091  -5.309 -13.455  1.00  0.00     0.173 A 
ATOM     69  C   UNL     1      -1.040  -4.126 -13.593  1.00  0.00     0.173 A 
ATOM     70  F   UNL     1      -4.420  -5.436 -13.569  1.00  0.00    -0.203 F 
ATOM     71  C   UNL     1      -2.399  -6.482 -13.136  1.00  0.00     0.198 A 
ATOM     72  C   UNL     1      -0.348  -5.294 -13.243  1.00  0.00     0.198 A 
ATOM     73  F   UNL     1      -0.278  -3.079 -13.924  1.00  0.00    -0.203 F 
ATOM     74  F   UNL     1      -3.077  -7.623 -12.950  1.00  0.00    -0.200 F 
ATOM     75  C   UNL     1      -1.028  -6.470 -13.006  1.00  0.00     0.200 A 
ATOM     76  F   UNL     1       0.990  -5.269 -13.148  1.00  0.00    -0.200 F 
ATOM     77  F   UNL     1      -0.365  -7.588 -12.684  1.00  0.00    -0.200 F 
ENDBRANCH  53  67
BRANCH  54  78
ATOM     78  C   UNL     1      -7.684   4.180 -12.958  1.00  0.00     0.064 A 
ATOM     79  C   UNL     1      -8.122   4.970 -11.873  1.00  0.00     0.173 A 
ATOM     80  C   UNL     1      -6.550   4.625 -13.653  1.00  0.00     0.173 A 
ATOM     81  F   UNL     1      -9.220   4.610 -11.187  1.00  0.00    -0.203 F 
ATOM     82  C   UNL     1      -7.360   6.032 -11.389  1.00  0.00     0.198 A 
ATOM     83  C   UNL     1      -5.808   5.718 -13.186  1.00  0.00     0.198 A 
ATOM     84  F   UNL     1      -6.087   3.940 -14.708  1.00  0.00    -0.203 F 
ATOM     85  F   UNL     1      -7.723   6.653 -10.257  1.00  0.00    -0.200 F 
ATOM     86  C   UNL     1      -6.182   6.380 -12.024  1.00  0.00     0.200 A 
ATOM     87  F   UNL     1      -4.680   6.078 -13.816  1.00  0.00    -0.200 F 
ATOM     88  F   UNL     1      -5.394   7.329 -11.498  1.00  0.00    -0.200 F 
ENDBRANCH  54  78
BRANCH  66  89
ATOM     89  C   UNL     1      -7.784  -1.815 -17.104  1.00  0.00     0.064 A 
ATOM     90  C   UNL     1      -8.316  -1.140 -18.214  1.00  0.00     0.173 A 
ATOM     91  C   UNL     1      -7.439  -3.171 -17.329  1.00  0.00     0.173 A 
ATOM     92  F   UNL     1      -8.523   0.183 -18.200  1.00  0.00    -0.203 F 
ATOM     93  C   UNL     1      -8.599  -1.796 -19.412  1.00  0.00     0.198 A 
ATOM     94  C   UNL     1      -7.645  -3.800 -18.554  1.00  0.00     0.198 A 
ATOM     95  F   UNL     1      -6.860  -3.925 -16.384  1.00  0.00    -0.203 F 
ATOM     96  F   UNL     1      -9.183  -1.121 -20.411  1.00  0.00    -0.200 F 
ATOM     97  C   UNL     1      -8.256  -3.122 -19.585  1.00  0.00     0.200 A 
ATOM     98  F   UNL     1      -7.228  -5.062 -18.730  1.00  0.00    -0.200 F 
ATOM     99  F   UNL     1      -8.488  -3.736 -20.752  1.00  0.00    -0.200 F 
ENDBRANCH  66  89
ENDBRANCH  40  41
ENDBRANCH  32  35
ENDBRANCH  30  31
ENDBRANCH  29  30
ENDBRANCH  28  29
ENDBRANCH  27  28
ENDBRANCH   1  27
TORSDOF 19
