REMARK SMILES CCN(C[C@H](C)C(=O)NCCCCCCNC(=O)c1ccc(-c2c3nc(c(-c4c(F)c(F)c(F)c(F)c4F)c4ccc([nH]4)c(-c4c(F)c(F)c(F)c(F)c4F)c4nc(c(-c5c(F)c(F)c(F)c(F)c5F)c5ccc2[nH]5)C=C4)C=C3)cc1)c1ccc(C(=O)NC)nn1
REMARK SMILES IDX 11 1 10 2 9 3 7 4 8 5 5 7 6 8 4 9 3 10 2 11 1 12 82 13 83 14
REMARK SMILES IDX 91 15 84 16 90 17 85 18 86 19 87 20 88 21 89 22 12 24 13 25
REMARK SMILES IDX 14 26 15 27 16 28 17 29 18 31 19 32 20 33 81 34 21 35 80 36
REMARK SMILES IDX 22 37 23 38 24 39 74 40 25 41 79 42 73 43 75 44 26 45 78 46
REMARK SMILES IDX 72 47 71 48 27 50 59 51 39 52 58 53 40 54 43 55 57 56 76 57
REMARK SMILES IDX 41 58 42 59 56 61 77 62 44 63 28 64 29 65 37 66 30 67 31 68
REMARK SMILES IDX 35 69 38 70 32 71 33 72 36 73 34 74 60 75 61 76 69 77 62 78
REMARK SMILES IDX 63 79 67 80 70 81 64 82 65 83 68 84 66 85 45 86 46 87 54 88
REMARK SMILES IDX 47 89 48 90 52 91 55 92 49 93 50 94 53 95 51 96
REMARK H PARENT 9 6 88 23 16 30 75 49 43 60
REMARK Flexibility Score: inf
ROOT
ATOM      1  C   UNL     1      -1.459  -6.161  -1.245  1.00  0.00     0.021 C 
ENDROOT
BRANCH   1   2
ATOM      2  C   UNL     1      -0.414  -5.642  -2.218  1.00  0.00     0.116 C 
BRANCH   2   3
ATOM      3  N   UNL     1      -0.899  -5.242  -3.514  1.00  0.00    -0.356 N 
ATOM      4  C   UNL     1      -0.437  -4.224  -4.296  1.00  0.00     0.224 C 
ATOM      5  O   UNL     1      -0.762  -4.244  -5.489  1.00  0.00    -0.275 OA
ATOM      6  H   UNL     1      -1.651  -5.763  -3.877  1.00  0.00     0.163 HD
BRANCH   4   7
ATOM      7  C   UNL     1       0.408  -3.067  -3.755  1.00  0.00     0.095 C 
ATOM      8  C   UNL     1      -0.267  -2.300  -2.614  1.00  0.00     0.020 C 
BRANCH   7   9
ATOM      9  C   UNL     1       1.940  -3.257  -3.652  1.00  0.00     0.131 C 
BRANCH   9  10
ATOM     10  N   UNL     1       2.487  -4.447  -2.966  1.00  0.00    -0.355 N 
BRANCH  10  11
ATOM     11  C   UNL     1       2.837  -5.599  -3.810  1.00  0.00     0.115 C 
ATOM     12  C   UNL     1       4.328  -5.910  -3.820  1.00  0.00     0.027 C 
ENDBRANCH  10  11
BRANCH  10  13
ATOM     13  C   UNL     1       2.525  -4.464  -1.581  1.00  0.00     0.151 A 
ATOM     14  C   UNL     1       2.963  -5.563  -0.847  1.00  0.00     0.051 A 
ATOM     15  N   UNL     1       1.968  -3.450  -0.885  1.00  0.00    -0.132 NA
ATOM     16  C   UNL     1       2.676  -5.688   0.518  1.00  0.00     0.040 A 
ATOM     17  N   UNL     1       1.629  -3.570   0.459  1.00  0.00    -0.143 NA
ATOM     18  C   UNL     1       1.953  -4.687   1.131  1.00  0.00     0.150 A 
BRANCH  18  19
ATOM     19  C   UNL     1       1.274  -4.897   2.439  1.00  0.00     0.271 C 
ATOM     20  O   UNL     1       0.091  -4.584   2.572  1.00  0.00    -0.267 OA
ATOM     21  N   UNL     1       1.902  -5.512   3.497  1.00  0.00    -0.354 N 
ATOM     22  C   UNL     1       3.294  -5.846   3.680  1.00  0.00     0.143 C 
ATOM     23  H   UNL     1       1.312  -5.763   4.244  1.00  0.00     0.163 HD
ENDBRANCH  18  19
ENDBRANCH  10  13
ENDBRANCH   9  10
ENDBRANCH   7   9
ENDBRANCH   4   7
ENDBRANCH   2   3
ENDBRANCH   1   2
BRANCH   1  24
ATOM     24  C   UNL     1      -1.972  -7.574  -1.517  1.00  0.00     0.002 C 
BRANCH  24  25
ATOM     25  C   UNL     1      -0.909  -8.659  -1.730  1.00  0.00     0.002 C 
BRANCH  25  26
ATOM     26  C   UNL     1       0.192  -8.761  -0.671  1.00  0.00     0.021 C 
BRANCH  26  27
ATOM     27  C   UNL     1      -0.280  -8.918   0.771  1.00  0.00     0.116 C 
BRANCH  27  28
ATOM     28  N   UNL     1      -1.119 -10.089   0.957  1.00  0.00    -0.352 N 
ATOM     29  C   UNL     1      -0.996 -11.137   1.827  1.00  0.00     0.251 C 
ATOM     30  H   UNL     1      -1.900 -10.136   0.360  1.00  0.00     0.163 HD
ATOM     31  O   UNL     1      -1.736 -12.119   1.708  1.00  0.00    -0.269 OA
BRANCH  29  32
ATOM     32  C   UNL     1       0.024 -11.126   2.897  1.00  0.00     0.039 A 
ATOM     33  C   UNL     1       0.723 -12.307   3.165  1.00  0.00     0.014 A 
ATOM     34  C   UNL     1       0.267  -9.982   3.664  1.00  0.00     0.014 A 
ATOM     35  C   UNL     1       1.703 -12.328   4.160  1.00  0.00     0.010 A 
ATOM     36  C   UNL     1       1.291  -9.985   4.611  1.00  0.00     0.010 A 
ATOM     37  C   UNL     1       2.017 -11.158   4.870  1.00  0.00    -0.014 A 
BRANCH  37  38
ATOM     38  C   UNL     1       3.100 -11.147   5.885  1.00  0.00     0.031 A 
ATOM     39  C   UNL     1       2.781 -10.902   7.334  1.00  0.00     0.074 A 
ATOM     40  C   UNL     1       4.380 -11.300   5.493  1.00  0.00     0.049 A 
ATOM     41  N   UNL     1       3.596 -10.785   8.352  1.00  0.00    -0.248 NA
ATOM     42  C   UNL     1       1.361 -10.742   7.679  1.00  0.00     0.031 C 
ATOM     43  C   UNL     1       4.820 -11.510   4.113  1.00  0.00     0.029 A 
ATOM     44  N   UNL     1       5.546 -11.295   6.217  1.00  0.00    -0.354 N 
ATOM     45  C   UNL     1       2.790 -10.526   9.453  1.00  0.00     0.074 A 
ATOM     46  C   UNL     1       1.427 -10.451   8.970  1.00  0.00     0.031 C 
ATOM     47  C   UNL     1       6.157 -11.634   4.093  1.00  0.00     0.029 A 
ATOM     48  C   UNL     1       6.671 -11.475   5.450  1.00  0.00     0.049 A 
ATOM     49  H   UNL     1       5.574 -11.173   7.194  1.00  0.00     0.167 HD
ATOM     50  C   UNL     1       3.151 -10.386  10.752  1.00  0.00     0.037 A 
ATOM     51  C   UNL     1       7.971 -11.502   5.800  1.00  0.00     0.037 A 
ATOM     52  C   UNL     1       4.504 -10.487  11.232  1.00  0.00     0.049 A 
ATOM     53  C   UNL     1       8.346 -11.332   7.247  1.00  0.00     0.074 A 
ATOM     54  C   UNL     1       4.965 -10.415  12.536  1.00  0.00     0.029 A 
ATOM     55  N   UNL     1       5.616 -10.681  10.426  1.00  0.00    -0.354 N 
ATOM     56  N   UNL     1       7.569 -11.145   8.287  1.00  0.00    -0.248 NA
ATOM     57  C   UNL     1       9.779 -11.383   7.571  1.00  0.00     0.031 C 
ATOM     58  C   UNL     1       6.360 -10.518  12.513  1.00  0.00     0.029 A 
ATOM     59  C   UNL     1       6.765 -10.707  11.202  1.00  0.00     0.049 A 
ATOM     60  H   UNL     1       5.593 -10.786   9.447  1.00  0.00     0.167 HD
ATOM     61  C   UNL     1       8.413 -11.086   9.388  1.00  0.00     0.074 A 
ATOM     62  C   UNL     1       9.761 -11.270   8.891  1.00  0.00     0.031 C 
ATOM     63  C   UNL     1       8.099 -10.896  10.693  1.00  0.00     0.037 A 
BRANCH  50  64
ATOM     64  C   UNL     1       2.062 -10.106  11.748  1.00  0.00     0.064 A 
ATOM     65  C   UNL     1       1.111 -11.077  12.093  1.00  0.00     0.173 A 
ATOM     66  C   UNL     1       1.991  -8.862  12.394  1.00  0.00     0.173 A 
ATOM     67  F   UNL     1       1.128 -12.280  11.498  1.00  0.00    -0.203 F 
ATOM     68  C   UNL     1       0.110 -10.804  13.023  1.00  0.00     0.198 A 
ATOM     69  C   UNL     1       1.009  -8.602  13.346  1.00  0.00     0.198 A 
ATOM     70  F   UNL     1       2.880  -7.899  12.107  1.00  0.00    -0.203 F 
ATOM     71  F   UNL     1      -0.818 -11.731  13.297  1.00  0.00    -0.200 F 
ATOM     72  C   UNL     1       0.064  -9.570  13.653  1.00  0.00     0.200 A 
ATOM     73  F   UNL     1       0.975  -7.414  13.965  1.00  0.00    -0.200 F 
ATOM     74  F   UNL     1      -0.895  -9.310  14.553  1.00  0.00    -0.200 F 
ENDBRANCH  50  64
BRANCH  51  75
ATOM     75  C   UNL     1       9.013 -11.718   4.763  1.00  0.00     0.064 A 
ATOM     76  C   UNL     1       9.751 -12.910   4.722  1.00  0.00     0.173 A 
ATOM     77  C   UNL     1       9.294 -10.743   3.795  1.00  0.00     0.173 A 
ATOM     78  F   UNL     1       9.531 -13.864   5.638  1.00  0.00    -0.203 F 
ATOM     79  C   UNL     1      10.742 -13.110   3.764  1.00  0.00     0.198 A 
ATOM     80  C   UNL     1      10.266 -10.956   2.820  1.00  0.00     0.198 A 
ATOM     81  F   UNL     1       8.611  -9.588   3.787  1.00  0.00    -0.203 F 
ATOM     82  F   UNL     1      11.462 -14.240   3.774  1.00  0.00    -0.200 F 
ATOM     83  C   UNL     1      10.995 -12.135   2.810  1.00  0.00     0.200 A 
ATOM     84  F   UNL     1      10.495 -10.018   1.891  1.00  0.00    -0.200 F 
ATOM     85  F   UNL     1      11.945 -12.330   1.885  1.00  0.00    -0.200 F 
ENDBRANCH  51  75
BRANCH  63  86
ATOM     86  C   UNL     1       9.229 -10.911  11.681  1.00  0.00     0.064 A 
ATOM     87  C   UNL     1      10.152  -9.858  11.761  1.00  0.00     0.173 A 
ATOM     88  C   UNL     1       9.367 -11.976  12.586  1.00  0.00     0.173 A 
ATOM     89  F   UNL     1      10.074  -8.826  10.908  1.00  0.00    -0.203 F 
ATOM     90  C   UNL     1      11.186  -9.882  12.694  1.00  0.00     0.198 A 
ATOM     91  C   UNL     1      10.383 -11.982  13.537  1.00  0.00     0.198 A 
ATOM     92  F   UNL     1       8.507 -13.004  12.555  1.00  0.00    -0.203 F 
ATOM     93  F   UNL     1      12.085  -8.889  12.720  1.00  0.00    -0.200 F 
ATOM     94  C   UNL     1      11.296 -10.939  13.585  1.00  0.00     0.200 A 
ATOM     95  F   UNL     1      10.480 -12.997  14.406  1.00  0.00    -0.200 F 
ATOM     96  F   UNL     1      12.288 -10.957  14.486  1.00  0.00    -0.200 F 
ENDBRANCH  63  86
ENDBRANCH  37  38
ENDBRANCH  29  32
ENDBRANCH  27  28
ENDBRANCH  26  27
ENDBRANCH  25  26
ENDBRANCH  24  25
ENDBRANCH   1  24
TORSDOF 18
