REMARK SMILES COc1cc(C[N@@H+]2CCO[C@@H](CC(=O)NCCCCCCNC(=O)c3ccc(-c4c5nc(c(-c6c(F)c(F)c(F)c(F)c6F)c6ccc([nH]6)c(-c6c(F)c(F)c(F)c(F)c6F)c6nc(c(-c7c(F)c(F)c(F)c(F)c7F)c7ccc4[nH]7)C=C6)C=C5)cc3)C2)ccc1O
REMARK SMILES IDX 17 1 16 2 15 3 13 4 14 5 12 7 11 8 7 9 8 10 88 11 9 13 10 14
REMARK SMILES IDX 6 15 5 16 3 17 4 18 91 19 90 20 89 21 2 22 1 23 92 24 18 26
REMARK SMILES IDX 19 27 20 28 21 29 22 30 23 31 24 33 25 34 26 35 87 36 27 37
REMARK SMILES IDX 86 38 28 39 29 40 30 41 80 42 31 43 85 44 79 45 81 46 32 47
REMARK SMILES IDX 84 48 78 49 77 50 33 52 65 53 45 54 64 55 46 56 49 57 63 58
REMARK SMILES IDX 82 59 47 60 48 61 62 63 83 64 50 65 34 66 35 67 43 68 36 69
REMARK SMILES IDX 37 70 41 71 44 72 38 73 39 74 42 75 40 76 66 77 67 78 75 79
REMARK SMILES IDX 68 80 69 81 73 82 76 83 70 84 71 85 74 86 72 87 51 88 52 89
REMARK SMILES IDX 60 90 53 91 54 92 58 93 61 94 55 95 56 96 59 97 57 98
REMARK H PARENT 15 6 7 12 92 25 22 32 81 51 49 62
REMARK Flexibility Score: inf
ROOT
ATOM      1  C   UNL     1      -5.437   0.215  -6.511  1.00  0.00     0.021 C 
ENDROOT
BRANCH   1   2
ATOM      2  C   UNL     1      -5.970   0.317  -5.078  1.00  0.00     0.116 C 
BRANCH   2   3
ATOM      3  N   UNL     1      -5.989  -1.006  -4.483  1.00  0.00    -0.356 N 
ATOM      4  C   UNL     1      -5.169  -1.523  -3.523  1.00  0.00     0.222 C 
ATOM      5  O   UNL     1      -5.155  -2.741  -3.347  1.00  0.00    -0.275 OA
ATOM      6  H   UNL     1      -6.689  -1.613  -4.817  1.00  0.00     0.163 HD
BRANCH   4   7
ATOM      7  C   UNL     1      -4.344  -0.590  -2.671  1.00  0.00     0.138 C 
BRANCH   7   8
ATOM      8  C   UNL     1      -2.912  -0.289  -3.131  1.00  0.00     0.182 C 
ATOM      9  N   UNL     1      -1.391   0.230  -5.146  1.00  0.00    -0.327 N 
ATOM     10  C   UNL     1      -0.999   1.437  -4.408  1.00  0.00     0.291 C 
ATOM     11  C   UNL     1      -2.677  -0.292  -4.660  1.00  0.00     0.295 C 
ATOM     12  H   UNL     1      -1.549   0.534  -6.107  1.00  0.00     0.348 HD
ATOM     13  C   UNL     1      -1.274   1.407  -2.895  1.00  0.00     0.222 C 
ATOM     14  O   UNL     1      -2.620   1.027  -2.606  1.00  0.00    -0.366 OA
BRANCH   9  15
ATOM     15  C   UNL     1      -0.342  -0.760  -5.398  1.00  0.00     0.299 C 
BRANCH  15  16
ATOM     16  C   UNL     1       0.150  -1.498  -4.180  1.00  0.00     0.010 A 
ATOM     17  C   UNL     1       1.328  -1.454  -2.073  1.00  0.00     0.160 A 
ATOM     18  C   UNL     1       1.093  -0.903  -3.328  1.00  0.00     0.060 A 
ATOM     19  C   UNL     1       0.737  -2.666  -1.720  1.00  0.00     0.157 A 
ATOM     20  C   UNL     1      -0.123  -3.317  -2.593  1.00  0.00     0.051 A 
ATOM     21  C   UNL     1      -0.421  -2.731  -3.823  1.00  0.00     0.013 A 
BRANCH  17  22
ATOM     22  O   UNL     1       2.142  -0.787  -1.196  1.00  0.00    -0.493 OA
ATOM     23  C   UNL     1       1.375  -0.103  -0.196  1.00  0.00     0.278 C 
ENDBRANCH  17  22
BRANCH  19  24
ATOM     24  O   UNL     1       0.980  -3.235  -0.503  1.00  0.00    -0.504 OA
ATOM     25  H   UNL     1       1.557  -2.816   0.104  1.00  0.00     0.293 HD
ENDBRANCH  19  24
ENDBRANCH  15  16
ENDBRANCH   9  15
ENDBRANCH   7   8
ENDBRANCH   4   7
ENDBRANCH   2   3
ENDBRANCH   1   2
BRANCH   1  26
ATOM     26  C   UNL     1      -6.516  -0.112  -7.539  1.00  0.00     0.002 C 
BRANCH  26  27
ATOM     27  C   UNL     1      -7.532   1.012  -7.748  1.00  0.00     0.002 C 
BRANCH  27  28
ATOM     28  C   UNL     1      -6.920   2.367  -8.112  1.00  0.00     0.021 C 
BRANCH  28  29
ATOM     29  C   UNL     1      -6.000   2.331  -9.329  1.00  0.00     0.116 C 
BRANCH  29  30
ATOM     30  N   UNL     1      -6.711   1.884 -10.517  1.00  0.00    -0.352 N 
ATOM     31  C   UNL     1      -6.984   2.575 -11.669  1.00  0.00     0.251 C 
ATOM     32  H   UNL     1      -7.042   0.957 -10.489  1.00  0.00     0.163 HD
ATOM     33  O   UNL     1      -7.825   2.165 -12.459  1.00  0.00    -0.269 OA
BRANCH  31  34
ATOM     34  C   UNL     1      -6.252   3.825 -11.949  1.00  0.00     0.039 A 
ATOM     35  C   UNL     1      -6.957   4.941 -12.404  1.00  0.00     0.014 A 
ATOM     36  C   UNL     1      -4.867   3.886 -11.769  1.00  0.00     0.014 A 
ATOM     37  C   UNL     1      -6.276   6.136 -12.635  1.00  0.00     0.010 A 
ATOM     38  C   UNL     1      -4.203   5.097 -11.926  1.00  0.00     0.010 A 
ATOM     39  C   UNL     1      -4.899   6.231 -12.372  1.00  0.00    -0.014 A 
BRANCH  39  40
ATOM     40  C   UNL     1      -4.161   7.501 -12.579  1.00  0.00     0.031 A 
ATOM     41  C   UNL     1      -3.073   7.574 -13.615  1.00  0.00     0.074 A 
ATOM     42  C   UNL     1      -4.433   8.566 -11.801  1.00  0.00     0.049 A 
ATOM     43  N   UNL     1      -2.261   8.562 -13.895  1.00  0.00    -0.248 NA
ATOM     44  C   UNL     1      -2.852   6.368 -14.429  1.00  0.00     0.031 C 
ATOM     45  C   UNL     1      -5.441   8.605 -10.740  1.00  0.00     0.029 A 
ATOM     46  N   UNL     1      -3.878   9.821 -11.776  1.00  0.00    -0.354 N 
ATOM     47  C   UNL     1      -1.434   8.095 -14.908  1.00  0.00     0.074 A 
ATOM     48  C   UNL     1      -1.798   6.716 -15.152  1.00  0.00     0.031 C 
ATOM     49  C   UNL     1      -5.449   9.827 -10.184  1.00  0.00     0.029 A 
ATOM     50  C   UNL     1      -4.419  10.644 -10.817  1.00  0.00     0.049 A 
ATOM     51  H   UNL     1      -3.160  10.105 -12.387  1.00  0.00     0.167 HD
ATOM     52  C   UNL     1      -0.478   8.764 -15.594  1.00  0.00     0.037 A 
ATOM     53  C   UNL     1      -4.107  11.911 -10.482  1.00  0.00     0.037 A 
ATOM     54  C   UNL     1      -0.132  10.141 -15.359  1.00  0.00     0.049 A 
ATOM     55  C   UNL     1      -3.012  12.617 -11.239  1.00  0.00     0.074 A 
ATOM     56  C   UNL     1       0.801  10.921 -16.020  1.00  0.00     0.029 A 
ATOM     57  N   UNL     1      -0.708  10.944 -14.386  1.00  0.00    -0.354 N 
ATOM     58  N   UNL     1      -2.276  12.183 -12.233  1.00  0.00    -0.248 NA
ATOM     59  C   UNL     1      -2.710  13.996 -10.829  1.00  0.00     0.031 C 
ATOM     60  C   UNL     1       0.823  12.182 -15.417  1.00  0.00     0.029 A 
ATOM     61  C   UNL     1      -0.138  12.207 -14.419  1.00  0.00     0.049 A 
ATOM     62  H   UNL     1      -1.417  10.660 -13.765  1.00  0.00     0.167 HD
ATOM     63  C   UNL     1      -1.456  13.245 -12.593  1.00  0.00     0.074 A 
ATOM     64  C   UNL     1      -1.795  14.348 -11.720  1.00  0.00     0.031 C 
ATOM     65  C   UNL     1      -0.507  13.301 -13.559  1.00  0.00     0.037 A 
BRANCH  52  66
ATOM     66  C   UNL     1       0.254   8.024 -16.675  1.00  0.00     0.064 A 
ATOM     67  C   UNL     1      -0.382   7.656 -17.871  1.00  0.00     0.173 A 
ATOM     68  C   UNL     1       1.619   7.728 -16.542  1.00  0.00     0.173 A 
ATOM     69  F   UNL     1      -1.690   7.904 -18.044  1.00  0.00    -0.203 F 
ATOM     70  C   UNL     1       0.315   7.001 -18.883  1.00  0.00     0.198 A 
ATOM     71  C   UNL     1       2.321   7.102 -17.569  1.00  0.00     0.198 A 
ATOM     72  F   UNL     1       2.277   8.062 -15.422  1.00  0.00    -0.203 F 
ATOM     73  F   UNL     1      -0.325   6.622 -19.998  1.00  0.00    -0.200 F 
ATOM     74  C   UNL     1       1.667   6.734 -18.736  1.00  0.00     0.200 A 
ATOM     75  F   UNL     1       3.631   6.858 -17.431  1.00  0.00    -0.200 F 
ATOM     76  F   UNL     1       2.341   6.118 -19.717  1.00  0.00    -0.200 F 
ENDBRANCH  52  66
BRANCH  53  77
ATOM     77  C   UNL     1      -4.841  12.604  -9.390  1.00  0.00     0.064 A 
ATOM     78  C   UNL     1      -5.653  13.715  -9.660  1.00  0.00     0.173 A 
ATOM     79  C   UNL     1      -4.713  12.203  -8.052  1.00  0.00     0.173 A 
ATOM     80  F   UNL     1      -5.793  14.150 -10.921  1.00  0.00    -0.203 F 
ATOM     81  C   UNL     1      -6.276  14.421  -8.633  1.00  0.00     0.198 A 
ATOM     82  C   UNL     1      -5.365  12.889  -7.029  1.00  0.00     0.198 A 
ATOM     83  F   UNL     1      -3.953  11.144  -7.737  1.00  0.00    -0.203 F 
ATOM     84  F   UNL     1      -6.990  15.519  -8.915  1.00  0.00    -0.200 F 
ATOM     85  C   UNL     1      -6.134  14.005  -7.318  1.00  0.00     0.200 A 
ATOM     86  F   UNL     1      -5.237  12.474  -5.761  1.00  0.00    -0.200 F 
ATOM     87  F   UNL     1      -6.727  14.688  -6.329  1.00  0.00    -0.200 F 
ENDBRANCH  53  77
BRANCH  65  88
ATOM     88  C   UNL     1       0.192  14.614 -13.764  1.00  0.00     0.064 A 
ATOM     89  C   UNL     1       1.107  15.121 -12.829  1.00  0.00     0.173 A 
ATOM     90  C   UNL     1      -0.028  15.355 -14.936  1.00  0.00     0.173 A 
ATOM     91  F   UNL     1       1.341  14.458 -11.686  1.00  0.00    -0.203 F 
ATOM     92  C   UNL     1       1.752  16.335 -13.046  1.00  0.00     0.198 A 
ATOM     93  C   UNL     1       0.646  16.551 -15.165  1.00  0.00     0.198 A 
ATOM     94  F   UNL     1      -0.886  14.911 -15.866  1.00  0.00    -0.203 F 
ATOM     95  F   UNL     1       2.581  16.827 -12.114  1.00  0.00    -0.200 F 
ATOM     96  C   UNL     1       1.528  17.045 -14.217  1.00  0.00     0.200 A 
ATOM     97  F   UNL     1       0.441  17.226 -16.305  1.00  0.00    -0.200 F 
ATOM     98  F   UNL     1       2.158  18.208 -14.428  1.00  0.00    -0.200 F 
ENDBRANCH  65  88
ENDBRANCH  39  40
ENDBRANCH  31  34
ENDBRANCH  29  30
ENDBRANCH  28  29
ENDBRANCH  27  28
ENDBRANCH  26  27
ENDBRANCH   1  26
TORSDOF 18
