REMARK SMILES O=C(CCC(=O)N1c2ccccc2NC2=C(C(=O)C[C@H](c3ccco3)C2)[C@H]1c1cccs1)NCCCCCCNC(=O)c1ccc(-c2c3nc(c(-c4c(F)c(F)c(F)c(F)c4F)c4ccc([nH]4)c(-c4c(F)c(F)c(F)c(F)c4F)c4nc(c(-c5c(F)c(F)c(F)c(F)c5F)c5ccc2[nH]5)C=C4)C=C3)cc1
REMARK SMILES IDX 34 1 33 2 1 3 2 4 3 6 4 7 5 8 6 9 7 10 8 11 9 12 13 13 10 14
REMARK SMILES IDX 12 15 11 16 14 17 15 19 16 20 26 21 17 22 20 24 18 25 19 26
REMARK SMILES IDX 21 27 22 28 25 29 23 30 24 31 27 32 28 34 29 35 32 36 30 37
REMARK SMILES IDX 31 38 35 39 36 40 37 41 38 42 39 43 40 44 41 45 42 47 43 48
REMARK SMILES IDX 44 49 105 50 45 51 104 52 46 53 47 54 48 55 98 56 49 57
REMARK SMILES IDX 103 58 97 59 99 60 50 61 102 62 96 63 95 64 51 66 83 67
REMARK SMILES IDX 63 68 82 69 64 70 67 71 81 72 100 73 65 74 66 75 80 77
REMARK SMILES IDX 101 78 68 79 52 80 53 81 61 82 54 83 55 84 59 85 62 86 56 87
REMARK SMILES IDX 57 88 60 89 58 90 84 91 85 92 93 93 86 94 87 95 91 96 94 97
REMARK SMILES IDX 88 98 89 99 92 100 90 101 69 102 70 103 78 104 71 105 72 106
REMARK SMILES IDX 76 107 79 108 73 109 74 110 77 111 75 112
REMARK H PARENT 33 5 14 18 40 46 99 65 67 76
REMARK Flexibility Score: 90.00
ROOT
ATOM      1  C   UNL     1       2.124  -0.024   2.615  1.00  0.00     0.116 C 
ENDROOT
BRANCH   1   2
ATOM      2  N   UNL     1       2.168  -0.358   0.560  1.00  0.00    -0.356 N 
ATOM      3  O   UNL     1       0.729   0.518  -1.184  1.00  0.00    -0.275 OA
ATOM      4  C   UNL     1       1.765   0.006  -0.776  1.00  0.00     0.220 C 
ATOM      5  H   UNL     1       2.745  -1.148   0.444  1.00  0.00     0.163 HD
BRANCH   4   6
ATOM      6  C   UNL     1       2.949  -0.212  -1.724  1.00  0.00     0.110 C 
BRANCH   6   7
ATOM      7  C   UNL     1       3.814   1.043  -1.731  1.00  0.00     0.110 C 
BRANCH   7   8
ATOM      8  C   UNL     1       4.956   1.196  -0.708  1.00  0.00     0.228 C 
ATOM      9  O   UNL     1       6.123   1.206  -1.107  1.00  0.00    -0.274 OA
BRANCH   8  10
ATOM     10  N   UNL     1       4.622   1.565   0.591  1.00  0.00    -0.298 N 
BRANCH  10  11
ATOM     11  C   UNL     1       3.615   0.867   1.271  1.00  0.00     0.068 A 
ATOM     12  C   UNL     1       3.823  -0.900   1.606  1.00  0.00     0.028 A 
ATOM     13  C   UNL     1       1.966   1.588   1.183  1.00  0.00     0.062 A 
ATOM     14  C   UNL     1       2.350  -1.980   1.761  1.00  0.00     0.002 A 
ATOM     15  C   UNL     1       0.489   0.537   1.341  1.00  0.00     0.028 A 
ATOM     16  C   UNL     1       0.689  -1.252   1.624  1.00  0.00     0.002 A 
BRANCH  13  17
ATOM     17  N   UNL     1       1.817   2.959   0.945  1.00  0.00    -0.357 N 
ATOM     18  H   UNL     1       0.950   3.231   0.567  1.00  0.00     0.166 HD
BRANCH  17  19
ATOM     19  C   UNL     1       2.718   3.984   1.167  1.00  0.00     0.025 C 
ATOM     20  C   UNL     1       4.075   3.966   1.233  1.00  0.00     0.043 CG0
ATOM     21  C   UNL     1       1.971   5.296   1.447  1.00  0.00     0.066 C 
ATOM     22  C   UNL     1       4.775   5.301   1.442  1.00  0.00     0.163 C 
ATOM     23  G   UNL     1       5.128   2.846   1.104  1.00  0.00     0.000 G0
ATOM     24  C   UNL     1       2.649   6.168   2.506  1.00  0.00     0.069 C 
ATOM     25  O   UNL     1       5.960   5.441   1.130  1.00  0.00    -0.294 OA
ATOM     26  C   UNL     1       4.040   6.495   2.003  1.00  0.00     0.093 C 
BRANCH  24  27
ATOM     27  C   UNL     1       2.645   5.586   3.896  1.00  0.00     0.107 A 
ATOM     28  C   UNL     1       3.283   5.936   5.073  1.00  0.00     0.046 A 
ATOM     29  O   UNL     1       1.823   4.521   4.130  1.00  0.00    -0.469 OA
ATOM     30  C   UNL     1       2.841   5.024   6.064  1.00  0.00     0.042 A 
ATOM     31  C   UNL     1       1.945   4.191   5.439  1.00  0.00     0.195 A 
ENDBRANCH  24  27
ENDBRANCH  17  19
ENDBRANCH  13  17
ENDBRANCH  10  11
BRANCH  10  32
ATOM     32  C   UNL     1       5.128   2.846   1.104  1.00  0.00     0.167 CG0
ATOM     33  G   UNL     1       4.075   3.966   1.233  1.00  0.00     0.000 G0
BRANCH  32  34
ATOM     34  C   UNL     1       5.980   2.643   2.371  1.00  0.00     0.032 A 
ATOM     35  C   UNL     1       5.806   3.203   3.628  1.00  0.00     0.018 A 
ATOM     36  S   UNL     1       7.441   1.733   2.326  1.00  0.00    -0.146 S 
ATOM     37  C   UNL     1       6.851   2.886   4.542  1.00  0.00     0.012 A 
ATOM     38  C   UNL     1       7.799   2.077   3.965  1.00  0.00     0.065 A 
ENDBRANCH  32  34
ENDBRANCH  10  32
ENDBRANCH   8  10
ENDBRANCH   7   8
ENDBRANCH   6   7
ENDBRANCH   4   6
ENDBRANCH   1   2
BRANCH   1  39
ATOM     39  C   UNL     1       2.468  -1.031   3.977  1.00  0.00     0.021 C 
BRANCH  39  40
ATOM     40  C   UNL     1       3.915  -1.146   4.480  1.00  0.00     0.002 C 
BRANCH  40  41
ATOM     41  C   UNL     1       4.627   0.193   4.625  1.00  0.00     0.002 C 
BRANCH  41  42
ATOM     42  C   UNL     1       3.976   1.136   5.628  1.00  0.00     0.021 C 
BRANCH  42  43
ATOM     43  C   UNL     1       4.133   0.660   7.050  1.00  0.00     0.116 C 
BRANCH  43  44
ATOM     44  N   UNL     1       5.533   0.604   7.463  1.00  0.00    -0.352 N 
ATOM     45  C   UNL     1       6.088   1.026   8.646  1.00  0.00     0.251 C 
ATOM     46  H   UNL     1       6.158   0.215   6.811  1.00  0.00     0.163 HD
ATOM     47  O   UNL     1       7.301   1.097   8.792  1.00  0.00    -0.269 OA
BRANCH  45  48
ATOM     48  C   UNL     1       5.169   1.438   9.722  1.00  0.00     0.039 A 
ATOM     49  C   UNL     1       4.018   0.687   9.950  1.00  0.00     0.014 A 
ATOM     50  C   UNL     1       5.388   2.636  10.403  1.00  0.00     0.014 A 
ATOM     51  C   UNL     1       2.979   1.250  10.662  1.00  0.00     0.010 A 
ATOM     52  C   UNL     1       4.400   3.119  11.262  1.00  0.00     0.010 A 
ATOM     53  C   UNL     1       3.166   2.456  11.357  1.00  0.00    -0.014 A 
BRANCH  53  54
ATOM     54  C   UNL     1       2.052   2.961  12.197  1.00  0.00     0.031 A 
ATOM     55  C   UNL     1       1.433   4.306  11.944  1.00  0.00     0.074 A 
ATOM     56  C   UNL     1       1.555   2.143  13.146  1.00  0.00     0.049 A 
ATOM     57  N   UNL     1       0.444   4.885  12.577  1.00  0.00    -0.248 NA
ATOM     58  C   UNL     1       1.994   5.114  10.850  1.00  0.00     0.031 C 
ATOM     59  C   UNL     1       2.073   0.808  13.460  1.00  0.00     0.029 A 
ATOM     60  N   UNL     1       0.484   2.284  13.989  1.00  0.00    -0.354 N 
ATOM     61  C   UNL     1       0.284   6.128  11.980  1.00  0.00     0.074 A 
ATOM     62  C   UNL     1       1.295   6.237  10.951  1.00  0.00     0.031 C 
ATOM     63  C   UNL     1       1.268   0.219  14.351  1.00  0.00     0.029 A 
ATOM     64  C   UNL     1       0.246   1.172  14.759  1.00  0.00     0.049 A 
ATOM     65  H   UNL     1      -0.062   3.102  14.037  1.00  0.00     0.167 HD
ATOM     66  C   UNL     1      -0.634   7.082  12.264  1.00  0.00     0.037 A 
ATOM     67  C   UNL     1      -0.675   0.950  15.713  1.00  0.00     0.037 A 
ATOM     68  C   UNL     1      -1.650   6.944  13.276  1.00  0.00     0.049 A 
ATOM     69  C   UNL     1      -1.640   2.049  16.044  1.00  0.00     0.074 A 
ATOM     70  C   UNL     1      -2.636   7.846  13.634  1.00  0.00     0.029 A 
ATOM     71  N   UNL     1      -1.811   5.831  14.091  1.00  0.00    -0.354 N 
ATOM     72  N   UNL     1      -1.778   3.221  15.474  1.00  0.00    -0.248 NA
ATOM     73  C   UNL     1      -2.563   1.804  17.157  1.00  0.00     0.031 C 
ATOM     74  C   UNL     1      -3.357   7.304  14.701  1.00  0.00     0.029 A 
ATOM     75  C   UNL     1      -2.863   6.037  14.969  1.00  0.00     0.049 A 
ATOM     76  H   UNL     1      -1.259   5.017  14.051  1.00  0.00     0.167 HD
ATOM     77  C   UNL     1      -2.811   3.851  16.150  1.00  0.00     0.074 A 
ATOM     78  C   UNL     1      -3.280   2.920  17.157  1.00  0.00     0.031 C 
ATOM     79  C   UNL     1      -3.318   5.093  15.959  1.00  0.00     0.037 A 
BRANCH  66  80
ATOM     80  C   UNL     1      -0.584   8.366  11.485  1.00  0.00     0.064 A 
ATOM     81  C   UNL     1      -0.945   8.424  10.131  1.00  0.00     0.173 A 
ATOM     82  C   UNL     1      -0.241   9.570  12.123  1.00  0.00     0.173 A 
ATOM     83  F   UNL     1      -1.269   7.303   9.470  1.00  0.00    -0.203 F 
ATOM     84  C   UNL     1      -0.950   9.635   9.441  1.00  0.00     0.198 A 
ATOM     85  C   UNL     1      -0.278  10.782  11.438  1.00  0.00     0.198 A 
ATOM     86  F   UNL     1       0.107   9.573  13.418  1.00  0.00    -0.203 F 
ATOM     87  F   UNL     1      -1.262   9.659   8.138  1.00  0.00    -0.200 F 
ATOM     88  C   UNL     1      -0.627  10.813  10.097  1.00  0.00     0.200 A 
ATOM     89  F   UNL     1       0.019  11.921  12.079  1.00  0.00    -0.200 F 
ATOM     90  F   UNL     1      -0.650  11.979   9.436  1.00  0.00    -0.200 F 
ENDBRANCH  66  80
BRANCH  67  91
ATOM     91  C   UNL     1      -0.704  -0.359  16.415  1.00  0.00     0.064 A 
ATOM     92  C   UNL     1      -1.778  -1.241  16.248  1.00  0.00     0.173 A 
ATOM     93  C   UNL     1       0.364  -0.778  17.226  1.00  0.00     0.173 A 
ATOM     94  F   UNL     1      -2.828  -0.882  15.494  1.00  0.00    -0.203 F 
ATOM     95  C   UNL     1      -1.786  -2.490  16.866  1.00  0.00     0.198 A 
ATOM     96  C   UNL     1       0.371  -2.040  17.814  1.00  0.00     0.198 A 
ATOM     97  F   UNL     1       1.422   0.025  17.412  1.00  0.00    -0.203 F 
ATOM     98  F   UNL     1      -2.840  -3.303  16.714  1.00  0.00    -0.200 F 
ATOM     99  C   UNL     1      -0.707  -2.893  17.639  1.00  0.00     0.200 A 
ATOM    100  F   UNL     1       1.429  -2.434  18.536  1.00  0.00    -0.200 F 
ATOM    101  F   UNL     1      -0.706  -4.103  18.214  1.00  0.00    -0.200 F 
ENDBRANCH  67  91
BRANCH  79 102
ATOM    102  C   UNL     1      -4.455   5.517  16.842  1.00  0.00     0.064 A 
ATOM    103  C   UNL     1      -4.255   5.824  18.195  1.00  0.00     0.173 A 
ATOM    104  C   UNL     1      -5.740   5.695  16.307  1.00  0.00     0.173 A 
ATOM    105  F   UNL     1      -3.049   5.653  18.756  1.00  0.00    -0.203 F 
ATOM    106  C   UNL     1      -5.305   6.284  18.984  1.00  0.00     0.198 A 
ATOM    107  C   UNL     1      -6.778   6.187  17.091  1.00  0.00     0.198 A 
ATOM    108  F   UNL     1      -5.979   5.420  15.016  1.00  0.00    -0.203 F 
ATOM    109  F   UNL     1      -5.101   6.539  20.284  1.00  0.00    -0.200 F 
ATOM    110  C   UNL     1      -6.561   6.478  18.429  1.00  0.00     0.200 A 
ATOM    111  F   UNL     1      -7.986   6.391  16.547  1.00  0.00    -0.200 F 
ATOM    112  F   UNL     1      -7.564   6.945  19.185  1.00  0.00    -0.200 F 
ENDBRANCH  79 102
ENDBRANCH  53  54
ENDBRANCH  45  48
ENDBRANCH  43  44
ENDBRANCH  42  43
ENDBRANCH  41  42
ENDBRANCH  40  41
ENDBRANCH  39  40
ENDBRANCH   1  39
TORSDOF 18
