REMARK SMILES N#Cc1ccn2cc(C(=O)NCCCCCCNC(=O)c3ccc(-c4c5nc(c(-c6c(F)c(F)c(F)c(F)c6F)c6ccc([nH]6)c(-c6c(F)c(F)c(F)c(F)c6F)c6nc(c(-c7c(F)c(F)c(F)c(F)c7F)c7ccc4[nH]7)C=C6)C=C5)cc3)nc2c1
REMARK SMILES IDX 15 1 14 2 13 3 12 4 11 5 9 6 10 7 8 9 3 10 4 11 86 12 5 13
REMARK SMILES IDX 85 14 6 15 84 16 7 17 2 18 1 19 16 20 17 21 18 22 19 23
REMARK SMILES IDX 20 25 21 26 22 27 83 28 23 29 82 30 24 31 25 32 26 33 76 34
REMARK SMILES IDX 27 35 81 36 75 37 77 38 28 39 80 40 74 41 73 42 29 44 61 45
REMARK SMILES IDX 41 46 60 47 42 48 45 49 59 50 78 51 43 52 44 53 58 55 79 56
REMARK SMILES IDX 46 57 30 58 31 59 39 60 32 61 33 62 37 63 40 64 34 65 35 66
REMARK SMILES IDX 38 67 36 68 62 69 63 70 71 71 64 72 65 73 69 74 72 75 66 76
REMARK SMILES IDX 67 77 70 78 68 79 47 80 48 81 56 82 49 83 50 84 54 85 57 86
REMARK SMILES IDX 51 87 52 88 55 89 53 90
REMARK H PARENT 11 8 18 24 77 43 45 54
REMARK Flexibility Score: inf
ROOT
ATOM      1  C   UNL     1       9.268   7.639   0.115  1.00  0.00     0.002 C 
ENDROOT
BRANCH   1   2
ATOM      2  C   UNL     1       9.356   6.586   1.226  1.00  0.00     0.002 C 
BRANCH   2   3
ATOM      3  C   UNL     1       8.217   5.562   1.238  1.00  0.00     0.021 C 
BRANCH   3   4
ATOM      4  C   UNL     1       8.145   4.712  -0.029  1.00  0.00     0.116 C 
BRANCH   4   5
ATOM      5  N   UNL     1       9.218   3.732  -0.068  1.00  0.00    -0.351 N 
ATOM      6  C   UNL     1       9.190   2.361  -0.022  1.00  0.00     0.271 C 
ATOM      7  O   UNL     1      10.276   1.764  -0.048  1.00  0.00    -0.267 OA
ATOM      8  H   UNL     1      10.120   4.118  -0.141  1.00  0.00     0.163 HD
BRANCH   6   9
ATOM      9  C   UNL     1       7.924   1.629   0.037  1.00  0.00     0.147 A 
ATOM     10  C   UNL     1       3.724   0.066   0.049  1.00  0.00     0.057 A 
ATOM     11  C   UNL     1       4.425  -1.219   0.042  1.00  0.00     0.038 A 
ATOM     12  C   UNL     1       4.391   1.234   0.066  1.00  0.00     0.067 A 
ATOM     13  C   UNL     1       5.771  -1.226   0.045  1.00  0.00     0.094 A 
ATOM     14  C   UNL     1       5.810   1.220   0.068  1.00  0.00     0.138 A 
ATOM     15  N   UNL     1       6.451  -0.011   0.054  1.00  0.00    -0.306 N 
ATOM     16  N   UNL     1       6.670   2.206   0.074  1.00  0.00    -0.223 NA
ATOM     17  C   UNL     1       7.795   0.249   0.043  1.00  0.00     0.127 A 
BRANCH  10  18
ATOM     18  C   UNL     1       2.204   0.066   0.049  1.00  0.00     0.099 C 
ATOM     19  N   UNL     1       0.943   0.066   0.049  1.00  0.00    -0.192 NA
ENDBRANCH  10  18
ENDBRANCH   6   9
ENDBRANCH   4   5
ENDBRANCH   3   4
ENDBRANCH   2   3
ENDBRANCH   1   2
BRANCH   1  20
ATOM     20  C   UNL     1       7.966   8.452   0.076  1.00  0.00     0.021 C 
BRANCH  20  21
ATOM     21  C   UNL     1       7.619   9.154   1.391  1.00  0.00     0.116 C 
BRANCH  21  22
ATOM     22  N   UNL     1       8.680  10.018   1.868  1.00  0.00    -0.352 N 
ATOM     23  C   UNL     1       9.008  11.333   1.706  1.00  0.00     0.251 C 
ATOM     24  H   UNL     1       9.317   9.542   2.449  1.00  0.00     0.163 HD
ATOM     25  O   UNL     1       9.972  11.734   2.364  1.00  0.00    -0.269 OA
BRANCH  23  26
ATOM     26  C   UNL     1       8.339  12.285   0.777  1.00  0.00     0.039 A 
ATOM     27  C   UNL     1       7.317  11.966  -0.114  1.00  0.00     0.014 A 
ATOM     28  C   UNL     1       8.860  13.595   0.755  1.00  0.00     0.014 A 
ATOM     29  C   UNL     1       6.900  12.894  -1.065  1.00  0.00     0.010 A 
ATOM     30  C   UNL     1       8.436  14.531  -0.186  1.00  0.00     0.010 A 
ATOM     31  C   UNL     1       7.495  14.159  -1.136  1.00  0.00    -0.014 A 
BRANCH  31  32
ATOM     32  C   UNL     1       7.088  15.023  -2.241  1.00  0.00     0.031 A 
ATOM     33  C   UNL     1       5.628  15.304  -2.357  1.00  0.00     0.074 A 
ATOM     34  C   UNL     1       7.939  15.557  -3.140  1.00  0.00     0.049 A 
ATOM     35  N   UNL     1       4.814  14.926  -3.291  1.00  0.00    -0.248 NA
ATOM     36  C   UNL     1       4.986  16.041  -1.262  1.00  0.00     0.031 C 
ATOM     37  C   UNL     1       9.400  15.645  -3.103  1.00  0.00     0.029 A 
ATOM     38  N   UNL     1       7.623  16.201  -4.300  1.00  0.00    -0.354 N 
ATOM     39  C   UNL     1       3.576  15.486  -2.981  1.00  0.00     0.074 A 
ATOM     40  C   UNL     1       3.719  16.091  -1.679  1.00  0.00     0.031 C 
ATOM     41  C   UNL     1       9.824  16.478  -4.083  1.00  0.00     0.029 A 
ATOM     42  C   UNL     1       8.686  16.847  -4.907  1.00  0.00     0.049 A 
ATOM     43  H   UNL     1       6.713  16.205  -4.676  1.00  0.00     0.167 HD
ATOM     44  C   UNL     1       2.558  15.542  -3.884  1.00  0.00     0.037 A 
ATOM     45  C   UNL     1       8.616  17.665  -5.985  1.00  0.00     0.037 A 
ATOM     46  C   UNL     1       2.734  14.598  -4.954  1.00  0.00     0.049 A 
ATOM     47  C   UNL     1       7.367  17.343  -6.717  1.00  0.00     0.074 A 
ATOM     48  C   UNL     1       2.824  13.221  -5.027  1.00  0.00     0.029 A 
ATOM     49  N   UNL     1       3.166  15.048  -6.177  1.00  0.00    -0.354 N 
ATOM     50  N   UNL     1       7.170  16.239  -7.380  1.00  0.00    -0.248 NA
ATOM     51  C   UNL     1       6.168  18.091  -6.371  1.00  0.00     0.031 C 
ATOM     52  C   UNL     1       3.783  12.967  -6.053  1.00  0.00     0.029 A 
ATOM     53  C   UNL     1       4.179  14.205  -6.557  1.00  0.00     0.049 A 
ATOM     54  H   UNL     1       2.819  15.819  -6.679  1.00  0.00     0.167 HD
ATOM     55  C   UNL     1       5.834  15.939  -7.173  1.00  0.00     0.074 A 
ATOM     56  C   UNL     1       5.248  17.157  -6.621  1.00  0.00     0.031 C 
ATOM     57  C   UNL     1       5.382  14.652  -7.213  1.00  0.00     0.037 A 
BRANCH  44  58
ATOM     58  C   UNL     1       1.538  16.650  -3.951  1.00  0.00     0.064 A 
ATOM     59  C   UNL     1       0.410  16.517  -4.786  1.00  0.00     0.173 A 
ATOM     60  C   UNL     1       1.782  17.949  -3.458  1.00  0.00     0.173 A 
ATOM     61  F   UNL     1       0.099  15.331  -5.331  1.00  0.00    -0.203 F 
ATOM     62  C   UNL     1      -0.373  17.616  -5.151  1.00  0.00     0.198 A 
ATOM     63  C   UNL     1       0.968  19.034  -3.783  1.00  0.00     0.198 A 
ATOM     64  F   UNL     1       2.872  18.237  -2.737  1.00  0.00    -0.203 F 
ATOM     65  F   UNL     1      -1.364  17.462  -6.040  1.00  0.00    -0.200 F 
ATOM     66  C   UNL     1      -0.090  18.874  -4.653  1.00  0.00     0.200 A 
ATOM     67  F   UNL     1       1.270  20.250  -3.307  1.00  0.00    -0.200 F 
ATOM     68  F   UNL     1      -0.801  19.938  -5.048  1.00  0.00    -0.200 F 
ENDBRANCH  44  58
BRANCH  45  69
ATOM     69  C   UNL     1       9.355  18.925  -6.221  1.00  0.00     0.064 A 
ATOM     70  C   UNL     1       9.384  19.514  -7.495  1.00  0.00     0.173 A 
ATOM     71  C   UNL     1       9.770  19.733  -5.144  1.00  0.00     0.173 A 
ATOM     72  F   UNL     1       8.966  18.823  -8.566  1.00  0.00    -0.203 F 
ATOM     73  C   UNL     1       9.764  20.846  -7.677  1.00  0.00     0.198 A 
ATOM     74  C   UNL     1      10.155  21.060  -5.327  1.00  0.00     0.198 A 
ATOM     75  F   UNL     1       9.708  19.282  -3.883  1.00  0.00    -0.203 F 
ATOM     76  F   UNL     1       9.708  21.398  -8.897  1.00  0.00    -0.200 F 
ATOM     77  C   UNL     1      10.134  21.623  -6.591  1.00  0.00     0.200 A 
ATOM     78  F   UNL     1      10.474  21.812  -4.264  1.00  0.00    -0.200 F 
ATOM     79  F   UNL     1      10.427  22.920  -6.753  1.00  0.00    -0.200 F 
ENDBRANCH  45  69
BRANCH  57  80
ATOM     80  C   UNL     1       6.314  13.595  -7.728  1.00  0.00     0.064 A 
ATOM     81  C   UNL     1       7.535  13.264  -7.112  1.00  0.00     0.173 A 
ATOM     82  C   UNL     1       5.893  12.793  -8.797  1.00  0.00     0.173 A 
ATOM     83  F   UNL     1       7.954  13.915  -6.019  1.00  0.00    -0.203 F 
ATOM     84  C   UNL     1       8.316  12.209  -7.580  1.00  0.00     0.198 A 
ATOM     85  C   UNL     1       6.658  11.718  -9.239  1.00  0.00     0.198 A 
ATOM     86  F   UNL     1       4.708  13.025  -9.385  1.00  0.00    -0.203 F 
ATOM     87  F   UNL     1       9.482  11.919  -6.982  1.00  0.00    -0.200 F 
ATOM     88  C   UNL     1       7.874  11.433  -8.638  1.00  0.00     0.200 A 
ATOM     89  F   UNL     1       6.203  10.938 -10.229  1.00  0.00    -0.200 F 
ATOM     90  F   UNL     1       8.605  10.391  -9.061  1.00  0.00    -0.200 F 
ENDBRANCH  57  80
ENDBRANCH  31  32
ENDBRANCH  23  26
ENDBRANCH  21  22
ENDBRANCH  20  21
ENDBRANCH   1  20
TORSDOF 14
