REMARK SMILES COc1ccc(CCNC(=O)[C@@]2(C)CC[C@@H](C(=O)NCCCCCCNC(=O)c3ccc(-c4c5nc(c(-c6c(F)c(F)c(F)c(F)c6F)c6ccc([nH]6)c(-c6c(F)c(F)c(F)c(F)c6F)c6nc(c(-c7c(F)c(F)c(F)c(F)c7F)c7ccc4[nH]7)C=C6)C=C5)cc3)C2(C)C)cc1OC
REMARK SMILES IDX 21 1 20 2 19 3 17 4 18 5 16 7 12 8 13 9 14 10 92 11 15 12
REMARK SMILES IDX 93 13 94 14 10 15 9 16 11 18 8 19 7 20 6 21 3 22 4 23 96 24
REMARK SMILES IDX 5 25 95 26 2 27 1 28 97 29 98 30 22 31 23 32 24 33 25 34
REMARK SMILES IDX 26 35 27 36 28 38 29 39 30 40 91 41 31 42 90 43 32 44 33 45
REMARK SMILES IDX 34 46 84 47 35 48 89 49 83 50 85 51 36 52 88 53 82 54 81 55
REMARK SMILES IDX 37 57 69 58 49 59 68 60 50 61 53 62 67 63 86 64 51 65 52 66
REMARK SMILES IDX 66 68 87 69 54 70 38 71 39 72 47 73 40 74 41 75 45 76 48 77
REMARK SMILES IDX 42 78 43 79 46 80 44 81 70 82 71 83 79 84 72 85 73 86 77 87
REMARK SMILES IDX 80 88 74 89 75 90 78 91 76 92 55 93 56 94 64 95 57 96 58 97
REMARK SMILES IDX 62 98 65 99 59 100 60 101 63 102 61 103
REMARK H PARENT 19 6 9 17 26 37 85 56 53 67
REMARK Flexibility Score: inf
ROOT
ATOM      1  C   UNL     1      -3.599  -5.439   7.793  1.00  0.00     0.021 C 
ENDROOT
BRANCH   1   2
ATOM      2  C   UNL     1      -2.740  -5.785   9.006  1.00  0.00     0.116 C 
BRANCH   2   3
ATOM      3  N   UNL     1      -2.378  -7.182   9.052  1.00  0.00    -0.356 N 
ATOM      4  C   UNL     1      -1.169  -7.784   9.180  1.00  0.00     0.223 C 
ATOM      5  O   UNL     1      -1.158  -9.017   9.095  1.00  0.00    -0.275 OA
ATOM      6  H   UNL     1      -3.138  -7.803   8.977  1.00  0.00     0.163 HD
BRANCH   4   7
ATOM      7  C   UNL     1       0.154  -7.034   9.434  1.00  0.00     0.085 C 
ATOM      8  C   UNL     1       0.984  -4.693   8.934  1.00  0.00     0.052 C 
ATOM      9  C   UNL     1       2.424  -4.316   9.367  1.00  0.00     0.022 C 
ATOM     10  C   UNL     1       0.213  -4.755  10.300  1.00  0.00     0.018 C 
ATOM     11  C   UNL     1       0.804  -6.159   8.310  1.00  0.00    -0.010 C 
ATOM     12  C   UNL     1       0.166  -6.213  10.715  1.00  0.00     0.015 C 
ATOM     13  C   UNL     1      -0.016  -6.231   7.009  1.00  0.00     0.013 C 
ATOM     14  C   UNL     1       2.164  -6.803   7.929  1.00  0.00     0.013 C 
BRANCH   8  15
ATOM     15  C   UNL     1       0.365  -3.556   8.063  1.00  0.00     0.226 C 
ATOM     16  N   UNL     1       0.931  -3.086   6.919  1.00  0.00    -0.355 N 
ATOM     17  H   UNL     1       0.378  -2.414   6.459  1.00  0.00     0.163 HD
ATOM     18  O   UNL     1      -0.724  -3.045   8.352  1.00  0.00    -0.274 OA
BRANCH  16  19
ATOM     19  C   UNL     1       2.183  -3.368   6.235  1.00  0.00     0.120 C 
BRANCH  19  20
ATOM     20  C   UNL     1       2.014  -3.900   4.806  1.00  0.00     0.057 C 
BRANCH  20  21
ATOM     21  C   UNL     1       1.692  -2.837   3.793  1.00  0.00    -0.042 A 
ATOM     22  C   UNL     1       1.177  -0.821   1.914  1.00  0.00     0.160 A 
ATOM     23  C   UNL     1       0.136  -1.346   2.693  1.00  0.00     0.051 A 
ATOM     24  C   UNL     1       2.480  -1.308   2.064  1.00  0.00     0.160 A 
ATOM     25  C   UNL     1       0.390  -2.360   3.619  1.00  0.00     0.008 A 
ATOM     26  C   UNL     1       2.724  -2.307   3.009  1.00  0.00     0.054 A 
BRANCH  22  27
ATOM     27  O   UNL     1       0.923   0.256   1.109  1.00  0.00    -0.493 OA
ATOM     28  C   UNL     1       0.099  -0.079  -0.006  1.00  0.00     0.278 C 
ENDBRANCH  22  27
BRANCH  24  29
ATOM     29  O   UNL     1       3.612  -0.897   1.415  1.00  0.00    -0.493 OA
ATOM     30  C   UNL     1       3.446  -0.384   0.102  1.00  0.00     0.278 C 
ENDBRANCH  24  29
ENDBRANCH  20  21
ENDBRANCH  19  20
ENDBRANCH  16  19
ENDBRANCH   8  15
ENDBRANCH   4   7
ENDBRANCH   2   3
ENDBRANCH   1   2
BRANCH   1  31
ATOM     31  C   UNL     1      -5.060  -5.860   7.902  1.00  0.00     0.002 C 
BRANCH  31  32
ATOM     32  C   UNL     1      -5.819  -5.264   9.089  1.00  0.00     0.002 C 
BRANCH  32  33
ATOM     33  C   UNL     1      -5.713  -3.744   9.241  1.00  0.00     0.021 C 
BRANCH  33  34
ATOM     34  C   UNL     1      -6.049  -2.942   7.989  1.00  0.00     0.116 C 
BRANCH  34  35
ATOM     35  N   UNL     1      -7.388  -3.221   7.497  1.00  0.00    -0.352 N 
ATOM     36  C   UNL     1      -8.424  -2.357   7.269  1.00  0.00     0.251 C 
ATOM     37  H   UNL     1      -7.576  -4.167   7.300  1.00  0.00     0.163 HD
ATOM     38  O   UNL     1      -9.552  -2.787   7.025  1.00  0.00    -0.269 OA
BRANCH  36  39
ATOM     39  C   UNL     1      -8.193  -0.901   7.335  1.00  0.00     0.039 A 
ATOM     40  C   UNL     1      -9.093  -0.108   8.049  1.00  0.00     0.014 A 
ATOM     41  C   UNL     1      -7.095  -0.322   6.692  1.00  0.00     0.014 A 
ATOM     42  C   UNL     1      -8.863   1.264   8.160  1.00  0.00     0.010 A 
ATOM     43  C   UNL     1      -6.827   1.032   6.866  1.00  0.00     0.010 A 
ATOM     44  C   UNL     1      -7.713   1.840   7.595  1.00  0.00    -0.014 A 
BRANCH  44  45
ATOM     45  C   UNL     1      -7.431   3.289   7.748  1.00  0.00     0.031 A 
ATOM     46  C   UNL     1      -7.410   4.184   6.541  1.00  0.00     0.074 A 
ATOM     47  C   UNL     1      -7.148   3.787   8.967  1.00  0.00     0.049 A 
ATOM     48  N   UNL     1      -7.133   5.462   6.461  1.00  0.00    -0.248 NA
ATOM     49  C   UNL     1      -7.716   3.556   5.245  1.00  0.00     0.031 C 
ATOM     50  C   UNL     1      -7.095   3.010  10.206  1.00  0.00     0.029 A 
ATOM     51  N   UNL     1      -6.842   5.065   9.363  1.00  0.00    -0.354 N 
ATOM     52  C   UNL     1      -7.223   5.784   5.114  1.00  0.00     0.074 A 
ATOM     53  C   UNL     1      -7.522   4.560   4.403  1.00  0.00     0.031 C 
ATOM     54  C   UNL     1      -6.798   3.830  11.227  1.00  0.00     0.029 A 
ATOM     55  C   UNL     1      -6.599   5.181  10.710  1.00  0.00     0.049 A 
ATOM     56  H   UNL     1      -6.799   5.827   8.741  1.00  0.00     0.167 HD
ATOM     57  C   UNL     1      -7.093   6.997   4.526  1.00  0.00     0.037 A 
ATOM     58  C   UNL     1      -6.246   6.254  11.443  1.00  0.00     0.037 A 
ATOM     59  C   UNL     1      -6.815   8.216   5.240  1.00  0.00     0.049 A 
ATOM     60  C   UNL     1      -6.088   7.587  10.759  1.00  0.00     0.074 A 
ATOM     61  C   UNL     1      -6.718   9.503   4.743  1.00  0.00     0.029 A 
ATOM     62  N   UNL     1      -6.585   8.295   6.606  1.00  0.00    -0.354 N 
ATOM     63  N   UNL     1      -6.247   7.894   9.495  1.00  0.00    -0.248 NA
ATOM     64  C   UNL     1      -5.707   8.725  11.608  1.00  0.00     0.031 C 
ATOM     65  C   UNL     1      -6.376  10.354   5.798  1.00  0.00     0.029 A 
ATOM     66  C   UNL     1      -6.320   9.607   6.964  1.00  0.00     0.049 A 
ATOM     67  H   UNL     1      -6.607   7.532   7.228  1.00  0.00     0.167 HD
ATOM     68  C   UNL     1      -6.017   9.260   9.401  1.00  0.00     0.074 A 
ATOM     69  C   UNL     1      -5.725   9.726  10.740  1.00  0.00     0.031 C 
ATOM     70  C   UNL     1      -6.042  10.056   8.305  1.00  0.00     0.037 A 
BRANCH  57  71
ATOM     71  C   UNL     1      -7.255   7.070   3.034  1.00  0.00     0.064 A 
ATOM     72  C   UNL     1      -8.501   6.871   2.418  1.00  0.00     0.173 A 
ATOM     73  C   UNL     1      -6.163   7.390   2.214  1.00  0.00     0.173 A 
ATOM     74  F   UNL     1      -9.575   6.552   3.155  1.00  0.00    -0.203 F 
ATOM     75  C   UNL     1      -8.640   6.962   1.036  1.00  0.00     0.198 A 
ATOM     76  C   UNL     1      -6.313   7.512   0.835  1.00  0.00     0.198 A 
ATOM     77  F   UNL     1      -4.951   7.596   2.750  1.00  0.00    -0.203 F 
ATOM     78  F   UNL     1      -9.829   6.720   0.467  1.00  0.00    -0.200 F 
ATOM     79  C   UNL     1      -7.549   7.291   0.246  1.00  0.00     0.200 A 
ATOM     80  F   UNL     1      -5.260   7.844   0.074  1.00  0.00    -0.200 F 
ATOM     81  F   UNL     1      -7.687   7.389  -1.083  1.00  0.00    -0.200 F 
ENDBRANCH  57  71
BRANCH  58  82
ATOM     82  C   UNL     1      -6.030   6.121  12.908  1.00  0.00     0.064 A 
ATOM     83  C   UNL     1      -6.894   6.738  13.824  1.00  0.00     0.173 A 
ATOM     84  C   UNL     1      -4.946   5.395  13.423  1.00  0.00     0.173 A 
ATOM     85  F   UNL     1      -7.933   7.461  13.382  1.00  0.00    -0.203 F 
ATOM     86  C   UNL     1      -6.665   6.659  15.197  1.00  0.00     0.198 A 
ATOM     87  C   UNL     1      -4.737   5.289  14.797  1.00  0.00     0.198 A 
ATOM     88  F   UNL     1      -4.092   4.781  12.591  1.00  0.00    -0.203 F 
ATOM     89  F   UNL     1      -7.474   7.306  16.046  1.00  0.00    -0.200 F 
ATOM     90  C   UNL     1      -5.590   5.930  15.682  1.00  0.00     0.200 A 
ATOM     91  F   UNL     1      -3.706   4.571  15.262  1.00  0.00    -0.200 F 
ATOM     92  F   UNL     1      -5.370   5.855  17.002  1.00  0.00    -0.200 F 
ENDBRANCH  58  82
BRANCH  70  93
ATOM     93  C   UNL     1      -5.787  11.522   8.511  1.00  0.00     0.064 A 
ATOM     94  C   UNL     1      -4.515  12.011   8.842  1.00  0.00     0.173 A 
ATOM     95  C   UNL     1      -6.822  12.453   8.331  1.00  0.00     0.173 A 
ATOM     96  F   UNL     1      -3.495  11.161   9.039  1.00  0.00    -0.203 F 
ATOM     97  C   UNL     1      -4.295  13.375   9.013  1.00  0.00     0.198 A 
ATOM     98  C   UNL     1      -6.590  13.819   8.469  1.00  0.00     0.198 A 
ATOM     99  F   UNL     1      -8.056  12.040   8.006  1.00  0.00    -0.203 F 
ATOM    100  F   UNL     1      -3.083  13.815   9.379  1.00  0.00    -0.200 F 
ATOM    101  C   UNL     1      -5.329  14.278   8.818  1.00  0.00     0.200 A 
ATOM    102  F   UNL     1      -7.587  14.690   8.264  1.00  0.00    -0.200 F 
ATOM    103  F   UNL     1      -5.112  15.591   8.973  1.00  0.00    -0.200 F 
ENDBRANCH  70  93
ENDBRANCH  44  45
ENDBRANCH  36  39
ENDBRANCH  34  35
ENDBRANCH  33  34
ENDBRANCH  32  33
ENDBRANCH  31  32
ENDBRANCH   1  31
TORSDOF 19
