REMARK SMILES CCN(CC(C)(C)O)C(=O)N1CCC(OCC(=O)NCCCCCCNC(=O)c2ccc(-c3c4nc(c(-c5c(F)c(F)c(F)c(F)c5F)c5ccc([nH]5)c(-c5c(F)c(F)c(F)c(F)c5F)c5nc(c(-c6c(F)c(F)c(F)c(F)c6F)c6ccc3[nH]6)C=C5)C=C4)cc2)CC1
REMARK SMILES IDX 20 1 19 2 17 3 18 4 16 6 15 7 14 8 9 9 10 10 11 11 12 12
REMARK SMILES IDX 93 13 13 14 92 15 3 16 2 17 1 18 4 19 5 20 6 21 7 22 8 23
REMARK SMILES IDX 21 25 22 26 23 27 24 28 25 29 26 30 27 31 28 33 29 34 30 35
REMARK SMILES IDX 91 36 31 37 90 38 32 39 33 40 34 41 84 42 35 43 89 44 83 45
REMARK SMILES IDX 85 46 36 47 88 48 82 49 81 50 37 52 69 53 49 54 68 55 50 56
REMARK SMILES IDX 53 57 67 58 86 59 51 60 52 61 66 63 87 64 54 65 38 66 39 67
REMARK SMILES IDX 47 68 40 69 41 70 45 71 48 72 42 73 43 74 46 75 44 76 70 77
REMARK SMILES IDX 71 78 79 79 72 80 73 81 77 82 80 83 74 84 75 85 78 86 76 87
REMARK SMILES IDX 55 88 56 89 64 90 57 91 58 92 62 93 65 94 59 95 60 96 63 97
REMARK SMILES IDX 61 98
REMARK H PARENT 19 5 8 24 26 32 85 51 53 62
REMARK Flexibility Score: inf
ROOT
ATOM      1  C   UNL     1       5.133   2.642   8.570  1.00  0.00     0.116 C 
ENDROOT
BRANCH   1   2
ATOM      2  N   UNL     1       4.976   1.482   7.718  1.00  0.00    -0.354 N 
ATOM      3  C   UNL     1       5.597   1.181   6.540  1.00  0.00     0.246 C 
ATOM      4  O   UNL     1       5.390   0.072   6.043  1.00  0.00    -0.272 OA
ATOM      5  H   UNL     1       4.327   0.812   8.034  1.00  0.00     0.163 HD
BRANCH   3   6
ATOM      6  C   UNL     1       6.542   2.197   5.873  1.00  0.00     0.260 C 
BRANCH   6   7
ATOM      7  O   UNL     1       6.102   3.512   5.581  1.00  0.00    -0.368 OA
BRANCH   7   8
ATOM      8  C   UNL     1       5.121   3.690   4.554  1.00  0.00     0.122 C 
ATOM      9  C   UNL     1       2.542   1.708   2.175  1.00  0.00     0.320 C 
ATOM     10  O   UNL     1       3.271   0.978   1.495  1.00  0.00    -0.248 OA
ATOM     11  N   UNL     1       3.066   2.882   2.684  1.00  0.00    -0.324 N 
ATOM     12  C   UNL     1       4.348   3.379   2.174  1.00  0.00     0.124 C 
ATOM     13  C   UNL     1       2.694   3.465   3.947  1.00  0.00     0.124 C 
ATOM     14  C   UNL     1       5.482   3.123   3.175  1.00  0.00     0.054 C 
ATOM     15  C   UNL     1       3.748   3.219   5.003  1.00  0.00     0.054 C 
BRANCH   9  16
ATOM     16  N   UNL     1       1.202   1.369   2.404  1.00  0.00    -0.322 N 
BRANCH  16  17
ATOM     17  C   UNL     1       0.777   0.103   1.779  1.00  0.00     0.118 C 
ATOM     18  C   UNL     1       0.695   0.171   0.252  1.00  0.00     0.027 C 
ENDBRANCH  16  17
BRANCH  16  19
ATOM     19  C   UNL     1       0.093   2.277   2.805  1.00  0.00     0.155 C 
BRANCH  19  20
ATOM     20  C   UNL     1      -0.719   1.957   4.126  1.00  0.00     0.077 C 
ATOM     21  C   UNL     1       0.025   2.111   5.461  1.00  0.00     0.043 C 
ATOM     22  C   UNL     1      -1.931   2.902   4.169  1.00  0.00     0.043 C 
BRANCH  20  23
ATOM     23  O   UNL     1      -1.261   0.631   4.099  1.00  0.00    -0.389 OA
ATOM     24  H   UNL     1      -0.537  -0.014   4.071  1.00  0.00     0.211 HD
ENDBRANCH  20  23
ENDBRANCH  19  20
ENDBRANCH  16  19
ENDBRANCH   9  16
ENDBRANCH   7   8
ENDBRANCH   6   7
ENDBRANCH   3   6
ENDBRANCH   1   2
BRANCH   1  25
ATOM     25  C   UNL     1       3.815   3.373   8.841  1.00  0.00     0.021 C 
BRANCH  25  26
ATOM     26  C   UNL     1       2.668   2.513   9.385  1.00  0.00     0.002 C 
BRANCH  26  27
ATOM     27  C   UNL     1       2.958   1.783  10.699  1.00  0.00     0.002 C 
BRANCH  27  28
ATOM     28  C   UNL     1       3.474   2.666  11.836  1.00  0.00     0.021 C 
BRANCH  28  29
ATOM     29  C   UNL     1       2.561   3.824  12.220  1.00  0.00     0.116 C 
BRANCH  29  30
ATOM     30  N   UNL     1       1.317   3.377  12.825  1.00  0.00    -0.352 N 
ATOM     31  C   UNL     1       0.734   3.774  13.999  1.00  0.00     0.251 C 
ATOM     32  H   UNL     1       0.824   2.691  12.319  1.00  0.00     0.163 HD
ATOM     33  O   UNL     1      -0.240   3.158  14.441  1.00  0.00    -0.269 OA
BRANCH  31  34
ATOM     34  C   UNL     1       1.270   4.926  14.756  1.00  0.00     0.039 A 
ATOM     35  C   UNL     1       1.345   4.844  16.149  1.00  0.00     0.014 A 
ATOM     36  C   UNL     1       1.663   6.100  14.105  1.00  0.00     0.014 A 
ATOM     37  C   UNL     1       1.841   5.923  16.885  1.00  0.00     0.010 A 
ATOM     38  C   UNL     1       2.233   7.143  14.833  1.00  0.00     0.010 A 
ATOM     39  C   UNL     1       2.304   7.077  16.232  1.00  0.00    -0.014 A 
BRANCH  39  40
ATOM     40  C   UNL     1       2.806   8.245  17.003  1.00  0.00     0.031 A 
ATOM     41  C   UNL     1       2.064   9.555  16.948  1.00  0.00     0.074 A 
ATOM     42  C   UNL     1       3.938   8.143  17.724  1.00  0.00     0.049 A 
ATOM     43  N   UNL     1       2.355  10.700  17.514  1.00  0.00    -0.248 NA
ATOM     44  C   UNL     1       0.846   9.591  16.122  1.00  0.00     0.031 C 
ATOM     45  C   UNL     1       4.771   6.944  17.828  1.00  0.00     0.029 A 
ATOM     46  N   UNL     1       4.586   9.066  18.507  1.00  0.00    -0.354 N 
ATOM     47  C   UNL     1       1.367  11.586  17.105  1.00  0.00     0.074 A 
ATOM     48  C   UNL     1       0.507  10.868  16.190  1.00  0.00     0.031 C 
ATOM     49  C   UNL     1       5.802   7.196  18.651  1.00  0.00     0.029 A 
ATOM     50  C   UNL     1       5.723   8.580  19.106  1.00  0.00     0.049 A 
ATOM     51  H   UNL     1       4.266   9.990  18.628  1.00  0.00     0.167 HD
ATOM     52  C   UNL     1       1.171  12.873  17.481  1.00  0.00     0.037 A 
ATOM     53  C   UNL     1       6.598   9.186  19.931  1.00  0.00     0.037 A 
ATOM     54  C   UNL     1       2.013  13.581  18.411  1.00  0.00     0.049 A 
ATOM     55  C   UNL     1       6.360  10.619  20.331  1.00  0.00     0.074 A 
ATOM     56  C   UNL     1       1.884  14.875  18.883  1.00  0.00     0.029 A 
ATOM     57  N   UNL     1       3.143  13.047  19.013  1.00  0.00    -0.354 N 
ATOM     58  N   UNL     1       5.391  11.429  19.982  1.00  0.00    -0.248 NA
ATOM     59  C   UNL     1       7.335  11.215  21.255  1.00  0.00     0.031 C 
ATOM     60  C   UNL     1       2.959  15.139  19.739  1.00  0.00     0.029 A 
ATOM     61  C   UNL     1       3.726  13.990  19.845  1.00  0.00     0.049 A 
ATOM     62  H   UNL     1       3.482  12.134  18.870  1.00  0.00     0.167 HD
ATOM     63  C   UNL     1       5.614  12.613  20.674  1.00  0.00     0.074 A 
ATOM     64  C   UNL     1       6.803  12.408  21.474  1.00  0.00     0.031 C 
ATOM     65  C   UNL     1       4.899  13.765  20.650  1.00  0.00     0.037 A 
BRANCH  52  66
ATOM     66  C   UNL     1      -0.006  13.597  16.890  1.00  0.00     0.064 A 
ATOM     67  C   UNL     1      -1.325  13.248  17.221  1.00  0.00     0.173 A 
ATOM     68  C   UNL     1       0.184  14.666  16.002  1.00  0.00     0.173 A 
ATOM     69  F   UNL     1      -1.564  12.224  18.055  1.00  0.00    -0.203 F 
ATOM     70  C   UNL     1      -2.408  13.919  16.660  1.00  0.00     0.198 A 
ATOM     71  C   UNL     1      -0.902  15.357  15.469  1.00  0.00     0.198 A 
ATOM     72  F   UNL     1       1.422  15.046  15.654  1.00  0.00    -0.203 F 
ATOM     73  F   UNL     1      -3.658  13.528  16.946  1.00  0.00    -0.200 F 
ATOM     74  C   UNL     1      -2.196  14.978  15.790  1.00  0.00     0.200 A 
ATOM     75  F   UNL     1      -0.694  16.389  14.639  1.00  0.00    -0.200 F 
ATOM     76  F   UNL     1      -3.239  15.626  15.255  1.00  0.00    -0.200 F 
ENDBRANCH  52  66
BRANCH  53  77
ATOM     77  C   UNL     1       7.762   8.434  20.471  1.00  0.00     0.064 A 
ATOM     78  C   UNL     1       7.845   8.119  21.836  1.00  0.00     0.173 A 
ATOM     79  C   UNL     1       8.825   8.040  19.647  1.00  0.00     0.173 A 
ATOM     80  F   UNL     1       6.863   8.492  22.669  1.00  0.00    -0.203 F 
ATOM     81  C   UNL     1       8.961   7.471  22.360  1.00  0.00     0.198 A 
ATOM     82  C   UNL     1       9.927   7.362  20.166  1.00  0.00     0.198 A 
ATOM     83  F   UNL     1       8.793   8.310  18.334  1.00  0.00    -0.203 F 
ATOM     84  F   UNL     1       9.041   7.237  23.677  1.00  0.00    -0.200 F 
ATOM     85  C   UNL     1       9.999   7.089  21.524  1.00  0.00     0.200 A 
ATOM     86  F   UNL     1      10.921   6.982  19.353  1.00  0.00    -0.200 F 
ATOM     87  F   UNL     1      11.074   6.468  22.028  1.00  0.00    -0.200 F 
ENDBRANCH  53  77
BRANCH  65  88
ATOM     88  C   UNL     1       5.349  14.870  21.563  1.00  0.00     0.064 A 
ATOM     89  C   UNL     1       6.544  15.573  21.348  1.00  0.00     0.173 A 
ATOM     90  C   UNL     1       4.563  15.237  22.667  1.00  0.00     0.173 A 
ATOM     91  F   UNL     1       7.339  15.254  20.315  1.00  0.00    -0.203 F 
ATOM     92  C   UNL     1       6.957  16.570  22.229  1.00  0.00     0.198 A 
ATOM     93  C   UNL     1       4.961  16.259  23.524  1.00  0.00     0.198 A 
ATOM     94  F   UNL     1       3.405  14.606  22.914  1.00  0.00    -0.203 F 
ATOM     95  F   UNL     1       8.136  17.180  22.041  1.00  0.00    -0.200 F 
ATOM     96  C   UNL     1       6.164  16.916  23.312  1.00  0.00     0.200 A 
ATOM     97  F   UNL     1       4.184  16.603  24.561  1.00  0.00    -0.200 F 
ATOM     98  F   UNL     1       6.563  17.874  24.158  1.00  0.00    -0.200 F 
ENDBRANCH  65  88
ENDBRANCH  39  40
ENDBRANCH  31  34
ENDBRANCH  29  30
ENDBRANCH  28  29
ENDBRANCH  27  28
ENDBRANCH  26  27
ENDBRANCH  25  26
ENDBRANCH   1  25
TORSDOF 20
