REMARK SMILES Cc1cc(Br)cc2c1O[C@H](C(F)(F)F)C(C(=O)NCCCCCCNC(=O)c1ccc(-c3c4nc(c(-c5c(F)c(F)c(F)c(F)c5F)c5ccc([nH]5)c(-c5c(F)c(F)c(F)c(F)c5F)c5nc(c(-c6c(F)c(F)c(F)c(F)c6F)c6ccc3[nH]6)C=C5)C=C4)cc1)=C2
REMARK SMILES IDX 22 1 21 2 20 3 19 4 18 5 16 6 17 7 15 9 1 10 2 11 3 12 8 13
REMARK SMILES IDX 4 14 7 15 9 16 5 17 6 18 91 19 10 20 11 21 12 22 13 23 14 24
REMARK SMILES IDX 23 25 24 26 25 27 26 28 27 30 28 31 29 32 90 33 30 34 89 35
REMARK SMILES IDX 31 36 32 37 33 38 83 39 34 40 88 41 82 42 84 43 35 44 87 45
REMARK SMILES IDX 81 46 80 47 36 49 68 50 48 51 67 52 49 53 52 54 66 55 85 56
REMARK SMILES IDX 50 57 51 58 65 60 86 61 53 62 37 63 38 64 46 65 39 66 40 67
REMARK SMILES IDX 44 68 47 69 41 70 42 71 45 72 43 73 69 74 70 75 78 76 71 77
REMARK SMILES IDX 72 78 76 79 79 80 73 81 74 82 77 83 75 84 54 85 55 86 63 87
REMARK SMILES IDX 56 88 57 89 61 90 64 91 58 92 59 93 62 94 60 95
REMARK H PARENT 18 8 25 29 84 48 52 59
REMARK Flexibility Score: inf
ROOT
ATOM      1  C   UNL     1      -0.426  -9.224  -2.484  1.00  0.00     0.002 C 
ENDROOT
BRANCH   1   2
ATOM      2  C   UNL     1      -1.670  -8.328  -2.550  1.00  0.00     0.002 C 
BRANCH   2   3
ATOM      3  C   UNL     1      -1.478  -6.915  -1.994  1.00  0.00     0.021 C 
BRANCH   3   4
ATOM      4  C   UNL     1      -0.329  -6.158  -2.650  1.00  0.00     0.116 C 
BRANCH   4   5
ATOM      5  N   UNL     1      -0.745  -5.504  -3.877  1.00  0.00    -0.352 N 
ATOM      6  C   UNL     1      -0.781  -4.242  -4.365  1.00  0.00     0.251 C 
ATOM      7  O   UNL     1      -1.201  -4.135  -5.522  1.00  0.00    -0.270 OA
ATOM      8  H   UNL     1      -1.095  -6.152  -4.530  1.00  0.00     0.163 HD
BRANCH   6   9
ATOM      9  C   UNL     1      -0.364  -3.019  -3.615  1.00  0.00     0.067 C 
ATOM     10  C   UNL     1       1.018   0.454  -0.087  1.00  0.00     0.048 C 
ATOM     11  C   UNL     1       0.497   0.514  -1.496  1.00  0.00    -0.007 A 
ATOM     12  C   UNL     1       0.370   1.746  -2.146  1.00  0.00     0.023 A 
ATOM     13  C   UNL     1       0.192  -0.656  -2.205  1.00  0.00     0.130 A 
ATOM     14  C   UNL     1      -0.087   1.799  -3.463  1.00  0.00     0.019 A 
ATOM     15  C   UNL     1      -0.278  -0.606  -3.522  1.00  0.00     0.019 A 
ATOM     16  O   UNL     1       0.332  -1.830  -1.528  1.00  0.00    -0.475 OA
ATOM     17  Br  UNL     1      -0.268   3.475  -4.320  1.00  0.00    -0.051 Br
ATOM     18  C   UNL     1      -0.418   0.632  -4.153  1.00  0.00     0.027 A 
ATOM     19  C   UNL     1      -0.654  -1.842  -4.199  1.00  0.00     0.025 C 
ATOM     20  C   UNL     1       0.361  -3.051  -2.303  1.00  0.00     0.314 C 
BRANCH  20  21
ATOM     21  C   UNL     1       1.820  -3.523  -2.437  1.00  0.00     0.429 C 
ATOM     22  F   UNL     1       2.305  -3.903  -1.227  1.00  0.00    -0.167 F 
ATOM     23  F   UNL     1       1.953  -4.596  -3.250  1.00  0.00    -0.167 F 
ATOM     24  F   UNL     1       2.636  -2.560  -2.917  1.00  0.00    -0.167 F 
ENDBRANCH  20  21
ENDBRANCH   6   9
ENDBRANCH   4   5
ENDBRANCH   3   4
ENDBRANCH   2   3
ENDBRANCH   1   2
BRANCH   1  25
ATOM     25  C   UNL     1       0.260  -9.285  -1.116  1.00  0.00     0.021 C 
BRANCH  25  26
ATOM     26  C   UNL     1      -0.645  -9.755   0.016  1.00  0.00     0.116 C 
BRANCH  26  27
ATOM     27  N   UNL     1      -1.157 -11.094  -0.226  1.00  0.00    -0.352 N 
ATOM     28  C   UNL     1      -1.001 -12.228   0.526  1.00  0.00     0.251 C 
ATOM     29  H   UNL     1      -1.690 -11.201  -1.046  1.00  0.00     0.163 HD
ATOM     30  O   UNL     1      -1.303 -13.327   0.069  1.00  0.00    -0.269 OA
BRANCH  28  31
ATOM     31  C   UNL     1      -0.456 -12.123   1.893  1.00  0.00     0.039 A 
ATOM     32  C   UNL     1       0.536 -13.018   2.297  1.00  0.00     0.014 A 
ATOM     33  C   UNL     1      -0.929 -11.142   2.771  1.00  0.00     0.014 A 
ATOM     34  C   UNL     1       1.089 -12.899   3.571  1.00  0.00     0.010 A 
ATOM     35  C   UNL     1      -0.323 -10.976   4.011  1.00  0.00     0.010 A 
ATOM     36  C   UNL     1       0.682 -11.861   4.427  1.00  0.00    -0.014 A 
BRANCH  36  37
ATOM     37  C   UNL     1       1.281 -11.707   5.774  1.00  0.00     0.031 A 
ATOM     38  C   UNL     1       0.433 -11.909   6.997  1.00  0.00     0.074 A 
ATOM     39  C   UNL     1       2.576 -11.357   5.892  1.00  0.00     0.049 A 
ATOM     40  N   UNL     1       0.762 -11.792   8.259  1.00  0.00    -0.248 NA
ATOM     41  C   UNL     1      -0.977 -12.269   6.776  1.00  0.00     0.031 C 
ATOM     42  C   UNL     1       3.486 -11.105   4.774  1.00  0.00     0.029 A 
ATOM     43  N   UNL     1       3.352 -11.156   7.005  1.00  0.00    -0.354 N 
ATOM     44  C   UNL     1      -0.395 -12.068   8.975  1.00  0.00     0.074 A 
ATOM     45  C   UNL     1      -1.451 -12.289   8.013  1.00  0.00     0.031 C 
ATOM     46  C   UNL     1       4.706 -10.820   5.257  1.00  0.00     0.029 A 
ATOM     47  C   UNL     1       4.655 -10.830   6.716  1.00  0.00     0.049 A 
ATOM     48  H   UNL     1       3.008 -11.238   7.924  1.00  0.00     0.167 HD
ATOM     49  C   UNL     1      -0.551 -12.162  10.316  1.00  0.00     0.037 A 
ATOM     50  C   UNL     1       5.690 -10.570   7.538  1.00  0.00     0.037 A 
ATOM     51  C   UNL     1       0.508 -11.960  11.268  1.00  0.00     0.049 A 
ATOM     52  C   UNL     1       5.477 -10.639   9.027  1.00  0.00     0.074 A 
ATOM     53  C   UNL     1       0.459 -12.066  12.646  1.00  0.00     0.029 A 
ATOM     54  N   UNL     1       1.809 -11.609  10.938  1.00  0.00    -0.354 N 
ATOM     55  N   UNL     1       4.392 -10.953   9.693  1.00  0.00    -0.248 NA
ATOM     56  C   UNL     1       6.631 -10.319   9.878  1.00  0.00     0.031 C 
ATOM     57  C   UNL     1       1.716 -11.731  13.154  1.00  0.00     0.029 A 
ATOM     58  C   UNL     1       2.566 -11.470  12.090  1.00  0.00     0.049 A 
ATOM     59  H   UNL     1       2.145 -11.478  10.022  1.00  0.00     0.167 HD
ATOM     60  C   UNL     1       4.737 -10.893  11.036  1.00  0.00     0.074 A 
ATOM     61  C   UNL     1       6.138 -10.530  11.091  1.00  0.00     0.031 C 
ATOM     62  C   UNL     1       3.962 -11.115  12.126  1.00  0.00     0.037 A 
BRANCH  49  63
ATOM     63  C   UNL     1      -1.912 -12.521  10.838  1.00  0.00     0.064 A 
ATOM     64  C   UNL     1      -2.446 -13.807  10.664  1.00  0.00     0.173 A 
ATOM     65  C   UNL     1      -2.663 -11.593  11.576  1.00  0.00     0.173 A 
ATOM     66  F   UNL     1      -1.774 -14.727   9.955  1.00  0.00    -0.203 F 
ATOM     67  C   UNL     1      -3.688 -14.146  11.195  1.00  0.00     0.198 A 
ATOM     68  C   UNL     1      -3.890 -11.945  12.132  1.00  0.00     0.198 A 
ATOM     69  F   UNL     1      -2.198 -10.351  11.774  1.00  0.00    -0.203 F 
ATOM     70  F   UNL     1      -4.194 -15.368  10.983  1.00  0.00    -0.200 F 
ATOM     71  C   UNL     1      -4.403 -13.219  11.938  1.00  0.00     0.200 A 
ATOM     72  F   UNL     1      -4.574 -11.053  12.862  1.00  0.00    -0.200 F 
ATOM     73  F   UNL     1      -5.589 -13.553  12.464  1.00  0.00    -0.200 F 
ENDBRANCH  49  63
BRANCH  50  74
ATOM     74  C   UNL     1       7.027 -10.260   6.968  1.00  0.00     0.064 A 
ATOM     75  C   UNL     1       8.092 -11.161   7.106  1.00  0.00     0.173 A 
ATOM     76  C   UNL     1       7.267  -9.072   6.262  1.00  0.00     0.173 A 
ATOM     77  F   UNL     1       7.919 -12.301   7.790  1.00  0.00    -0.203 F 
ATOM     78  C   UNL     1       9.348 -10.880   6.571  1.00  0.00     0.198 A 
ATOM     79  C   UNL     1       8.515  -8.806   5.701  1.00  0.00     0.198 A 
ATOM     80  F   UNL     1       6.281  -8.177   6.097  1.00  0.00    -0.203 F 
ATOM     81  F   UNL     1      10.358 -11.742   6.751  1.00  0.00    -0.200 F 
ATOM     82  C   UNL     1       9.556  -9.707   5.862  1.00  0.00     0.200 A 
ATOM     83  F   UNL     1       8.707  -7.679   5.003  1.00  0.00    -0.200 F 
ATOM     84  F   UNL     1      10.760  -9.444   5.337  1.00  0.00    -0.200 F 
ENDBRANCH  50  74
BRANCH  62  85
ATOM     85  C   UNL     1       4.605 -10.992  13.476  1.00  0.00     0.064 A 
ATOM     86  C   UNL     1       4.960  -9.743  14.006  1.00  0.00     0.173 A 
ATOM     87  C   UNL     1       4.788 -12.125  14.284  1.00  0.00     0.173 A 
ATOM     88  F   UNL     1       4.816  -8.631  13.270  1.00  0.00    -0.203 F 
ATOM     89  C   UNL     1       5.486  -9.635  15.291  1.00  0.00     0.198 A 
ATOM     90  C   UNL     1       5.283 -12.009  15.579  1.00  0.00     0.198 A 
ATOM     91  F   UNL     1       4.455 -13.342  13.827  1.00  0.00    -0.203 F 
ATOM     92  F   UNL     1       5.849  -8.435  15.764  1.00  0.00    -0.200 F 
ATOM     93  C   UNL     1       5.635 -10.766  16.080  1.00  0.00     0.200 A 
ATOM     94  F   UNL     1       5.408 -13.101  16.347  1.00  0.00    -0.200 F 
ATOM     95  F   UNL     1       6.120 -10.656  17.325  1.00  0.00    -0.200 F 
ENDBRANCH  62  85
ENDBRANCH  36  37
ENDBRANCH  28  31
ENDBRANCH  26  27
ENDBRANCH  25  26
ENDBRANCH   1  25
TORSDOF 14
