REMARK SMILES Cc1cccc(N2C(=O)/C(=C/c3ccc(C(=O)NCCCCCCNC(=O)c4ccc(-c5c6nc(c(-c7c(F)c(F)c(F)c(F)c7F)c7ccc([nH]7)c(-c7c(F)c(F)c(F)c(F)c7F)c7nc(c(-c8c(F)c(F)c(F)c(F)c8F)c8ccc5[nH]8)C=C7)C=C6)cc4)cc3)c3ccccc3C2=O)c1
REMARK SMILES IDX 21 1 20 2 19 3 18 4 16 5 17 6 15 8 12 9 13 10 92 11 14 12
REMARK SMILES IDX 91 13 11 14 7 15 8 16 99 17 9 18 10 19 98 20 100 21 93 22
REMARK SMILES IDX 97 23 94 24 96 25 95 26 6 27 1 28 2 29 3 30 101 31 4 32 5 33
REMARK SMILES IDX 22 34 23 35 24 36 25 37 26 38 27 40 28 41 29 42 90 43 30 44
REMARK SMILES IDX 89 45 31 46 32 47 33 48 83 49 34 50 88 51 82 52 84 53 35 54
REMARK SMILES IDX 87 55 81 56 80 57 36 59 68 60 48 61 67 62 49 63 52 64 66 65
REMARK SMILES IDX 85 66 50 67 51 68 65 70 86 71 53 72 37 73 38 74 46 75 39 76
REMARK SMILES IDX 40 77 44 78 47 79 41 80 42 81 45 82 43 83 69 84 70 85 78 86
REMARK SMILES IDX 71 87 72 88 76 89 79 90 73 91 74 92 77 93 75 94 54 95 55 96
REMARK SMILES IDX 63 97 56 98 57 99 61 100 64 101 58 102 59 103 62 104 60 105
REMARK H PARENT 18 7 25 39 84 58 52 69
REMARK Flexibility Score: inf
ROOT
ATOM      1  C   UNL     1      -6.940  12.358   2.103  1.00  0.00     0.002 C 
ENDROOT
BRANCH   1   2
ATOM      2  C   UNL     1      -5.981  11.162   2.110  1.00  0.00     0.021 C 
BRANCH   2   3
ATOM      3  C   UNL     1      -5.665  10.510   0.764  1.00  0.00     0.116 C 
BRANCH   3   4
ATOM      4  N   UNL     1      -5.071  11.413  -0.204  1.00  0.00    -0.352 N 
ATOM      5  C   UNL     1      -4.093  11.166  -1.140  1.00  0.00     0.251 C 
ATOM      6  O   UNL     1      -3.685  12.076  -1.855  1.00  0.00    -0.269 OA
ATOM      7  H   UNL     1      -5.417  12.334  -0.188  1.00  0.00     0.163 HD
BRANCH   5   8
ATOM      8  C   UNL     1      -3.481   9.822  -1.249  1.00  0.00     0.039 A 
ATOM      9  C   UNL     1      -2.243   7.313  -1.170  1.00  0.00    -0.025 A 
ATOM     10  C   UNL     1      -1.468   8.479  -1.197  1.00  0.00     0.009 A 
ATOM     11  C   UNL     1      -3.634   7.410  -1.316  1.00  0.00     0.009 A 
ATOM     12  C   UNL     1      -2.086   9.731  -1.239  1.00  0.00     0.014 A 
ATOM     13  C   UNL     1      -4.253   8.662  -1.353  1.00  0.00     0.014 A 
BRANCH   9  14
ATOM     14  C   UNL     1      -1.574   6.020  -0.967  1.00  0.00     0.022 C 
ATOM     15  N   UNL     1      -1.733   2.654   0.310  1.00  0.00    -0.242 N 
ATOM     16  C   UNL     1      -1.056   3.812  -0.126  1.00  0.00     0.265 C 
ATOM     17  C   UNL     1      -3.065   2.718   0.773  1.00  0.00     0.265 C 
ATOM     18  O   UNL     1       0.057   3.860  -0.650  1.00  0.00    -0.268 OA
ATOM     19  C   UNL     1      -1.836   5.097  -0.012  1.00  0.00     0.049 C 
ATOM     20  C   UNL     1      -3.521   4.004   1.353  1.00  0.00     0.048 A 
ATOM     21  O   UNL     1      -3.902   1.818   0.780  1.00  0.00    -0.268 OA
ATOM     22  C   UNL     1      -2.862   5.184   1.028  1.00  0.00    -0.000 A 
ATOM     23  C   UNL     1      -4.599   4.014   2.253  1.00  0.00     0.014 A 
ATOM     24  C   UNL     1      -3.218   6.361   1.706  1.00  0.00     0.010 A 
ATOM     25  C   UNL     1      -4.990   5.202   2.867  1.00  0.00     0.001 A 
ATOM     26  C   UNL     1      -4.285   6.373   2.608  1.00  0.00     0.001 A 
BRANCH  15  27
ATOM     27  C   UNL     1      -1.073   1.353   0.176  1.00  0.00     0.053 A 
ATOM     28  C   UNL     1       2.493  -0.078   0.015  1.00  0.00     0.044 C 
ATOM     29  C   UNL     1       0.994  -0.000   0.040  1.00  0.00    -0.049 A 
ATOM     30  C   UNL     1       0.240  -1.167  -0.062  1.00  0.00     0.003 A 
ATOM     31  C   UNL     1       0.334   1.237   0.177  1.00  0.00     0.030 A 
ATOM     32  C   UNL     1      -1.145  -1.093  -0.040  1.00  0.00     0.002 A 
ATOM     33  C   UNL     1      -1.787   0.147   0.073  1.00  0.00     0.027 A 
ENDBRANCH  15  27
ENDBRANCH   9  14
ENDBRANCH   5   8
ENDBRANCH   3   4
ENDBRANCH   2   3
ENDBRANCH   1   2
BRANCH   1  34
ATOM     34  C   UNL     1      -8.274  12.198   1.361  1.00  0.00     0.002 C 
BRANCH  34  35
ATOM     35  C   UNL     1      -9.095  10.947   1.674  1.00  0.00     0.021 C 
BRANCH  35  36
ATOM     36  C   UNL     1      -9.588  10.834   3.111  1.00  0.00     0.116 C 
BRANCH  36  37
ATOM     37  N   UNL     1     -10.917  11.376   3.353  1.00  0.00    -0.352 N 
ATOM     38  C   UNL     1     -11.623  11.490   4.545  1.00  0.00     0.251 C 
ATOM     39  H   UNL     1     -11.386  11.710   2.554  1.00  0.00     0.163 HD
ATOM     40  O   UNL     1     -12.761  11.911   4.547  1.00  0.00    -0.269 OA
BRANCH  38  41
ATOM     41  C   UNL     1     -10.928  11.219   5.834  1.00  0.00     0.039 A 
ATOM     42  C   UNL     1     -11.097  12.136   6.881  1.00  0.00     0.014 A 
ATOM     43  C   UNL     1      -9.983  10.207   5.947  1.00  0.00     0.014 A 
ATOM     44  C   UNL     1     -10.149  12.192   7.904  1.00  0.00     0.010 A 
ATOM     45  C   UNL     1      -8.982  10.332   6.888  1.00  0.00     0.010 A 
ATOM     46  C   UNL     1      -9.028  11.368   7.826  1.00  0.00    -0.014 A 
BRANCH  46  47
ATOM     47  C   UNL     1      -7.799  11.588   8.581  1.00  0.00     0.031 A 
ATOM     48  C   UNL     1      -7.366  10.644   9.632  1.00  0.00     0.074 A 
ATOM     49  C   UNL     1      -6.956  12.571   8.188  1.00  0.00     0.049 A 
ATOM     50  N   UNL     1      -6.474  10.921  10.522  1.00  0.00    -0.248 NA
ATOM     51  C   UNL     1      -7.920   9.304   9.775  1.00  0.00     0.031 C 
ATOM     52  C   UNL     1      -5.546  12.720   8.543  1.00  0.00     0.029 A 
ATOM     53  N   UNL     1      -7.269  13.763   7.514  1.00  0.00    -0.354 N 
ATOM     54  C   UNL     1      -6.138   9.753  11.165  1.00  0.00     0.074 A 
ATOM     55  C   UNL     1      -7.106   8.785  10.700  1.00  0.00     0.031 C 
ATOM     56  C   UNL     1      -5.190  14.002   8.376  1.00  0.00     0.029 A 
ATOM     57  C   UNL     1      -6.396  14.741   8.054  1.00  0.00     0.049 A 
ATOM     58  H   UNL     1      -7.950  13.892   6.815  1.00  0.00     0.167 HD
ATOM     59  C   UNL     1      -5.007   9.716  11.929  1.00  0.00     0.037 A 
ATOM     60  C   UNL     1      -6.878  15.805   8.760  1.00  0.00     0.037 A 
ATOM     61  C   UNL     1      -4.346  11.018  11.984  1.00  0.00     0.049 A 
ATOM     62  C   UNL     1      -6.396  15.898  10.193  1.00  0.00     0.074 A 
ATOM     63  C   UNL     1      -3.244  11.579  11.358  1.00  0.00     0.029 A 
ATOM     64  N   UNL     1      -5.003  12.066  12.600  1.00  0.00    -0.354 N 
ATOM     65  N   UNL     1      -5.648  15.003  10.774  1.00  0.00    -0.248 NA
ATOM     66  C   UNL     1      -6.810  16.957  11.116  1.00  0.00     0.031 C 
ATOM     67  C   UNL     1      -3.233  12.975  11.638  1.00  0.00     0.029 A 
ATOM     68  C   UNL     1      -4.333  13.259  12.424  1.00  0.00     0.049 A 
ATOM     69  H   UNL     1      -5.845  11.973  13.102  1.00  0.00     0.167 HD
ATOM     70  C   UNL     1      -5.542  15.296  12.108  1.00  0.00     0.074 A 
ATOM     71  C   UNL     1      -6.276  16.534  12.275  1.00  0.00     0.031 C 
ATOM     72  C   UNL     1      -4.904  14.470  12.985  1.00  0.00     0.037 A 
BRANCH  59  73
ATOM     73  C   UNL     1      -4.372   8.449  12.456  1.00  0.00     0.064 A 
ATOM     74  C   UNL     1      -2.979   8.379  12.684  1.00  0.00     0.173 A 
ATOM     75  C   UNL     1      -5.070   7.260  12.731  1.00  0.00     0.173 A 
ATOM     76  F   UNL     1      -2.195   9.460  12.586  1.00  0.00    -0.203 F 
ATOM     77  C   UNL     1      -2.331   7.189  13.023  1.00  0.00     0.198 A 
ATOM     78  C   UNL     1      -4.418   6.055  13.013  1.00  0.00     0.198 A 
ATOM     79  F   UNL     1      -6.407   7.237  12.797  1.00  0.00    -0.203 F 
ATOM     80  F   UNL     1      -1.005   7.187  13.216  1.00  0.00    -0.200 F 
ATOM     81  C   UNL     1      -3.046   6.017  13.145  1.00  0.00     0.200 A 
ATOM     82  F   UNL     1      -5.134   4.931  13.159  1.00  0.00    -0.200 F 
ATOM     83  F   UNL     1      -2.420   4.865  13.418  1.00  0.00    -0.200 F 
ENDBRANCH  59  73
BRANCH  60  84
ATOM     84  C   UNL     1      -8.220  16.234   8.286  1.00  0.00     0.064 A 
ATOM     85  C   UNL     1      -8.339  16.706   6.964  1.00  0.00     0.173 A 
ATOM     86  C   UNL     1      -9.385  15.812   8.934  1.00  0.00     0.173 A 
ATOM     87  F   UNL     1      -7.248  17.115   6.297  1.00  0.00    -0.203 F 
ATOM     88  C   UNL     1      -9.549  16.633   6.279  1.00  0.00     0.198 A 
ATOM     89  C   UNL     1     -10.599  15.758   8.250  1.00  0.00     0.198 A 
ATOM     90  F   UNL     1      -9.330  15.332  10.185  1.00  0.00    -0.203 F 
ATOM     91  F   UNL     1      -9.605  16.968   4.982  1.00  0.00    -0.200 F 
ATOM     92  C   UNL     1     -10.672  16.130   6.915  1.00  0.00     0.200 A 
ATOM     93  F   UNL     1     -11.680  15.245   8.855  1.00  0.00    -0.200 F 
ATOM     94  F   UNL     1     -11.812  15.961   6.231  1.00  0.00    -0.200 F 
ENDBRANCH  60  84
BRANCH  72  95
ATOM     95  C   UNL     1      -4.772  14.732  14.456  1.00  0.00     0.064 A 
ATOM     96  C   UNL     1      -4.377  15.977  14.967  1.00  0.00     0.173 A 
ATOM     97  C   UNL     1      -4.912  13.689  15.398  1.00  0.00     0.173 A 
ATOM     98  F   UNL     1      -4.166  17.018  14.148  1.00  0.00    -0.203 F 
ATOM     99  C   UNL     1      -4.164  16.171  16.335  1.00  0.00     0.198 A 
ATOM    100  C   UNL     1      -4.649  13.872  16.753  1.00  0.00     0.198 A 
ATOM    101  F   UNL     1      -5.332  12.469  15.033  1.00  0.00    -0.203 F 
ATOM    102  F   UNL     1      -3.830  17.387  16.789  1.00  0.00    -0.200 F 
ATOM    103  C   UNL     1      -4.285  15.117  17.224  1.00  0.00     0.200 A 
ATOM    104  F   UNL     1      -4.753  12.835  17.596  1.00  0.00    -0.200 F 
ATOM    105  F   UNL     1      -4.054  15.300  18.531  1.00  0.00    -0.200 F 
ENDBRANCH  72  95
ENDBRANCH  46  47
ENDBRANCH  38  41
ENDBRANCH  36  37
ENDBRANCH  35  36
ENDBRANCH  34  35
ENDBRANCH   1  34
TORSDOF 15
