REMARK SMILES O=C(CC[C@@H]1CN(c2ccncc2)CC[C@@H]1[NH+]1CCOCC1)NCCCCCCNC(=O)c1ccc(-c2c3nc(c(-c4c(F)c(F)c(F)c(F)c4F)c4ccc([nH]4)c(-c4c(F)c(F)c(F)c(F)c4F)c4nc(c(-c5c(F)c(F)c(F)c(F)c5F)c5ccc2[nH]5)C=C4)C=C3)cc1
REMARK SMILES IDX 26 1 25 2 24 3 23 4 1 5 2 6 3 8 4 9 5 10 6 11 16 12 7 13
REMARK SMILES IDX 15 14 14 15 17 16 18 17 22 18 19 20 21 21 20 22 8 23 9 24
REMARK SMILES IDX 13 25 10 26 12 27 11 28 27 29 28 30 29 31 30 32 31 33 32 35
REMARK SMILES IDX 33 36 34 37 95 38 35 39 94 40 36 41 37 42 38 43 88 44 39 45
REMARK SMILES IDX 93 46 87 47 89 48 40 49 92 50 86 51 85 52 41 54 73 55 53 56
REMARK SMILES IDX 72 57 54 58 57 59 71 60 90 61 55 62 56 63 70 65 91 66 58 67
REMARK SMILES IDX 42 68 43 69 51 70 44 71 45 72 49 73 52 74 46 75 47 76 50 77
REMARK SMILES IDX 48 78 74 79 75 80 83 81 76 82 77 83 81 84 84 85 78 86 79 87
REMARK SMILES IDX 82 88 80 89 59 90 60 91 68 92 61 93 62 94 66 95 69 96 63 97
REMARK SMILES IDX 64 98 67 99 65 100
REMARK H PARENT 23 7 17 19 30 34 89 53 57 64
REMARK Flexibility Score: inf
ROOT
ATOM      1  C   UNL     1       1.255   4.459  -0.299  1.00  0.00     0.002 C 
ENDROOT
BRANCH   1   2
ATOM      2  C   UNL     1       2.223   5.613   0.000  1.00  0.00     0.021 C 
BRANCH   2   3
ATOM      3  C   UNL     1       3.439   5.244   0.852  1.00  0.00     0.116 C 
BRANCH   3   4
ATOM      4  N   UNL     1       4.206   4.167   0.262  1.00  0.00    -0.356 N 
ATOM      5  O   UNL     1       6.265   4.890   0.975  1.00  0.00    -0.275 OA
ATOM      6  C   UNL     1       5.572   4.075   0.376  1.00  0.00     0.220 C 
ATOM      7  H   UNL     1       3.728   3.470  -0.244  1.00  0.00     0.163 HD
BRANCH   6   8
ATOM      8  C   UNL     1       6.161   2.853  -0.299  1.00  0.00     0.100 C 
BRANCH   8   9
ATOM      9  C   UNL     1       6.268   1.639   0.633  1.00  0.00     0.021 C 
BRANCH   9  10
ATOM     10  C   UNL     1       4.917   0.916   0.869  1.00  0.00     0.067 C 
ATOM     11  C   UNL     1       4.335   1.167   2.277  1.00  0.00     0.126 C 
ATOM     12  C   UNL     1       4.941  -0.600   0.471  1.00  0.00     0.190 C 
ATOM     13  N   UNL     1       3.023   0.516   2.367  1.00  0.00    -0.371 N 
ATOM     14  C   UNL     1       3.549  -1.201   0.711  1.00  0.00     0.087 C 
ATOM     15  C   UNL     1       2.986  -0.920   2.092  1.00  0.00     0.122 C 
BRANCH  12  16
ATOM     16  N   UNL     1       6.111  -1.374   0.922  1.00  0.00    -0.328 N 
ATOM     17  C   UNL     1       6.488  -2.494   0.030  1.00  0.00     0.291 C 
ATOM     18  C   UNL     1       6.244  -1.792   2.322  1.00  0.00     0.291 C 
ATOM     19  H   UNL     1       6.780  -0.607   0.854  1.00  0.00     0.348 HD
ATOM     20  C   UNL     1       5.911  -3.865   0.419  1.00  0.00     0.221 C 
ATOM     21  C   UNL     1       5.698  -3.194   2.655  1.00  0.00     0.221 C 
ATOM     22  O   UNL     1       6.225  -4.190   1.776  1.00  0.00    -0.370 OA
ENDBRANCH  12  16
BRANCH  13  23
ATOM     23  C   UNL     1       2.129   0.870   3.379  1.00  0.00     0.040 A 
ATOM     24  C   UNL     1       2.483   0.954   4.723  1.00  0.00     0.046 A 
ATOM     25  C   UNL     1       0.781   1.034   3.050  1.00  0.00     0.046 A 
ATOM     26  C   UNL     1       1.486   1.202   5.658  1.00  0.00     0.113 A 
ATOM     27  C   UNL     1      -0.139   1.310   4.047  1.00  0.00     0.113 A 
ATOM     28  N   UNL     1       0.185   1.397   5.350  1.00  0.00    -0.265 NA
ENDBRANCH  13  23
ENDBRANCH   9  10
ENDBRANCH   8   9
ENDBRANCH   6   8
ENDBRANCH   3   4
ENDBRANCH   2   3
ENDBRANCH   1   2
BRANCH   1  29
ATOM     29  C   UNL     1       0.755   3.700   0.929  1.00  0.00     0.002 C 
BRANCH  29  30
ATOM     30  C   UNL     1      -0.131   4.512   1.870  1.00  0.00     0.021 C 
BRANCH  30  31
ATOM     31  C   UNL     1      -1.517   4.813   1.315  1.00  0.00     0.116 C 
BRANCH  31  32
ATOM     32  N   UNL     1      -2.339   3.621   1.145  1.00  0.00    -0.352 N 
ATOM     33  C   UNL     1      -3.641   3.385   1.525  1.00  0.00     0.251 C 
ATOM     34  H   UNL     1      -1.895   2.870   0.689  1.00  0.00     0.163 HD
ATOM     35  O   UNL     1      -4.118   2.264   1.405  1.00  0.00    -0.269 OA
BRANCH  33  36
ATOM     36  C   UNL     1      -4.454   4.477   2.111  1.00  0.00     0.039 A 
ATOM     37  C   UNL     1      -5.310   4.193   3.179  1.00  0.00     0.014 A 
ATOM     38  C   UNL     1      -4.370   5.780   1.619  1.00  0.00     0.014 A 
ATOM     39  C   UNL     1      -6.020   5.228   3.796  1.00  0.00     0.010 A 
ATOM     40  C   UNL     1      -4.984   6.822   2.303  1.00  0.00     0.010 A 
ATOM     41  C   UNL     1      -5.831   6.558   3.389  1.00  0.00    -0.014 A 
BRANCH  41  42
ATOM     42  C   UNL     1      -6.538   7.692   4.041  1.00  0.00     0.031 A 
ATOM     43  C   UNL     1      -7.434   8.580   3.217  1.00  0.00     0.074 A 
ATOM     44  C   UNL     1      -6.317   7.975   5.340  1.00  0.00     0.049 A 
ATOM     45  N   UNL     1      -8.025   9.702   3.544  1.00  0.00    -0.248 NA
ATOM     46  C   UNL     1      -7.660   8.174   1.819  1.00  0.00     0.031 C 
ATOM     47  C   UNL     1      -5.428   7.231   6.234  1.00  0.00     0.029 A 
ATOM     48  N   UNL     1      -6.815   8.981   6.133  1.00  0.00    -0.354 N 
ATOM     49  C   UNL     1      -8.663  10.142   2.392  1.00  0.00     0.074 A 
ATOM     50  C   UNL     1      -8.330   9.210   1.338  1.00  0.00     0.031 C 
ATOM     51  C   UNL     1      -5.460   7.791   7.455  1.00  0.00     0.029 A 
ATOM     52  C   UNL     1      -6.340   8.955   7.422  1.00  0.00     0.049 A 
ATOM     53  H   UNL     1      -7.452   9.657   5.807  1.00  0.00     0.167 HD
ATOM     54  C   UNL     1      -9.486  11.205   2.232  1.00  0.00     0.037 A 
ATOM     55  C   UNL     1      -6.584   9.782   8.456  1.00  0.00     0.037 A 
ATOM     56  C   UNL     1      -9.856  12.104   3.291  1.00  0.00     0.049 A 
ATOM     57  C   UNL     1      -7.533  10.936   8.260  1.00  0.00     0.074 A 
ATOM     58  C   UNL     1     -10.702  13.197   3.244  1.00  0.00     0.029 A 
ATOM     59  N   UNL     1      -9.413  11.996   4.601  1.00  0.00    -0.354 N 
ATOM     60  N   UNL     1      -8.161  11.318   7.175  1.00  0.00    -0.248 NA
ATOM     61  C   UNL     1      -7.820  11.764   9.440  1.00  0.00     0.031 C 
ATOM     62  C   UNL     1     -10.757  13.763   4.522  1.00  0.00     0.029 A 
ATOM     63  C   UNL     1      -9.979  12.996   5.373  1.00  0.00     0.049 A 
ATOM     64  H   UNL     1      -8.789  11.310   4.933  1.00  0.00     0.167 HD
ATOM     65  C   UNL     1      -8.946  12.401   7.548  1.00  0.00     0.074 A 
ATOM     66  C   UNL     1      -8.725  12.607   8.964  1.00  0.00     0.031 C 
ATOM     67  C   UNL     1      -9.773  13.159   6.789  1.00  0.00     0.037 A 
BRANCH  54  68
ATOM     68  C   UNL     1     -10.071  11.431   0.867  1.00  0.00     0.064 A 
ATOM     69  C   UNL     1     -11.026  10.554   0.328  1.00  0.00     0.173 A 
ATOM     70  C   UNL     1      -9.702  12.547   0.102  1.00  0.00     0.173 A 
ATOM     71  F   UNL     1     -11.402   9.463   1.013  1.00  0.00    -0.203 F 
ATOM     72  C   UNL     1     -11.567  10.770  -0.936  1.00  0.00     0.198 A 
ATOM     73  C   UNL     1     -10.270  12.777  -1.149  1.00  0.00     0.198 A 
ATOM     74  F   UNL     1      -8.796  13.419   0.569  1.00  0.00    -0.203 F 
ATOM     75  F   UNL     1     -12.437   9.889  -1.449  1.00  0.00    -0.200 F 
ATOM     76  C   UNL     1     -11.195  11.885  -1.670  1.00  0.00     0.200 A 
ATOM     77  F   UNL     1      -9.920  13.863  -1.853  1.00  0.00    -0.200 F 
ATOM     78  F   UNL     1     -11.724  12.097  -2.883  1.00  0.00    -0.200 F 
ENDBRANCH  54  68
BRANCH  55  79
ATOM     79  C   UNL     1      -5.950   9.540   9.780  1.00  0.00     0.064 A 
ATOM     80  C   UNL     1      -6.719   9.145  10.885  1.00  0.00     0.173 A 
ATOM     81  C   UNL     1      -4.576   9.732   9.979  1.00  0.00     0.173 A 
ATOM     82  F   UNL     1      -8.041   8.967  10.751  1.00  0.00    -0.203 F 
ATOM     83  C   UNL     1      -6.144   8.990  12.145  1.00  0.00     0.198 A 
ATOM     84  C   UNL     1      -3.997   9.545  11.233  1.00  0.00     0.198 A 
ATOM     85  F   UNL     1      -3.793  10.103   8.955  1.00  0.00    -0.203 F 
ATOM     86  F   UNL     1      -6.915   8.677  13.196  1.00  0.00    -0.200 F 
ATOM     87  C   UNL     1      -4.783   9.188  12.318  1.00  0.00     0.200 A 
ATOM     88  F   UNL     1      -2.678   9.724  11.394  1.00  0.00    -0.200 F 
ATOM     89  F   UNL     1      -4.233   9.046  13.531  1.00  0.00    -0.200 F 
ENDBRANCH  55  79
BRANCH  67  90
ATOM     90  C   UNL     1     -10.556  14.233   7.485  1.00  0.00     0.064 A 
ATOM     91  C   UNL     1      -9.947  15.402   7.962  1.00  0.00     0.173 A 
ATOM     92  C   UNL     1     -11.944  14.101   7.644  1.00  0.00     0.173 A 
ATOM     93  F   UNL     1      -8.621  15.570   7.844  1.00  0.00    -0.203 F 
ATOM     94  C   UNL     1     -10.695  16.387   8.602  1.00  0.00     0.198 A 
ATOM     95  C   UNL     1     -12.693  15.100   8.257  1.00  0.00     0.198 A 
ATOM     96  F   UNL     1     -12.575  13.004   7.197  1.00  0.00    -0.203 F 
ATOM     97  F   UNL     1     -10.085  17.473   9.096  1.00  0.00    -0.200 F 
ATOM     98  C   UNL     1     -12.067  16.238   8.743  1.00  0.00     0.200 A 
ATOM     99  F   UNL     1     -14.020  14.962   8.380  1.00  0.00    -0.200 F 
ATOM    100  F   UNL     1     -12.785  17.189   9.355  1.00  0.00    -0.200 F 
ENDBRANCH  67  90
ENDBRANCH  41  42
ENDBRANCH  33  36
ENDBRANCH  31  32
ENDBRANCH  30  31
ENDBRANCH  29  30
ENDBRANCH   1  29
TORSDOF 17
