REMARK SMILES CCCOc1cccc([C@@H](O)[C@@H](F)C(=O)NCCCCCCNC(=O)c2ccc(-c3c4nc(c(-c5c(F)c(F)c(F)c(F)c5F)c5ccc([nH]5)c(-c5c(F)c(F)c(F)c(F)c5F)c5nc(c(-c6c(F)c(F)c(F)c(F)c6F)c6ccc3[nH]6)C=C5)C=C4)cc2)c1
REMARK SMILES IDX 18 1 17 2 16 3 14 4 15 5 12 7 13 8 10 9 9 10 5 11 6 12 89 13
REMARK SMILES IDX 7 14 8 15 4 16 3 17 2 18 1 19 11 20 19 22 20 23 21 24 22 25
REMARK SMILES IDX 23 26 24 27 25 29 26 30 27 31 88 32 28 33 87 34 29 35 30 36
REMARK SMILES IDX 31 37 81 38 32 39 86 40 80 41 82 42 33 43 85 44 79 45 78 46
REMARK SMILES IDX 34 48 66 49 46 50 65 51 47 52 50 53 64 54 83 55 48 56 49 57
REMARK SMILES IDX 63 59 84 60 51 61 35 62 36 63 44 64 37 65 38 66 42 67 45 68
REMARK SMILES IDX 39 69 40 70 43 71 41 72 67 73 68 74 76 75 69 76 70 77 74 78
REMARK SMILES IDX 77 79 71 80 72 81 75 82 73 83 52 84 53 85 61 86 54 87 55 88
REMARK SMILES IDX 59 89 62 90 56 91 57 92 60 93 58 94
REMARK H PARENT 16 6 11 21 23 28 82 47 50 58
REMARK Flexibility Score: inf
ROOT
ATOM      1  C   UNL     1      -0.177   0.332  -3.755  1.00  0.00     0.021 C 
ENDROOT
BRANCH   1   2
ATOM      2  C   UNL     1       1.271   0.764  -3.519  1.00  0.00     0.116 C 
BRANCH   2   3
ATOM      3  N   UNL     1       1.533   2.059  -4.115  1.00  0.00    -0.353 N 
ATOM      4  C   UNL     1       1.821   3.253  -3.514  1.00  0.00     0.257 C 
ATOM      5  O   UNL     1       1.984   4.235  -4.244  1.00  0.00    -0.272 OA
ATOM      6  H   UNL     1       1.499   2.083  -5.099  1.00  0.00     0.163 HD
BRANCH   4   7
ATOM      7  C   UNL     1       1.958   3.350  -1.998  1.00  0.00     0.288 C 
ATOM      8  F   UNL     1       2.769   2.350  -1.523  1.00  0.00    -0.234 F 
BRANCH   7   9
ATOM      9  C   UNL     1       0.596   3.297  -1.282  1.00  0.00     0.188 C 
BRANCH   9  10
ATOM     10  C   UNL     1       0.759   3.103   0.214  1.00  0.00    -0.012 A 
ATOM     11  C   UNL     1       0.572   1.659   2.148  1.00  0.00     0.119 A 
ATOM     12  C   UNL     1       1.273   2.573   2.927  1.00  0.00     0.046 A 
ATOM     13  C   UNL     1       0.260   1.946   0.821  1.00  0.00     0.053 A 
ATOM     14  C   UNL     1       1.712   3.766   2.353  1.00  0.00     0.004 A 
ATOM     15  C   UNL     1       1.466   4.026   1.002  1.00  0.00     0.007 A 
BRANCH  11  16
ATOM     16  O   UNL     1       0.159   0.475   2.692  1.00  0.00    -0.494 OA
BRANCH  16  17
ATOM     17  C   UNL     1       1.094  -0.584   2.415  1.00  0.00     0.229 C 
BRANCH  17  18
ATOM     18  C   UNL     1       0.701  -1.361   1.153  1.00  0.00     0.038 C 
ATOM     19  C   UNL     1       1.640  -1.095  -0.017  1.00  0.00     0.007 C 
ENDBRANCH  17  18
ENDBRANCH  16  17
ENDBRANCH  11  16
ENDBRANCH   9  10
BRANCH   9  20
ATOM     20  O   UNL     1      -0.171   4.482  -1.500  1.00  0.00    -0.385 OA
ATOM     21  H   UNL     1       0.296   5.243  -1.121  1.00  0.00     0.211 HD
ENDBRANCH   9  20
ENDBRANCH   7   9
ENDBRANCH   4   7
ENDBRANCH   2   3
ENDBRANCH   1   2
BRANCH   1  22
ATOM     22  C   UNL     1      -0.515   0.032  -5.220  1.00  0.00     0.002 C 
BRANCH  22  23
ATOM     23  C   UNL     1       0.289  -1.108  -5.854  1.00  0.00     0.002 C 
BRANCH  23  24
ATOM     24  C   UNL     1       0.212  -2.449  -5.120  1.00  0.00     0.021 C 
BRANCH  24  25
ATOM     25  C   UNL     1      -1.198  -3.009  -4.946  1.00  0.00     0.116 C 
BRANCH  25  26
ATOM     26  N   UNL     1      -1.843  -3.282  -6.219  1.00  0.00    -0.352 N 
ATOM     27  C   UNL     1      -2.447  -4.424  -6.671  1.00  0.00     0.251 C 
ATOM     28  H   UNL     1      -1.847  -2.529  -6.854  1.00  0.00     0.163 HD
ATOM     29  O   UNL     1      -2.774  -4.513  -7.856  1.00  0.00    -0.269 OA
BRANCH  27  30
ATOM     30  C   UNL     1      -2.704  -5.561  -5.760  1.00  0.00     0.039 A 
ATOM     31  C   UNL     1      -2.510  -6.859  -6.241  1.00  0.00     0.014 A 
ATOM     32  C   UNL     1      -3.183  -5.365  -4.462  1.00  0.00     0.014 A 
ATOM     33  C   UNL     1      -2.764  -7.955  -5.414  1.00  0.00     0.010 A 
ATOM     34  C   UNL     1      -3.368  -6.456  -3.613  1.00  0.00     0.010 A 
ATOM     35  C   UNL     1      -3.178  -7.763  -4.086  1.00  0.00    -0.014 A 
BRANCH  35  36
ATOM     36  C   UNL     1      -3.442  -8.926  -3.200  1.00  0.00     0.031 A 
ATOM     37  C   UNL     1      -4.835  -9.206  -2.706  1.00  0.00     0.074 A 
ATOM     38  C   UNL     1      -2.421  -9.719  -2.821  1.00  0.00     0.049 A 
ATOM     39  N   UNL     1      -5.262 -10.176  -1.937  1.00  0.00    -0.248 NA
ATOM     40  C   UNL     1      -5.883  -8.255  -3.107  1.00  0.00     0.031 C 
ATOM     41  C   UNL     1      -1.018  -9.523  -3.187  1.00  0.00     0.029 A 
ATOM     42  N   UNL     1      -2.408 -10.851  -2.045  1.00  0.00    -0.354 N 
ATOM     43  C   UNL     1      -6.620  -9.948  -1.758  1.00  0.00     0.074 A 
ATOM     44  C   UNL     1      -6.936  -8.716  -2.447  1.00  0.00     0.031 C 
ATOM     45  C   UNL     1      -0.284 -10.518  -2.663  1.00  0.00     0.029 A 
ATOM     46  C   UNL     1      -1.160 -11.406  -1.904  1.00  0.00     0.049 A 
ATOM     47  H   UNL     1      -3.216 -11.229  -1.629  1.00  0.00     0.167 HD
ATOM     48  C   UNL     1      -7.529 -10.709  -1.101  1.00  0.00     0.037 A 
ATOM     49  C   UNL     1      -0.768 -12.513  -1.244  1.00  0.00     0.037 A 
ATOM     50  C   UNL     1      -7.219 -11.948  -0.436  1.00  0.00     0.049 A 
ATOM     51  C   UNL     1      -1.801 -13.353  -0.542  1.00  0.00     0.074 A 
ATOM     52  C   UNL     1      -8.076 -12.819   0.214  1.00  0.00     0.029 A 
ATOM     53  N   UNL     1      -5.947 -12.493  -0.337  1.00  0.00    -0.354 N 
ATOM     54  N   UNL     1      -3.094 -13.165  -0.442  1.00  0.00    -0.248 NA
ATOM     55  C   UNL     1      -1.318 -14.571   0.123  1.00  0.00     0.031 C 
ATOM     56  C   UNL     1      -7.316 -13.870   0.741  1.00  0.00     0.029 A 
ATOM     57  C   UNL     1      -5.994 -13.681   0.376  1.00  0.00     0.049 A 
ATOM     58  H   UNL     1      -5.130 -12.094  -0.717  1.00  0.00     0.167 HD
ATOM     59  C   UNL     1      -3.583 -14.253   0.269  1.00  0.00     0.074 A 
ATOM     60  C   UNL     1      -2.449 -15.106   0.558  1.00  0.00     0.031 C 
ATOM     61  C   UNL     1      -4.857 -14.522   0.649  1.00  0.00     0.037 A 
BRANCH  48  62
ATOM     62  C   UNL     1      -8.950 -10.225  -1.077  1.00  0.00     0.064 A 
ATOM     63  C   UNL     1      -9.745 -10.219  -2.234  1.00  0.00     0.173 A 
ATOM     64  C   UNL     1      -9.536  -9.788   0.121  1.00  0.00     0.173 A 
ATOM     65  F   UNL     1      -9.231 -10.615  -3.408  1.00  0.00    -0.203 F 
ATOM     66  C   UNL     1     -11.061  -9.764  -2.199  1.00  0.00     0.198 A 
ATOM     67  C   UNL     1     -10.862  -9.364   0.159  1.00  0.00     0.198 A 
ATOM     68  F   UNL     1      -8.823  -9.777   1.258  1.00  0.00    -0.203 F 
ATOM     69  F   UNL     1     -11.783  -9.719  -3.327  1.00  0.00    -0.200 F 
ATOM     70  C   UNL     1     -11.620  -9.344  -1.002  1.00  0.00     0.200 A 
ATOM     71  F   UNL     1     -11.405  -8.970   1.319  1.00  0.00    -0.200 F 
ATOM     72  F   UNL     1     -12.889  -8.912  -0.968  1.00  0.00    -0.200 F 
ENDBRANCH  48  62
BRANCH  49  73
ATOM     73  C   UNL     1       0.662 -12.916  -1.254  1.00  0.00     0.064 A 
ATOM     74  C   UNL     1       1.083 -14.055  -1.956  1.00  0.00     0.173 A 
ATOM     75  C   UNL     1       1.632 -12.181  -0.559  1.00  0.00     0.173 A 
ATOM     76  F   UNL     1       0.188 -14.801  -2.620  1.00  0.00    -0.203 F 
ATOM     77  C   UNL     1       2.417 -14.457  -1.940  1.00  0.00     0.198 A 
ATOM     78  C   UNL     1       2.971 -12.568  -0.569  1.00  0.00     0.198 A 
ATOM     79  F   UNL     1       1.282 -11.080   0.121  1.00  0.00    -0.203 F 
ATOM     80  F   UNL     1       2.783 -15.577  -2.578  1.00  0.00    -0.200 F 
ATOM     81  C   UNL     1       3.360 -13.711  -1.251  1.00  0.00     0.200 A 
ATOM     82  F   UNL     1       3.882 -11.836   0.087  1.00  0.00    -0.200 F 
ATOM     83  F   UNL     1       4.643 -14.097  -1.238  1.00  0.00    -0.200 F 
ENDBRANCH  49  73
BRANCH  61  84
ATOM     84  C   UNL     1      -5.094 -15.811   1.383  1.00  0.00     0.064 A 
ATOM     85  C   UNL     1      -4.643 -16.006   2.697  1.00  0.00     0.173 A 
ATOM     86  C   UNL     1      -5.792 -16.860   0.765  1.00  0.00     0.173 A 
ATOM     87  F   UNL     1      -3.959 -15.039   3.327  1.00  0.00    -0.203 F 
ATOM     88  C   UNL     1      -4.849 -17.218   3.352  1.00  0.00     0.198 A 
ATOM     89  C   UNL     1      -6.024 -18.058   1.435  1.00  0.00     0.198 A 
ATOM     90  F   UNL     1      -6.251 -16.722  -0.487  1.00  0.00    -0.203 F 
ATOM     91  F   UNL     1      -4.356 -17.403   4.584  1.00  0.00    -0.200 F 
ATOM     92  C   UNL     1      -5.542 -18.241   2.722  1.00  0.00     0.200 A 
ATOM     93  F   UNL     1      -6.706 -19.041   0.830  1.00  0.00    -0.200 F 
ATOM     94  F   UNL     1      -5.737 -19.407   3.353  1.00  0.00    -0.200 F 
ENDBRANCH  61  84
ENDBRANCH  35  36
ENDBRANCH  27  30
ENDBRANCH  25  26
ENDBRANCH  24  25
ENDBRANCH  23  24
ENDBRANCH  22  23
ENDBRANCH   1  22
TORSDOF 19
