REMARK SMILES Cc1ccsc1C(=O)NNC(=O)[C@@H]1[C@@H](C(=O)NCCCCCCNC(=O)c2ccc(-c3c4nc(c(-c5c(F)c(F)c(F)c(F)c5F)c5ccc([nH]5)c(-c5c(F)c(F)c(F)c(F)c5F)c5nc(c(-c6c(F)c(F)c(F)c(F)c6F)c6ccc3[nH]6)C=C5)C=C4)cc2)[C@H]2C=C[C@@H]1C2
REMARK SMILES IDX 20 1 19 2 18 3 17 4 15 5 16 6 14 8 13 9 93 10 90 11 92 12
REMARK SMILES IDX 94 13 91 14 11 15 10 16 12 18 9 19 7 20 8 21 6 23 1 24 2 25
REMARK SMILES IDX 3 26 4 27 5 28 21 29 22 30 23 31 24 32 25 33 26 35 27 36
REMARK SMILES IDX 28 37 89 38 29 39 88 40 30 41 31 42 32 43 82 44 33 45 87 46
REMARK SMILES IDX 81 47 83 48 34 49 86 50 80 51 79 52 35 54 67 55 47 56 66 57
REMARK SMILES IDX 48 58 51 59 65 60 84 61 49 62 50 63 64 65 85 66 52 67 36 68
REMARK SMILES IDX 37 69 45 70 38 71 39 72 43 73 46 74 40 75 41 76 44 77 42 78
REMARK SMILES IDX 68 79 69 80 77 81 70 82 71 83 75 84 78 85 72 86 73 87 76 88
REMARK SMILES IDX 74 89 53 90 54 91 62 92 55 93 56 94 60 95 63 96 57 97 58 98
REMARK SMILES IDX 61 99 59 100
REMARK H PARENT 17 7 10 17 9 22 24 34 83 53 51 64
REMARK Flexibility Score: inf
ROOT
ATOM      1  C   UNL     1       9.277  -7.020  -0.679  1.00  0.00     0.002 C 
ENDROOT
BRANCH   1   2
ATOM      2  C   UNL     1       7.895  -6.850  -0.047  1.00  0.00     0.021 C 
BRANCH   2   3
ATOM      3  C   UNL     1       7.188  -5.550  -0.412  1.00  0.00     0.116 C 
BRANCH   3   4
ATOM      4  N   UNL     1       6.463  -5.655  -1.661  1.00  0.00    -0.356 N 
ATOM      5  C   UNL     1       5.167  -5.482  -2.003  1.00  0.00     0.224 C 
ATOM      6  O   UNL     1       4.899  -5.656  -3.200  1.00  0.00    -0.275 OA
ATOM      7  H   UNL     1       7.034  -5.907  -2.421  1.00  0.00     0.163 HD
BRANCH   5   8
ATOM      8  C   UNL     1       4.022  -5.140  -1.059  1.00  0.00     0.098 C 
ATOM      9  C   UNL     1       4.215  -4.039   0.011  1.00  0.00     0.100 C 
ATOM     10  C   UNL     1       3.500  -4.661   1.246  1.00  0.00     0.025 C 
ATOM     11  C   UNL     1       3.455  -6.339  -0.250  1.00  0.00     0.025 C 
ATOM     12  C   UNL     1       4.416  -5.772   1.758  1.00  0.00    -0.027 C 
ATOM     13  C   UNL     1       2.452  -5.615   0.657  1.00  0.00     0.017 C 
ATOM     14  C   UNL     1       4.395  -6.763   0.849  1.00  0.00    -0.027 C 
BRANCH   9  15
ATOM     15  C   UNL     1       3.906  -2.627  -0.492  1.00  0.00     0.242 C 
ATOM     16  N   UNL     1       2.690  -2.210  -0.943  1.00  0.00    -0.267 N 
ATOM     17  H   UNL     1       2.666  -1.397  -1.498  1.00  0.00     0.191 HD
ATOM     18  O   UNL     1       4.832  -1.807  -0.558  1.00  0.00    -0.273 OA
BRANCH  16  19
ATOM     19  N   UNL     1       1.502  -2.832  -0.686  1.00  0.00    -0.263 N 
ATOM     20  C   UNL     1       0.374  -2.266  -0.117  1.00  0.00     0.280 C 
ATOM     21  O   UNL     1      -0.532  -3.063   0.150  1.00  0.00    -0.266 OA
ATOM     22  H   UNL     1       1.442  -3.784  -0.930  1.00  0.00     0.191 HD
BRANCH  20  23
ATOM     23  C   UNL     1       0.228  -0.815   0.015  1.00  0.00     0.096 A 
ATOM     24  C   UNL     1       2.482   0.187   0.853  1.00  0.00     0.046 C 
ATOM     25  C   UNL     1       1.069   0.240   0.371  1.00  0.00    -0.027 A 
ATOM     26  C   UNL     1       0.392   1.508   0.247  1.00  0.00     0.016 A 
ATOM     27  C   UNL     1      -0.925   1.388  -0.117  1.00  0.00     0.066 A 
ATOM     28  S   UNL     1      -1.369  -0.233  -0.338  1.00  0.00    -0.138 S 
ENDBRANCH  20  23
ENDBRANCH  16  19
ENDBRANCH   9  15
ENDBRANCH   5   8
ENDBRANCH   3   4
ENDBRANCH   2   3
ENDBRANCH   1   2
BRANCH   1  29
ATOM     29  C   UNL     1      10.286  -5.907  -0.374  1.00  0.00     0.002 C 
BRANCH  29  30
ATOM     30  C   UNL     1      10.431  -5.519   1.101  1.00  0.00     0.021 C 
BRANCH  30  31
ATOM     31  C   UNL     1      10.754  -6.669   2.050  1.00  0.00     0.116 C 
BRANCH  31  32
ATOM     32  N   UNL     1      11.976  -7.361   1.683  1.00  0.00    -0.352 N 
ATOM     33  C   UNL     1      13.098  -7.619   2.427  1.00  0.00     0.251 C 
ATOM     34  H   UNL     1      12.003  -7.697   0.758  1.00  0.00     0.163 HD
ATOM     35  O   UNL     1      14.104  -8.064   1.885  1.00  0.00    -0.269 OA
BRANCH  33  36
ATOM     36  C   UNL     1      13.108  -7.349   3.880  1.00  0.00     0.039 A 
ATOM     37  C   UNL     1      14.237  -6.743   4.438  1.00  0.00     0.014 A 
ATOM     38  C   UNL     1      12.037  -7.724   4.697  1.00  0.00     0.014 A 
ATOM     39  C   UNL     1      14.275  -6.474   5.807  1.00  0.00     0.010 A 
ATOM     40  C   UNL     1      12.048  -7.395   6.050  1.00  0.00     0.010 A 
ATOM     41  C   UNL     1      13.171  -6.778   6.620  1.00  0.00    -0.014 A 
BRANCH  41  42
ATOM     42  C   UNL     1      13.188  -6.466   8.071  1.00  0.00     0.031 A 
ATOM     43  C   UNL     1      13.165  -7.575   9.085  1.00  0.00     0.074 A 
ATOM     44  C   UNL     1      13.173  -5.181   8.473  1.00  0.00     0.049 A 
ATOM     45  N   UNL     1      13.140  -7.502  10.392  1.00  0.00    -0.248 NA
ATOM     46  C   UNL     1      13.139  -8.949   8.561  1.00  0.00     0.031 C 
ATOM     47  C   UNL     1      13.138  -4.019   7.585  1.00  0.00     0.029 A 
ATOM     48  N   UNL     1      13.175  -4.637   9.733  1.00  0.00    -0.354 N 
ATOM     49  C   UNL     1      13.080  -8.814  10.843  1.00  0.00     0.074 A 
ATOM     50  C   UNL     1      13.021  -9.661   9.672  1.00  0.00     0.031 C 
ATOM     51  C   UNL     1      13.140  -2.900   8.326  1.00  0.00     0.029 A 
ATOM     52  C   UNL     1      13.147  -3.265   9.739  1.00  0.00     0.049 A 
ATOM     53  H   UNL     1      13.195  -5.180  10.554  1.00  0.00     0.167 HD
ATOM     54  C   UNL     1      13.097  -9.271  12.118  1.00  0.00     0.037 A 
ATOM     55  C   UNL     1      13.127  -2.399  10.770  1.00  0.00     0.037 A 
ATOM     56  C   UNL     1      13.184  -8.425  13.280  1.00  0.00     0.049 A 
ATOM     57  C   UNL     1      13.167  -2.931  12.176  1.00  0.00     0.074 A 
ATOM     58  C   UNL     1      13.278  -8.791  14.611  1.00  0.00     0.029 A 
ATOM     59  N   UNL     1      13.185  -7.037  13.246  1.00  0.00    -0.354 N 
ATOM     60  N   UNL     1      13.191  -4.175  12.589  1.00  0.00    -0.248 NA
ATOM     61  C   UNL     1      13.191  -1.938  13.259  1.00  0.00     0.031 C 
ATOM     62  C   UNL     1      13.291  -7.626  15.386  1.00  0.00     0.029 A 
ATOM     63  C   UNL     1      13.256  -6.533  14.535  1.00  0.00     0.049 A 
ATOM     64  H   UNL     1      13.142  -6.492  12.428  1.00  0.00     0.167 HD
ATOM     65  C   UNL     1      13.256  -4.116  13.975  1.00  0.00     0.074 A 
ATOM     66  C   UNL     1      13.288  -2.712  14.331  1.00  0.00     0.031 C 
ATOM     67  C   UNL     1      13.287  -5.132  14.872  1.00  0.00     0.037 A 
BRANCH  54  68
ATOM     68  C   UNL     1      13.019 -10.757  12.323  1.00  0.00     0.064 A 
ATOM     69  C   UNL     1      14.082 -11.605  11.976  1.00  0.00     0.173 A 
ATOM     70  C   UNL     1      11.880 -11.337  12.900  1.00  0.00     0.173 A 
ATOM     71  F   UNL     1      15.191 -11.103  11.412  1.00  0.00    -0.203 F 
ATOM     72  C   UNL     1      13.993 -12.982  12.168  1.00  0.00     0.198 A 
ATOM     73  C   UNL     1      11.806 -12.711  13.118  1.00  0.00     0.198 A 
ATOM     74  F   UNL     1      10.837 -10.572  13.255  1.00  0.00    -0.203 F 
ATOM     75  F   UNL     1      15.000 -13.777  11.780  1.00  0.00    -0.200 F 
ATOM     76  C   UNL     1      12.859 -13.532  12.745  1.00  0.00     0.200 A 
ATOM     77  F   UNL     1      10.714 -13.240  13.687  1.00  0.00    -0.200 F 
ATOM     78  F   UNL     1      12.777 -14.857  12.933  1.00  0.00    -0.200 F 
ENDBRANCH  54  68
BRANCH  55  79
ATOM     79  C   UNL     1      13.095  -0.937  10.506  1.00  0.00     0.064 A 
ATOM     80  C   UNL     1      14.212  -0.132  10.770  1.00  0.00     0.173 A 
ATOM     81  C   UNL     1      11.953  -0.317   9.978  1.00  0.00     0.173 A 
ATOM     82  F   UNL     1      15.320  -0.677  11.293  1.00  0.00    -0.203 F 
ATOM     83  C   UNL     1      14.181   1.240  10.536  1.00  0.00     0.198 A 
ATOM     84  C   UNL     1      11.933   1.051   9.718  1.00  0.00     0.198 A 
ATOM     85  F   UNL     1      10.861  -1.045   9.701  1.00  0.00    -0.203 F 
ATOM     86  F   UNL     1      15.248   1.993  10.838  1.00  0.00    -0.200 F 
ATOM     87  C   UNL     1      13.044   1.830  10.004  1.00  0.00     0.200 A 
ATOM     88  F   UNL     1      10.838   1.615   9.190  1.00  0.00    -0.200 F 
ATOM     89  F   UNL     1      13.017   3.150   9.773  1.00  0.00    -0.200 F 
ENDBRANCH  55  79
BRANCH  67  90
ATOM     90  C   UNL     1      13.385  -4.761  16.323  1.00  0.00     0.064 A 
ATOM     91  C   UNL     1      12.304  -4.191  17.011  1.00  0.00     0.173 A 
ATOM     92  C   UNL     1      14.566  -5.006  17.040  1.00  0.00     0.173 A 
ATOM     93  F   UNL     1      11.159  -3.923  16.366  1.00  0.00    -0.203 F 
ATOM     94  C   UNL     1      12.412  -3.852  18.357  1.00  0.00     0.198 A 
ATOM     95  C   UNL     1      14.660  -4.694  18.393  1.00  0.00     0.198 A 
ATOM     96  F   UNL     1      15.626  -5.556  16.430  1.00  0.00    -0.203 F 
ATOM     97  F   UNL     1      11.385  -3.260  18.981  1.00  0.00    -0.200 F 
ATOM     98  C   UNL     1      13.587  -4.109  19.048  1.00  0.00     0.200 A 
ATOM     99  F   UNL     1      15.791  -4.955  19.062  1.00  0.00    -0.200 F 
ATOM    100  F   UNL     1      13.688  -3.785  20.345  1.00  0.00    -0.200 F 
ENDBRANCH  67  90
ENDBRANCH  41  42
ENDBRANCH  33  36
ENDBRANCH  31  32
ENDBRANCH  30  31
ENDBRANCH  29  30
ENDBRANCH   1  29
TORSDOF 16
