REMARK SMILES C[C@@H](NC(=O)c1cc(C(=O)NCCCCCCNC(=O)c2ccc(-c3c4nc(c(-c5c(F)c(F)c(F)c(F)c5F)c5ccc([nH]5)c(-c5c(F)c(F)c(F)c(F)c5F)c5nc(c(-c6c(F)c(F)c(F)c(F)c6F)c6ccc3[nH]6)C=C5)C=C4)cc2)n(C)n1)c1ccccc1
REMARK SMILES IDX 14 1 13 2 12 3 11 4 9 5 10 6 8 8 6 9 7 10 86 11 84 12 85 13
REMARK SMILES IDX 4 14 3 15 5 17 2 18 1 19 87 20 88 21 92 22 89 23 91 24 90 25
REMARK SMILES IDX 15 26 16 27 17 28 18 29 19 30 20 32 21 33 22 34 83 35 23 36
REMARK SMILES IDX 82 37 24 38 25 39 26 40 76 41 27 42 81 43 75 44 77 45 28 46
REMARK SMILES IDX 80 47 74 48 73 49 29 51 61 52 41 53 60 54 42 55 45 56 59 57
REMARK SMILES IDX 78 58 43 59 44 60 58 62 79 63 46 64 30 65 31 66 39 67 32 68
REMARK SMILES IDX 33 69 37 70 40 71 34 72 35 73 38 74 36 75 62 76 63 77 71 78
REMARK SMILES IDX 64 79 65 80 69 81 72 82 66 83 67 84 70 85 68 86 47 87 48 88
REMARK SMILES IDX 56 89 49 90 50 91 54 92 57 93 51 94 52 95 55 96 53 97
REMARK H PARENT 11 7 3 16 18 31 77 50 45 61
REMARK Flexibility Score: inf
ROOT
ATOM      1  C   UNL     1      -8.278   0.645   1.164  1.00  0.00     0.002 C 
ENDROOT
BRANCH   1   2
ATOM      2  C   UNL     1      -7.047   1.528   1.406  1.00  0.00     0.021 C 
BRANCH   2   3
ATOM      3  C   UNL     1      -6.626   1.626   2.875  1.00  0.00     0.116 C 
BRANCH   3   4
ATOM      4  N   UNL     1      -5.790   0.517   3.254  1.00  0.00    -0.351 N 
ATOM      5  C   UNL     1      -4.468   0.341   3.538  1.00  0.00     0.269 C 
ATOM      6  O   UNL     1      -4.230  -0.795   3.971  1.00  0.00    -0.268 OA
ATOM      7  H   UNL     1      -6.300  -0.322   3.326  1.00  0.00     0.163 HD
BRANCH   5   8
ATOM      8  C   UNL     1      -3.390   1.302   3.384  1.00  0.00     0.126 A 
ATOM      9  C   UNL     1      -1.243   1.991   3.286  1.00  0.00     0.151 A 
ATOM     10  C   UNL     1      -2.087   0.989   3.789  1.00  0.00     0.069 A 
ATOM     11  N   UNL     1      -1.975   3.002   2.808  1.00  0.00    -0.167 NA
ATOM     12  N   UNL     1      -3.237   2.530   2.776  1.00  0.00    -0.262 N 
ATOM     13  C   UNL     1      -4.128   3.335   1.983  1.00  0.00     0.174 C 
BRANCH   9  14
ATOM     14  C   UNL     1       0.208   2.027   3.197  1.00  0.00     0.272 C 
ATOM     15  N   UNL     1       0.839   1.336   2.191  1.00  0.00    -0.344 N 
ATOM     16  H   UNL     1       1.702   1.731   1.931  1.00  0.00     0.164 HD
ATOM     17  O   UNL     1       0.900   2.741   3.928  1.00  0.00    -0.267 OA
BRANCH  15  18
ATOM     18  C   UNL     1       0.499   0.134   1.423  1.00  0.00     0.109 C 
ATOM     19  C   UNL     1       1.415   0.063   0.193  1.00  0.00     0.036 C 
BRANCH  18  20
ATOM     20  C   UNL     1      -0.932  -0.071   0.969  1.00  0.00    -0.026 A 
ATOM     21  C   UNL     1      -1.621   0.869   0.190  1.00  0.00     0.006 A 
ATOM     22  C   UNL     1      -1.581  -1.280   1.284  1.00  0.00     0.006 A 
ATOM     23  C   UNL     1      -2.930   0.618  -0.235  1.00  0.00     0.000 A 
ATOM     24  C   UNL     1      -2.888  -1.527   0.861  1.00  0.00     0.000 A 
ATOM     25  C   UNL     1      -3.565  -0.576   0.105  1.00  0.00     0.000 A 
ENDBRANCH  18  20
ENDBRANCH  15  18
ENDBRANCH   9  14
ENDBRANCH   5   8
ENDBRANCH   3   4
ENDBRANCH   2   3
ENDBRANCH   1   2
BRANCH   1  26
ATOM     26  C   UNL     1      -9.551   1.088   1.897  1.00  0.00     0.002 C 
BRANCH  26  27
ATOM     27  C   UNL     1      -9.941   2.555   1.696  1.00  0.00     0.021 C 
BRANCH  27  28
ATOM     28  C   UNL     1     -10.301   2.916   0.258  1.00  0.00     0.116 C 
BRANCH  28  29
ATOM     29  N   UNL     1     -11.527   2.256  -0.163  1.00  0.00    -0.352 N 
ATOM     30  C   UNL     1     -12.730   2.804  -0.529  1.00  0.00     0.251 C 
ATOM     31  H   UNL     1     -11.488   1.273  -0.190  1.00  0.00     0.163 HD
ATOM     32  O   UNL     1     -13.733   2.098  -0.599  1.00  0.00    -0.269 OA
BRANCH  30  33
ATOM     33  C   UNL     1     -12.827   4.246  -0.838  1.00  0.00     0.039 A 
ATOM     34  C   UNL     1     -13.920   4.971  -0.357  1.00  0.00     0.014 A 
ATOM     35  C   UNL     1     -11.864   4.873  -1.634  1.00  0.00     0.014 A 
ATOM     36  C   UNL     1     -14.021   6.338  -0.630  1.00  0.00     0.010 A 
ATOM     37  C   UNL     1     -11.931   6.247  -1.852  1.00  0.00     0.010 A 
ATOM     38  C   UNL     1     -13.012   6.991  -1.356  1.00  0.00    -0.014 A 
BRANCH  38  39
ATOM     39  C   UNL     1     -13.069   8.453  -1.611  1.00  0.00     0.031 A 
ATOM     40  C   UNL     1     -13.210   8.970  -3.015  1.00  0.00     0.074 A 
ATOM     41  C   UNL     1     -12.924   9.312  -0.584  1.00  0.00     0.049 A 
ATOM     42  N   UNL     1     -13.187  10.205  -3.450  1.00  0.00    -0.248 NA
ATOM     43  C   UNL     1     -13.373   7.964  -4.077  1.00  0.00     0.031 C 
ATOM     44  C   UNL     1     -12.741   8.932   0.818  1.00  0.00     0.029 A 
ATOM     45  N   UNL     1     -12.892  10.684  -0.562  1.00  0.00    -0.354 N 
ATOM     46  C   UNL     1     -13.315  10.123  -4.830  1.00  0.00     0.074 A 
ATOM     47  C   UNL     1     -13.371   8.717  -5.168  1.00  0.00     0.031 C 
ATOM     48  C   UNL     1     -12.629  10.042   1.564  1.00  0.00     0.029 A 
ATOM     49  C   UNL     1     -12.694  11.210   0.692  1.00  0.00     0.049 A 
ATOM     50  H   UNL     1     -13.001  11.239  -1.368  1.00  0.00     0.167 HD
ATOM     51  C   UNL     1     -13.399  11.131  -5.731  1.00  0.00     0.037 A 
ATOM     52  C   UNL     1     -12.567  12.491   1.089  1.00  0.00     0.037 A 
ATOM     53  C   UNL     1     -13.374  12.529  -5.387  1.00  0.00     0.049 A 
ATOM     54  C   UNL     1     -12.659  13.589   0.065  1.00  0.00     0.074 A 
ATOM     55  C   UNL     1     -13.516  13.625  -6.221  1.00  0.00     0.029 A 
ATOM     56  N   UNL     1     -13.194  13.023  -4.104  1.00  0.00    -0.354 N 
ATOM     57  N   UNL     1     -12.846  13.501  -1.230  1.00  0.00    -0.248 NA
ATOM     58  C   UNL     1     -12.526  14.967   0.558  1.00  0.00     0.031 C 
ATOM     59  C   UNL     1     -13.378  14.783  -5.449  1.00  0.00     0.029 A 
ATOM     60  C   UNL     1     -13.200  14.409  -4.127  1.00  0.00     0.049 A 
ATOM     61  H   UNL     1     -13.079  12.471  -3.296  1.00  0.00     0.167 HD
ATOM     62  C   UNL     1     -12.884  14.807  -1.699  1.00  0.00     0.074 A 
ATOM     63  C   UNL     1     -12.716  15.670  -0.549  1.00  0.00     0.031 C 
ATOM     64  C   UNL     1     -13.043  15.252  -2.970  1.00  0.00     0.037 A 
BRANCH  51  65
ATOM     65  C   UNL     1     -13.531  10.764  -7.180  1.00  0.00     0.064 A 
ATOM     66  C   UNL     1     -14.713  10.209  -7.693  1.00  0.00     0.173 A 
ATOM     67  C   UNL     1     -12.485  11.025  -8.079  1.00  0.00     0.173 A 
ATOM     68  F   UNL     1     -15.738   9.930  -6.875  1.00  0.00    -0.203 F 
ATOM     69  C   UNL     1     -14.834   9.907  -9.047  1.00  0.00     0.198 A 
ATOM     70  C   UNL     1     -12.620  10.749  -9.437  1.00  0.00     0.198 A 
ATOM     71  F   UNL     1     -11.335  11.560  -7.641  1.00  0.00    -0.203 F 
ATOM     72  F   UNL     1     -15.958   9.340  -9.508  1.00  0.00    -0.200 F 
ATOM     73  C   UNL     1     -13.792  10.186  -9.919  1.00  0.00     0.200 A 
ATOM     74  F   UNL     1     -11.617  11.031 -10.280  1.00  0.00    -0.200 F 
ATOM     75  F   UNL     1     -13.915   9.907 -11.224  1.00  0.00    -0.200 F 
ENDBRANCH  51  65
BRANCH  52  76
ATOM     76  C   UNL     1     -12.353  12.809   2.525  1.00  0.00     0.064 A 
ATOM     77  C   UNL     1     -13.347  13.454   3.275  1.00  0.00     0.173 A 
ATOM     78  C   UNL     1     -11.149  12.494   3.172  1.00  0.00     0.173 A 
ATOM     79  F   UNL     1     -14.507  13.793   2.695  1.00  0.00    -0.203 F 
ATOM     80  C   UNL     1     -13.135  13.795   4.609  1.00  0.00     0.198 A 
ATOM     81  C   UNL     1     -10.950  12.809   4.515  1.00  0.00     0.198 A 
ATOM     82  F   UNL     1     -10.169  11.871   2.502  1.00  0.00    -0.203 F 
ATOM     83  F   UNL     1     -14.082  14.458   5.286  1.00  0.00    -0.200 F 
ATOM     84  C   UNL     1     -11.939  13.469   5.229  1.00  0.00     0.200 A 
ATOM     85  F   UNL     1      -9.798  12.479   5.114  1.00  0.00    -0.200 F 
ATOM     86  F   UNL     1     -11.735  13.798   6.512  1.00  0.00    -0.200 F 
ENDBRANCH  52  76
BRANCH  64  87
ATOM     87  C   UNL     1     -13.082  16.738  -3.178  1.00  0.00     0.064 A 
ATOM     88  C   UNL     1     -11.929  17.528  -3.060  1.00  0.00     0.173 A 
ATOM     89  C   UNL     1     -14.281  17.372  -3.536  1.00  0.00     0.173 A 
ATOM     90  F   UNL     1     -10.762  16.970  -2.704  1.00  0.00    -0.203 F 
ATOM     91  C   UNL     1     -11.981  18.903  -3.268  1.00  0.00     0.198 A 
ATOM     92  C   UNL     1     -14.323  18.743  -3.773  1.00  0.00     0.198 A 
ATOM     93  F   UNL     1     -15.410  16.660  -3.668  1.00  0.00    -0.203 F 
ATOM     94  F   UNL     1     -10.878  19.646  -3.103  1.00  0.00    -0.200 F 
ATOM     95  C   UNL     1     -13.175  19.508  -3.632  1.00  0.00     0.200 A 
ATOM     96  F   UNL     1     -15.474  19.324  -4.138  1.00  0.00    -0.200 F 
ATOM     97  F   UNL     1     -13.221  20.832  -3.839  1.00  0.00    -0.200 F 
ENDBRANCH  64  87
ENDBRANCH  38  39
ENDBRANCH  30  33
ENDBRANCH  28  29
ENDBRANCH  27  28
ENDBRANCH  26  27
ENDBRANCH   1  26
TORSDOF 16
