REMARK SMILES Cc1c(F)cc(C(=O)NCCCCCCNC(=O)c2ccc(-c3c4nc(c(-c5c(F)c(F)c(F)c(F)c5F)c5ccc([nH]5)c(-c5c(F)c(F)c(F)c(F)c5F)c5nc(c(-c6c(F)c(F)c(F)c(F)c6F)c6ccc3[nH]6)C=C5)C=C4)cc2)cc1S(=O)(=O)NC#N
REMARK SMILES IDX 12 1 11 2 10 3 9 4 7 5 8 6 6 8 1 9 2 10 3 11 83 12 4 13 5 14
REMARK SMILES IDX 82 15 84 16 85 17 86 18 87 19 88 21 89 22 13 23 14 24 15 25
REMARK SMILES IDX 16 26 17 27 18 29 19 30 20 31 81 32 21 33 80 34 22 35 23 36
REMARK SMILES IDX 24 37 74 38 25 39 79 40 73 41 75 42 26 43 78 44 72 45 71 46
REMARK SMILES IDX 27 48 59 49 39 50 58 51 40 52 43 53 57 54 76 55 41 56 42 57
REMARK SMILES IDX 56 59 77 60 44 61 28 62 29 63 37 64 30 65 31 66 35 67 38 68
REMARK SMILES IDX 32 69 33 70 36 71 34 72 60 73 61 74 69 75 62 76 63 77 67 78
REMARK SMILES IDX 70 79 64 80 65 81 68 82 66 83 45 84 46 85 54 86 47 87 48 88
REMARK SMILES IDX 52 89 55 90 49 91 50 92 53 93 51 94
REMARK H PARENT 9 7 87 20 16 28 75 47 43 58
REMARK Flexibility Score: inf
ROOT
ATOM      1  C   UNL     1      -6.771  -0.468  -0.927  1.00  0.00     0.002 C 
ENDROOT
BRANCH   1   2
ATOM      2  C   UNL     1      -5.443   0.301  -0.917  1.00  0.00     0.021 C 
BRANCH   2   3
ATOM      3  C   UNL     1      -4.665   0.042   0.373  1.00  0.00     0.116 C 
BRANCH   3   4
ATOM      4  N   UNL     1      -4.070  -1.269   0.296  1.00  0.00    -0.352 N 
ATOM      5  C   UNL     1      -2.820  -1.718  -0.007  1.00  0.00     0.251 C 
ATOM      6  O   UNL     1      -2.685  -2.934  -0.144  1.00  0.00    -0.269 OA
ATOM      7  H   UNL     1      -4.701  -1.995   0.507  1.00  0.00     0.163 HD
BRANCH   5   8
ATOM      8  C   UNL     1      -1.619  -0.843  -0.103  1.00  0.00     0.044 A 
ATOM      9  C   UNL     1       2.150   1.283  -0.214  1.00  0.00     0.049 C 
ATOM     10  C   UNL     1       0.794   0.675  -0.128  1.00  0.00     0.005 A 
ATOM     11  C   UNL     1       0.775  -0.730   0.010  1.00  0.00     0.128 A 
ATOM     12  C   UNL     1      -0.432   1.334  -0.190  1.00  0.00     0.095 A 
ATOM     13  F   UNL     1       1.933  -1.399   0.121  1.00  0.00    -0.207 F 
ATOM     14  C   UNL     1      -0.394  -1.475   0.048  1.00  0.00     0.053 A 
ATOM     15  C   UNL     1      -1.609   0.540  -0.287  1.00  0.00     0.036 A 
BRANCH  12  16
ATOM     16  S   UNL     1      -0.868   3.063  -0.005  1.00  0.00     0.270 S 
ATOM     17  O   UNL     1      -1.581   3.369  -1.234  1.00  0.00    -0.201 OA
ATOM     18  O   UNL     1      -1.585   3.137   1.252  1.00  0.00    -0.201 OA
BRANCH  16  19
ATOM     19  N   UNL     1       0.266   4.245   0.026  1.00  0.00    -0.215 NA
ATOM     20  H   UNL     1      -0.005   5.129  -0.313  1.00  0.00     0.193 HD
BRANCH  19  21
ATOM     21  C   UNL     1       1.503   4.131   0.460  1.00  0.00     0.191 C 
ATOM     22  N   UNL     1       2.625   4.149   0.712  1.00  0.00    -0.172 NA
ENDBRANCH  19  21
ENDBRANCH  16  19
ENDBRANCH  12  16
ENDBRANCH   5   8
ENDBRANCH   3   4
ENDBRANCH   2   3
ENDBRANCH   1   2
BRANCH   1  23
ATOM     23  C   UNL     1      -7.617  -0.248   0.339  1.00  0.00     0.002 C 
BRANCH  23  24
ATOM     24  C   UNL     1      -7.784   1.228   0.734  1.00  0.00     0.021 C 
BRANCH  24  25
ATOM     25  C   UNL     1      -8.573   1.963  -0.315  1.00  0.00     0.116 C 
BRANCH  25  26
ATOM     26  N   UNL     1      -9.950   1.478  -0.309  1.00  0.00    -0.352 N 
ATOM     27  C   UNL     1     -11.079   2.211  -0.550  1.00  0.00     0.251 C 
ATOM     28  H   UNL     1     -10.079   0.522  -0.112  1.00  0.00     0.163 HD
ATOM     29  O   UNL     1     -12.160   1.907  -0.068  1.00  0.00    -0.269 OA
BRANCH  27  30
ATOM     30  C   UNL     1     -10.950   3.318  -1.499  1.00  0.00     0.039 A 
ATOM     31  C   UNL     1     -11.826   4.406  -1.490  1.00  0.00     0.014 A 
ATOM     32  C   UNL     1      -9.977   3.171  -2.486  1.00  0.00     0.014 A 
ATOM     33  C   UNL     1     -11.747   5.321  -2.528  1.00  0.00     0.010 A 
ATOM     34  C   UNL     1      -9.754   4.166  -3.363  1.00  0.00     0.010 A 
ATOM     35  C   UNL     1     -10.728   5.148  -3.464  1.00  0.00    -0.014 A 
BRANCH  35  36
ATOM     36  C   UNL     1     -10.514   5.949  -4.638  1.00  0.00     0.031 A 
ATOM     37  C   UNL     1     -10.037   7.303  -4.373  1.00  0.00     0.074 A 
ATOM     38  C   UNL     1     -10.533   5.237  -5.792  1.00  0.00     0.049 A 
ATOM     39  N   UNL     1     -10.354   8.331  -5.066  1.00  0.00    -0.248 NA
ATOM     40  C   UNL     1      -9.232   7.650  -3.192  1.00  0.00     0.031 C 
ATOM     41  C   UNL     1      -9.975   5.493  -7.105  1.00  0.00     0.029 A 
ATOM     42  N   UNL     1     -11.196   4.003  -5.970  1.00  0.00    -0.354 N 
ATOM     43  C   UNL     1      -9.409   9.281  -4.746  1.00  0.00     0.074 A 
ATOM     44  C   UNL     1      -8.942   8.935  -3.430  1.00  0.00     0.031 C 
ATOM     45  C   UNL     1     -10.605   4.710  -8.006  1.00  0.00     0.029 A 
ATOM     46  C   UNL     1     -11.651   3.988  -7.299  1.00  0.00     0.049 A 
ATOM     47  H   UNL     1     -11.316   3.295  -5.297  1.00  0.00     0.167 HD
ATOM     48  C   UNL     1      -8.893  10.029  -5.762  1.00  0.00     0.037 A 
ATOM     49  C   UNL     1     -12.996   4.083  -7.520  1.00  0.00     0.037 A 
ATOM     50  C   UNL     1      -9.411   9.512  -7.028  1.00  0.00     0.049 A 
ATOM     51  C   UNL     1     -13.327   5.422  -8.122  1.00  0.00     0.074 A 
ATOM     52  C   UNL     1      -8.873   8.653  -7.972  1.00  0.00     0.029 A 
ATOM     53  N   UNL     1     -10.778   9.528  -7.253  1.00  0.00    -0.354 N 
ATOM     54  N   UNL     1     -12.643   6.515  -7.907  1.00  0.00    -0.248 NA
ATOM     55  C   UNL     1     -14.376   5.592  -9.113  1.00  0.00     0.031 C 
ATOM     56  C   UNL     1      -9.932   8.207  -8.808  1.00  0.00     0.029 A 
ATOM     57  C   UNL     1     -11.112   8.764  -8.346  1.00  0.00     0.049 A 
ATOM     58  H   UNL     1     -11.426  10.022  -6.701  1.00  0.00     0.167 HD
ATOM     59  C   UNL     1     -13.082   7.499  -8.760  1.00  0.00     0.074 A 
ATOM     60  C   UNL     1     -14.165   6.864  -9.489  1.00  0.00     0.031 C 
ATOM     61  C   UNL     1     -12.490   8.735  -8.814  1.00  0.00     0.037 A 
BRANCH  48  62
ATOM     62  C   UNL     1      -7.731  10.989  -5.705  1.00  0.00     0.064 A 
ATOM     63  C   UNL     1      -7.072  11.370  -6.899  1.00  0.00     0.173 A 
ATOM     64  C   UNL     1      -7.261  11.627  -4.543  1.00  0.00     0.173 A 
ATOM     65  F   UNL     1      -7.442  10.892  -8.093  1.00  0.00    -0.203 F 
ATOM     66  C   UNL     1      -6.012  12.275  -6.923  1.00  0.00     0.198 A 
ATOM     67  C   UNL     1      -6.184  12.523  -4.566  1.00  0.00     0.198 A 
ATOM     68  F   UNL     1      -7.854  11.450  -3.356  1.00  0.00    -0.203 F 
ATOM     69  F   UNL     1      -5.439  12.591  -8.093  1.00  0.00    -0.200 F 
ATOM     70  C   UNL     1      -5.562  12.848  -5.755  1.00  0.00     0.200 A 
ATOM     71  F   UNL     1      -5.763  13.086  -3.424  1.00  0.00    -0.200 F 
ATOM     72  F   UNL     1      -4.549  13.725  -5.780  1.00  0.00    -0.200 F 
ENDBRANCH  48  62
BRANCH  49  73
ATOM     73  C   UNL     1     -13.764   3.349  -6.458  1.00  0.00     0.064 A 
ATOM     74  C   UNL     1     -13.472   1.970  -6.345  1.00  0.00     0.173 A 
ATOM     75  C   UNL     1     -14.215   4.007  -5.306  1.00  0.00     0.173 A 
ATOM     76  F   UNL     1     -13.089   1.278  -7.431  1.00  0.00    -0.203 F 
ATOM     77  C   UNL     1     -13.351   1.365  -5.098  1.00  0.00     0.198 A 
ATOM     78  C   UNL     1     -14.156   3.371  -4.062  1.00  0.00     0.198 A 
ATOM     79  F   UNL     1     -14.566   5.300  -5.355  1.00  0.00    -0.203 F 
ATOM     80  F   UNL     1     -12.826   0.134  -5.002  1.00  0.00    -0.200 F 
ATOM     81  C   UNL     1     -13.650   2.082  -3.954  1.00  0.00     0.200 A 
ATOM     82  F   UNL     1     -14.494   4.045  -2.953  1.00  0.00    -0.200 F 
ATOM     83  F   UNL     1     -13.402   1.544  -2.752  1.00  0.00    -0.200 F 
ENDBRANCH  49  73
BRANCH  61  84
ATOM     84  C   UNL     1     -13.078  10.037  -9.352  1.00  0.00     0.064 A 
ATOM     85  C   UNL     1     -14.373  10.184  -9.868  1.00  0.00     0.173 A 
ATOM     86  C   UNL     1     -12.361  11.267  -9.238  1.00  0.00     0.173 A 
ATOM     87  F   UNL     1     -15.225   9.162  -9.959  1.00  0.00    -0.203 F 
ATOM     88  C   UNL     1     -14.886  11.420 -10.274  1.00  0.00     0.198 A 
ATOM     89  C   UNL     1     -12.907  12.506  -9.559  1.00  0.00     0.198 A 
ATOM     90  F   UNL     1     -11.103  11.340  -8.787  1.00  0.00    -0.203 F 
ATOM     91  F   UNL     1     -16.111  11.474 -10.813  1.00  0.00    -0.200 F 
ATOM     92  C   UNL     1     -14.165  12.582 -10.100  1.00  0.00     0.200 A 
ATOM     93  F   UNL     1     -12.202  13.622  -9.322  1.00  0.00    -0.200 F 
ATOM     94  F   UNL     1     -14.686  13.768 -10.437  1.00  0.00    -0.200 F 
ENDBRANCH  61  84
ENDBRANCH  35  36
ENDBRANCH  27  30
ENDBRANCH  25  26
ENDBRANCH  24  25
ENDBRANCH  23  24
ENDBRANCH   1  23
TORSDOF 16
