REMARK SMILES COc1ccc(C(=O)NCCCCCCNC(=O)c2ccc(-c3c4nc(c(-c5c(F)c(F)c(F)c(F)c5F)c5ccc([nH]5)c(-c5c(F)c(F)c(F)c(F)c5F)c5nc(c(-c6c(F)c(F)c(F)c(F)c6F)c6ccc3[nH]6)C=C5)C=C4)cc2)cc1CN1CC(=O)N(C)CC1=O
REMARK SMILES IDX 12 1 11 2 10 3 9 4 7 5 8 6 6 8 3 9 4 10 83 11 5 12 82 13
REMARK SMILES IDX 2 14 1 15 84 16 85 17 86 18 92 19 87 20 91 21 93 22 88 23
REMARK SMILES IDX 89 24 90 25 13 26 14 27 15 28 16 29 17 30 18 32 19 33 20 34
REMARK SMILES IDX 81 35 21 36 80 37 22 38 23 39 24 40 74 41 25 42 79 43 73 44
REMARK SMILES IDX 75 45 26 46 78 47 72 48 71 49 27 51 59 52 39 53 58 54 40 55
REMARK SMILES IDX 43 56 57 57 76 58 41 59 42 60 56 62 77 63 44 64 28 65 29 66
REMARK SMILES IDX 37 67 30 68 31 69 35 70 38 71 32 72 33 73 36 74 34 75 60 76
REMARK SMILES IDX 61 77 69 78 62 79 63 80 67 81 70 82 64 83 65 84 68 85 66 86
REMARK SMILES IDX 45 87 46 88 54 89 47 90 48 91 52 92 55 93 49 94 50 95 53 96
REMARK SMILES IDX 51 97
REMARK H PARENT 9 7 16 31 75 50 43 61
REMARK Flexibility Score: inf
ROOT
ATOM      1  C   UNL     1       6.129  -4.804   5.876  1.00  0.00     0.002 C 
ENDROOT
BRANCH   1   2
ATOM      2  C   UNL     1       5.324  -3.900   4.934  1.00  0.00     0.021 C 
BRANCH   2   3
ATOM      3  C   UNL     1       4.140  -4.623   4.284  1.00  0.00     0.116 C 
BRANCH   3   4
ATOM      4  N   UNL     1       2.962  -4.516   5.128  1.00  0.00    -0.352 N 
ATOM      5  C   UNL     1       1.821  -3.757   5.094  1.00  0.00     0.251 C 
ATOM      6  O   UNL     1       1.013  -3.934   6.008  1.00  0.00    -0.269 OA
ATOM      7  H   UNL     1       2.989  -5.129   5.898  1.00  0.00     0.163 HD
BRANCH   5   8
ATOM      8  C   UNL     1       1.485  -2.770   4.024  1.00  0.00     0.040 A 
ATOM      9  C   UNL     1       0.724  -0.889   2.025  1.00  0.00     0.123 A 
ATOM     10  C   UNL     1      -0.200  -1.390   2.959  1.00  0.00     0.047 A 
ATOM     11  C   UNL     1       2.050  -1.330   2.080  1.00  0.00     0.014 A 
ATOM     12  C   UNL     1       0.165  -2.334   3.926  1.00  0.00     0.017 A 
ATOM     13  C   UNL     1       2.401  -2.220   3.132  1.00  0.00     0.023 A 
BRANCH   9  14
ATOM     14  O   UNL     1       0.184   0.089   1.241  1.00  0.00    -0.496 OA
ATOM     15  C   UNL     1       0.544   0.154  -0.127  1.00  0.00     0.278 C 
ENDBRANCH   9  14
BRANCH  11  16
ATOM     16  C   UNL     1       3.190  -0.946   1.159  1.00  0.00     0.159 C 
BRANCH  16  17
ATOM     17  N   UNL     1       4.161  -0.107   1.841  1.00  0.00    -0.327 N 
ATOM     18  C   UNL     1       4.161   1.319   1.566  1.00  0.00     0.220 C 
ATOM     19  C   UNL     1       5.266  -0.666   2.466  1.00  0.00     0.242 C 
ATOM     20  C   UNL     1       4.761   2.210   2.654  1.00  0.00     0.242 C 
ATOM     21  C   UNL     1       5.746   0.168   3.649  1.00  0.00     0.219 C 
ATOM     22  O   UNL     1       5.615  -1.835   2.315  1.00  0.00    -0.273 OA
ATOM     23  O   UNL     1       4.562   3.425   2.652  1.00  0.00    -0.273 OA
ATOM     24  N   UNL     1       5.721   1.609   3.456  1.00  0.00    -0.335 N 
ATOM     25  C   UNL     1       6.473   2.425   4.387  1.00  0.00     0.147 C 
ENDBRANCH  16  17
ENDBRANCH  11  16
ENDBRANCH   5   8
ENDBRANCH   3   4
ENDBRANCH   2   3
ENDBRANCH   1   2
BRANCH   1  26
ATOM     26  C   UNL     1       6.819  -5.989   5.183  1.00  0.00     0.002 C 
BRANCH  26  27
ATOM     27  C   UNL     1       7.746  -5.610   4.025  1.00  0.00     0.021 C 
BRANCH  27  28
ATOM     28  C   UNL     1       8.929  -4.743   4.439  1.00  0.00     0.116 C 
BRANCH  28  29
ATOM     29  N   UNL     1       9.832  -5.464   5.326  1.00  0.00    -0.352 N 
ATOM     30  C   UNL     1      11.159  -5.768   5.150  1.00  0.00     0.251 C 
ATOM     31  H   UNL     1       9.434  -5.777   6.171  1.00  0.00     0.163 HD
ATOM     32  O   UNL     1      11.716  -6.588   5.866  1.00  0.00    -0.269 OA
BRANCH  30  33
ATOM     33  C   UNL     1      11.913  -5.090   4.076  1.00  0.00     0.039 A 
ATOM     34  C   UNL     1      12.732  -5.843   3.231  1.00  0.00     0.014 A 
ATOM     35  C   UNL     1      11.802  -3.708   3.910  1.00  0.00     0.014 A 
ATOM     36  C   UNL     1      13.398  -5.214   2.177  1.00  0.00     0.010 A 
ATOM     37  C   UNL     1      12.406  -3.096   2.820  1.00  0.00     0.010 A 
ATOM     38  C   UNL     1      13.214  -3.842   1.947  1.00  0.00    -0.014 A 
BRANCH  38  39
ATOM     39  C   UNL     1      13.864  -3.141   0.813  1.00  0.00     0.031 A 
ATOM     40  C   UNL     1      14.852  -2.046   1.090  1.00  0.00     0.074 A 
ATOM     41  C   UNL     1      13.480  -3.408  -0.449  1.00  0.00     0.049 A 
ATOM     42  N   UNL     1      15.402  -1.194   0.263  1.00  0.00    -0.248 NA
ATOM     43  C   UNL     1      15.246  -1.860   2.496  1.00  0.00     0.031 C 
ATOM     44  C   UNL     1      12.501  -4.423  -0.838  1.00  0.00     0.029 A 
ATOM     45  N   UNL     1      13.846  -2.824  -1.636  1.00  0.00    -0.354 N 
ATOM     46  C   UNL     1      16.176  -0.353   1.051  1.00  0.00     0.074 A 
ATOM     47  C   UNL     1      15.992  -0.768   2.424  1.00  0.00     0.031 C 
ATOM     48  C   UNL     1      12.342  -4.391  -2.171  1.00  0.00     0.029 A 
ATOM     49  C   UNL     1      13.171  -3.323  -2.723  1.00  0.00     0.049 A 
ATOM     50  H   UNL     1      14.526  -2.115  -1.702  1.00  0.00     0.167 HD
ATOM     51  C   UNL     1      16.980   0.664   0.659  1.00  0.00     0.037 A 
ATOM     52  C   UNL     1      13.198  -2.944  -4.016  1.00  0.00     0.037 A 
ATOM     53  C   UNL     1      17.178   1.047  -0.714  1.00  0.00     0.049 A 
ATOM     54  C   UNL     1      14.097  -1.811  -4.431  1.00  0.00     0.074 A 
ATOM     55  C   UNL     1      18.029   2.010  -1.225  1.00  0.00     0.029 A 
ATOM     56  N   UNL     1      16.509   0.488  -1.794  1.00  0.00    -0.354 N 
ATOM     57  N   UNL     1      14.878  -1.063  -3.689  1.00  0.00    -0.248 NA
ATOM     58  C   UNL     1      14.124  -1.471  -5.860  1.00  0.00     0.031 C 
ATOM     59  C   UNL     1      17.833   2.075  -2.608  1.00  0.00     0.029 A 
ATOM     60  C   UNL     1      16.907   1.108  -2.967  1.00  0.00     0.049 A 
ATOM     61  H   UNL     1      15.850  -0.240  -1.734  1.00  0.00     0.167 HD
ATOM     62  C   UNL     1      15.513  -0.189  -4.561  1.00  0.00     0.074 A 
ATOM     63  C   UNL     1      15.025  -0.498  -5.889  1.00  0.00     0.031 C 
ATOM     64  C   UNL     1      16.423   0.776  -4.284  1.00  0.00     0.037 A 
BRANCH  51  65
ATOM     65  C   UNL     1      17.687   1.443   1.731  1.00  0.00     0.064 A 
ATOM     66  C   UNL     1      18.701   0.875   2.517  1.00  0.00     0.173 A 
ATOM     67  C   UNL     1      17.353   2.786   1.966  1.00  0.00     0.173 A 
ATOM     68  F   UNL     1      19.053  -0.408   2.341  1.00  0.00    -0.203 F 
ATOM     69  C   UNL     1      19.322   1.606   3.526  1.00  0.00     0.198 A 
ATOM     70  C   UNL     1      18.002   3.526   2.951  1.00  0.00     0.198 A 
ATOM     71  F   UNL     1      16.396   3.384   1.239  1.00  0.00    -0.203 F 
ATOM     72  F   UNL     1      20.241   1.021   4.306  1.00  0.00    -0.200 F 
ATOM     73  C   UNL     1      18.977   2.932   3.738  1.00  0.00     0.200 A 
ATOM     74  F   UNL     1      17.678   4.812   3.144  1.00  0.00    -0.200 F 
ATOM     75  F   UNL     1      19.577   3.635   4.708  1.00  0.00    -0.200 F 
ENDBRANCH  51  65
BRANCH  52  76
ATOM     76  C   UNL     1      12.349  -3.657  -5.004  1.00  0.00     0.064 A 
ATOM     77  C   UNL     1      12.918  -4.508  -5.961  1.00  0.00     0.173 A 
ATOM     78  C   UNL     1      10.952  -3.530  -4.992  1.00  0.00     0.173 A 
ATOM     79  F   UNL     1      14.250  -4.648  -6.023  1.00  0.00    -0.203 F 
ATOM     80  C   UNL     1      12.123  -5.199  -6.873  1.00  0.00     0.198 A 
ATOM     81  C   UNL     1      10.156  -4.242  -5.888  1.00  0.00     0.198 A 
ATOM     82  F   UNL     1      10.357  -2.732  -4.093  1.00  0.00    -0.203 F 
ATOM     83  F   UNL     1      12.695  -5.982  -7.798  1.00  0.00    -0.200 F 
ATOM     84  C   UNL     1      10.743  -5.072  -6.831  1.00  0.00     0.200 A 
ATOM     85  F   UNL     1       8.822  -4.129  -5.832  1.00  0.00    -0.200 F 
ATOM     86  F   UNL     1       9.978  -5.747  -7.700  1.00  0.00    -0.200 F 
ENDBRANCH  52  76
BRANCH  64  87
ATOM     87  C   UNL     1      16.998   1.546  -5.437  1.00  0.00     0.064 A 
ATOM     88  C   UNL     1      16.258   2.522  -6.117  1.00  0.00     0.173 A 
ATOM     89  C   UNL     1      18.342   1.365  -5.801  1.00  0.00     0.173 A 
ATOM     90  F   UNL     1      14.966   2.722  -5.816  1.00  0.00    -0.203 F 
ATOM     91  C   UNL     1      16.841   3.286  -7.125  1.00  0.00     0.198 A 
ATOM     92  C   UNL     1      18.929   2.151  -6.788  1.00  0.00     0.198 A 
ATOM     93  F   UNL     1      19.095   0.448  -5.175  1.00  0.00    -0.203 F 
ATOM     94  F   UNL     1      16.109   4.197  -7.782  1.00  0.00    -0.200 F 
ATOM     95  C   UNL     1      18.178   3.109  -7.450  1.00  0.00     0.200 A 
ATOM     96  F   UNL     1      20.225   1.989  -7.088  1.00  0.00    -0.200 F 
ATOM     97  F   UNL     1      18.743   3.863  -8.404  1.00  0.00    -0.200 F 
ENDBRANCH  64  87
ENDBRANCH  38  39
ENDBRANCH  30  33
ENDBRANCH  28  29
ENDBRANCH  27  28
ENDBRANCH  26  27
ENDBRANCH   1  26
TORSDOF 16
