REMARK SMILES O=C(NCCCCCCNC(=O)c1cc(F)c(F)cc1NS(=O)(=O)c1ccc2c(c1)CCC2)c1ccc(-c2c3nc(c(-c4c(F)c(F)c(F)c(F)c4F)c4ccc([nH]4)c(-c4c(F)c(F)c(F)c(F)c4F)c4nc(c(-c5c(F)c(F)c(F)c(F)c5F)c5ccc2[nH]5)C=C4)C=C3)cc1
REMARK SMILES IDX 7 1 6 2 5 3 4 4 3 5 1 6 2 7 34 9 35 10 96 11 36 12 95 13
REMARK SMILES IDX 37 14 38 15 39 16 89 17 40 18 94 19 88 20 90 21 41 22 93 23
REMARK SMILES IDX 87 24 86 25 42 27 74 28 54 29 73 30 55 31 58 32 72 33 91 34
REMARK SMILES IDX 56 35 57 36 71 38 92 39 59 40 43 41 44 42 52 43 45 44 46 45
REMARK SMILES IDX 50 46 53 47 47 48 48 49 51 50 49 51 75 52 76 53 84 54 77 55
REMARK SMILES IDX 78 56 82 57 85 58 79 59 80 60 83 61 81 62 60 63 61 64 69 65
REMARK SMILES IDX 62 66 63 67 67 68 70 69 64 70 65 71 68 72 66 73 8 74 9 75
REMARK SMILES IDX 10 76 11 77 12 79 13 80 14 81 20 82 15 83 19 84 16 85 17 86
REMARK SMILES IDX 18 87 21 88 22 90 23 91 24 92 25 93 26 94 30 95 27 96 29 97
REMARK SMILES IDX 28 98 31 99 33 100 32 101
REMARK H PARENT 3 8 90 26 58 37 10 78 21 89
REMARK Flexibility Score: inf
ROOT
ATOM      1  C   UNL     1       4.736  -0.617  -4.396  1.00  0.00     0.002 C 
ENDROOT
BRANCH   1   2
ATOM      2  C   UNL     1       4.166  -1.744  -3.528  1.00  0.00     0.002 C 
BRANCH   2   3
ATOM      3  C   UNL     1       4.638  -1.750  -2.074  1.00  0.00     0.021 C 
BRANCH   3   4
ATOM      4  C   UNL     1       4.375  -0.456  -1.315  1.00  0.00     0.116 C 
BRANCH   4   5
ATOM      5  N   UNL     1       2.956  -0.184  -1.147  1.00  0.00    -0.352 N 
ATOM      6  O   UNL     1       1.016   0.072  -0.020  1.00  0.00    -0.269 OA
ATOM      7  C   UNL     1       2.241   0.019   0.008  1.00  0.00     0.251 C 
ATOM      8  H   UNL     1       2.434  -0.141  -1.981  1.00  0.00     0.163 HD
BRANCH   7   9
ATOM      9  C   UNL     1       2.956   0.154   1.295  1.00  0.00     0.039 A 
ATOM     10  C   UNL     1       4.099   0.950   1.391  1.00  0.00     0.014 A 
ATOM     11  C   UNL     1       2.475  -0.524   2.418  1.00  0.00     0.014 A 
ATOM     12  C   UNL     1       4.842   0.951   2.564  1.00  0.00     0.010 A 
ATOM     13  C   UNL     1       3.172  -0.444   3.628  1.00  0.00     0.010 A 
ATOM     14  C   UNL     1       4.376   0.273   3.703  1.00  0.00    -0.014 A 
BRANCH  14  15
ATOM     15  C   UNL     1       5.124   0.402   4.979  1.00  0.00     0.031 A 
ATOM     16  C   UNL     1       5.767  -0.787   5.633  1.00  0.00     0.074 A 
ATOM     17  C   UNL     1       5.242   1.626   5.530  1.00  0.00     0.049 A 
ATOM     18  N   UNL     1       6.464  -0.839   6.740  1.00  0.00    -0.248 NA
ATOM     19  C   UNL     1       5.606  -2.089   4.967  1.00  0.00     0.031 C 
ATOM     20  C   UNL     1       4.654   2.850   4.982  1.00  0.00     0.029 A 
ATOM     21  N   UNL     1       5.906   2.051   6.652  1.00  0.00    -0.354 N 
ATOM     22  C   UNL     1       6.815  -2.172   6.909  1.00  0.00     0.074 A 
ATOM     23  C   UNL     1       6.228  -2.905   5.808  1.00  0.00     0.031 C 
ATOM     24  C   UNL     1       5.027   3.893   5.735  1.00  0.00     0.029 A 
ATOM     25  C   UNL     1       5.816   3.405   6.860  1.00  0.00     0.049 A 
ATOM     26  H   UNL     1       6.399   1.444   7.250  1.00  0.00     0.167 HD
ATOM     27  C   UNL     1       7.570  -2.724   7.890  1.00  0.00     0.037 A 
ATOM     28  C   UNL     1       6.297   4.172   7.856  1.00  0.00     0.037 A 
ATOM     29  C   UNL     1       8.158  -1.980   8.976  1.00  0.00     0.049 A 
ATOM     30  C   UNL     1       7.088   3.524   8.954  1.00  0.00     0.074 A 
ATOM     31  C   UNL     1       8.961  -2.447  10.001  1.00  0.00     0.029 A 
ATOM     32  N   UNL     1       8.003  -0.616   9.180  1.00  0.00    -0.354 N 
ATOM     33  N   UNL     1       7.437   2.268   9.087  1.00  0.00    -0.248 NA
ATOM     34  C   UNL     1       7.547   4.394  10.044  1.00  0.00     0.031 C 
ATOM     35  C   UNL     1       9.245  -1.379  10.857  1.00  0.00     0.029 A 
ATOM     36  C   UNL     1       8.673  -0.232  10.332  1.00  0.00     0.049 A 
ATOM     37  H   UNL     1       7.494  -0.011   8.593  1.00  0.00     0.167 HD
ATOM     38  C   UNL     1       8.168   2.197  10.264  1.00  0.00     0.074 A 
ATOM     39  C   UNL     1       8.231   3.543  10.797  1.00  0.00     0.031 C 
ATOM     40  C   UNL     1       8.730   1.112  10.850  1.00  0.00     0.037 A 
BRANCH  27  41
ATOM     41  C   UNL     1       7.810  -4.207   7.850  1.00  0.00     0.064 A 
ATOM     42  C   UNL     1       7.267  -5.042   8.840  1.00  0.00     0.173 A 
ATOM     43  C   UNL     1       8.654  -4.790   6.894  1.00  0.00     0.173 A 
ATOM     44  F   UNL     1       6.460  -4.536   9.784  1.00  0.00    -0.203 F 
ATOM     45  C   UNL     1       7.576  -6.400   8.883  1.00  0.00     0.198 A 
ATOM     46  C   UNL     1       8.938  -6.153   6.923  1.00  0.00     0.198 A 
ATOM     47  F   UNL     1       9.193  -4.039   5.921  1.00  0.00    -0.203 F 
ATOM     48  F   UNL     1       7.078  -7.168   9.862  1.00  0.00    -0.200 F 
ATOM     49  C   UNL     1       8.409  -6.955   7.924  1.00  0.00     0.200 A 
ATOM     50  F   UNL     1       9.726  -6.692   5.982  1.00  0.00    -0.200 F 
ATOM     51  F   UNL     1       8.702  -8.262   7.964  1.00  0.00    -0.200 F 
ENDBRANCH  27  41
BRANCH  28  52
ATOM     52  C   UNL     1       6.040   5.636   7.839  1.00  0.00     0.064 A 
ATOM     53  C   UNL     1       4.743   6.150   7.987  1.00  0.00     0.173 A 
ATOM     54  C   UNL     1       7.082   6.547   7.622  1.00  0.00     0.173 A 
ATOM     55  F   UNL     1       3.710   5.319   8.189  1.00  0.00    -0.203 F 
ATOM     56  C   UNL     1       4.494   7.517   7.887  1.00  0.00     0.198 A 
ATOM     57  C   UNL     1       6.837   7.917   7.556  1.00  0.00     0.198 A 
ATOM     58  F   UNL     1       8.342   6.105   7.492  1.00  0.00    -0.203 F 
ATOM     59  F   UNL     1       3.239   7.976   7.981  1.00  0.00    -0.200 F 
ATOM     60  C   UNL     1       5.542   8.399   7.676  1.00  0.00     0.200 A 
ATOM     61  F   UNL     1       7.855   8.769   7.375  1.00  0.00    -0.200 F 
ATOM     62  F   UNL     1       5.304   9.715   7.589  1.00  0.00    -0.200 F 
ENDBRANCH  28  52
BRANCH  40  63
ATOM     63  C   UNL     1       9.482   1.327  12.131  1.00  0.00     0.064 A 
ATOM     64  C   UNL     1      10.876   1.168  12.172  1.00  0.00     0.173 A 
ATOM     65  C   UNL     1       8.817   1.610  13.333  1.00  0.00     0.173 A 
ATOM     66  F   UNL     1      11.558   0.890  11.051  1.00  0.00    -0.203 F 
ATOM     67  C   UNL     1      11.572   1.263  13.373  1.00  0.00     0.198 A 
ATOM     68  C   UNL     1       9.521   1.736  14.527  1.00  0.00     0.198 A 
ATOM     69  F   UNL     1       7.487   1.786  13.343  1.00  0.00    -0.203 F 
ATOM     70  F   UNL     1      12.898   1.066  13.395  1.00  0.00    -0.200 F 
ATOM     71  C   UNL     1      10.896   1.550  14.549  1.00  0.00     0.200 A 
ATOM     72  F   UNL     1       8.869   2.040  15.658  1.00  0.00    -0.200 F 
ATOM     73  F   UNL     1      11.568   1.650  15.703  1.00  0.00    -0.200 F 
ENDBRANCH  40  63
ENDBRANCH  14  15
ENDBRANCH   7   9
ENDBRANCH   4   5
ENDBRANCH   3   4
ENDBRANCH   2   3
ENDBRANCH   1   2
BRANCH   1  74
ATOM     74  C   UNL     1       6.264  -0.509  -4.412  1.00  0.00     0.021 C 
BRANCH  74  75
ATOM     75  C   UNL     1       6.989  -1.778  -4.856  1.00  0.00     0.116 C 
BRANCH  75  76
ATOM     76  N   UNL     1       6.721  -2.092  -6.253  1.00  0.00    -0.352 N 
ATOM     77  C   UNL     1       7.611  -2.165  -7.296  1.00  0.00     0.253 C 
ATOM     78  H   UNL     1       5.781  -2.277  -6.478  1.00  0.00     0.163 HD
ATOM     79  O   UNL     1       7.232  -2.159  -8.460  1.00  0.00    -0.269 OA
BRANCH  77  80
ATOM     80  C   UNL     1       9.052  -2.182  -6.999  1.00  0.00     0.067 A 
ATOM     81  C   UNL     1       9.532  -3.202  -6.159  1.00  0.00     0.058 A 
ATOM     82  C   UNL     1       9.888  -1.140  -7.444  1.00  0.00     0.065 A 
ATOM     83  C   UNL     1      10.824  -3.118  -5.667  1.00  0.00     0.159 A 
ATOM     84  C   UNL     1      11.143  -1.031  -6.840  1.00  0.00     0.070 A 
ATOM     85  F   UNL     1      11.271  -4.057  -4.824  1.00  0.00    -0.204 F 
ATOM     86  C   UNL     1      11.615  -2.025  -5.984  1.00  0.00     0.160 A 
ATOM     87  F   UNL     1      12.834  -1.898  -5.445  1.00  0.00    -0.204 F 
BRANCH  82  88
ATOM     88  N   UNL     1       9.411  -0.093  -8.330  1.00  0.00    -0.279 N 
ATOM     89  H   UNL     1       8.644   0.464  -8.062  1.00  0.00     0.180 HD
BRANCH  88  90
ATOM     90  S   UNL     1      10.181   0.180  -9.846  1.00  0.00     0.261 S 
ATOM     91  O   UNL     1       9.876  -0.961 -10.684  1.00  0.00    -0.201 OA
ATOM     92  O   UNL     1       9.803   1.515 -10.255  1.00  0.00    -0.201 OA
BRANCH  90  93
ATOM     93  C   UNL     1      11.931   0.173  -9.553  1.00  0.00     0.088 A 
ATOM     94  C   UNL     1      12.625  -1.052  -9.633  1.00  0.00     0.022 A 
ATOM     95  C   UNL     1      12.584   1.362  -9.201  1.00  0.00     0.026 A 
ATOM     96  C   UNL     1      13.958  -1.126  -9.231  1.00  0.00     0.005 A 
ATOM     97  C   UNL     1      13.919   1.274  -8.839  1.00  0.00    -0.043 A 
ATOM     98  C   UNL     1      14.582   0.039  -8.818  1.00  0.00    -0.045 A 
ATOM     99  C   UNL     1      14.822   2.367  -8.354  1.00  0.00     0.036 C 
ATOM    100  C   UNL     1      15.955   0.184  -8.238  1.00  0.00     0.036 C 
ATOM    101  C   UNL     1      16.197   1.685  -8.434  1.00  0.00     0.010 C 
ENDBRANCH  90  93
ENDBRANCH  88  90
ENDBRANCH  82  88
ENDBRANCH  77  80
ENDBRANCH  75  76
ENDBRANCH  74  75
ENDBRANCH   1  74
TORSDOF 16
