REMARK SMILES O=C(NCCCCCCNC(=O)[C@@H](CCCCO)c1cccc(Cl)c1)c1ccc(-c2c3nc(c(-c4c(F)c(F)c(F)c(F)c4F)c4ccc([nH]4)c(-c4c(F)c(F)c(F)c(F)c4F)c4nc(c(-c5c(F)c(F)c(F)c(F)c5F)c5ccc2[nH]5)C=C4)C=C3)cc1
REMARK SMILES IDX 8 1 7 2 6 3 5 4 4 5 3 6 1 7 2 8 26 10 27 11 88 12 28 13
REMARK SMILES IDX 87 14 29 15 30 16 31 17 81 18 32 19 86 20 80 21 82 22 33 23
REMARK SMILES IDX 85 24 79 25 78 26 34 28 66 29 46 30 65 31 47 32 50 33 64 34
REMARK SMILES IDX 83 35 48 36 49 37 63 39 84 40 51 41 35 42 36 43 44 44 37 45
REMARK SMILES IDX 38 46 42 47 45 48 39 49 40 50 43 51 41 52 67 53 68 54 76 55
REMARK SMILES IDX 69 56 70 57 74 58 77 59 71 60 72 61 75 62 73 63 52 64 53 65
REMARK SMILES IDX 61 66 54 67 55 68 59 69 62 70 56 71 57 72 60 73 58 74 9 75
REMARK SMILES IDX 10 76 11 77 12 79 13 80 14 81 15 82 16 83 17 84 18 85 19 87
REMARK SMILES IDX 20 88 25 89 21 90 23 91 22 92 24 93
REMARK H PARENT 3 9 82 27 50 38 10 78 18 86
REMARK Flexibility Score: inf
ROOT
ATOM      1  C   UNL     1       5.840  -4.078  -2.079  1.00  0.00     0.021 C 
ENDROOT
BRANCH   1   2
ATOM      2  C   UNL     1       4.319  -4.008  -1.933  1.00  0.00     0.002 C 
BRANCH   2   3
ATOM      3  C   UNL     1       3.815  -3.826  -0.498  1.00  0.00     0.002 C 
BRANCH   3   4
ATOM      4  C   UNL     1       4.444  -2.664   0.272  1.00  0.00     0.021 C 
BRANCH   4   5
ATOM      5  C   UNL     1       4.332  -1.309  -0.419  1.00  0.00     0.116 C 
BRANCH   5   6
ATOM      6  N   UNL     1       2.948  -0.900  -0.608  1.00  0.00    -0.352 N 
ATOM      7  O   UNL     1       1.034   0.204  -0.155  1.00  0.00    -0.269 OA
ATOM      8  C   UNL     1       2.250   0.137  -0.038  1.00  0.00     0.251 C 
ATOM      9  H   UNL     1       2.434  -1.451  -1.241  1.00  0.00     0.163 HD
BRANCH   8  10
ATOM     10  C   UNL     1       2.974   1.166   0.739  1.00  0.00     0.039 A 
ATOM     11  C   UNL     1       4.170   1.704   0.260  1.00  0.00     0.014 A 
ATOM     12  C   UNL     1       2.448   1.599   1.959  1.00  0.00     0.014 A 
ATOM     13  C   UNL     1       4.923   2.540   1.074  1.00  0.00     0.010 A 
ATOM     14  C   UNL     1       3.160   2.519   2.733  1.00  0.00     0.010 A 
ATOM     15  C   UNL     1       4.425   2.963   2.317  1.00  0.00    -0.014 A 
BRANCH  15  16
ATOM     16  C   UNL     1       5.239   3.891   3.145  1.00  0.00     0.031 A 
ATOM     17  C   UNL     1       5.762   3.475   4.492  1.00  0.00     0.074 A 
ATOM     18  C   UNL     1       5.539   5.107   2.650  1.00  0.00     0.049 A 
ATOM     19  N   UNL     1       6.520   4.143   5.326  1.00  0.00    -0.248 NA
ATOM     20  C   UNL     1       5.378   2.139   4.973  1.00  0.00     0.031 C 
ATOM     21  C   UNL     1       5.082   5.626   1.358  1.00  0.00     0.029 A 
ATOM     22  N   UNL     1       6.316   6.117   3.156  1.00  0.00    -0.354 N 
ATOM     23  C   UNL     1       6.682   3.323   6.436  1.00  0.00     0.074 A 
ATOM     24  C   UNL     1       5.920   2.119   6.182  1.00  0.00     0.031 C 
ATOM     25  C   UNL     1       5.631   6.830   1.148  1.00  0.00     0.029 A 
ATOM     26  C   UNL     1       6.425   7.198   2.315  1.00  0.00     0.049 A 
ATOM     27  H   UNL     1       6.754   6.072   4.036  1.00  0.00     0.167 HD
ATOM     28  C   UNL     1       7.407   3.553   7.558  1.00  0.00     0.037 A 
ATOM     29  C   UNL     1       7.082   8.361   2.470  1.00  0.00     0.037 A 
ATOM     30  C   UNL     1       8.180   4.747   7.793  1.00  0.00     0.049 A 
ATOM     31  C   UNL     1       7.862   8.594   3.733  1.00  0.00     0.074 A 
ATOM     32  C   UNL     1       8.983   5.056   8.878  1.00  0.00     0.029 A 
ATOM     33  N   UNL     1       8.242   5.832   6.930  1.00  0.00    -0.354 N 
ATOM     34  N   UNL     1       8.042   7.794   4.755  1.00  0.00    -0.248 NA
ATOM     35  C   UNL     1       8.532   9.894   3.860  1.00  0.00     0.031 C 
ATOM     36  C   UNL     1       9.483   6.351   8.699  1.00  0.00     0.029 A 
ATOM     37  C   UNL     1       9.048   6.823   7.471  1.00  0.00     0.049 A 
ATOM     38  H   UNL     1       7.781   5.891   6.062  1.00  0.00     0.167 HD
ATOM     39  C   UNL     1       8.873   8.478   5.631  1.00  0.00     0.074 A 
ATOM     40  C   UNL     1       9.172   9.753   5.012  1.00  0.00     0.031 C 
ATOM     41  C   UNL     1       9.347   8.083   6.839  1.00  0.00     0.037 A 
BRANCH  28  42
ATOM     42  C   UNL     1       7.380   2.504   8.635  1.00  0.00     0.064 A 
ATOM     43  C   UNL     1       7.995   1.253   8.473  1.00  0.00     0.173 A 
ATOM     44  C   UNL     1       6.758   2.771   9.866  1.00  0.00     0.173 A 
ATOM     45  F   UNL     1       8.595   0.941   7.315  1.00  0.00    -0.203 F 
ATOM     46  C   UNL     1       7.961   0.299   9.489  1.00  0.00     0.198 A 
ATOM     47  C   UNL     1       6.755   1.827  10.890  1.00  0.00     0.198 A 
ATOM     48  F   UNL     1       6.161   3.953  10.080  1.00  0.00    -0.203 F 
ATOM     49  F   UNL     1       8.511  -0.907   9.290  1.00  0.00    -0.200 F 
ATOM     50  C   UNL     1       7.348   0.590  10.698  1.00  0.00     0.200 A 
ATOM     51  F   UNL     1       6.175   2.116  12.064  1.00  0.00    -0.200 F 
ATOM     52  F   UNL     1       7.323  -0.327  11.676  1.00  0.00    -0.200 F 
ENDBRANCH  28  42
BRANCH  29  53
ATOM     53  C   UNL     1       7.041   9.384   1.393  1.00  0.00     0.064 A 
ATOM     54  C   UNL     1       8.192   9.706   0.660  1.00  0.00     0.173 A 
ATOM     55  C   UNL     1       5.854  10.059   1.072  1.00  0.00     0.173 A 
ATOM     56  F   UNL     1       9.356   9.101   0.942  1.00  0.00    -0.203 F 
ATOM     57  C   UNL     1       8.162  10.678  -0.337  1.00  0.00     0.198 A 
ATOM     58  C   UNL     1       5.817  11.006   0.052  1.00  0.00     0.198 A 
ATOM     59  F   UNL     1       4.723   9.783   1.739  1.00  0.00    -0.203 F 
ATOM     60  F   UNL     1       9.287  11.000  -0.989  1.00  0.00    -0.200 F 
ATOM     61  C   UNL     1       6.973  11.322  -0.645  1.00  0.00     0.200 A 
ATOM     62  F   UNL     1       4.662  11.612  -0.254  1.00  0.00    -0.200 F 
ATOM     63  F   UNL     1       6.943  12.252  -1.609  1.00  0.00    -0.200 F 
ENDBRANCH  29  53
BRANCH  41  64
ATOM     64  C   UNL     1      10.288   9.019   7.543  1.00  0.00     0.064 A 
ATOM     65  C   UNL     1       9.856  10.238   8.087  1.00  0.00     0.173 A 
ATOM     66  C   UNL     1      11.643   8.681   7.686  1.00  0.00     0.173 A 
ATOM     67  F   UNL     1       8.575  10.616   7.963  1.00  0.00    -0.203 F 
ATOM     68  C   UNL     1      10.752  11.099   8.714  1.00  0.00     0.198 A 
ATOM     69  C   UNL     1      12.528   9.528   8.346  1.00  0.00     0.198 A 
ATOM     70  F   UNL     1      12.107   7.524   7.191  1.00  0.00    -0.203 F 
ATOM     71  F   UNL     1      10.329  12.287   9.170  1.00  0.00    -0.200 F 
ATOM     72  C   UNL     1      12.085  10.741   8.849  1.00  0.00     0.200 A 
ATOM     73  F   UNL     1      13.812   9.172   8.488  1.00  0.00    -0.200 F 
ATOM     74  F   UNL     1      12.946  11.570   9.455  1.00  0.00    -0.200 F 
ENDBRANCH  41  64
ENDBRANCH  15  16
ENDBRANCH   8  10
ENDBRANCH   5   6
ENDBRANCH   4   5
ENDBRANCH   3   4
ENDBRANCH   2   3
ENDBRANCH   1   2
BRANCH   1  75
ATOM     75  C   UNL     1       6.483  -5.294  -1.407  1.00  0.00     0.116 C 
BRANCH  75  76
ATOM     76  N   UNL     1       6.619  -6.382  -2.346  1.00  0.00    -0.356 N 
ATOM     77  C   UNL     1       7.728  -7.020  -2.804  1.00  0.00     0.227 C 
ATOM     78  H   UNL     1       5.769  -6.717  -2.715  1.00  0.00     0.163 HD
ATOM     79  O   UNL     1       7.544  -7.919  -3.634  1.00  0.00    -0.274 OA
BRANCH  77  80
ATOM     80  C   UNL     1       9.156  -6.687  -2.329  1.00  0.00     0.108 C 
BRANCH  80  81
ATOM     81  C   UNL     1       9.838  -5.485  -3.043  1.00  0.00     0.018 C 
BRANCH  81  82
ATOM     82  C   UNL     1       9.260  -4.060  -3.059  1.00  0.00     0.004 C 
BRANCH  82  83
ATOM     83  C   UNL     1       9.425  -3.159  -1.828  1.00  0.00     0.028 C 
BRANCH  83  84
ATOM     84  C   UNL     1      10.870  -2.803  -1.482  1.00  0.00     0.156 C 
BRANCH  84  85
ATOM     85  O   UNL     1      11.312  -1.704  -2.263  1.00  0.00    -0.396 OA
ATOM     86  H   UNL     1      11.268  -1.938  -3.204  1.00  0.00     0.210 HD
ENDBRANCH  84  85
ENDBRANCH  83  84
ENDBRANCH  82  83
ENDBRANCH  81  82
ENDBRANCH  80  81
BRANCH  80  87
ATOM     87  C   UNL     1       9.405  -6.970  -0.849  1.00  0.00    -0.034 A 
ATOM     88  C   UNL     1       9.132  -8.257  -0.342  1.00  0.00     0.004 A 
ATOM     89  C   UNL     1       9.971  -6.046   0.032  1.00  0.00     0.025 A 
ATOM     90  C   UNL     1       9.385  -8.583   0.995  1.00  0.00     0.002 A 
ATOM     91  C   UNL     1      10.187  -6.356   1.376  1.00  0.00     0.041 A 
ATOM     92  C   UNL     1       9.899  -7.624   1.863  1.00  0.00     0.020 A 
ATOM     93  Cl  UNL     1      10.820  -5.150   2.428  1.00  0.00    -0.084 Cl
ENDBRANCH  80  87
ENDBRANCH  77  80
ENDBRANCH  75  76
ENDBRANCH   1  75
TORSDOF 19
