REMARK SMILES CCc1ccccc1NC(=O)CCN1C[C@H](C(=O)NCCCCCCNC(=O)c2ccc(-c3c4nc(c(-c5c(F)c(F)c(F)c(F)c5F)c5ccc([nH]5)c(-c5c(F)c(F)c(F)c(F)c5F)c5nc(c(-c6c(F)c(F)c(F)c(F)c6F)c6ccc3[nH]6)C=C5)C=C4)cc2)CC1=O
REMARK SMILES IDX 21 1 20 2 19 3 17 4 18 5 16 7 14 8 15 9 93 10 92 11 94 12
REMARK SMILES IDX 13 13 12 14 10 15 9 16 11 18 8 19 3 20 4 21 5 22 7 23 6 24
REMARK SMILES IDX 2 25 1 26 22 27 23 28 24 29 25 30 26 31 27 32 28 34 29 35
REMARK SMILES IDX 30 36 91 37 31 38 90 39 32 40 33 41 34 42 84 43 35 44 89 45
REMARK SMILES IDX 83 46 85 47 36 48 88 49 82 50 81 51 37 53 69 54 49 55 68 56
REMARK SMILES IDX 50 57 53 58 67 59 86 60 51 61 52 62 66 64 87 65 54 66 38 67
REMARK SMILES IDX 39 68 47 69 40 70 41 71 45 72 48 73 42 74 43 75 46 76 44 77
REMARK SMILES IDX 70 78 71 79 79 80 72 81 73 82 77 83 80 84 74 85 75 86 78 87
REMARK SMILES IDX 76 88 55 89 56 90 64 91 57 92 58 93 62 94 65 95 59 96 60 97
REMARK SMILES IDX 63 98 61 99
REMARK H PARENT 19 6 9 17 26 33 85 52 53 63
REMARK Flexibility Score: inf
ROOT
ATOM      1  C   UNL     1       2.834  -2.197   5.318  1.00  0.00     0.021 C 
ENDROOT
BRANCH   1   2
ATOM      2  C   UNL     1       2.640  -0.734   5.674  1.00  0.00     0.116 C 
BRANCH   2   3
ATOM      3  N   UNL     1       2.798   0.182   4.515  1.00  0.00    -0.356 N 
ATOM      4  C   UNL     1       2.116   1.281   3.827  1.00  0.00     0.225 C 
ATOM      5  O   UNL     1       3.127   1.518   3.063  1.00  0.00    -0.275 OA
ATOM      6  H   UNL     1       3.646  -0.015   4.055  1.00  0.00     0.163 HD
BRANCH   4   7
ATOM      7  C   UNL     1       0.126   2.186   3.889  1.00  0.00     0.107 C 
ATOM      8  N   UNL     1      -1.116   3.995   2.681  1.00  0.00    -0.341 N 
ATOM      9  C   UNL     1      -0.412   3.792   3.916  1.00  0.00     0.133 C 
ATOM     10  C   UNL     1      -1.722   2.850   2.209  1.00  0.00     0.223 C 
ATOM     11  C   UNL     1      -1.395   1.737   3.156  1.00  0.00     0.115 C 
ATOM     12  O   UNL     1      -2.390   2.735   1.195  1.00  0.00    -0.275 OA
BRANCH   8  13
ATOM     13  C   UNL     1      -0.903   5.164   1.863  1.00  0.00     0.129 C 
BRANCH  13  14
ATOM     14  C   UNL     1       0.457   5.172   1.167  1.00  0.00     0.122 C 
BRANCH  14  15
ATOM     15  C   UNL     1       0.733   3.962   0.294  1.00  0.00     0.226 C 
ATOM     16  N   UNL     1       1.077   2.732   0.786  1.00  0.00    -0.326 N 
ATOM     17  H   UNL     1       1.216   2.049   0.091  1.00  0.00     0.169 HD
ATOM     18  O   UNL     1       0.588   4.063  -0.931  1.00  0.00    -0.275 OA
BRANCH  16  19
ATOM     19  C   UNL     1       1.269   2.259   2.097  1.00  0.00     0.044 A 
ATOM     20  C   UNL     1       0.680   0.614   2.518  1.00  0.00    -0.025 A 
ATOM     21  C   UNL     1       0.437   0.179   4.271  1.00  0.00     0.006 A 
ATOM     22  C   UNL     1       1.011   1.325   5.591  1.00  0.00     0.000 A 
ATOM     23  C   UNL     1       1.883   3.334   3.392  1.00  0.00     0.026 A 
ATOM     24  C   UNL     1       1.765   2.872   5.120  1.00  0.00     0.002 A 
BRANCH  20  25
ATOM     25  C   UNL     1       0.450  -0.495   1.504  1.00  0.00     0.034 C 
ATOM     26  C   UNL     1       1.168  -0.415   0.163  1.00  0.00     0.009 C 
ENDBRANCH  20  25
ENDBRANCH  16  19
ENDBRANCH  14  15
ENDBRANCH  13  14
ENDBRANCH   8  13
ENDBRANCH   4   7
ENDBRANCH   2   3
ENDBRANCH   1   2
BRANCH   1  27
ATOM     27  C   UNL     1       4.293  -2.630   5.291  1.00  0.00     0.002 C 
BRANCH  27  28
ATOM     28  C   UNL     1       5.091  -2.250   6.545  1.00  0.00     0.002 C 
BRANCH  28  29
ATOM     29  C   UNL     1       4.449  -2.660   7.877  1.00  0.00     0.021 C 
BRANCH  29  30
ATOM     30  C   UNL     1       4.107  -4.142   7.970  1.00  0.00     0.116 C 
BRANCH  30  31
ATOM     31  N   UNL     1       5.269  -4.968   7.690  1.00  0.00    -0.352 N 
ATOM     32  C   UNL     1       5.899  -5.874   8.498  1.00  0.00     0.251 C 
ATOM     33  H   UNL     1       5.658  -4.860   6.791  1.00  0.00     0.163 HD
ATOM     34  O   UNL     1       7.029  -6.269   8.233  1.00  0.00    -0.269 OA
BRANCH  32  35
ATOM     35  C   UNL     1       5.202  -6.360   9.700  1.00  0.00     0.039 A 
ATOM     36  C   UNL     1       5.902  -6.431  10.904  1.00  0.00     0.014 A 
ATOM     37  C   UNL     1       3.853  -6.726   9.634  1.00  0.00     0.014 A 
ATOM     38  C   UNL     1       5.229  -6.814  12.062  1.00  0.00     0.010 A 
ATOM     39  C   UNL     1       3.165  -7.024  10.803  1.00  0.00     0.010 A 
ATOM     40  C   UNL     1       3.847  -7.069  12.027  1.00  0.00    -0.014 A 
BRANCH  40  41
ATOM     41  C   UNL     1       3.097  -7.345  13.275  1.00  0.00     0.031 A 
ATOM     42  C   UNL     1       2.410  -8.665  13.472  1.00  0.00     0.074 A 
ATOM     43  C   UNL     1       2.993  -6.376  14.204  1.00  0.00     0.049 A 
ATOM     44  N   UNL     1       1.671  -9.068  14.475  1.00  0.00    -0.248 NA
ATOM     45  C   UNL     1       2.550  -9.655  12.393  1.00  0.00     0.031 C 
ATOM     46  C   UNL     1       3.583  -5.039  14.097  1.00  0.00     0.029 A 
ATOM     47  N   UNL     1       2.352  -6.359  15.416  1.00  0.00    -0.354 N 
ATOM     48  C   UNL     1       1.258 -10.352  14.146  1.00  0.00     0.074 A 
ATOM     49  C   UNL     1       1.778 -10.640  12.827  1.00  0.00     0.031 C 
ATOM     50  C   UNL     1       3.302  -4.345  15.209  1.00  0.00     0.029 A 
ATOM     51  C   UNL     1       2.465  -5.163  16.081  1.00  0.00     0.049 A 
ATOM     52  H   UNL     1       1.858  -7.131  15.775  1.00  0.00     0.167 HD
ATOM     53  C   UNL     1       0.528 -11.216  14.890  1.00  0.00     0.037 A 
ATOM     54  C   UNL     1       1.935  -4.762  17.252  1.00  0.00     0.037 A 
ATOM     55  C   UNL     1       0.019 -10.918  16.204  1.00  0.00     0.049 A 
ATOM     56  C   UNL     1       1.088  -5.729  18.035  1.00  0.00     0.074 A 
ATOM     57  C   UNL     1      -0.681 -11.745  17.064  1.00  0.00     0.029 A 
ATOM     58  N   UNL     1       0.141  -9.690  16.841  1.00  0.00    -0.354 N 
ATOM     59  N   UNL     1       0.775  -6.971  17.755  1.00  0.00    -0.248 NA
ATOM     60  C   UNL     1       0.520  -5.238  19.297  1.00  0.00     0.031 C 
ATOM     61  C   UNL     1      -1.053 -10.995  18.183  1.00  0.00     0.029 A 
ATOM     62  C   UNL     1      -0.516  -9.724  18.061  1.00  0.00     0.049 A 
ATOM     63  H   UNL     1       0.623  -8.911  16.480  1.00  0.00     0.167 HD
ATOM     64  C   UNL     1      -0.006  -7.416  18.812  1.00  0.00     0.074 A 
ATOM     65  C   UNL     1      -0.095  -6.320  19.754  1.00  0.00     0.031 C 
ATOM     66  C   UNL     1      -0.601  -8.622  18.986  1.00  0.00     0.037 A 
BRANCH  53  67
ATOM     67  C   UNL     1       0.218 -12.562  14.298  1.00  0.00     0.064 A 
ATOM     68  C   UNL     1       1.218 -13.521  14.071  1.00  0.00     0.173 A 
ATOM     69  C   UNL     1      -1.107 -12.916  13.998  1.00  0.00     0.173 A 
ATOM     70  F   UNL     1       2.502 -13.233  14.332  1.00  0.00    -0.203 F 
ATOM     71  C   UNL     1       0.906 -14.770  13.539  1.00  0.00     0.198 A 
ATOM     72  C   UNL     1      -1.419 -14.179  13.502  1.00  0.00     0.198 A 
ATOM     73  F   UNL     1      -2.104 -12.041  14.200  1.00  0.00    -0.203 F 
ATOM     74  F   UNL     1       1.885 -15.649  13.282  1.00  0.00    -0.200 F 
ATOM     75  C   UNL     1      -0.411 -15.101  13.264  1.00  0.00     0.200 A 
ATOM     76  F   UNL     1      -2.695 -14.503  13.256  1.00  0.00    -0.200 F 
ATOM     77  F   UNL     1      -0.711 -16.308  12.764  1.00  0.00    -0.200 F 
ENDBRANCH  53  67
BRANCH  54  78
ATOM     78  C   UNL     1       2.180  -3.381  17.747  1.00  0.00     0.064 A 
ATOM     79  C   UNL     1       2.910  -3.151  18.921  1.00  0.00     0.173 A 
ATOM     80  C   UNL     1       1.675  -2.263  17.065  1.00  0.00     0.173 A 
ATOM     81  F   UNL     1       3.400  -4.186  19.619  1.00  0.00    -0.203 F 
ATOM     82  C   UNL     1       3.099  -1.859  19.410  1.00  0.00     0.198 A 
ATOM     83  C   UNL     1       1.899  -0.971  17.533  1.00  0.00     0.198 A 
ATOM     84  F   UNL     1       0.975  -2.425  15.932  1.00  0.00    -0.203 F 
ATOM     85  F   UNL     1       3.749  -1.673  20.567  1.00  0.00    -0.200 F 
ATOM     86  C   UNL     1       2.599  -0.770  18.712  1.00  0.00     0.200 A 
ATOM     87  F   UNL     1       1.432   0.079  16.843  1.00  0.00    -0.200 F 
ATOM     88  F   UNL     1       2.785   0.471  19.181  1.00  0.00    -0.200 F 
ENDBRANCH  54  78
BRANCH  66  89
ATOM     89  C   UNL     1      -1.387  -8.828  20.250  1.00  0.00     0.064 A 
ATOM     90  C   UNL     1      -2.597  -8.157  20.483  1.00  0.00     0.173 A 
ATOM     91  C   UNL     1      -0.950  -9.745  21.220  1.00  0.00     0.173 A 
ATOM     92  F   UNL     1      -3.054  -7.260  19.596  1.00  0.00    -0.203 F 
ATOM     93  C   UNL     1      -3.324  -8.374  21.651  1.00  0.00     0.198 A 
ATOM     94  C   UNL     1      -1.700  -9.989  22.366  1.00  0.00     0.198 A 
ATOM     95  F   UNL     1       0.196 -10.420  21.045  1.00  0.00    -0.203 F 
ATOM     96  F   UNL     1      -4.448  -7.679  21.876  1.00  0.00    -0.200 F 
ATOM     97  C   UNL     1      -2.881  -9.297  22.586  1.00  0.00     0.200 A 
ATOM     98  F   UNL     1      -1.280 -10.896  23.259  1.00  0.00    -0.200 F 
ATOM     99  F   UNL     1      -3.589  -9.514  23.702  1.00  0.00    -0.200 F 
ENDBRANCH  66  89
ENDBRANCH  40  41
ENDBRANCH  32  35
ENDBRANCH  30  31
ENDBRANCH  29  30
ENDBRANCH  28  29
ENDBRANCH  27  28
ENDBRANCH   1  27
TORSDOF 18
