REMARK SMILES CCOc1cccc(OCC)c1-c1ccc([C@@H](C)C(=O)NCCCCCCNC(=O)c2ccc(-c3c4nc(c(-c5c(F)c(F)c(F)c(F)c5F)c5ccc([nH]5)c(-c5c(F)c(F)c(F)c(F)c5F)c5nc(c(-c6c(F)c(F)c(F)c(F)c6F)c6ccc3[nH]6)C=C5)C=C4)cc2)cc1F
REMARK SMILES IDX 23 1 22 2 21 3 19 4 20 5 17 7 18 8 16 9 13 10 14 11 95 12
REMARK SMILES IDX 15 13 94 14 96 15 12 16 4 17 5 18 6 19 8 20 7 21 3 22 2 23
REMARK SMILES IDX 1 24 9 25 10 26 11 27 24 28 25 29 26 30 27 31 28 32 29 33
REMARK SMILES IDX 30 35 31 36 32 37 93 38 33 39 92 40 34 41 35 42 36 43 86 44
REMARK SMILES IDX 37 45 91 46 85 47 87 48 38 49 90 50 84 51 83 52 39 54 71 55
REMARK SMILES IDX 51 56 70 57 52 58 55 59 69 60 88 61 53 62 54 63 68 65 89 66
REMARK SMILES IDX 56 67 40 68 41 69 49 70 42 71 43 72 47 73 50 74 44 75 45 76
REMARK SMILES IDX 48 77 46 78 72 79 73 80 81 81 74 82 75 83 79 84 82 85 76 86
REMARK SMILES IDX 77 87 80 88 78 89 57 90 58 91 66 92 59 93 60 94 64 95 67 96
REMARK SMILES IDX 61 97 62 98 65 99 63 100
REMARK H PARENT 21 6 28 34 87 53 55 64
REMARK Flexibility Score: inf
ROOT
ATOM      1  C   UNL     1       2.828  -2.093  -3.893  1.00  0.00     0.021 C 
ENDROOT
BRANCH   1   2
ATOM      2  C   UNL     1       2.416  -1.018  -4.918  1.00  0.00     0.116 C 
BRANCH   2   3
ATOM      3  N   UNL     1       1.019  -0.641  -4.762  1.00  0.00    -0.356 N 
ATOM      4  C   UNL     1       0.367   0.418  -4.206  1.00  0.00     0.227 C 
ATOM      5  O   UNL     1      -0.869   0.321  -4.188  1.00  0.00    -0.274 OA
ATOM      6  H   UNL     1       0.403  -1.305  -5.147  1.00  0.00     0.163 HD
BRANCH   4   7
ATOM      7  C   UNL     1       1.029   1.686  -3.618  1.00  0.00     0.105 C 
ATOM      8  C   UNL     1       1.998   2.392  -4.560  1.00  0.00     0.023 C 
BRANCH   7   9
ATOM      9  C   UNL     1       1.581   1.505  -2.214  1.00  0.00    -0.033 A 
ATOM     10  C   UNL     1       2.557   0.962   0.401  1.00  0.00     0.025 A 
ATOM     11  C   UNL     1       2.956   0.207  -0.697  1.00  0.00     0.012 A 
ATOM     12  C   UNL     1       1.639   1.996   0.171  1.00  0.00     0.131 A 
ATOM     13  C   UNL     1       2.563   0.556  -1.975  1.00  0.00     0.005 A 
ATOM     14  C   UNL     1       1.129   2.247  -1.114  1.00  0.00     0.044 A 
ATOM     15  F   UNL     1       1.205   2.754   1.189  1.00  0.00    -0.206 F 
BRANCH  10  16
ATOM     16  C   UNL     1       3.061   0.551   1.715  1.00  0.00     0.069 A 
ATOM     17  C   UNL     1       2.146  -0.108   2.581  1.00  0.00     0.130 A 
ATOM     18  C   UNL     1       2.545  -0.688   3.787  1.00  0.00     0.047 A 
ATOM     19  C   UNL     1       3.881  -0.642   4.154  1.00  0.00     0.008 A 
ATOM     20  C   UNL     1       4.419   0.606   2.111  1.00  0.00     0.130 A 
ATOM     21  C   UNL     1       4.797   0.009   3.330  1.00  0.00     0.047 A 
BRANCH  17  22
ATOM     22  O   UNL     1       0.806  -0.120   2.268  1.00  0.00    -0.493 OA
BRANCH  22  23
ATOM     23  C   UNL     1       0.348  -1.383   1.775  1.00  0.00     0.226 C 
ATOM     24  C   UNL     1      -0.275  -1.181   0.401  1.00  0.00     0.049 C 
ENDBRANCH  22  23
ENDBRANCH  17  22
BRANCH  20  25
ATOM     25  O   UNL     1       5.519   1.164   1.516  1.00  0.00    -0.493 OA
BRANCH  25  26
ATOM     26  C   UNL     1       5.576   1.647   0.182  1.00  0.00     0.226 C 
ATOM     27  C   UNL     1       6.106   0.563  -0.749  1.00  0.00     0.049 C 
ENDBRANCH  25  26
ENDBRANCH  20  25
ENDBRANCH  10  16
ENDBRANCH   7   9
ENDBRANCH   4   7
ENDBRANCH   2   3
ENDBRANCH   1   2
BRANCH   1  28
ATOM     28  C   UNL     1       2.790  -3.532  -4.404  1.00  0.00     0.002 C 
BRANCH  28  29
ATOM     29  C   UNL     1       3.821  -3.855  -5.489  1.00  0.00     0.002 C 
BRANCH  29  30
ATOM     30  C   UNL     1       5.284  -3.588  -5.117  1.00  0.00     0.021 C 
BRANCH  30  31
ATOM     31  C   UNL     1       5.791  -4.345  -3.892  1.00  0.00     0.116 C 
BRANCH  31  32
ATOM     32  N   UNL     1       5.731  -5.787  -4.079  1.00  0.00    -0.352 N 
ATOM     33  C   UNL     1       6.742  -6.705  -4.138  1.00  0.00     0.251 C 
ATOM     34  H   UNL     1       4.824  -6.157  -4.180  1.00  0.00     0.163 HD
ATOM     35  O   UNL     1       6.513  -7.849  -4.549  1.00  0.00    -0.269 OA
BRANCH  33  36
ATOM     36  C   UNL     1       8.111  -6.347  -3.718  1.00  0.00     0.039 A 
ATOM     37  C   UNL     1       9.195  -6.783  -4.486  1.00  0.00     0.014 A 
ATOM     38  C   UNL     1       8.332  -5.618  -2.545  1.00  0.00     0.014 A 
ATOM     39  C   UNL     1      10.496  -6.444  -4.107  1.00  0.00     0.010 A 
ATOM     40  C   UNL     1       9.623  -5.221  -2.208  1.00  0.00     0.010 A 
ATOM     41  C   UNL     1      10.718  -5.636  -2.980  1.00  0.00    -0.014 A 
BRANCH  41  42
ATOM     42  C   UNL     1      12.090  -5.224  -2.588  1.00  0.00     0.031 A 
ATOM     43  C   UNL     1      12.675  -5.685  -1.283  1.00  0.00     0.074 A 
ATOM     44  C   UNL     1      12.782  -4.381  -3.377  1.00  0.00     0.049 A 
ATOM     45  N   UNL     1      13.823  -5.376  -0.733  1.00  0.00    -0.248 NA
ATOM     46  C   UNL     1      11.847  -6.591  -0.473  1.00  0.00     0.031 C 
ATOM     47  C   UNL     1      12.302  -3.824  -4.642  1.00  0.00     0.029 A 
ATOM     48  N   UNL     1      14.031  -3.832  -3.224  1.00  0.00    -0.354 N 
ATOM     49  C   UNL     1      13.849  -6.041   0.485  1.00  0.00     0.074 A 
ATOM     50  C   UNL     1      12.578  -6.718   0.624  1.00  0.00     0.031 C 
ATOM     51  C   UNL     1      13.248  -3.024  -5.157  1.00  0.00     0.029 A 
ATOM     52  C   UNL     1      14.386  -2.983  -4.243  1.00  0.00     0.049 A 
ATOM     53  H   UNL     1      14.616  -4.029  -2.457  1.00  0.00     0.167 HD
ATOM     54  C   UNL     1      14.852  -6.103   1.395  1.00  0.00     0.037 A 
ATOM     55  C   UNL     1      15.501  -2.248  -4.416  1.00  0.00     0.037 A 
ATOM     56  C   UNL     1      16.119  -5.436   1.247  1.00  0.00     0.049 A 
ATOM     57  C   UNL     1      16.599  -2.327  -3.392  1.00  0.00     0.074 A 
ATOM     58  C   UNL     1      17.219  -5.473   2.087  1.00  0.00     0.029 A 
ATOM     59  N   UNL     1      16.454  -4.604   0.187  1.00  0.00    -0.354 N 
ATOM     60  N   UNL     1      16.640  -3.011  -2.275  1.00  0.00    -0.248 NA
ATOM     61  C   UNL     1      17.811  -1.540  -3.659  1.00  0.00     0.031 C 
ATOM     62  C   UNL     1      18.201  -4.626   1.559  1.00  0.00     0.029 A 
ATOM     63  C   UNL     1      17.736  -4.105   0.362  1.00  0.00     0.049 A 
ATOM     64  H   UNL     1      15.868  -4.399  -0.577  1.00  0.00     0.167 HD
ATOM     65  C   UNL     1      17.886  -2.758  -1.717  1.00  0.00     0.074 A 
ATOM     66  C   UNL     1      18.578  -1.870  -2.628  1.00  0.00     0.031 C 
ATOM     67  C   UNL     1      18.410  -3.221  -0.554  1.00  0.00     0.037 A 
BRANCH  54  68
ATOM     68  C   UNL     1      14.611  -6.922   2.631  1.00  0.00     0.064 A 
ATOM     69  C   UNL     1      14.496  -8.321   2.576  1.00  0.00     0.173 A 
ATOM     70  C   UNL     1      14.505  -6.307   3.888  1.00  0.00     0.173 A 
ATOM     71  F   UNL     1      14.579  -8.959   1.399  1.00  0.00    -0.203 F 
ATOM     72  C   UNL     1      14.243  -9.066   3.725  1.00  0.00     0.198 A 
ATOM     73  C   UNL     1      14.287  -7.060   5.040  1.00  0.00     0.198 A 
ATOM     74  F   UNL     1      14.615  -4.975   4.001  1.00  0.00    -0.203 F 
ATOM     75  F   UNL     1      14.074 -10.393   3.636  1.00  0.00    -0.200 F 
ATOM     76  C   UNL     1      14.144  -8.437   4.956  1.00  0.00     0.200 A 
ATOM     77  F   UNL     1      14.205  -6.451   6.231  1.00  0.00    -0.200 F 
ATOM     78  F   UNL     1      13.900  -9.155   6.060  1.00  0.00    -0.200 F 
ENDBRANCH  54  68
BRANCH  55  79
ATOM     79  C   UNL     1      15.635  -1.392  -5.623  1.00  0.00     0.064 A 
ATOM     80  C   UNL     1      16.537  -1.720  -6.644  1.00  0.00     0.173 A 
ATOM     81  C   UNL     1      14.848  -0.243  -5.792  1.00  0.00     0.173 A 
ATOM     82  F   UNL     1      17.323  -2.800  -6.520  1.00  0.00    -0.203 F 
ATOM     83  C   UNL     1      16.659  -0.924  -7.781  1.00  0.00     0.198 A 
ATOM     84  C   UNL     1      14.950   0.537  -6.942  1.00  0.00     0.198 A 
ATOM     85  F   UNL     1      13.964   0.110  -4.848  1.00  0.00    -0.203 F 
ATOM     86  F   UNL     1      17.555  -1.241  -8.725  1.00  0.00    -0.200 F 
ATOM     87  C   UNL     1      15.860   0.199  -7.933  1.00  0.00     0.200 A 
ATOM     88  F   UNL     1      14.164   1.611  -7.092  1.00  0.00    -0.200 F 
ATOM     89  F   UNL     1      15.968   0.958  -9.032  1.00  0.00    -0.200 F 
ENDBRANCH  55  79
BRANCH  67  90
ATOM     90  C   UNL     1      19.810  -2.797  -0.215  1.00  0.00     0.064 A 
ATOM     91  C   UNL     1      20.109  -1.484   0.178  1.00  0.00     0.173 A 
ATOM     92  C   UNL     1      20.860  -3.728  -0.245  1.00  0.00     0.173 A 
ATOM     93  F   UNL     1      19.144  -0.553   0.209  1.00  0.00    -0.203 F 
ATOM     94  C   UNL     1      21.411  -1.113   0.503  1.00  0.00     0.198 A 
ATOM     95  C   UNL     1      22.154  -3.361   0.111  1.00  0.00     0.198 A 
ATOM     96  F   UNL     1      20.627  -4.999  -0.608  1.00  0.00    -0.203 F 
ATOM     97  F   UNL     1      21.681   0.158   0.829  1.00  0.00    -0.200 F 
ATOM     98  C   UNL     1      22.430  -2.053   0.477  1.00  0.00     0.200 A 
ATOM     99  F   UNL     1      23.136  -4.274   0.098  1.00  0.00    -0.200 F 
ATOM    100  F   UNL     1      23.681  -1.696   0.798  1.00  0.00    -0.200 F 
ENDBRANCH  67  90
ENDBRANCH  41  42
ENDBRANCH  33  36
ENDBRANCH  31  32
ENDBRANCH  30  31
ENDBRANCH  29  30
ENDBRANCH  28  29
ENDBRANCH   1  28
TORSDOF 19
