REMARK SMILES CC[C@@H](C(=O)NCCCCCCNC(=O)c1ccc(-c2c3nc(c(-c4c(F)c(F)c(F)c(F)c4F)c4ccc([nH]4)c(-c4c(F)c(F)c(F)c(F)c4F)c4nc(c(-c5c(F)c(F)c(F)c(F)c5F)c5ccc2[nH]5)C=C4)C=C3)cc1)N1C(=O)/C(=C/c2ccccc2[N+](=O)[O-])SC1=S
REMARK SMILES IDX 9 1 8 2 7 3 6 4 4 5 5 6 3 8 2 9 1 10 79 11 80 12 94 13 81 14
REMARK SMILES IDX 82 15 93 16 95 17 83 18 84 19 85 20 89 21 86 22 88 23 87 24
REMARK SMILES IDX 90 25 91 26 92 27 10 28 11 29 12 30 13 31 14 32 15 34 16 35
REMARK SMILES IDX 17 36 78 37 18 38 77 39 19 40 20 41 21 42 71 43 22 44 76 45
REMARK SMILES IDX 70 46 72 47 23 48 75 49 69 50 68 51 24 53 56 54 36 55 55 56
REMARK SMILES IDX 37 57 40 58 54 59 73 60 38 61 39 62 53 64 74 65 41 66 25 67
REMARK SMILES IDX 26 68 34 69 27 70 28 71 32 72 35 73 29 74 30 75 33 76 31 77
REMARK SMILES IDX 57 78 58 79 66 80 59 81 60 82 64 83 67 84 61 85 62 86 65 87
REMARK SMILES IDX 63 88 42 89 43 90 51 91 44 92 45 93 49 94 52 95 46 96 47 97
REMARK SMILES IDX 50 98 48 99
REMARK H PARENT 6 7 13 33 72 52 40 63
REMARK Flexibility Score: inf
ROOT
ATOM      1  C   UNL     1       0.795   3.618  -2.037  1.00  0.00     0.002 C 
ENDROOT
BRANCH   1   2
ATOM      2  C   UNL     1       1.095   2.241  -1.438  1.00  0.00     0.021 C 
BRANCH   2   3
ATOM      3  C   UNL     1       1.636   2.287  -0.006  1.00  0.00     0.116 C 
BRANCH   3   4
ATOM      4  N   UNL     1       0.534   2.423   0.928  1.00  0.00    -0.354 N 
ATOM      5  C   UNL     1       0.042   1.544   1.848  1.00  0.00     0.243 C 
ATOM      6  O   UNL     1      -1.069   1.785   2.331  1.00  0.00    -0.273 OA
ATOM      7  H   UNL     1       0.066   3.288   0.892  1.00  0.00     0.163 HD
BRANCH   5   8
ATOM      8  C   UNL     1       0.850   0.292   2.265  1.00  0.00     0.181 C 
BRANCH   8   9
ATOM      9  C   UNL     1       0.208  -0.887   1.468  1.00  0.00     0.032 C 
ATOM     10  C   UNL     1       0.684  -1.023   0.032  1.00  0.00     0.006 C 
ENDBRANCH   8   9
BRANCH   8  11
ATOM     11  N   UNL     1       0.719   0.101   3.744  1.00  0.00    -0.280 N 
ATOM     12  C   UNL     1       0.925  -1.144   4.293  1.00  0.00     0.266 C 
ATOM     13  C   UNL     1       0.809   1.089   4.709  1.00  0.00     0.149 C 
ATOM     14  O   UNL     1       1.530  -2.088   3.780  1.00  0.00    -0.268 OA
ATOM     15  C   UNL     1       0.460  -1.180   5.693  1.00  0.00     0.081 C 
ATOM     16  S   UNL     1       0.328   0.417   6.280  1.00  0.00    -0.054 SA
ATOM     17  S   UNL     1       1.348   2.664   4.573  1.00  0.00    -0.052 S 
ATOM     18  C   UNL     1       0.176  -2.344   6.288  1.00  0.00     0.036 C 
BRANCH  18  19
ATOM     19  C   UNL     1      -0.412  -2.527   7.619  1.00  0.00     0.054 A 
ATOM     20  C   UNL     1       0.424  -3.051   8.616  1.00  0.00     0.015 A 
ATOM     21  C   UNL     1      -1.753  -2.258   7.950  1.00  0.00     0.276 A 
ATOM     22  C   UNL     1      -0.063  -3.291   9.904  1.00  0.00     0.001 A 
ATOM     23  C   UNL     1      -2.243  -2.490   9.246  1.00  0.00     0.086 A 
ATOM     24  C   UNL     1      -1.392  -3.010  10.220  1.00  0.00     0.007 A 
BRANCH  21  25
ATOM     25  N   UNL     1      -2.702  -1.766   6.954  1.00  0.00     0.063 N 
ATOM     26  O   UNL     1      -3.513  -0.905   7.322  1.00  0.00    -0.258 OA
ATOM     27  O   UNL     1      -2.664  -2.265   5.820  1.00  0.00    -0.258 OA
ENDBRANCH  21  25
ENDBRANCH  18  19
ENDBRANCH   8  11
ENDBRANCH   5   8
ENDBRANCH   3   4
ENDBRANCH   2   3
ENDBRANCH   1   2
BRANCH   1  28
ATOM     28  C   UNL     1       2.029   4.418  -2.462  1.00  0.00     0.002 C 
BRANCH  28  29
ATOM     29  C   UNL     1       2.971   3.710  -3.441  1.00  0.00     0.021 C 
BRANCH  29  30
ATOM     30  C   UNL     1       2.307   3.130  -4.688  1.00  0.00     0.116 C 
BRANCH  30  31
ATOM     31  N   UNL     1       1.706   4.154  -5.526  1.00  0.00    -0.352 N 
ATOM     32  C   UNL     1       1.966   4.474  -6.835  1.00  0.00     0.251 C 
ATOM     33  H   UNL     1       1.010   4.698  -5.091  1.00  0.00     0.163 HD
ATOM     34  O   UNL     1       1.476   5.483  -7.338  1.00  0.00    -0.269 OA
BRANCH  32  35
ATOM     35  C   UNL     1       2.861   3.619  -7.641  1.00  0.00     0.039 A 
ATOM     36  C   UNL     1       3.897   4.219  -8.362  1.00  0.00     0.014 A 
ATOM     37  C   UNL     1       2.683   2.233  -7.685  1.00  0.00     0.014 A 
ATOM     38  C   UNL     1       4.802   3.422  -9.067  1.00  0.00     0.010 A 
ATOM     39  C   UNL     1       3.616   1.436  -8.344  1.00  0.00     0.010 A 
ATOM     40  C   UNL     1       4.691   2.023  -9.031  1.00  0.00    -0.014 A 
BRANCH  40  41
ATOM     41  C   UNL     1       5.712   1.156  -9.671  1.00  0.00     0.031 A 
ATOM     42  C   UNL     1       5.354   0.306 -10.855  1.00  0.00     0.074 A 
ATOM     43  C   UNL     1       6.943   1.078  -9.130  1.00  0.00     0.049 A 
ATOM     44  N   UNL     1       6.085  -0.576 -11.489  1.00  0.00    -0.248 NA
ATOM     45  C   UNL     1       3.989   0.450 -11.383  1.00  0.00     0.031 C 
ATOM     46  C   UNL     1       7.396   1.819  -7.952  1.00  0.00     0.029 A 
ATOM     47  N   UNL     1       8.033   0.325  -9.489  1.00  0.00    -0.354 N 
ATOM     48  C   UNL     1       5.266  -1.103 -12.479  1.00  0.00     0.074 A 
ATOM     49  C   UNL     1       3.973  -0.468 -12.340  1.00  0.00     0.031 C 
ATOM     50  C   UNL     1       8.671   1.489  -7.689  1.00  0.00     0.029 A 
ATOM     51  C   UNL     1       9.114   0.491  -8.659  1.00  0.00     0.049 A 
ATOM     52  H   UNL     1       8.039  -0.278 -10.267  1.00  0.00     0.167 HD
ATOM     53  C   UNL     1       5.573  -2.019 -13.427  1.00  0.00     0.037 A 
ATOM     54  C   UNL     1      10.322  -0.103  -8.669  1.00  0.00     0.037 A 
ATOM     55  C   UNL     1       6.869  -2.627 -13.584  1.00  0.00     0.049 A 
ATOM     56  C   UNL     1      10.635  -1.117  -9.733  1.00  0.00     0.074 A 
ATOM     57  C   UNL     1       7.298  -3.505 -14.564  1.00  0.00     0.029 A 
ATOM     58  N   UNL     1       7.944  -2.421 -12.733  1.00  0.00    -0.354 N 
ATOM     59  N   UNL     1       9.875  -1.556 -10.706  1.00  0.00    -0.248 NA
ATOM     60  C   UNL     1      11.976  -1.720  -9.701  1.00  0.00     0.031 C 
ATOM     61  C   UNL     1       8.622  -3.860 -14.286  1.00  0.00     0.029 A 
ATOM     62  C   UNL     1       9.029  -3.175 -13.152  1.00  0.00     0.049 A 
ATOM     63  H   UNL     1       7.939  -1.827 -11.948  1.00  0.00     0.167 HD
ATOM     64  C   UNL     1      10.646  -2.469 -11.410  1.00  0.00     0.074 A 
ATOM     65  C   UNL     1      11.941  -2.512 -10.764  1.00  0.00     0.031 C 
ATOM     66  C   UNL     1      10.309  -3.209 -12.495  1.00  0.00     0.037 A 
BRANCH  53  67
ATOM     67  C   UNL     1       4.489  -2.422 -14.381  1.00  0.00     0.064 A 
ATOM     68  C   UNL     1       4.054  -1.562 -15.401  1.00  0.00     0.173 A 
ATOM     69  C   UNL     1       3.916  -3.700 -14.309  1.00  0.00     0.173 A 
ATOM     70  F   UNL     1       4.565  -0.326 -15.505  1.00  0.00    -0.203 F 
ATOM     71  C   UNL     1       3.070  -1.961 -16.301  1.00  0.00     0.198 A 
ATOM     72  C   UNL     1       2.948  -4.104 -15.225  1.00  0.00     0.198 A 
ATOM     73  F   UNL     1       4.301  -4.561 -13.355  1.00  0.00    -0.203 F 
ATOM     74  F   UNL     1       2.644  -1.111 -17.246  1.00  0.00    -0.200 F 
ATOM     75  C   UNL     1       2.523  -3.233 -16.217  1.00  0.00     0.200 A 
ATOM     76  F   UNL     1       2.428  -5.336 -15.149  1.00  0.00    -0.200 F 
ATOM     77  F   UNL     1       1.582  -3.618 -17.090  1.00  0.00    -0.200 F 
ENDBRANCH  53  67
BRANCH  54  78
ATOM     78  C   UNL     1      11.331   0.256  -7.641  1.00  0.00     0.064 A 
ATOM     79  C   UNL     1      12.464   1.009  -7.979  1.00  0.00     0.173 A 
ATOM     80  C   UNL     1      11.186  -0.146  -6.306  1.00  0.00     0.173 A 
ATOM     81  F   UNL     1      12.655   1.396  -9.248  1.00  0.00    -0.203 F 
ATOM     82  C   UNL     1      13.422   1.334  -7.021  1.00  0.00     0.198 A 
ATOM     83  C   UNL     1      12.133   0.199  -5.345  1.00  0.00     0.198 A 
ATOM     84  F   UNL     1      10.117  -0.866  -5.934  1.00  0.00    -0.203 F 
ATOM     85  F   UNL     1      14.515   2.022  -7.378  1.00  0.00    -0.200 F 
ATOM     86  C   UNL     1      13.253   0.933  -5.704  1.00  0.00     0.200 A 
ATOM     87  F   UNL     1      11.960  -0.179  -4.071  1.00  0.00    -0.200 F 
ATOM     88  F   UNL     1      14.173   1.249  -4.783  1.00  0.00    -0.200 F 
ENDBRANCH  54  78
BRANCH  66  89
ATOM     89  C   UNL     1      11.361  -4.117 -13.056  1.00  0.00     0.064 A 
ATOM     90  C   UNL     1      11.711  -5.313 -12.413  1.00  0.00     0.173 A 
ATOM     91  C   UNL     1      11.999  -3.807 -14.266  1.00  0.00     0.173 A 
ATOM     92  F   UNL     1      11.141  -5.643 -11.245  1.00  0.00    -0.203 F 
ATOM     93  C   UNL     1      12.676  -6.158 -12.954  1.00  0.00     0.198 A 
ATOM     94  C   UNL     1      12.947  -4.666 -14.816  1.00  0.00     0.198 A 
ATOM     95  F   UNL     1      11.696  -2.675 -14.920  1.00  0.00    -0.203 F 
ATOM     96  F   UNL     1      13.024  -7.278 -12.303  1.00  0.00    -0.200 F 
ATOM     97  C   UNL     1      13.288  -5.838 -14.157  1.00  0.00     0.200 A 
ATOM     98  F   UNL     1      13.531  -4.359 -15.982  1.00  0.00    -0.200 F 
ATOM     99  F   UNL     1      14.213  -6.655 -14.678  1.00  0.00    -0.200 F 
ENDBRANCH  66  89
ENDBRANCH  40  41
ENDBRANCH  32  35
ENDBRANCH  30  31
ENDBRANCH  29  30
ENDBRANCH  28  29
ENDBRANCH   1  28
TORSDOF 17
