REMARK SMILES O=C(CCC1CC[NH+]([C@H]2CCO[C@@]3(CCSC3)C2)CC1)NCCCCCCNC(=O)c1ccc(-c2c3nc(c(-c4c(F)c(F)c(F)c(F)c4F)c4ccc([nH]4)c(-c4c(F)c(F)c(F)c(F)c4F)c4nc(c(-c5c(F)c(F)c(F)c(F)c5F)c5ccc2[nH]5)C=C4)C=C3)cc1
REMARK SMILES IDX 24 1 23 2 22 3 21 4 1 5 2 6 3 8 4 9 5 10 6 11 20 12 7 13
REMARK SMILES IDX 19 14 8 15 9 17 10 18 18 19 11 20 13 21 12 22 14 23 17 24
REMARK SMILES IDX 15 25 16 26 25 27 26 28 27 29 28 30 29 31 30 33 31 34 32 35
REMARK SMILES IDX 93 36 33 37 92 38 34 39 35 40 36 41 86 42 37 43 91 44 85 45
REMARK SMILES IDX 87 46 38 47 90 48 84 49 83 50 39 52 71 53 51 54 70 55 52 56
REMARK SMILES IDX 55 57 69 58 88 59 53 60 54 61 68 63 89 64 56 65 40 66 41 67
REMARK SMILES IDX 49 68 42 69 43 70 47 71 50 72 44 73 45 74 48 75 46 76 72 77
REMARK SMILES IDX 73 78 81 79 74 80 75 81 79 82 82 83 76 84 77 85 80 86 78 87
REMARK SMILES IDX 57 88 58 89 66 90 59 91 60 92 64 93 67 94 61 95 62 96 65 97
REMARK SMILES IDX 63 98
REMARK H PARENT 21 7 8 16 28 32 87 51 55 62
REMARK Flexibility Score: inf
ROOT
ATOM      1  C   UNL     1       0.561   5.104  -2.933  1.00  0.00     0.002 C 
ENDROOT
BRANCH   1   2
ATOM      2  C   UNL     1       0.616   6.571  -3.388  1.00  0.00     0.021 C 
BRANCH   2   3
ATOM      3  C   UNL     1       1.741   6.890  -4.365  1.00  0.00     0.116 C 
BRANCH   3   4
ATOM      4  N   UNL     1       1.581   6.157  -5.600  1.00  0.00    -0.356 N 
ATOM      5  O   UNL     1       2.712   7.646  -6.931  1.00  0.00    -0.275 OA
ATOM      6  C   UNL     1       2.144   6.575  -6.781  1.00  0.00     0.220 C 
ATOM      7  H   UNL     1       1.050   5.328  -5.594  1.00  0.00     0.163 HD
BRANCH   6   8
ATOM      8  C   UNL     1       2.046   5.539  -7.878  1.00  0.00     0.100 C 
BRANCH   8   9
ATOM      9  C   UNL     1       3.324   4.695  -7.983  1.00  0.00     0.014 C 
BRANCH   9  10
ATOM     10  C   UNL     1       3.268   3.347  -7.220  1.00  0.00     0.000 C 
ATOM     11  C   UNL     1       3.516   3.482  -5.699  1.00  0.00     0.065 C 
ATOM     12  C   UNL     1       4.186   2.312  -7.902  1.00  0.00     0.065 C 
ATOM     13  C   UNL     1       4.902   3.097  -5.167  1.00  0.00     0.262 C 
ATOM     14  C   UNL     1       5.569   2.225  -7.279  1.00  0.00     0.262 C 
ATOM     15  N   UNL     1       5.537   1.972  -5.840  1.00  0.00    -0.332 N 
ATOM     16  H   UNL     1       6.516   1.922  -5.558  1.00  0.00     0.348 HD
BRANCH  15  17
ATOM     17  C   UNL     1       5.174   0.623  -5.348  1.00  0.00     0.189 C 
ATOM     18  C   UNL     1       3.675   0.299  -5.213  1.00  0.00     0.093 C 
ATOM     19  C   UNL     1       5.914  -0.491  -6.118  1.00  0.00     0.101 C 
ATOM     20  C   UNL     1       3.412  -1.156  -4.857  1.00  0.00     0.167 C 
ATOM     21  C   UNL     1       5.539  -1.912  -5.658  1.00  0.00     0.084 C 
ATOM     22  O   UNL     1       4.109  -2.044  -5.722  1.00  0.00    -0.374 OA
ATOM     23  C   UNL     1       6.114  -2.962  -6.626  1.00  0.00     0.047 C 
ATOM     24  C   UNL     1       6.077  -2.303  -4.269  1.00  0.00     0.105 C 
ATOM     25  C   UNL     1       7.583  -3.159  -6.309  1.00  0.00     0.072 C 
ATOM     26  S   UNL     1       7.670  -3.140  -4.505  1.00  0.00    -0.159 SA
ENDBRANCH  15  17
ENDBRANCH   9  10
ENDBRANCH   8   9
ENDBRANCH   6   8
ENDBRANCH   3   4
ENDBRANCH   2   3
ENDBRANCH   1   2
BRANCH   1  27
ATOM     27  C   UNL     1       1.770   4.615  -2.131  1.00  0.00     0.002 C 
BRANCH  27  28
ATOM     28  C   UNL     1       2.094   5.435  -0.883  1.00  0.00     0.021 C 
BRANCH  28  29
ATOM     29  C   UNL     1       0.922   5.644   0.070  1.00  0.00     0.116 C 
BRANCH  29  30
ATOM     30  N   UNL     1       0.439   4.401   0.649  1.00  0.00    -0.352 N 
ATOM     31  C   UNL     1       0.153   4.119   1.963  1.00  0.00     0.251 C 
ATOM     32  H   UNL     1       0.298   3.662   0.015  1.00  0.00     0.163 HD
ATOM     33  O   UNL     1      -0.103   2.971   2.311  1.00  0.00    -0.269 OA
BRANCH  31  34
ATOM     34  C   UNL     1       0.187   5.206   2.965  1.00  0.00     0.039 A 
ATOM     35  C   UNL     1       0.862   4.993   4.169  1.00  0.00     0.014 A 
ATOM     36  C   UNL     1      -0.424   6.436   2.708  1.00  0.00     0.014 A 
ATOM     37  C   UNL     1       0.981   6.038   5.087  1.00  0.00     0.010 A 
ATOM     38  C   UNL     1      -0.235   7.499   3.587  1.00  0.00     0.010 A 
ATOM     39  C   UNL     1       0.467   7.311   4.787  1.00  0.00    -0.014 A 
BRANCH  39  40
ATOM     40  C   UNL     1       0.658   8.456   5.713  1.00  0.00     0.031 A 
ATOM     41  C   UNL     1      -0.530   9.121   6.350  1.00  0.00     0.074 A 
ATOM     42  C   UNL     1       1.897   8.939   5.931  1.00  0.00     0.049 A 
ATOM     43  N   UNL     1      -0.572  10.168   7.135  1.00  0.00    -0.248 NA
ATOM     44  C   UNL     1      -1.850   8.550   6.042  1.00  0.00     0.031 C 
ATOM     45  C   UNL     1       3.126   8.413   5.333  1.00  0.00     0.029 A 
ATOM     46  N   UNL     1       2.328   9.987   6.705  1.00  0.00    -0.354 N 
ATOM     47  C   UNL     1      -1.917  10.386   7.402  1.00  0.00     0.074 A 
ATOM     48  C   UNL     1      -2.663   9.402   6.649  1.00  0.00     0.031 C 
ATOM     49  C   UNL     1       4.172   9.123   5.782  1.00  0.00     0.029 A 
ATOM     50  C   UNL     1       3.687  10.181   6.663  1.00  0.00     0.049 A 
ATOM     51  H   UNL     1       1.720  10.547   7.240  1.00  0.00     0.167 HD
ATOM     52  C   UNL     1      -2.478  11.308   8.222  1.00  0.00     0.037 A 
ATOM     53  C   UNL     1       4.455  11.113   7.261  1.00  0.00     0.037 A 
ATOM     54  C   UNL     1      -1.731  12.276   8.982  1.00  0.00     0.049 A 
ATOM     55  C   UNL     1       3.806  12.137   8.152  1.00  0.00     0.074 A 
ATOM     56  C   UNL     1      -2.201  13.213   9.884  1.00  0.00     0.029 A 
ATOM     57  N   UNL     1      -0.354  12.435   8.922  1.00  0.00    -0.354 N 
ATOM     58  N   UNL     1       2.539  12.287   8.457  1.00  0.00    -0.248 NA
ATOM     59  C   UNL     1       4.695  13.119   8.789  1.00  0.00     0.031 C 
ATOM     60  C   UNL     1      -1.117  13.978  10.326  1.00  0.00     0.029 A 
ATOM     61  C   UNL     1       0.039  13.475   9.749  1.00  0.00     0.049 A 
ATOM     62  H   UNL     1       0.255  11.890   8.372  1.00  0.00     0.167 HD
ATOM     63  C   UNL     1       2.483  13.356   9.342  1.00  0.00     0.074 A 
ATOM     64  C   UNL     1       3.845  13.808   9.537  1.00  0.00     0.031 C 
ATOM     65  C   UNL     1       1.400  13.911   9.940  1.00  0.00     0.037 A 
BRANCH  52  66
ATOM     66  C   UNL     1      -3.977  11.316   8.334  1.00  0.00     0.064 A 
ATOM     67  C   UNL     1      -4.677  10.266   8.950  1.00  0.00     0.173 A 
ATOM     68  C   UNL     1      -4.722  12.400   7.847  1.00  0.00     0.173 A 
ATOM     69  F   UNL     1      -4.015   9.200   9.425  1.00  0.00    -0.203 F 
ATOM     70  C   UNL     1      -6.066  10.284   9.040  1.00  0.00     0.198 A 
ATOM     71  C   UNL     1      -6.109  12.432   7.971  1.00  0.00     0.198 A 
ATOM     72  F   UNL     1      -4.106  13.434   7.255  1.00  0.00    -0.203 F 
ATOM     73  F   UNL     1      -6.715   9.243   9.580  1.00  0.00    -0.200 F 
ATOM     74  C   UNL     1      -6.781  11.370   8.557  1.00  0.00     0.200 A 
ATOM     75  F   UNL     1      -6.797  13.489   7.517  1.00  0.00    -0.200 F 
ATOM     76  F   UNL     1      -8.117  11.389   8.650  1.00  0.00    -0.200 F 
ENDBRANCH  52  66
BRANCH  53  77
ATOM     77  C   UNL     1       5.927  11.105   7.053  1.00  0.00     0.064 A 
ATOM     78  C   UNL     1       6.801  10.780   8.101  1.00  0.00     0.173 A 
ATOM     79  C   UNL     1       6.491  11.423   5.809  1.00  0.00     0.173 A 
ATOM     80  F   UNL     1       6.311  10.489   9.315  1.00  0.00    -0.203 F 
ATOM     81  C   UNL     1       8.182  10.794   7.917  1.00  0.00     0.198 A 
ATOM     82  C   UNL     1       7.872  11.405   5.618  1.00  0.00     0.198 A 
ATOM     83  F   UNL     1       5.700  11.735   4.772  1.00  0.00    -0.203 F 
ATOM     84  F   UNL     1       8.995  10.526   8.948  1.00  0.00    -0.200 F 
ATOM     85  C   UNL     1       8.716  11.100   6.675  1.00  0.00     0.200 A 
ATOM     86  F   UNL     1       8.382  11.686   4.412  1.00  0.00    -0.200 F 
ATOM     87  F   UNL     1      10.044  11.107   6.497  1.00  0.00    -0.200 F 
ENDBRANCH  53  77
BRANCH  65  88
ATOM     88  C   UNL     1       1.644  15.045  10.895  1.00  0.00     0.064 A 
ATOM     89  C   UNL     1       2.058  16.310  10.452  1.00  0.00     0.173 A 
ATOM     90  C   UNL     1       1.419  14.873  12.270  1.00  0.00     0.173 A 
ATOM     91  F   UNL     1       2.301  16.523   9.150  1.00  0.00    -0.203 F 
ATOM     92  C   UNL     1       2.266  17.351  11.353  1.00  0.00     0.198 A 
ATOM     93  C   UNL     1       1.594  15.926  13.163  1.00  0.00     0.198 A 
ATOM     94  F   UNL     1       1.014  13.686  12.746  1.00  0.00    -0.203 F 
ATOM     95  F   UNL     1       2.712  18.536  10.913  1.00  0.00    -0.200 F 
ATOM     96  C   UNL     1       2.025  17.161  12.706  1.00  0.00     0.200 A 
ATOM     97  F   UNL     1       1.344  15.744  14.467  1.00  0.00    -0.200 F 
ATOM     98  F   UNL     1       2.216  18.168  13.570  1.00  0.00    -0.200 F 
ENDBRANCH  65  88
ENDBRANCH  39  40
ENDBRANCH  31  34
ENDBRANCH  29  30
ENDBRANCH  28  29
ENDBRANCH  27  28
ENDBRANCH   1  27
TORSDOF 16
