REMARK SMILES Cc1cccc(O[C@H](C)C(=O)NNC(=O)[C@H]2[C@@H]3CC[C@@H](C3)[C@@H]2C(=O)NCCCCCCNC(=O)c2ccc(-c3c4nc(c(-c5c(F)c(F)c(F)c(F)c5F)c5ccc([nH]5)c(-c5c(F)c(F)c(F)c(F)c5F)c5nc(c(-c6c(F)c(F)c(F)c(F)c6F)c6ccc3[nH]6)C=C5)C=C4)cc2)c1
REMARK SMILES IDX 27 1 26 2 25 3 23 4 24 5 22 7 16 8 17 9 18 10 21 11 20 12
REMARK SMILES IDX 19 13 14 14 13 15 15 17 12 18 10 19 11 20 8 22 9 23 7 24
REMARK SMILES IDX 6 25 1 26 2 27 3 28 98 29 4 30 5 31 28 32 29 33 30 34 31 35
REMARK SMILES IDX 32 36 33 37 34 39 35 40 36 41 97 42 37 43 96 44 38 45 39 46
REMARK SMILES IDX 40 47 90 48 41 49 95 50 89 51 91 52 42 53 94 54 88 55 87 56
REMARK SMILES IDX 43 58 75 59 55 60 74 61 56 62 59 63 73 64 92 65 57 66 58 67
REMARK SMILES IDX 72 69 93 70 60 71 44 72 45 73 53 74 46 75 47 76 51 77 54 78
REMARK SMILES IDX 48 79 49 80 52 81 50 82 76 83 77 84 85 85 78 86 79 87 83 88
REMARK SMILES IDX 86 89 80 90 81 91 84 92 82 93 61 94 62 95 70 96 63 97 64 98
REMARK SMILES IDX 68 99 71 100 65 101 66 102 69 103 67 104
REMARK H PARENT 25 6 13 16 12 21 32 38 91 57 59 68
REMARK Flexibility Score: inf
ROOT
ATOM      1  C   UNL     1       3.609   6.083  -1.992  1.00  0.00     0.021 C 
ENDROOT
BRANCH   1   2
ATOM      2  C   UNL     1       3.760   5.056  -3.114  1.00  0.00     0.116 C 
BRANCH   2   3
ATOM      3  N   UNL     1       4.761   4.051  -2.811  1.00  0.00    -0.356 N 
ATOM      4  C   UNL     1       4.614   2.699  -2.678  1.00  0.00     0.224 C 
ATOM      5  O   UNL     1       5.600   2.015  -2.420  1.00  0.00    -0.275 OA
ATOM      6  H   UNL     1       5.676   4.391  -2.685  1.00  0.00     0.163 HD
BRANCH   4   7
ATOM      7  C   UNL     1       3.223   2.120  -2.870  1.00  0.00     0.094 C 
ATOM      8  C   UNL     1       2.990   0.751  -2.222  1.00  0.00     0.096 C 
ATOM      9  C   UNL     1       2.400  -0.096  -3.377  1.00  0.00     0.002 C 
ATOM     10  C   UNL     1       3.560  -0.462  -4.328  1.00  0.00     0.005 C 
ATOM     11  C   UNL     1       1.657   0.921  -4.241  1.00  0.00     0.009 C 
ATOM     12  C   UNL     1       2.868   1.851  -4.357  1.00  0.00     0.002 C 
ATOM     13  C   UNL     1       3.884   0.884  -5.002  1.00  0.00     0.005 C 
BRANCH   8  14
ATOM     14  C   UNL     1       2.177   0.707  -0.929  1.00  0.00     0.242 C 
ATOM     15  N   UNL     1       1.111   1.504  -0.621  1.00  0.00    -0.267 N 
ATOM     16  H   UNL     1       0.752   1.389   0.288  1.00  0.00     0.191 HD
ATOM     17  O   UNL     1       2.476  -0.146  -0.081  1.00  0.00    -0.273 OA
BRANCH  15  18
ATOM     18  N   UNL     1       0.466   2.442  -1.388  1.00  0.00    -0.264 N 
ATOM     19  C   UNL     1      -0.422   3.396  -1.000  1.00  0.00     0.279 C 
ATOM     20  O   UNL     1      -0.649   4.271  -1.852  1.00  0.00    -0.269 OA
ATOM     21  H   UNL     1       0.675   2.421  -2.350  1.00  0.00     0.191 HD
BRANCH  19  22
ATOM     22  C   UNL     1      -1.232   3.407   0.329  1.00  0.00     0.260 C 
ATOM     23  C   UNL     1      -2.630   2.813   0.119  1.00  0.00     0.064 C 
BRANCH  22  24
ATOM     24  O   UNL     1      -0.710   3.300   1.635  1.00  0.00    -0.481 OA
BRANCH  24  25
ATOM     25  C   UNL     1      -0.272   2.164   2.227  1.00  0.00     0.120 A 
ATOM     26  C   UNL     1       2.368   1.580   4.921  1.00  0.00     0.044 C 
ATOM     27  C   UNL     1       1.317   1.329   3.882  1.00  0.00    -0.047 A 
ATOM     28  C   UNL     1       0.979   0.021   3.530  1.00  0.00     0.003 A 
ATOM     29  C   UNL     1       0.680   2.390   3.229  1.00  0.00     0.049 A 
ATOM     30  C   UNL     1      -0.000  -0.213   2.567  1.00  0.00     0.004 A 
ATOM     31  C   UNL     1      -0.638   0.855   1.930  1.00  0.00     0.046 A 
ENDBRANCH  24  25
ENDBRANCH  22  24
ENDBRANCH  19  22
ENDBRANCH  15  18
ENDBRANCH   8  14
ENDBRANCH   4   7
ENDBRANCH   2   3
ENDBRANCH   1   2
BRANCH   1  32
ATOM     32  C   UNL     1       4.820   7.001  -1.775  1.00  0.00     0.002 C 
BRANCH  32  33
ATOM     33  C   UNL     1       5.438   7.625  -3.036  1.00  0.00     0.002 C 
BRANCH  33  34
ATOM     34  C   UNL     1       4.459   8.291  -4.007  1.00  0.00     0.021 C 
BRANCH  34  35
ATOM     35  C   UNL     1       3.857   9.592  -3.494  1.00  0.00     0.116 C 
BRANCH  35  36
ATOM     36  N   UNL     1       4.470  10.779  -4.055  1.00  0.00    -0.352 N 
ATOM     37  C   UNL     1       4.230  12.120  -3.754  1.00  0.00     0.251 C 
ATOM     38  H   UNL     1       5.151  10.616  -4.747  1.00  0.00     0.163 HD
ATOM     39  O   UNL     1       4.818  13.001  -4.352  1.00  0.00    -0.269 OA
BRANCH  37  40
ATOM     40  C   UNL     1       3.353  12.442  -2.608  1.00  0.00     0.039 A 
ATOM     41  C   UNL     1       3.847  13.325  -1.640  1.00  0.00     0.014 A 
ATOM     42  C   UNL     1       2.177  11.734  -2.380  1.00  0.00     0.014 A 
ATOM     43  C   UNL     1       3.306  13.302  -0.356  1.00  0.00     0.010 A 
ATOM     44  C   UNL     1       1.704  11.632  -1.086  1.00  0.00     0.010 A 
ATOM     45  C   UNL     1       2.318  12.362  -0.063  1.00  0.00    -0.014 A 
BRANCH  45  46
ATOM     46  C   UNL     1       1.977  11.970   1.300  1.00  0.00     0.031 A 
ATOM     47  C   UNL     1       0.684  12.353   1.903  1.00  0.00     0.074 A 
ATOM     48  C   UNL     1       2.817  11.147   1.968  1.00  0.00     0.049 A 
ATOM     49  N   UNL     1       0.459  12.394   3.174  1.00  0.00    -0.248 NA
ATOM     50  C   UNL     1      -0.465  12.759   1.105  1.00  0.00     0.031 C 
ATOM     51  C   UNL     1       2.534  10.395   3.187  1.00  0.00     0.029 A 
ATOM     52  N   UNL     1       4.197  10.972   1.762  1.00  0.00    -0.354 N 
ATOM     53  C   UNL     1      -0.897  12.551   3.358  1.00  0.00     0.074 A 
ATOM     54  C   UNL     1      -1.417  12.837   2.041  1.00  0.00     0.031 C 
ATOM     55  C   UNL     1       3.696  10.091   3.787  1.00  0.00     0.029 A 
ATOM     56  C   UNL     1       4.748  10.766   3.048  1.00  0.00     0.049 A 
ATOM     57  H   UNL     1       4.679  10.988   0.903  1.00  0.00     0.167 HD
ATOM     58  C   UNL     1      -1.439  12.284   4.584  1.00  0.00     0.037 A 
ATOM     59  C   UNL     1       5.641  11.642   3.591  1.00  0.00     0.037 A 
ATOM     60  C   UNL     1      -0.402  11.948   5.558  1.00  0.00     0.049 A 
ATOM     61  C   UNL     1       5.194  12.252   4.898  1.00  0.00     0.074 A 
ATOM     62  C   UNL     1       0.075  10.739   6.038  1.00  0.00     0.029 A 
ATOM     63  N   UNL     1       0.515  12.916   5.952  1.00  0.00    -0.354 N 
ATOM     64  N   UNL     1       3.956  12.264   5.305  1.00  0.00    -0.248 NA
ATOM     65  C   UNL     1       6.094  12.930   5.828  1.00  0.00     0.031 C 
ATOM     66  C   UNL     1       1.310  10.977   6.687  1.00  0.00     0.029 A 
ATOM     67  C   UNL     1       1.576  12.333   6.616  1.00  0.00     0.049 A 
ATOM     68  H   UNL     1       0.421  13.881   5.781  1.00  0.00     0.167 HD
ATOM     69  C   UNL     1       3.872  12.941   6.493  1.00  0.00     0.074 A 
ATOM     70  C   UNL     1       5.240  13.321   6.790  1.00  0.00     0.031 C 
ATOM     71  C   UNL     1       2.676  13.137   7.122  1.00  0.00     0.037 A 
BRANCH  58  72
ATOM     72  C   UNL     1      -2.914  12.021   4.817  1.00  0.00     0.064 A 
ATOM     73  C   UNL     1      -3.343  11.133   5.830  1.00  0.00     0.173 A 
ATOM     74  C   UNL     1      -3.953  12.560   4.038  1.00  0.00     0.173 A 
ATOM     75  F   UNL     1      -2.494  10.643   6.741  1.00  0.00    -0.203 F 
ATOM     76  C   UNL     1      -4.670  10.710   5.949  1.00  0.00     0.198 A 
ATOM     77  C   UNL     1      -5.272  12.096   4.119  1.00  0.00     0.198 A 
ATOM     78  F   UNL     1      -3.740  13.595   3.216  1.00  0.00    -0.203 F 
ATOM     79  F   UNL     1      -5.009   9.851   6.921  1.00  0.00    -0.200 F 
ATOM     80  C   UNL     1      -5.627  11.157   5.064  1.00  0.00     0.200 A 
ATOM     81  F   UNL     1      -6.196  12.570   3.270  1.00  0.00    -0.200 F 
ATOM     82  F   UNL     1      -6.888  10.711   5.142  1.00  0.00    -0.200 F 
ENDBRANCH  58  72
BRANCH  59  83
ATOM     83  C   UNL     1       6.492  12.319   2.581  1.00  0.00     0.064 A 
ATOM     84  C   UNL     1       7.395  11.536   1.838  1.00  0.00     0.173 A 
ATOM     85  C   UNL     1       6.170  13.587   2.082  1.00  0.00     0.173 A 
ATOM     86  F   UNL     1       7.732  10.311   2.272  1.00  0.00    -0.203 F 
ATOM     87  C   UNL     1       7.867  11.956   0.596  1.00  0.00     0.198 A 
ATOM     88  C   UNL     1       6.653  14.008   0.841  1.00  0.00     0.198 A 
ATOM     89  F   UNL     1       5.297  14.370   2.732  1.00  0.00    -0.203 F 
ATOM     90  F   UNL     1       8.640  11.141  -0.135  1.00  0.00    -0.200 F 
ATOM     91  C   UNL     1       7.472  13.181   0.086  1.00  0.00     0.200 A 
ATOM     92  F   UNL     1       6.248  15.181   0.332  1.00  0.00    -0.200 F 
ATOM     93  F   UNL     1       7.847  13.546  -1.148  1.00  0.00    -0.200 F 
ENDBRANCH  59  83
BRANCH  71  94
ATOM     94  C   UNL     1       2.433  14.025   8.316  1.00  0.00     0.064 A 
ATOM     95  C   UNL     1       3.157  15.199   8.578  1.00  0.00     0.173 A 
ATOM     96  C   UNL     1       1.326  13.785   9.167  1.00  0.00     0.173 A 
ATOM     97  F   UNL     1       4.157  15.592   7.779  1.00  0.00    -0.203 F 
ATOM     98  C   UNL     1       2.832  16.042   9.645  1.00  0.00     0.198 A 
ATOM     99  C   UNL     1       0.972  14.658  10.195  1.00  0.00     0.198 A 
ATOM    100  F   UNL     1       0.541  12.709   9.009  1.00  0.00    -0.203 F 
ATOM    101  F   UNL     1       3.575  17.133   9.876  1.00  0.00    -0.200 F 
ATOM    102  C   UNL     1       1.734  15.780  10.443  1.00  0.00     0.200 A 
ATOM    103  F   UNL     1      -0.124  14.414  10.928  1.00  0.00    -0.200 F 
ATOM    104  F   UNL     1       1.399  16.617  11.433  1.00  0.00    -0.200 F 
ENDBRANCH  71  94
ENDBRANCH  45  46
ENDBRANCH  37  40
ENDBRANCH  35  36
ENDBRANCH  34  35
ENDBRANCH  33  34
ENDBRANCH  32  33
ENDBRANCH   1  32
TORSDOF 18
