REMARK SMILES CC(C)[C@@H]([NH3+])C(=O)N[C@@H](Cc1ccccc1)C(=O)NCCCCCCNC(=O)c1ccc(-c2c3nc(c(-c4c(F)c(F)c(F)c(F)c4F)c4ccc([nH]4)c(-c4c(F)c(F)c(F)c(F)c4F)c4nc(c(-c5c(F)c(F)c(F)c(F)c5F)c5ccc2[nH]5)C=C4)C=C3)cc1
REMARK SMILES IDX 22 1 21 2 20 3 19 4 17 5 18 6 9 8 8 9 6 10 7 11 4 13 2 14
REMARK SMILES IDX 1 15 3 16 5 17 10 21 11 22 12 23 16 24 13 25 15 26 14 27
REMARK SMILES IDX 23 28 24 29 25 30 26 31 27 32 28 34 29 35 30 36 91 37 31 38
REMARK SMILES IDX 90 39 32 40 33 41 34 42 84 43 35 44 89 45 83 46 85 47 36 48
REMARK SMILES IDX 88 49 82 50 81 51 37 53 69 54 49 55 68 56 50 57 53 58 67 59
REMARK SMILES IDX 86 60 51 61 52 62 66 64 87 65 54 66 38 67 39 68 47 69 40 70
REMARK SMILES IDX 41 71 45 72 48 73 42 74 43 75 46 76 44 77 70 78 71 79 79 80
REMARK SMILES IDX 72 81 73 82 77 83 80 84 74 85 75 86 78 87 76 88 55 89 56 90
REMARK SMILES IDX 64 91 57 92 58 93 62 94 65 95 59 96 60 97 63 98 61 99
REMARK H PARENT 19 7 8 12 5 18 5 19 5 20 26 33 85 52 53 63
REMARK Flexibility Score: inf
ROOT
ATOM      1  C   UNL     1      -4.057   6.819   4.364  1.00  0.00     0.002 C 
ENDROOT
BRANCH   1   2
ATOM      2  C   UNL     1      -3.527   6.386   2.993  1.00  0.00     0.021 C 
BRANCH   2   3
ATOM      3  C   UNL     1      -2.130   5.780   3.008  1.00  0.00     0.116 C 
BRANCH   3   4
ATOM      4  N   UNL     1      -2.067   4.488   3.656  1.00  0.00    -0.354 N 
ATOM      5  C   UNL     1      -1.153   3.484   3.525  1.00  0.00     0.242 C 
ATOM      6  O   UNL     1      -1.013   2.748   4.511  1.00  0.00    -0.273 OA
ATOM      7  H   UNL     1      -2.797   4.305   4.290  1.00  0.00     0.163 HD
BRANCH   5   8
ATOM      8  C   UNL     1      -0.216   3.325   2.303  1.00  0.00     0.175 C 
BRANCH   8   9
ATOM      9  N   UNL     1      -0.825   3.618   1.001  1.00  0.00    -0.339 N 
ATOM     10  C   UNL     1      -1.288   2.762   0.048  1.00  0.00     0.279 C 
ATOM     11  O   UNL     1      -2.014   3.230  -0.836  1.00  0.00    -0.268 OA
ATOM     12  H   UNL     1      -0.912   4.574   0.784  1.00  0.00     0.164 HD
BRANCH  10  13
ATOM     13  C   UNL     1      -0.871   1.272   0.017  1.00  0.00     0.273 C 
BRANCH  13  14
ATOM     14  C   UNL     1       0.662   1.112  -0.154  1.00  0.00     0.051 C 
ATOM     15  C   UNL     1       1.098  -0.355  -0.203  1.00  0.00     0.014 C 
ATOM     16  C   UNL     1       1.150   1.823  -1.424  1.00  0.00     0.014 C 
ENDBRANCH  13  14
BRANCH  13  17
ATOM     17  N   UNL     1      -1.414   0.585   1.204  1.00  0.00    -0.347 N 
ATOM     18  H   UNL     1      -1.032   1.011   2.048  1.00  0.00     0.345 HD
ATOM     19  H   UNL     1      -1.156  -0.401   1.174  1.00  0.00     0.345 HD
ATOM     20  H   UNL     1      -2.431   0.669   1.210  1.00  0.00     0.345 HD
ENDBRANCH  13  17
ENDBRANCH  10  13
ENDBRANCH   8   9
BRANCH   8  21
ATOM     21  C   UNL     1       1.159   3.995   2.491  1.00  0.00     0.070 C 
BRANCH  21  22
ATOM     22  C   UNL     1       1.179   5.486   2.720  1.00  0.00    -0.045 A 
ATOM     23  C   UNL     1       1.218   6.383   1.644  1.00  0.00     0.004 A 
ATOM     24  C   UNL     1       1.167   5.994   4.028  1.00  0.00     0.004 A 
ATOM     25  C   UNL     1       1.222   7.761   1.874  1.00  0.00     0.000 A 
ATOM     26  C   UNL     1       1.166   7.371   4.255  1.00  0.00     0.000 A 
ATOM     27  C   UNL     1       1.190   8.254   3.178  1.00  0.00     0.000 A 
ENDBRANCH  21  22
ENDBRANCH   8  21
ENDBRANCH   5   8
ENDBRANCH   3   4
ENDBRANCH   2   3
ENDBRANCH   1   2
BRANCH   1  28
ATOM     28  C   UNL     1      -3.126   7.704   5.202  1.00  0.00     0.002 C 
BRANCH  28  29
ATOM     29  C   UNL     1      -2.557   8.937   4.497  1.00  0.00     0.021 C 
BRANCH  29  30
ATOM     30  C   UNL     1      -3.591   9.880   3.902  1.00  0.00     0.116 C 
BRANCH  30  31
ATOM     31  N   UNL     1      -4.455  10.479   4.905  1.00  0.00    -0.352 N 
ATOM     32  C   UNL     1      -4.853  11.788   5.020  1.00  0.00     0.251 C 
ATOM     33  H   UNL     1      -4.799   9.865   5.594  1.00  0.00     0.163 HD
ATOM     34  O   UNL     1      -5.484  12.169   6.001  1.00  0.00    -0.269 OA
BRANCH  32  35
ATOM     35  C   UNL     1      -4.485  12.749   3.961  1.00  0.00     0.039 A 
ATOM     36  C   UNL     1      -3.902  13.968   4.320  1.00  0.00     0.014 A 
ATOM     37  C   UNL     1      -4.689  12.432   2.615  1.00  0.00     0.014 A 
ATOM     38  C   UNL     1      -3.462  14.844   3.325  1.00  0.00     0.010 A 
ATOM     39  C   UNL     1      -4.188  13.273   1.628  1.00  0.00     0.010 A 
ATOM     40  C   UNL     1      -3.571  14.486   1.973  1.00  0.00    -0.014 A 
BRANCH  40  41
ATOM     41  C   UNL     1      -3.076  15.363   0.882  1.00  0.00     0.031 A 
ATOM     42  C   UNL     1      -4.055  15.925  -0.110  1.00  0.00     0.074 A 
ATOM     43  C   UNL     1      -1.754  15.563   0.721  1.00  0.00     0.049 A 
ATOM     44  N   UNL     1      -3.830  16.540  -1.242  1.00  0.00    -0.248 NA
ATOM     45  C   UNL     1      -5.481  15.735   0.200  1.00  0.00     0.031 C 
ATOM     46  C   UNL     1      -0.706  15.054   1.606  1.00  0.00     0.029 A 
ATOM     47  N   UNL     1      -1.065  16.225  -0.265  1.00  0.00    -0.354 N 
ATOM     48  C   UNL     1      -5.082  16.780  -1.792  1.00  0.00     0.074 A 
ATOM     49  C   UNL     1      -6.060  16.210  -0.892  1.00  0.00     0.031 C 
ATOM     50  C   UNL     1       0.492  15.424   1.125  1.00  0.00     0.029 A 
ATOM     51  C   UNL     1       0.300  16.152  -0.127  1.00  0.00     0.049 A 
ATOM     52  H   UNL     1      -1.507  16.706  -1.002  1.00  0.00     0.167 HD
ATOM     53  C   UNL     1      -5.386  17.432  -2.940  1.00  0.00     0.037 A 
ATOM     54  C   UNL     1       1.282  16.599  -0.933  1.00  0.00     0.037 A 
ATOM     55  C   UNL     1      -4.408  18.028  -3.811  1.00  0.00     0.049 A 
ATOM     56  C   UNL     1       0.919  17.308  -2.210  1.00  0.00     0.074 A 
ATOM     57  C   UNL     1      -4.615  18.758  -4.967  1.00  0.00     0.029 A 
ATOM     58  N   UNL     1      -3.036  17.963  -3.615  1.00  0.00    -0.354 N 
ATOM     59  N   UNL     1      -0.268  17.568  -2.703  1.00  0.00    -0.248 NA
ATOM     60  C   UNL     1       2.030  17.786  -3.046  1.00  0.00     0.031 C 
ATOM     61  C   UNL     1      -3.367  19.100  -5.495  1.00  0.00     0.029 A 
ATOM     62  C   UNL     1      -2.384  18.627  -4.641  1.00  0.00     0.049 A 
ATOM     63  H   UNL     1      -2.593  17.512  -2.861  1.00  0.00     0.167 HD
ATOM     64  C   UNL     1      -0.048  18.270  -3.880  1.00  0.00     0.074 A 
ATOM     65  C   UNL     1       1.386  18.396  -4.031  1.00  0.00     0.031 C 
ATOM     66  C   UNL     1      -0.955  18.767  -4.756  1.00  0.00     0.037 A 
BRANCH  53  67
ATOM     67  C   UNL     1      -6.834  17.532  -3.320  1.00  0.00     0.064 A 
ATOM     68  C   UNL     1      -7.731  18.336  -2.601  1.00  0.00     0.173 A 
ATOM     69  C   UNL     1      -7.324  16.842  -4.439  1.00  0.00     0.173 A 
ATOM     70  F   UNL     1      -7.316  19.008  -1.516  1.00  0.00    -0.203 F 
ATOM     71  C   UNL     1      -9.071  18.421  -2.969  1.00  0.00     0.198 A 
ATOM     72  C   UNL     1      -8.657  16.954  -4.823  1.00  0.00     0.198 A 
ATOM     73  F   UNL     1      -6.507  16.064  -5.166  1.00  0.00    -0.203 F 
ATOM     74  F   UNL     1      -9.920  19.154  -2.236  1.00  0.00    -0.200 F 
ATOM     75  C   UNL     1      -9.531  17.736  -4.084  1.00  0.00     0.200 A 
ATOM     76  F   UNL     1      -9.097  16.302  -5.909  1.00  0.00    -0.200 F 
ATOM     77  F   UNL     1     -10.820  17.825  -4.441  1.00  0.00    -0.200 F 
ENDBRANCH  53  67
BRANCH  54  78
ATOM     78  C   UNL     1       2.705  16.396  -0.553  1.00  0.00     0.064 A 
ATOM     79  C   UNL     1       3.510  17.482  -0.180  1.00  0.00     0.173 A 
ATOM     80  C   UNL     1       3.292  15.122  -0.558  1.00  0.00     0.173 A 
ATOM     81  F   UNL     1       3.000  18.722  -0.180  1.00  0.00    -0.203 F 
ATOM     82  C   UNL     1       4.850  17.304   0.155  1.00  0.00     0.198 A 
ATOM     83  C   UNL     1       4.625  14.942  -0.196  1.00  0.00     0.198 A 
ATOM     84  F   UNL     1       2.565  14.049  -0.903  1.00  0.00    -0.203 F 
ATOM     85  F   UNL     1       5.607  18.366   0.465  1.00  0.00    -0.200 F 
ATOM     86  C   UNL     1       5.406  16.034   0.152  1.00  0.00     0.200 A 
ATOM     87  F   UNL     1       5.154  13.710  -0.187  1.00  0.00    -0.200 F 
ATOM     88  F   UNL     1       6.694  15.863   0.478  1.00  0.00    -0.200 F 
ENDBRANCH  54  78
BRANCH  66  89
ATOM     89  C   UNL     1      -0.437  19.548  -5.927  1.00  0.00     0.064 A 
ATOM     90  C   UNL     1       0.168  18.919  -7.024  1.00  0.00     0.173 A 
ATOM     91  C   UNL     1      -0.630  20.937  -5.986  1.00  0.00     0.173 A 
ATOM     92  F   UNL     1       0.387  17.596  -7.007  1.00  0.00    -0.203 F 
ATOM     93  C   UNL     1       0.568  19.655  -8.136  1.00  0.00     0.198 A 
ATOM     94  C   UNL     1      -0.254  21.665  -7.110  1.00  0.00     0.198 A 
ATOM     95  F   UNL     1      -1.210  21.583  -4.963  1.00  0.00    -0.203 F 
ATOM     96  F   UNL     1       1.168  19.039  -9.164  1.00  0.00    -0.200 F 
ATOM     97  C   UNL     1       0.346  21.024  -8.183  1.00  0.00     0.200 A 
ATOM     98  F   UNL     1      -0.482  22.985  -7.160  1.00  0.00    -0.200 F 
ATOM     99  F   UNL     1       0.713  21.727  -9.264  1.00  0.00    -0.200 F 
ENDBRANCH  66  89
ENDBRANCH  40  41
ENDBRANCH  32  35
ENDBRANCH  30  31
ENDBRANCH  29  30
ENDBRANCH  28  29
ENDBRANCH   1  28
TORSDOF 19
