REMARK SMILES Cc1cc(Cl)ccc1-c1ccc(C(=O)NCCCCCCNC(=O)c2ccc(-c3c4nc(c(-c5c(F)c(F)c(F)c(F)c5F)c5ccc([nH]5)c(-c5c(F)c(F)c(F)c(F)c5F)c5nc(c(-c6c(F)c(F)c(F)c(F)c6F)c6ccc3[nH]6)C=C5)C=C4)cc2)c(Cl)c1
REMARK SMILES IDX 19 1 18 2 17 3 16 4 15 5 13 6 14 7 12 9 9 10 10 11 90 12
REMARK SMILES IDX 11 13 88 14 89 15 8 16 1 17 2 18 3 19 4 20 7 21 5 22 6 23
REMARK SMILES IDX 20 24 21 25 22 26 23 27 24 29 25 30 26 31 87 32 27 33 86 34
REMARK SMILES IDX 28 35 29 36 30 37 80 38 31 39 85 40 79 41 81 42 32 43 84 44
REMARK SMILES IDX 78 45 77 46 33 48 65 49 45 50 64 51 46 52 49 53 63 54 82 55
REMARK SMILES IDX 47 56 48 57 62 59 83 60 50 61 34 62 35 63 43 64 36 65 37 66
REMARK SMILES IDX 41 67 44 68 38 69 39 70 42 71 40 72 66 73 67 74 75 75 68 76
REMARK SMILES IDX 69 77 73 78 76 79 70 80 71 81 74 82 72 83 51 84 52 85 60 86
REMARK SMILES IDX 53 87 54 88 58 89 61 90 55 91 56 92 59 93 57 94
REMARK H PARENT 15 8 22 28 81 47 49 58
REMARK Flexibility Score: inf
ROOT
ATOM      1  C   UNL     1      -9.694  -5.460   3.927  1.00  0.00     0.002 C 
ENDROOT
BRANCH   1   2
ATOM      2  C   UNL     1      -9.612  -3.956   3.653  1.00  0.00     0.002 C 
BRANCH   2   3
ATOM      3  C   UNL     1      -8.213  -3.453   3.288  1.00  0.00     0.021 C 
BRANCH   3   4
ATOM      4  C   UNL     1      -7.687  -3.960   1.937  1.00  0.00     0.116 C 
BRANCH   4   5
ATOM      5  N   UNL     1      -8.061  -3.023   0.898  1.00  0.00    -0.352 N 
ATOM      6  C   UNL     1      -7.390  -2.047   0.214  1.00  0.00     0.252 C 
ATOM      7  O   UNL     1      -8.073  -1.353  -0.545  1.00  0.00    -0.269 OA
ATOM      8  H   UNL     1      -9.002  -3.108   0.623  1.00  0.00     0.163 HD
BRANCH   6   9
ATOM      9  C   UNL     1      -5.916  -1.824   0.218  1.00  0.00     0.058 A 
ATOM     10  C   UNL     1      -3.173  -1.133  -0.143  1.00  0.00    -0.017 A 
ATOM     11  C   UNL     1      -4.052  -1.099  -1.223  1.00  0.00     0.009 A 
ATOM     12  C   UNL     1      -3.674  -1.522   1.105  1.00  0.00     0.030 A 
ATOM     13  C   UNL     1      -5.394  -1.457  -1.045  1.00  0.00     0.016 A 
ATOM     14  C   UNL     1      -5.035  -1.804   1.304  1.00  0.00     0.054 A 
ATOM     15  Cl  UNL     1      -5.483  -1.891   2.963  1.00  0.00    -0.083 Cl
BRANCH  10  16
ATOM     16  C   UNL     1      -1.782  -0.677  -0.241  1.00  0.00    -0.015 A 
ATOM     17  C   UNL     1      -2.450   1.798  -0.060  1.00  0.00     0.045 C 
ATOM     18  C   UNL     1      -1.432   0.690  -0.143  1.00  0.00    -0.042 A 
ATOM     19  C   UNL     1      -0.073   1.055  -0.129  1.00  0.00     0.024 A 
ATOM     20  C   UNL     1       0.924   0.085  -0.192  1.00  0.00     0.041 A 
ATOM     21  C   UNL     1      -0.756  -1.637  -0.327  1.00  0.00     0.010 A 
ATOM     22  Cl  UNL     1       2.578   0.552  -0.121  1.00  0.00    -0.084 Cl
ATOM     23  C   UNL     1       0.589  -1.260  -0.298  1.00  0.00     0.021 A 
ENDBRANCH  10  16
ENDBRANCH   6   9
ENDBRANCH   4   5
ENDBRANCH   3   4
ENDBRANCH   2   3
ENDBRANCH   1   2
BRANCH   1  24
ATOM     24  C   UNL     1      -8.700  -5.987   4.967  1.00  0.00     0.021 C 
BRANCH  24  25
ATOM     25  C   UNL     1      -8.810  -5.329   6.339  1.00  0.00     0.116 C 
BRANCH  25  26
ATOM     26  N   UNL     1     -10.107  -5.579   6.949  1.00  0.00    -0.352 N 
ATOM     27  C   UNL     1     -10.406  -6.227   8.118  1.00  0.00     0.251 C 
ATOM     28  H   UNL     1     -10.882  -5.233   6.450  1.00  0.00     0.163 HD
ATOM     29  O   UNL     1     -11.562  -6.577   8.355  1.00  0.00    -0.269 OA
BRANCH  27  30
ATOM     30  C   UNL     1      -9.340  -6.508   9.099  1.00  0.00     0.039 A 
ATOM     31  C   UNL     1      -9.307  -7.755   9.729  1.00  0.00     0.014 A 
ATOM     32  C   UNL     1      -8.395  -5.530   9.422  1.00  0.00     0.014 A 
ATOM     33  C   UNL     1      -8.298  -8.037  10.651  1.00  0.00     0.010 A 
ATOM     34  C   UNL     1      -7.348  -5.836  10.285  1.00  0.00     0.010 A 
ATOM     35  C   UNL     1      -7.298  -7.087  10.917  1.00  0.00    -0.014 A 
BRANCH  35  36
ATOM     36  C   UNL     1      -6.198  -7.378  11.868  1.00  0.00     0.031 A 
ATOM     37  C   UNL     1      -6.081  -6.600  13.148  1.00  0.00     0.074 A 
ATOM     38  C   UNL     1      -5.273  -8.303  11.550  1.00  0.00     0.049 A 
ATOM     39  N   UNL     1      -5.171  -6.676  14.085  1.00  0.00    -0.248 NA
ATOM     40  C   UNL     1      -7.111  -5.579  13.392  1.00  0.00     0.031 C 
ATOM     41  C   UNL     1      -5.259  -9.094  10.320  1.00  0.00     0.029 A 
ATOM     42  N   UNL     1      -4.166  -8.732  12.236  1.00  0.00    -0.354 N 
ATOM     43  C   UNL     1      -5.511  -5.708  15.020  1.00  0.00     0.074 A 
ATOM     44  C   UNL     1      -6.674  -5.016  14.507  1.00  0.00     0.031 C 
ATOM     45  C   UNL     1      -4.216  -9.939  10.354  1.00  0.00     0.029 A 
ATOM     46  C   UNL     1      -3.470  -9.723  11.590  1.00  0.00     0.049 A 
ATOM     47  H   UNL     1      -3.896  -8.365  13.109  1.00  0.00     0.167 HD
ATOM     48  C   UNL     1      -4.923  -5.437  16.211  1.00  0.00     0.037 A 
ATOM     49  C   UNL     1      -2.357 -10.384  11.958  1.00  0.00     0.037 A 
ATOM     50  C   UNL     1      -3.775  -6.140  16.721  1.00  0.00     0.049 A 
ATOM     51  C   UNL     1      -1.706 -10.049  13.271  1.00  0.00     0.074 A 
ATOM     52  C   UNL     1      -3.135  -5.985  17.937  1.00  0.00     0.029 A 
ATOM     53  N   UNL     1      -3.088  -7.130  16.032  1.00  0.00    -0.354 N 
ATOM     54  N   UNL     1      -2.074  -9.180  14.181  1.00  0.00    -0.248 NA
ATOM     55  C   UNL     1      -0.484 -10.791  13.608  1.00  0.00     0.031 C 
ATOM     56  C   UNL     1      -2.033  -6.847  17.965  1.00  0.00     0.029 A 
ATOM     57  C   UNL     1      -2.015  -7.577  16.787  1.00  0.00     0.049 A 
ATOM     58  H   UNL     1      -3.329  -7.467  15.138  1.00  0.00     0.167 HD
ATOM     59  C   UNL     1      -1.150  -9.290  15.211  1.00  0.00     0.074 A 
ATOM     60  C   UNL     1      -0.209 -10.320  14.816  1.00  0.00     0.031 C 
ATOM     61  C   UNL     1      -1.089  -8.604  16.379  1.00  0.00     0.037 A 
BRANCH  48  62
ATOM     62  C   UNL     1      -5.517  -4.327  17.031  1.00  0.00     0.064 A 
ATOM     63  C   UNL     1      -6.791  -4.438  17.611  1.00  0.00     0.173 A 
ATOM     64  C   UNL     1      -4.808  -3.133  17.235  1.00  0.00     0.173 A 
ATOM     65  F   UNL     1      -7.516  -5.553  17.438  1.00  0.00    -0.203 F 
ATOM     66  C   UNL     1      -7.353  -3.378  18.320  1.00  0.00     0.198 A 
ATOM     67  C   UNL     1      -5.359  -2.089  17.974  1.00  0.00     0.198 A 
ATOM     68  F   UNL     1      -3.584  -2.974  16.711  1.00  0.00    -0.203 F 
ATOM     69  F   UNL     1      -8.599  -3.483  18.801  1.00  0.00    -0.200 F 
ATOM     70  C   UNL     1      -6.635  -2.207  18.504  1.00  0.00     0.200 A 
ATOM     71  F   UNL     1      -4.659  -0.961  18.162  1.00  0.00    -0.200 F 
ATOM     72  F   UNL     1      -7.179  -1.186  19.181  1.00  0.00    -0.200 F 
ENDBRANCH  48  62
BRANCH  49  73
ATOM     73  C   UNL     1      -1.824 -11.467  11.093  1.00  0.00     0.064 A 
ATOM     74  C   UNL     1      -1.931 -12.808  11.487  1.00  0.00     0.173 A 
ATOM     75  C   UNL     1      -1.225 -11.194   9.855  1.00  0.00     0.173 A 
ATOM     76  F   UNL     1      -2.480 -13.116  12.671  1.00  0.00    -0.203 F 
ATOM     77  C   UNL     1      -1.449 -13.836  10.679  1.00  0.00     0.198 A 
ATOM     78  C   UNL     1      -0.766 -12.225   9.037  1.00  0.00     0.198 A 
ATOM     79  F   UNL     1      -1.105  -9.928   9.431  1.00  0.00    -0.203 F 
ATOM     80  F   UNL     1      -1.535 -15.107  11.094  1.00  0.00    -0.200 F 
ATOM     81  C   UNL     1      -0.874 -13.544   9.452  1.00  0.00     0.200 A 
ATOM     82  F   UNL     1      -0.224 -11.940   7.845  1.00  0.00    -0.200 F 
ATOM     83  F   UNL     1      -0.420 -14.533   8.670  1.00  0.00    -0.200 F 
ENDBRANCH  49  73
BRANCH  61  84
ATOM     84  C   UNL     1       0.015  -8.968  17.329  1.00  0.00     0.064 A 
ATOM     85  C   UNL     1       1.352  -8.634  17.069  1.00  0.00     0.173 A 
ATOM     86  C   UNL     1      -0.274  -9.634  18.530  1.00  0.00     0.173 A 
ATOM     87  F   UNL     1       1.683  -8.013  15.927  1.00  0.00    -0.203 F 
ATOM     88  C   UNL     1       2.362  -8.978  17.964  1.00  0.00     0.198 A 
ATOM     89  C   UNL     1       0.734  -9.948  19.436  1.00  0.00     0.198 A 
ATOM     90  F   UNL     1      -1.538  -9.971  18.829  1.00  0.00    -0.203 F 
ATOM     91  F   UNL     1       3.639  -8.694  17.671  1.00  0.00    -0.200 F 
ATOM     92  C   UNL     1       2.052  -9.627  19.149  1.00  0.00     0.200 A 
ATOM     93  F   UNL     1       0.430 -10.564  20.587  1.00  0.00    -0.200 F 
ATOM     94  F   UNL     1       3.025  -9.952  20.012  1.00  0.00    -0.200 F 
ENDBRANCH  61  84
ENDBRANCH  35  36
ENDBRANCH  27  30
ENDBRANCH  25  26
ENDBRANCH  24  25
ENDBRANCH   1  24
TORSDOF 14
