REMARK SMILES O=C(NCCCCCCNC(=O)c1cc(Br)cc2c1OCC2)c1ccc(-c2c3nc(c(-c4c(F)c(F)c(F)c(F)c4F)c4ccc([nH]4)c(-c4c(F)c(F)c(F)c(F)c4F)c4nc(c(-c5c(F)c(F)c(F)c(F)c5F)c5ccc2[nH]5)C=C4)C=C3)cc1
REMARK SMILES IDX 5 1 4 2 3 3 1 4 2 5 23 7 24 8 85 9 25 10 84 11 26 12 27 13
REMARK SMILES IDX 28 14 78 15 29 16 83 17 77 18 79 19 30 20 82 21 76 22 75 23
REMARK SMILES IDX 31 25 63 26 43 27 62 28 44 29 47 30 61 31 80 32 45 33 46 34
REMARK SMILES IDX 60 36 81 37 48 38 32 39 33 40 41 41 34 42 35 43 39 44 42 45
REMARK SMILES IDX 36 46 37 47 40 48 38 49 64 50 65 51 73 52 66 53 67 54 71 55
REMARK SMILES IDX 74 56 68 57 69 58 72 59 70 60 49 61 50 62 58 63 51 64 52 65
REMARK SMILES IDX 56 66 59 67 53 68 54 69 57 70 55 71 6 72 7 73 8 74 9 75
REMARK SMILES IDX 10 76 11 77 12 79 13 80 14 81 19 82 15 83 18 84 20 85 16 86
REMARK SMILES IDX 17 87 22 88 21 89
REMARK H PARENT 3 6 79 24 47 35 10 78
REMARK Flexibility Score: inf
ROOT
ATOM      1  C   UNL     1       4.737  -1.140   2.358  1.00  0.00     0.021 C 
ENDROOT
BRANCH   1   2
ATOM      2  C   UNL     1       4.465  -0.973   0.868  1.00  0.00     0.116 C 
BRANCH   2   3
ATOM      3  N   UNL     1       3.043  -0.974   0.561  1.00  0.00    -0.352 N 
ATOM      4  O   UNL     1       1.055  -0.105  -0.057  1.00  0.00    -0.269 OA
ATOM      5  C   UNL     1       2.281  -0.008  -0.042  1.00  0.00     0.251 C 
ATOM      6  H   UNL     1       2.558  -1.789   0.826  1.00  0.00     0.163 HD
BRANCH   5   7
ATOM      7  C   UNL     1       2.929   1.167  -0.659  1.00  0.00     0.039 A 
ATOM      8  C   UNL     1       4.051   1.020  -1.480  1.00  0.00     0.014 A 
ATOM      9  C   UNL     1       2.390   2.434  -0.426  1.00  0.00     0.014 A 
ATOM     10  C   UNL     1       4.708   2.147  -1.964  1.00  0.00     0.010 A 
ATOM     11  C   UNL     1       3.005   3.560  -0.976  1.00  0.00     0.010 A 
ATOM     12  C   UNL     1       4.185   3.428  -1.727  1.00  0.00    -0.014 A 
BRANCH  12  13
ATOM     13  C   UNL     1       4.846   4.625  -2.302  1.00  0.00     0.031 A 
ATOM     14  C   UNL     1       5.443   5.674  -1.409  1.00  0.00     0.074 A 
ATOM     15  C   UNL     1       4.876   4.777  -3.639  1.00  0.00     0.049 A 
ATOM     16  N   UNL     1       5.979   6.825  -1.728  1.00  0.00    -0.248 NA
ATOM     17  C   UNL     1       5.426   5.397   0.034  1.00  0.00     0.031 C 
ATOM     18  C   UNL     1       4.330   3.825  -4.606  1.00  0.00     0.029 A 
ATOM     19  N   UNL     1       5.374   5.793  -4.415  1.00  0.00    -0.354 N 
ATOM     20  C   UNL     1       6.341   7.421  -0.527  1.00  0.00     0.074 A 
ATOM     21  C   UNL     1       5.938   6.515   0.529  1.00  0.00     0.031 C 
ATOM     22  C   UNL     1       4.530   4.295  -5.846  1.00  0.00     0.029 A 
ATOM     23  C   UNL     1       5.158   5.609  -5.758  1.00  0.00     0.049 A 
ATOM     24  H   UNL     1       5.840   6.577  -4.045  1.00  0.00     0.167 HD
ATOM     25  C   UNL     1       6.957   8.612  -0.328  1.00  0.00     0.037 A 
ATOM     26  C   UNL     1       5.402   6.423  -6.801  1.00  0.00     0.037 A 
ATOM     27  C   UNL     1       7.352   9.504  -1.389  1.00  0.00     0.049 A 
ATOM     28  C   UNL     1       6.039   7.760  -6.554  1.00  0.00     0.074 A 
ATOM     29  C   UNL     1       8.011  10.717  -1.296  1.00  0.00     0.029 A 
ATOM     30  N   UNL     1       7.108   9.286  -2.738  1.00  0.00    -0.354 N 
ATOM     31  N   UNL     1       6.410   8.300  -5.418  1.00  0.00    -0.248 NA
ATOM     32  C   UNL     1       6.293   8.601  -7.731  1.00  0.00     0.031 C 
ATOM     33  C   UNL     1       8.110  11.262  -2.580  1.00  0.00     0.029 A 
ATOM     34  C   UNL     1       7.579  10.356  -3.484  1.00  0.00     0.049 A 
ATOM     35  H   UNL     1       6.667   8.489  -3.111  1.00  0.00     0.167 HD
ATOM     36  C   UNL     1       6.970   9.528  -5.744  1.00  0.00     0.074 A 
ATOM     37  C   UNL     1       6.893   9.651  -7.185  1.00  0.00     0.031 C 
ATOM     38  C   UNL     1       7.507  10.462  -4.921  1.00  0.00     0.037 A 
BRANCH  25  39
ATOM     39  C   UNL     1       7.206   9.036   1.093  1.00  0.00     0.064 A 
ATOM     40  C   UNL     1       8.127   8.369   1.917  1.00  0.00     0.173 A 
ATOM     41  C   UNL     1       6.525  10.137   1.635  1.00  0.00     0.173 A 
ATOM     42  F   UNL     1       8.802   7.306   1.455  1.00  0.00    -0.203 F 
ATOM     43  C   UNL     1       8.322   8.762   3.240  1.00  0.00     0.198 A 
ATOM     44  C   UNL     1       6.749  10.549   2.946  1.00  0.00     0.198 A 
ATOM     45  F   UNL     1       5.641  10.819   0.891  1.00  0.00    -0.203 F 
ATOM     46  F   UNL     1       9.159   8.069   4.025  1.00  0.00    -0.200 F 
ATOM     47  C   UNL     1       7.638   9.854   3.751  1.00  0.00     0.200 A 
ATOM     48  F   UNL     1       6.099  11.615   3.433  1.00  0.00    -0.200 F 
ATOM     49  F   UNL     1       7.827  10.230   5.024  1.00  0.00    -0.200 F 
ENDBRANCH  25  39
BRANCH  26  50
ATOM     50  C   UNL     1       5.032   5.981  -8.170  1.00  0.00     0.064 A 
ATOM     51  C   UNL     1       6.015   5.650  -9.112  1.00  0.00     0.173 A 
ATOM     52  C   UNL     1       3.688   5.840  -8.550  1.00  0.00     0.173 A 
ATOM     53  F   UNL     1       7.312   5.784  -8.800  1.00  0.00    -0.203 F 
ATOM     54  C   UNL     1       5.668   5.203 -10.385  1.00  0.00     0.198 A 
ATOM     55  C   UNL     1       3.343   5.364  -9.812  1.00  0.00     0.198 A 
ATOM     56  F   UNL     1       2.710   6.135  -7.681  1.00  0.00    -0.203 F 
ATOM     57  F   UNL     1       6.627   4.923 -11.278  1.00  0.00    -0.200 F 
ATOM     58  C   UNL     1       4.333   5.051 -10.730  1.00  0.00     0.200 A 
ATOM     59  F   UNL     1       2.053   5.199 -10.134  1.00  0.00    -0.200 F 
ATOM     60  F   UNL     1       4.001   4.604 -11.949  1.00  0.00    -0.200 F 
ENDBRANCH  26  50
BRANCH  38  61
ATOM     61  C   UNL     1       8.110  11.681  -5.557  1.00  0.00     0.064 A 
ATOM     62  C   UNL     1       7.322  12.682  -6.142  1.00  0.00     0.173 A 
ATOM     63  C   UNL     1       9.501  11.875  -5.524  1.00  0.00     0.173 A 
ATOM     64  F   UNL     1       5.990  12.538  -6.214  1.00  0.00    -0.203 F 
ATOM     65  C   UNL     1       7.905  13.826  -6.684  1.00  0.00     0.198 A 
ATOM     66  C   UNL     1      10.076  13.033  -6.038  1.00  0.00     0.198 A 
ATOM     67  F   UNL     1      10.300  10.949  -4.973  1.00  0.00    -0.203 F 
ATOM     68  F   UNL     1       7.136  14.752  -7.274  1.00  0.00    -0.200 F 
ATOM     69  C   UNL     1       9.279  14.005  -6.622  1.00  0.00     0.200 A 
ATOM     70  F   UNL     1      11.403  13.210  -5.962  1.00  0.00    -0.200 F 
ATOM     71  F   UNL     1       9.836  15.113  -7.129  1.00  0.00    -0.200 F 
ENDBRANCH  38  61
ENDBRANCH  12  13
ENDBRANCH   5   7
ENDBRANCH   2   3
ENDBRANCH   1   2
BRANCH   1  72
ATOM     72  C   UNL     1       4.266  -2.468   2.953  1.00  0.00     0.002 C 
BRANCH  72  73
ATOM     73  C   UNL     1       4.805  -3.724   2.261  1.00  0.00     0.002 C 
BRANCH  73  74
ATOM     74  C   UNL     1       6.329  -3.806   2.133  1.00  0.00     0.021 C 
BRANCH  74  75
ATOM     75  C   UNL     1       7.095  -3.693   3.448  1.00  0.00     0.116 C 
BRANCH  75  76
ATOM     76  N   UNL     1       6.781  -4.776   4.362  1.00  0.00    -0.352 N 
ATOM     77  C   UNL     1       7.623  -5.673   4.973  1.00  0.00     0.255 C 
ATOM     78  H   UNL     1       5.826  -4.884   4.575  1.00  0.00     0.163 HD
ATOM     79  O   UNL     1       7.160  -6.578   5.662  1.00  0.00    -0.269 OA
BRANCH  77  80
ATOM     80  C   UNL     1       9.080  -5.512   4.831  1.00  0.00     0.083 A 
ATOM     81  C   UNL     1       9.694  -4.304   5.195  1.00  0.00     0.033 A 
ATOM     82  C   UNL     1       9.875  -6.543   4.358  1.00  0.00     0.135 A 
ATOM     83  C   UNL     1      11.074  -4.141   5.021  1.00  0.00     0.019 A 
ATOM     84  C   UNL     1      11.245  -6.380   4.212  1.00  0.00    -0.001 A 
ATOM     85  O   UNL     1       9.439  -7.789   3.990  1.00  0.00    -0.492 OA
ATOM     86  Br  UNL     1      11.871  -2.481   5.449  1.00  0.00    -0.051 Br
ATOM     87  C   UNL     1      11.866  -5.181   4.529  1.00  0.00     0.023 A 
ATOM     88  C   UNL     1      11.854  -7.652   3.764  1.00  0.00     0.081 C 
ATOM     89  C   UNL     1      10.589  -8.420   3.384  1.00  0.00     0.234 C 
ENDBRANCH  77  80
ENDBRANCH  75  76
ENDBRANCH  74  75
ENDBRANCH  73  74
ENDBRANCH  72  73
ENDBRANCH   1  72
TORSDOF 13
