REMARK SMILES CC[C@](C)(C(=O)NCCCCCCNC(=O)c1ccc(-c2c3nc(c(-c4c(F)c(F)c(F)c(F)c4F)c4ccc([nH]4)c(-c4c(F)c(F)c(F)c(F)c4F)c4nc(c(-c5c(F)c(F)c(F)c(F)c5F)c5ccc2[nH]5)C=C4)C=C3)cc1)[C@@H]1CCCCC[C@@H]1O
REMARK SMILES IDX 9 1 8 2 7 3 5 4 6 5 3 7 4 8 2 9 1 10 80 11 81 12 82 13 86 15
REMARK SMILES IDX 85 16 84 17 83 18 87 20 10 22 11 23 12 24 13 25 14 26 15 27
REMARK SMILES IDX 16 29 17 30 18 31 79 32 19 33 78 34 20 35 21 36 22 37 72 38
REMARK SMILES IDX 23 39 77 40 71 41 73 42 24 43 76 44 70 45 69 46 25 48 57 49
REMARK SMILES IDX 37 50 56 51 38 52 41 53 55 54 74 55 39 56 40 57 54 59 75 60
REMARK SMILES IDX 42 61 26 62 27 63 35 64 28 65 29 66 33 67 36 68 30 69 31 70
REMARK SMILES IDX 34 71 32 72 58 73 59 74 67 75 60 76 61 77 65 78 68 79 62 80
REMARK SMILES IDX 63 81 66 82 64 83 43 84 44 85 52 86 45 87 46 88 50 89 53 90
REMARK SMILES IDX 47 91 48 92 51 93 49 94
REMARK H PARENT 7 6 87 21 14 28 73 47 41 58
REMARK Flexibility Score: 90.00
ROOT
ATOM      1  C   UNL     1       3.167   3.858   6.864  1.00  0.00     0.021 C 
ENDROOT
BRANCH   1   2
ATOM      2  C   UNL     1       3.345   2.370   6.566  1.00  0.00     0.116 C 
BRANCH   2   3
ATOM      3  N   UNL     1       2.219   1.829   5.827  1.00  0.00    -0.356 N 
ATOM      4  C   UNL     1       2.091   1.332   4.562  1.00  0.00     0.226 C 
ATOM      5  O   UNL     1       0.969   0.897   4.285  1.00  0.00    -0.274 OA
ATOM      6  H   UNL     1       1.379   1.818   6.341  1.00  0.00     0.163 HD
BRANCH   4   7
ATOM      7  C   UNL     1       3.277   1.307   3.532  1.00  0.00     0.051 C 
ATOM      8  C   UNL     1       3.705   2.797   3.368  1.00  0.00     0.022 C 
BRANCH   7   9
ATOM      9  C   UNL     1       4.453   0.514   4.219  1.00  0.00     0.013 C 
ATOM     10  C   UNL     1       5.253  -0.579   3.537  1.00  0.00     0.005 C 
ENDBRANCH   7   9
BRANCH   7  11
ATOM     11  C   UNL     1       2.676   0.765   2.118  1.00  0.00     0.033 C 
BRANCH  11  12
ATOM     12  C   UNL     1       2.717  -0.771   1.967  1.00  0.00     0.007 C 
BRANCH  12  13
ATOM     13  C   UNL     1       1.820  -1.359   0.877  1.00  0.00     0.000 CG0
ATOM     14  G   UNL     1       2.517  -1.485  -0.477  1.00  0.00     0.000 G0
ENDBRANCH  12  13
ENDBRANCH  11  12
BRANCH  11  15
ATOM     15  C   UNL     1       3.177   1.534   0.865  1.00  0.00     0.118 C 
BRANCH  15  16
ATOM     16  C   UNL     1       2.632   1.078  -0.496  1.00  0.00     0.032 C 
BRANCH  16  17
ATOM     17  C   UNL     1       3.226  -0.236  -0.990  1.00  0.00     0.003 C 
BRANCH  17  18
ATOM     18  C   UNL     1       2.517  -1.485  -0.477  1.00  0.00     0.000 CG0
ATOM     19  G   UNL     1       1.820  -1.359   0.877  1.00  0.00     0.000 G0
ENDBRANCH  17  18
ENDBRANCH  16  17
ENDBRANCH  15  16
BRANCH  15  20
ATOM     20  O   UNL     1       4.600   1.540   0.821  1.00  0.00    -0.393 OA
ATOM     21  H   UNL     1       4.923   0.633   0.696  1.00  0.00     0.210 HD
ENDBRANCH  15  20
ENDBRANCH  11  15
ENDBRANCH   7  11
ENDBRANCH   4   7
ENDBRANCH   2   3
ENDBRANCH   1   2
BRANCH   1  22
ATOM     22  C   UNL     1       2.169   4.148   7.986  1.00  0.00     0.002 C 
BRANCH  22  23
ATOM     23  C   UNL     1       2.478   3.454   9.317  1.00  0.00     0.002 C 
BRANCH  23  24
ATOM     24  C   UNL     1       3.900   3.667   9.843  1.00  0.00     0.021 C 
BRANCH  24  25
ATOM     25  C   UNL     1       4.272   5.128  10.073  1.00  0.00     0.116 C 
BRANCH  25  26
ATOM     26  N   UNL     1       3.429   5.745  11.084  1.00  0.00    -0.352 N 
ATOM     27  C   UNL     1       3.788   6.370  12.251  1.00  0.00     0.251 C 
ATOM     28  H   UNL     1       2.461   5.710  10.904  1.00  0.00     0.163 HD
ATOM     29  O   UNL     1       2.944   6.634  13.099  1.00  0.00    -0.269 OA
BRANCH  27  30
ATOM     30  C   UNL     1       5.205   6.712  12.488  1.00  0.00     0.039 A 
ATOM     31  C   UNL     1       5.765   6.445  13.739  1.00  0.00     0.014 A 
ATOM     32  C   UNL     1       5.974   7.300  11.480  1.00  0.00     0.014 A 
ATOM     33  C   UNL     1       7.115   6.718  13.961  1.00  0.00     0.010 A 
ATOM     34  C   UNL     1       7.336   7.502  11.679  1.00  0.00     0.010 A 
ATOM     35  C   UNL     1       7.919   7.217  12.923  1.00  0.00    -0.014 A 
BRANCH  35  36
ATOM     36  C   UNL     1       9.372   7.448  13.118  1.00  0.00     0.031 A 
ATOM     37  C   UNL     1       9.934   8.838  13.024  1.00  0.00     0.074 A 
ATOM     38  C   UNL     1      10.191   6.397  13.316  1.00  0.00     0.049 A 
ATOM     39  N   UNL     1      11.180   9.234  13.091  1.00  0.00    -0.248 NA
ATOM     40  C   UNL     1       8.970   9.927  12.798  1.00  0.00     0.031 C 
ATOM     41  C   UNL     1       9.768   4.998  13.385  1.00  0.00     0.029 A 
ATOM     42  N   UNL     1      11.552   6.342  13.485  1.00  0.00    -0.354 N 
ATOM     43  C   UNL     1      11.149  10.610  12.905  1.00  0.00     0.074 A 
ATOM     44  C   UNL     1       9.770  10.974  12.665  1.00  0.00     0.031 C 
ATOM     45  C   UNL     1      10.843   4.224  13.604  1.00  0.00     0.029 A 
ATOM     46  C   UNL     1      12.034   5.066  13.648  1.00  0.00     0.049 A 
ATOM     47  H   UNL     1      12.127   7.141  13.489  1.00  0.00     0.167 HD
ATOM     48  C   UNL     1      12.176  11.492  12.956  1.00  0.00     0.037 A 
ATOM     49  C   UNL     1      13.297   4.626  13.805  1.00  0.00     0.037 A 
ATOM     50  C   UNL     1      13.544  11.125  13.213  1.00  0.00     0.049 A 
ATOM     51  C   UNL     1      14.423   5.625  13.832  1.00  0.00     0.074 A 
ATOM     52  C   UNL     1      14.650  11.947  13.336  1.00  0.00     0.029 A 
ATOM     53  N   UNL     1      13.994   9.823  13.380  1.00  0.00    -0.354 N 
ATOM     54  N   UNL     1      14.375   6.930  13.722  1.00  0.00    -0.248 NA
ATOM     55  C   UNL     1      15.779   5.088  14.010  1.00  0.00     0.031 C 
ATOM     56  C   UNL     1      15.777  11.141  13.523  1.00  0.00     0.029 A 
ATOM     57  C   UNL     1      15.366   9.819  13.578  1.00  0.00     0.049 A 
ATOM     58  H   UNL     1      13.424   9.021  13.360  1.00  0.00     0.167 HD
ATOM     59  C   UNL     1      15.684   7.373  13.847  1.00  0.00     0.074 A 
ATOM     60  C   UNL     1      16.503   6.197  14.057  1.00  0.00     0.031 C 
ATOM     61  C   UNL     1      16.166   8.639  13.794  1.00  0.00     0.037 A 
BRANCH  48  62
ATOM     62  C   UNL     1      11.858  12.943  12.731  1.00  0.00     0.064 A 
ATOM     63  C   UNL     1      11.118  13.688  13.662  1.00  0.00     0.173 A 
ATOM     64  C   UNL     1      12.329  13.607  11.588  1.00  0.00     0.173 A 
ATOM     65  F   UNL     1      10.635  13.100  14.767  1.00  0.00    -0.203 F 
ATOM     66  C   UNL     1      10.835  15.034  13.442  1.00  0.00     0.198 A 
ATOM     67  C   UNL     1      12.073  14.961  11.388  1.00  0.00     0.198 A 
ATOM     68  F   UNL     1      13.047  12.944  10.668  1.00  0.00    -0.203 F 
ATOM     69  F   UNL     1      10.082  15.710  14.320  1.00  0.00    -0.200 F 
ATOM     70  C   UNL     1      11.320  15.671  12.310  1.00  0.00     0.200 A 
ATOM     71  F   UNL     1      12.555  15.578  10.300  1.00  0.00    -0.200 F 
ATOM     72  F   UNL     1      11.054  16.968  12.104  1.00  0.00    -0.200 F 
ENDBRANCH  48  62
BRANCH  49  73
ATOM     73  C   UNL     1      13.562   3.172  13.967  1.00  0.00     0.064 A 
ATOM     74  C   UNL     1      14.023   2.657  15.187  1.00  0.00     0.173 A 
ATOM     75  C   UNL     1      13.368   2.271  12.910  1.00  0.00     0.173 A 
ATOM     76  F   UNL     1      14.243   3.482  16.221  1.00  0.00    -0.203 F 
ATOM     77  C   UNL     1      14.301   1.300  15.336  1.00  0.00     0.198 A 
ATOM     78  C   UNL     1      13.616   0.909  13.070  1.00  0.00     0.198 A 
ATOM     79  F   UNL     1      12.923   2.711  11.724  1.00  0.00    -0.203 F 
ATOM     80  F   UNL     1      14.787   0.842  16.498  1.00  0.00    -0.200 F 
ATOM     81  C   UNL     1      14.091   0.426  14.280  1.00  0.00     0.200 A 
ATOM     82  F   UNL     1      13.397   0.066  12.052  1.00  0.00    -0.200 F 
ATOM     83  F   UNL     1      14.355  -0.879  14.426  1.00  0.00    -0.200 F 
ENDBRANCH  49  73
BRANCH  61  84
ATOM     84  C   UNL     1      17.641   8.826  14.003  1.00  0.00     0.064 A 
ATOM     85  C   UNL     1      18.580   8.428  13.040  1.00  0.00     0.173 A 
ATOM     86  C   UNL     1      18.118   9.452  15.165  1.00  0.00     0.173 A 
ATOM     87  F   UNL     1      18.177   7.812  11.918  1.00  0.00    -0.203 F 
ATOM     88  C   UNL     1      19.943   8.628  13.243  1.00  0.00     0.198 A 
ATOM     89  C   UNL     1      19.479   9.680  15.350  1.00  0.00     0.198 A 
ATOM     90  F   UNL     1      17.262   9.858  16.115  1.00  0.00    -0.203 F 
ATOM     91  F   UNL     1      20.825   8.196  12.332  1.00  0.00    -0.200 F 
ATOM     92  C   UNL     1      20.390   9.261  14.393  1.00  0.00     0.200 A 
ATOM     93  F   UNL     1      19.907  10.307  16.455  1.00  0.00    -0.200 F 
ATOM     94  F   UNL     1      21.701   9.462  14.583  1.00  0.00    -0.200 F 
ENDBRANCH  61  84
ENDBRANCH  35  36
ENDBRANCH  27  30
ENDBRANCH  25  26
ENDBRANCH  24  25
ENDBRANCH  23  24
ENDBRANCH  22  23
ENDBRANCH   1  22
TORSDOF 16
