REMARK SMILES CCc1nc(-c2cccnc2)nc(Oc2ccc(C(=O)NCCCCCCNC(=O)c3ccc(-c4c5nc(c(-c6c(F)c(F)c(F)c(F)c6F)c6ccc([nH]6)c(-c6c(F)c(F)c(F)c(F)c6F)c6nc(c(-c7c(F)c(F)c(F)c(F)c7F)c7ccc4[nH]7)C=C6)C=C5)cc3)cc2)c1C
REMARK SMILES IDX 24 1 23 2 22 3 21 4 19 5 20 6 18 8 15 9 16 10 95 11 17 12
REMARK SMILES IDX 94 13 14 14 13 15 3 16 4 17 96 18 5 19 97 20 12 21 2 22 1 23
REMARK SMILES IDX 6 24 7 25 11 26 8 27 10 28 9 29 25 30 26 31 27 32 28 33
REMARK SMILES IDX 29 34 30 36 31 37 32 38 93 39 33 40 92 41 34 42 35 43 36 44
REMARK SMILES IDX 86 45 37 46 91 47 85 48 87 49 38 50 90 51 84 52 83 53 39 55
REMARK SMILES IDX 71 56 51 57 70 58 52 59 55 60 69 61 88 62 53 63 54 64 68 66
REMARK SMILES IDX 89 67 56 68 40 69 41 70 49 71 42 72 43 73 47 74 50 75 44 76
REMARK SMILES IDX 45 77 48 78 46 79 72 80 73 81 81 82 74 83 75 84 79 85 82 86
REMARK SMILES IDX 76 87 77 88 80 89 78 90 57 91 58 92 66 93 59 94 60 95 64 96
REMARK SMILES IDX 67 97 61 98 62 99 65 100 63 101
REMARK H PARENT 21 7 28 35 87 54 55 65
REMARK Flexibility Score: inf
ROOT
ATOM      1  C   UNL     1      -4.338  -4.139  -8.412  1.00  0.00     0.002 C 
ENDROOT
BRANCH   1   2
ATOM      2  C   UNL     1      -3.243  -4.375  -7.362  1.00  0.00     0.021 C 
BRANCH   2   3
ATOM      3  C   UNL     1      -3.599  -3.805  -5.987  1.00  0.00     0.116 C 
BRANCH   3   4
ATOM      4  N   UNL     1      -4.580  -4.659  -5.347  1.00  0.00    -0.352 N 
ATOM      5  C   UNL     1      -4.479  -5.615  -4.371  1.00  0.00     0.251 C 
ATOM      6  O   UNL     1      -5.497  -6.231  -4.060  1.00  0.00    -0.269 OA
ATOM      7  H   UNL     1      -5.498  -4.526  -5.679  1.00  0.00     0.163 HD
BRANCH   5   8
ATOM      8  C   UNL     1      -3.226  -5.848  -3.605  1.00  0.00     0.040 A 
ATOM      9  C   UNL     1      -1.014  -5.902  -1.912  1.00  0.00     0.129 A 
ATOM     10  C   UNL     1      -2.273  -6.221  -1.406  1.00  0.00     0.048 A 
ATOM     11  C   UNL     1      -0.822  -5.743  -3.283  1.00  0.00     0.048 A 
ATOM     12  C   UNL     1      -3.381  -6.168  -2.248  1.00  0.00     0.017 A 
ATOM     13  C   UNL     1      -1.933  -5.737  -4.133  1.00  0.00     0.017 A 
BRANCH   9  14
ATOM     14  O   UNL     1       0.008  -5.785  -1.018  1.00  0.00    -0.439 OA
BRANCH  14  15
ATOM     15  C   UNL     1       0.621  -4.572  -0.781  1.00  0.00     0.226 A 
ATOM     16  C   UNL     1       0.974  -2.237  -0.621  1.00  0.00     0.051 A 
ATOM     17  N   UNL     1       2.156  -2.460  -0.014  1.00  0.00    -0.233 NA
ATOM     18  C   UNL     1       0.115  -3.282  -0.993  1.00  0.00     0.033 A 
ATOM     19  C   UNL     1       2.520  -3.727   0.198  1.00  0.00     0.165 A 
ATOM     20  C   UNL     1      -1.217  -2.949  -1.595  1.00  0.00     0.052 C 
ATOM     21  N   UNL     1       1.818  -4.792  -0.195  1.00  0.00    -0.193 NA
BRANCH  16  22
ATOM     22  C   UNL     1       0.707  -0.781  -0.954  1.00  0.00     0.053 C 
ATOM     23  C   UNL     1       1.259   0.197   0.078  1.00  0.00     0.011 C 
ENDBRANCH  16  22
BRANCH  19  24
ATOM     24  C   UNL     1       3.752  -3.947   0.941  1.00  0.00     0.038 A 
ATOM     25  C   UNL     1       4.782  -4.770   0.472  1.00  0.00     0.015 A 
ATOM     26  C   UNL     1       3.964  -3.324   2.170  1.00  0.00     0.123 A 
ATOM     27  C   UNL     1       5.950  -4.923   1.218  1.00  0.00     0.021 A 
ATOM     28  N   UNL     1       5.081  -3.463   2.929  1.00  0.00    -0.264 NA
ATOM     29  C   UNL     1       6.049  -4.259   2.430  1.00  0.00     0.111 A 
ENDBRANCH  19  24
ENDBRANCH  14  15
ENDBRANCH   9  14
ENDBRANCH   5   8
ENDBRANCH   3   4
ENDBRANCH   2   3
ENDBRANCH   1   2
BRANCH   1  30
ATOM     30  C   UNL     1      -4.596  -2.666  -8.750  1.00  0.00     0.002 C 
BRANCH  30  31
ATOM     31  C   UNL     1      -3.360  -1.884  -9.201  1.00  0.00     0.021 C 
BRANCH  31  32
ATOM     32  C   UNL     1      -2.691  -2.441 -10.453  1.00  0.00     0.116 C 
BRANCH  32  33
ATOM     33  N   UNL     1      -3.550  -2.326 -11.621  1.00  0.00    -0.352 N 
ATOM     34  C   UNL     1      -3.303  -1.712 -12.823  1.00  0.00     0.251 C 
ATOM     35  H   UNL     1      -4.435  -2.749 -11.537  1.00  0.00     0.163 HD
ATOM     36  O   UNL     1      -4.216  -1.513 -13.617  1.00  0.00    -0.269 OA
BRANCH  34  37
ATOM     37  C   UNL     1      -1.931  -1.275 -13.155  1.00  0.00     0.039 A 
ATOM     38  C   UNL     1      -1.741  -0.014 -13.725  1.00  0.00     0.014 A 
ATOM     39  C   UNL     1      -0.836  -2.111 -12.915  1.00  0.00     0.014 A 
ATOM     40  C   UNL     1      -0.448   0.430 -14.005  1.00  0.00     0.010 A 
ATOM     41  C   UNL     1       0.456  -1.638 -13.126  1.00  0.00     0.010 A 
ATOM     42  C   UNL     1       0.663  -0.365 -13.678  1.00  0.00    -0.014 A 
BRANCH  42  43
ATOM     43  C   UNL     1       2.049   0.115 -13.913  1.00  0.00     0.031 A 
ATOM     44  C   UNL     1       2.940  -0.604 -14.887  1.00  0.00     0.074 A 
ATOM     45  C   UNL     1       2.521   1.162 -13.209  1.00  0.00     0.049 A 
ATOM     46  N   UNL     1       4.201  -0.392 -15.169  1.00  0.00    -0.248 NA
ATOM     47  C   UNL     1       2.342  -1.729 -15.625  1.00  0.00     0.031 C 
ATOM     48  C   UNL     1       1.767   1.914 -12.204  1.00  0.00     0.029 A 
ATOM     49  N   UNL     1       3.753   1.767 -13.220  1.00  0.00    -0.354 N 
ATOM     50  C   UNL     1       4.544  -1.352 -16.112  1.00  0.00     0.074 A 
ATOM     51  C   UNL     1       3.381  -2.190 -16.306  1.00  0.00     0.031 C 
ATOM     52  C   UNL     1       2.548   2.885 -11.704  1.00  0.00     0.029 A 
ATOM     53  C   UNL     1       3.868   2.801 -12.322  1.00  0.00     0.049 A 
ATOM     54  H   UNL     1       4.486   1.486 -13.815  1.00  0.00     0.167 HD
ATOM     55  C   UNL     1       5.714  -1.503 -16.777  1.00  0.00     0.037 A 
ATOM     56  C   UNL     1       4.923   3.581 -12.021  1.00  0.00     0.037 A 
ATOM     57  C   UNL     1       6.866  -0.661 -16.590  1.00  0.00     0.049 A 
ATOM     58  C   UNL     1       6.220   3.376 -12.759  1.00  0.00     0.074 A 
ATOM     59  C   UNL     1       8.090  -0.716 -17.234  1.00  0.00     0.029 A 
ATOM     60  N   UNL     1       6.935   0.393 -15.690  1.00  0.00    -0.354 N 
ATOM     61  N   UNL     1       6.514   2.499 -13.688  1.00  0.00    -0.248 NA
ATOM     62  C   UNL     1       7.328   4.277 -12.415  1.00  0.00     0.031 C 
ATOM     63  C   UNL     1       8.914   0.277 -16.694  1.00  0.00     0.029 A 
ATOM     64  C   UNL     1       8.185   0.987 -15.753  1.00  0.00     0.049 A 
ATOM     65  H   UNL     1       6.204   0.677 -15.095  1.00  0.00     0.167 HD
ATOM     66  C   UNL     1       7.826   2.762 -14.060  1.00  0.00     0.074 A 
ATOM     67  C   UNL     1       8.264   3.893 -13.270  1.00  0.00     0.031 C 
ATOM     68  C   UNL     1       8.600   2.122 -14.971  1.00  0.00     0.037 A 
BRANCH  55  69
ATOM     69  C   UNL     1       5.803  -2.612 -17.786  1.00  0.00     0.064 A 
ATOM     70  C   UNL     1       5.088  -2.562 -18.992  1.00  0.00     0.173 A 
ATOM     71  C   UNL     1       6.648  -3.711 -17.571  1.00  0.00     0.173 A 
ATOM     72  F   UNL     1       4.257  -1.538 -19.242  1.00  0.00    -0.203 F 
ATOM     73  C   UNL     1       5.198  -3.580 -19.935  1.00  0.00     0.198 A 
ATOM     74  C   UNL     1       6.779  -4.713 -18.530  1.00  0.00     0.198 A 
ATOM     75  F   UNL     1       7.358  -3.808 -16.437  1.00  0.00    -0.203 F 
ATOM     76  F   UNL     1       4.471  -3.531 -21.060  1.00  0.00    -0.200 F 
ATOM     77  C   UNL     1       6.050  -4.650 -19.707  1.00  0.00     0.200 A 
ATOM     78  F   UNL     1       7.614  -5.739 -18.315  1.00  0.00    -0.200 F 
ATOM     79  F   UNL     1       6.164  -5.623 -20.621  1.00  0.00    -0.200 F 
ENDBRANCH  55  69
BRANCH  56  80
ATOM     80  C   UNL     1       4.804   4.629 -10.972  1.00  0.00     0.064 A 
ATOM     81  C   UNL     1       4.879   5.991 -11.296  1.00  0.00     0.173 A 
ATOM     82  C   UNL     1       4.643   4.291  -9.620  1.00  0.00     0.173 A 
ATOM     83  F   UNL     1       5.051   6.367 -12.572  1.00  0.00    -0.203 F 
ATOM     84  C   UNL     1       4.833   6.972 -10.307  1.00  0.00     0.198 A 
ATOM     85  C   UNL     1       4.562   5.273  -8.636  1.00  0.00     0.198 A 
ATOM     86  F   UNL     1       4.557   3.003  -9.255  1.00  0.00    -0.203 F 
ATOM     87  F   UNL     1       4.970   8.262 -10.640  1.00  0.00    -0.200 F 
ATOM     88  C   UNL     1       4.671   6.612  -8.978  1.00  0.00     0.200 A 
ATOM     89  F   UNL     1       4.387   4.921  -7.354  1.00  0.00    -0.200 F 
ATOM     90  F   UNL     1       4.629   7.554  -8.026  1.00  0.00    -0.200 F 
ENDBRANCH  56  80
BRANCH  68  91
ATOM     91  C   UNL     1       9.985   2.658 -15.196  1.00  0.00     0.064 A 
ATOM     92  C   UNL     1      10.996   2.518 -14.235  1.00  0.00     0.173 A 
ATOM     93  C   UNL     1      10.312   3.286 -16.408  1.00  0.00     0.173 A 
ATOM     94  F   UNL     1      10.730   1.938 -13.054  1.00  0.00    -0.203 F 
ATOM     95  C   UNL     1      12.277   3.012 -14.467  1.00  0.00     0.198 A 
ATOM     96  C   UNL     1      11.602   3.748 -16.650  1.00  0.00     0.198 A 
ATOM     97  F   UNL     1       9.383   3.438 -17.364  1.00  0.00    -0.203 F 
ATOM     98  F   UNL     1      13.214   2.913 -13.514  1.00  0.00    -0.200 F 
ATOM     99  C   UNL     1      12.581   3.619 -15.677  1.00  0.00     0.200 A 
ATOM    100  F   UNL     1      11.898   4.321 -17.825  1.00  0.00    -0.200 F 
ATOM    101  F   UNL     1      13.817   4.086 -15.901  1.00  0.00    -0.200 F 
ENDBRANCH  68  91
ENDBRANCH  42  43
ENDBRANCH  34  37
ENDBRANCH  32  33
ENDBRANCH  31  32
ENDBRANCH  30  31
ENDBRANCH   1  30
TORSDOF 17
