REMARK SMILES CCN(CC(=O)NC(C)C)C(=O)N[C@H]1C=C[C@H](C(=O)NCCCCCCNC(=O)c2ccc(-c3c4nc(c(-c5c(F)c(F)c(F)c(F)c5F)c5ccc([nH]5)c(-c5c(F)c(F)c(F)c(F)c5F)c5nc(c(-c6c(F)c(F)c(F)c(F)c6F)c6ccc3[nH]6)C=C5)C=C4)cc2)C1
REMARK SMILES IDX 22 1 21 2 20 3 18 4 19 5 17 7 14 8 15 9 93 10 16 11 13 12
REMARK SMILES IDX 11 13 12 14 3 16 2 17 1 18 4 19 5 20 6 21 7 22 8 24 9 25
REMARK SMILES IDX 10 26 23 27 24 28 25 29 26 30 27 31 28 32 29 34 30 35 31 36
REMARK SMILES IDX 92 37 32 38 91 39 33 40 34 41 35 42 85 43 36 44 90 45 84 46
REMARK SMILES IDX 86 47 37 48 89 49 83 50 82 51 38 53 70 54 50 55 69 56 51 57
REMARK SMILES IDX 54 58 68 59 87 60 52 61 53 62 67 64 88 65 55 66 39 67 40 68
REMARK SMILES IDX 48 69 41 70 42 71 46 72 49 73 43 74 44 75 47 76 45 77 71 78
REMARK SMILES IDX 72 79 80 80 73 81 74 82 78 83 81 84 75 85 76 86 79 87 77 88
REMARK SMILES IDX 56 89 57 90 65 91 58 92 59 93 63 94 66 95 60 96 61 97 64 98
REMARK SMILES IDX 62 99
REMARK H PARENT 20 6 13 15 7 23 27 33 86 52 54 63
REMARK Flexibility Score: inf
ROOT
ATOM      1  C   UNL     1       0.894   6.731   4.677  1.00  0.00     0.021 C 
ENDROOT
BRANCH   1   2
ATOM      2  C   UNL     1       1.646   6.172   5.883  1.00  0.00     0.116 C 
BRANCH   2   3
ATOM      3  N   UNL     1       0.837   5.219   6.614  1.00  0.00    -0.356 N 
ATOM      4  C   UNL     1       1.133   3.938   6.979  1.00  0.00     0.227 C 
ATOM      5  O   UNL     1       0.309   3.337   7.668  1.00  0.00    -0.274 OA
ATOM      6  H   UNL     1      -0.052   5.542   6.887  1.00  0.00     0.163 HD
BRANCH   4   7
ATOM      7  C   UNL     1       2.475   3.336   6.538  1.00  0.00     0.103 C 
ATOM      8  C   UNL     1       2.015   1.620   4.890  1.00  0.00     0.107 C 
ATOM      9  C   UNL     1       2.453   1.012   6.181  1.00  0.00    -0.006 C 
ATOM     10  C   UNL     1       2.521   3.057   5.027  1.00  0.00     0.047 C 
ATOM     11  C   UNL     1       2.691   1.958   7.098  1.00  0.00    -0.016 C 
BRANCH   8  12
ATOM     12  N   UNL     1       2.619   0.904   3.795  1.00  0.00    -0.332 N 
ATOM     13  C   UNL     1       2.212   0.189   2.735  1.00  0.00     0.318 C 
ATOM     14  O   UNL     1       3.131  -0.265   2.043  1.00  0.00    -0.249 OA
ATOM     15  H   UNL     1       3.601   0.954   3.836  1.00  0.00     0.165 HD
BRANCH  13  16
ATOM     16  N   UNL     1       0.902  -0.038   2.408  1.00  0.00    -0.316 N 
BRANCH  16  17
ATOM     17  C   UNL     1       0.657  -0.702   1.120  1.00  0.00     0.118 C 
ATOM     18  C   UNL     1       0.983   0.167  -0.088  1.00  0.00     0.027 C 
ENDBRANCH  16  17
BRANCH  16  19
ATOM     19  C   UNL     1      -0.289   0.382   3.157  1.00  0.00     0.221 C 
BRANCH  19  20
ATOM     20  C   UNL     1      -0.490  -0.286   4.531  1.00  0.00     0.239 C 
ATOM     21  O   UNL     1      -0.967   0.346   5.477  1.00  0.00    -0.273 OA
ATOM     22  N   UNL     1      -0.270  -1.617   4.720  1.00  0.00    -0.352 N 
ATOM     23  H   UNL     1       0.050  -1.889   5.611  1.00  0.00     0.163 HD
BRANCH  22  24
ATOM     24  C   UNL     1      -0.456  -2.678   3.747  1.00  0.00     0.075 C 
ATOM     25  C   UNL     1       0.765  -3.582   3.674  1.00  0.00     0.030 C 
ATOM     26  C   UNL     1      -1.714  -3.462   4.116  1.00  0.00     0.030 C 
ENDBRANCH  22  24
ENDBRANCH  19  20
ENDBRANCH  16  19
ENDBRANCH  13  16
ENDBRANCH   8  12
ENDBRANCH   4   7
ENDBRANCH   2   3
ENDBRANCH   1   2
BRANCH   1  27
ATOM     27  C   UNL     1      -0.322   7.595   5.033  1.00  0.00     0.002 C 
BRANCH  27  28
ATOM     28  C   UNL     1      -0.028   8.790   5.945  1.00  0.00     0.002 C 
BRANCH  28  29
ATOM     29  C   UNL     1       1.067   9.735   5.445  1.00  0.00     0.021 C 
BRANCH  29  30
ATOM     30  C   UNL     1       0.808  10.339   4.069  1.00  0.00     0.116 C 
BRANCH  30  31
ATOM     31  N   UNL     1      -0.371  11.190   4.054  1.00  0.00    -0.352 N 
ATOM     32  C   UNL     1      -0.494  12.506   3.687  1.00  0.00     0.251 C 
ATOM     33  H   UNL     1      -1.204  10.758   4.352  1.00  0.00     0.163 HD
ATOM     34  O   UNL     1      -1.533  13.119   3.920  1.00  0.00    -0.269 OA
BRANCH  32  35
ATOM     35  C   UNL     1       0.635  13.199   3.032  1.00  0.00     0.039 A 
ATOM     36  C   UNL     1       0.986  14.479   3.469  1.00  0.00     0.014 A 
ATOM     37  C   UNL     1       1.347  12.593   1.993  1.00  0.00     0.014 A 
ATOM     38  C   UNL     1       2.098  15.119   2.917  1.00  0.00     0.010 A 
ATOM     39  C   UNL     1       2.496  13.202   1.493  1.00  0.00     0.010 A 
ATOM     40  C   UNL     1       2.888  14.467   1.956  1.00  0.00    -0.014 A 
BRANCH  40  41
ATOM     41  C   UNL     1       4.145  15.076   1.450  1.00  0.00     0.031 A 
ATOM     42  C   UNL     1       4.284  15.438  -0.003  1.00  0.00     0.074 A 
ATOM     43  C   UNL     1       5.189  15.235   2.289  1.00  0.00     0.049 A 
ATOM     44  N   UNL     1       5.332  15.887  -0.646  1.00  0.00    -0.248 NA
ATOM     45  C   UNL     1       3.096  15.250  -0.850  1.00  0.00     0.031 C 
ATOM     46  C   UNL     1       5.191  14.888   3.712  1.00  0.00     0.029 A 
ATOM     47  N   UNL     1       6.457  15.711   2.064  1.00  0.00    -0.354 N 
ATOM     48  C   UNL     1       4.935  16.023  -1.970  1.00  0.00     0.074 A 
ATOM     49  C   UNL     1       3.563  15.569  -2.049  1.00  0.00     0.031 C 
ATOM     50  C   UNL     1       6.393  15.175   4.234  1.00  0.00     0.029 A 
ATOM     51  C   UNL     1       7.264  15.678   3.177  1.00  0.00     0.049 A 
ATOM     52  H   UNL     1       6.760  16.045   1.189  1.00  0.00     0.167 HD
ATOM     53  C   UNL     1       5.647  16.498  -3.019  1.00  0.00     0.037 A 
ATOM     54  C   UNL     1       8.565  15.995   3.323  1.00  0.00     0.037 A 
ATOM     55  C   UNL     1       7.005  16.971  -2.932  1.00  0.00     0.049 A 
ATOM     56  C   UNL     1       9.337  16.492   2.128  1.00  0.00     0.074 A 
ATOM     57  C   UNL     1       7.786  17.532  -3.927  1.00  0.00     0.029 A 
ATOM     58  N   UNL     1       7.786  16.930  -1.786  1.00  0.00    -0.354 N 
ATOM     59  N   UNL     1       8.927  16.687   0.899  1.00  0.00    -0.248 NA
ATOM     60  C   UNL     1      10.754  16.817   2.344  1.00  0.00     0.031 C 
ATOM     61  C   UNL     1       9.059  17.774  -3.401  1.00  0.00     0.029 A 
ATOM     62  C   UNL     1       9.051  17.424  -2.061  1.00  0.00     0.049 A 
ATOM     63  H   UNL     1       7.486  16.599  -0.909  1.00  0.00     0.167 HD
ATOM     64  C   UNL     1      10.022  17.186   0.206  1.00  0.00     0.074 A 
ATOM     65  C   UNL     1      11.108  17.285   1.157  1.00  0.00     0.031 C 
ATOM     66  C   UNL     1      10.120  17.529  -1.102  1.00  0.00     0.037 A 
BRANCH  53  67
ATOM     67  C   UNL     1       4.983  16.536  -4.365  1.00  0.00     0.064 A 
ATOM     68  C   UNL     1       3.960  17.451  -4.657  1.00  0.00     0.173 A 
ATOM     69  C   UNL     1       5.435  15.705  -5.402  1.00  0.00     0.173 A 
ATOM     70  F   UNL     1       3.485  18.261  -3.699  1.00  0.00    -0.203 F 
ATOM     71  C   UNL     1       3.407  17.523  -5.933  1.00  0.00     0.198 A 
ATOM     72  C   UNL     1       4.901  15.802  -6.684  1.00  0.00     0.198 A 
ATOM     73  F   UNL     1       6.415  14.817  -5.178  1.00  0.00    -0.203 F 
ATOM     74  F   UNL     1       2.409  18.384  -6.181  1.00  0.00    -0.200 F 
ATOM     75  C   UNL     1       3.885  16.708  -6.948  1.00  0.00     0.200 A 
ATOM     76  F   UNL     1       5.376  15.024  -7.667  1.00  0.00    -0.200 F 
ATOM     77  F   UNL     1       3.366  16.795  -8.180  1.00  0.00    -0.200 F 
ENDBRANCH  53  67
BRANCH  54  78
ATOM     78  C   UNL     1       9.235  15.844   4.644  1.00  0.00     0.064 A 
ATOM     79  C   UNL     1       9.719  16.961   5.340  1.00  0.00     0.173 A 
ATOM     80  C   UNL     1       9.450  14.580   5.213  1.00  0.00     0.173 A 
ATOM     81  F   UNL     1       9.558  18.190   4.829  1.00  0.00    -0.203 F 
ATOM     82  C   UNL     1      10.425  16.817   6.533  1.00  0.00     0.198 A 
ATOM     83  C   UNL     1      10.124  14.440   6.425  1.00  0.00     0.198 A 
ATOM     84  F   UNL     1       9.004  13.478   4.593  1.00  0.00    -0.203 F 
ATOM     85  F   UNL     1      10.938  17.896   7.139  1.00  0.00    -0.200 F 
ATOM     86  C   UNL     1      10.624  15.557   7.076  1.00  0.00     0.200 A 
ATOM     87  F   UNL     1      10.299  13.222   6.954  1.00  0.00    -0.200 F 
ATOM     88  F   UNL     1      11.310  15.418   8.218  1.00  0.00    -0.200 F 
ENDBRANCH  54  78
BRANCH  66  89
ATOM     89  C   UNL     1      11.435  18.082  -1.573  1.00  0.00     0.064 A 
ATOM     90  C   UNL     1      12.581  17.279  -1.677  1.00  0.00     0.173 A 
ATOM     91  C   UNL     1      11.541  19.428  -1.958  1.00  0.00     0.173 A 
ATOM     92  F   UNL     1      12.538  15.990  -1.307  1.00  0.00    -0.203 F 
ATOM     93  C   UNL     1      13.790  17.810  -2.118  1.00  0.00     0.198 A 
ATOM     94  C   UNL     1      12.742  19.946  -2.433  1.00  0.00     0.198 A 
ATOM     95  F   UNL     1      10.474  20.238  -1.887  1.00  0.00    -0.203 F 
ATOM     96  F   UNL     1      14.885  17.038  -2.154  1.00  0.00    -0.200 F 
ATOM     97  C   UNL     1      13.868  19.140  -2.503  1.00  0.00     0.200 A 
ATOM     98  F   UNL     1      12.810  21.227  -2.822  1.00  0.00    -0.200 F 
ATOM     99  F   UNL     1      15.031  19.647  -2.935  1.00  0.00    -0.200 F 
ENDBRANCH  66  89
ENDBRANCH  40  41
ENDBRANCH  32  35
ENDBRANCH  30  31
ENDBRANCH  29  30
ENDBRANCH  28  29
ENDBRANCH  27  28
ENDBRANCH   1  27
TORSDOF 19
