REMARK SMILES CC(C)OCCS(=O)(=O)Nc1ccc(O)c(C(=O)NCCCCCCNC(=O)c2ccc(-c3c4nc(c(-c5c(F)c(F)c(F)c(F)c5F)c5ccc([nH]5)c(-c5c(F)c(F)c(F)c(F)c5F)c5nc(c(-c6c(F)c(F)c(F)c(F)c6F)c6ccc3[nH]6)C=C5)C=C4)cc2)c1
REMARK SMILES IDX 20 1 19 2 17 3 18 4 16 6 11 7 12 8 92 9 13 10 14 11 10 12
REMARK SMILES IDX 7 14 8 15 9 16 6 17 5 18 4 19 2 20 1 21 3 22 15 23 21 25
REMARK SMILES IDX 22 26 23 27 24 28 25 29 26 30 27 31 28 33 29 34 30 35 91 36
REMARK SMILES IDX 31 37 90 38 32 39 33 40 34 41 84 42 35 43 89 44 83 45 85 46
REMARK SMILES IDX 36 47 88 48 82 49 81 50 37 52 69 53 49 54 68 55 50 56 53 57
REMARK SMILES IDX 67 58 86 59 51 60 52 61 66 63 87 64 54 65 38 66 39 67 47 68
REMARK SMILES IDX 40 69 41 70 45 71 48 72 42 73 43 74 46 75 44 76 70 77 71 78
REMARK SMILES IDX 79 79 72 80 73 81 77 82 80 83 74 84 75 85 78 86 76 87 55 88
REMARK SMILES IDX 56 89 64 90 57 91 58 92 62 93 65 94 59 95 60 96 63 97 61 98
REMARK H PARENT 19 5 10 13 15 24 26 32 85 51 53 62
REMARK Flexibility Score: inf
ROOT
ATOM      1  C   UNL     1      -2.005   6.309  -4.298  1.00  0.00     0.116 C 
ENDROOT
BRANCH   1   2
ATOM      2  N   UNL     1      -0.694   6.077  -4.866  1.00  0.00    -0.352 N 
ATOM      3  C   UNL     1       0.242   5.114  -4.595  1.00  0.00     0.255 C 
ATOM      4  O   UNL     1       1.325   5.181  -5.179  1.00  0.00    -0.269 OA
ATOM      5  H   UNL     1      -0.431   6.720  -5.564  1.00  0.00     0.163 HD
BRANCH   3   6
ATOM      6  C   UNL     1      -0.012   3.952  -3.703  1.00  0.00     0.083 A 
ATOM      7  C   UNL     1       0.409   1.576  -3.361  1.00  0.00     0.050 A 
ATOM      8  C   UNL     1      -0.219   1.691  -2.134  1.00  0.00     0.030 A 
ATOM      9  C   UNL     1       0.536   2.720  -4.138  1.00  0.00     0.044 A 
ATOM     10  C   UNL     1      -0.775   2.870  -1.681  1.00  0.00     0.049 A 
ATOM     11  C   UNL     1      -0.642   4.010  -2.451  1.00  0.00     0.128 A 
BRANCH   7  12
ATOM     12  N   UNL     1       1.181   0.417  -3.630  1.00  0.00    -0.283 N 
ATOM     13  H   UNL     1       2.154   0.534  -3.715  1.00  0.00     0.180 HD
BRANCH  12  14
ATOM     14  S   UNL     1       0.582  -1.124  -3.812  1.00  0.00     0.235 S 
ATOM     15  O   UNL     1       1.667  -1.998  -3.431  1.00  0.00    -0.207 OA
ATOM     16  O   UNL     1       0.044  -1.196  -5.162  1.00  0.00    -0.207 OA
BRANCH  14  17
ATOM     17  C   UNL     1      -0.800  -1.418  -2.696  1.00  0.00     0.188 C 
BRANCH  17  18
ATOM     18  C   UNL     1      -0.443  -1.909  -1.293  1.00  0.00     0.178 C 
BRANCH  18  19
ATOM     19  O   UNL     1      -0.514  -0.848  -0.342  1.00  0.00    -0.378 OA
BRANCH  19  20
ATOM     20  C   UNL     1       0.608  -0.573   0.503  1.00  0.00     0.112 C 
ATOM     21  C   UNL     1       0.495  -1.352   1.800  1.00  0.00     0.038 C 
ATOM     22  C   UNL     1       1.978  -0.714  -0.150  1.00  0.00     0.038 C 
ENDBRANCH  19  20
ENDBRANCH  18  19
ENDBRANCH  17  18
ENDBRANCH  14  17
ENDBRANCH  12  14
ENDBRANCH   7  12
BRANCH  11  23
ATOM     23  O   UNL     1      -1.076   5.164  -1.877  1.00  0.00    -0.507 OA
ATOM     24  H   UNL     1      -1.491   5.142  -1.037  1.00  0.00     0.293 HD
ENDBRANCH  11  23
ENDBRANCH   3   6
ENDBRANCH   1   2
BRANCH   1  25
ATOM     25  C   UNL     1      -1.930   7.420  -3.245  1.00  0.00     0.021 C 
BRANCH  25  26
ATOM     26  C   UNL     1      -1.945   8.830  -3.829  1.00  0.00     0.002 C 
BRANCH  26  27
ATOM     27  C   UNL     1      -3.247   9.198  -4.542  1.00  0.00     0.002 C 
BRANCH  27  28
ATOM     28  C   UNL     1      -4.509   9.024  -3.693  1.00  0.00     0.021 C 
BRANCH  28  29
ATOM     29  C   UNL     1      -4.500   9.826  -2.395  1.00  0.00     0.116 C 
BRANCH  29  30
ATOM     30  N   UNL     1      -4.399  11.252  -2.661  1.00  0.00    -0.352 N 
ATOM     31  C   UNL     1      -5.312  12.241  -2.411  1.00  0.00     0.251 C 
ATOM     32  H   UNL     1      -3.557  11.547  -3.078  1.00  0.00     0.163 HD
ATOM     33  O   UNL     1      -5.222  13.330  -2.967  1.00  0.00    -0.269 OA
BRANCH  31  34
ATOM     34  C   UNL     1      -6.405  11.991  -1.452  1.00  0.00     0.039 A 
ATOM     35  C   UNL     1      -7.697  12.420  -1.762  1.00  0.00     0.014 A 
ATOM     36  C   UNL     1      -6.137  11.368  -0.228  1.00  0.00     0.014 A 
ATOM     37  C   UNL     1      -8.732  12.196  -0.854  1.00  0.00     0.010 A 
ATOM     38  C   UNL     1      -7.180  11.085   0.645  1.00  0.00     0.010 A 
ATOM     39  C   UNL     1      -8.482  11.514   0.348  1.00  0.00    -0.014 A 
BRANCH  39  40
ATOM     40  C   UNL     1      -9.567  11.262   1.325  1.00  0.00     0.031 A 
ATOM     41  C   UNL     1      -9.526  11.916   2.676  1.00  0.00     0.074 A 
ATOM     42  C   UNL     1     -10.540  10.384   1.022  1.00  0.00     0.049 A 
ATOM     43  N   UNL     1     -10.339  11.773   3.691  1.00  0.00    -0.248 NA
ATOM     44  C   UNL     1      -8.398  12.825   2.934  1.00  0.00     0.031 C 
ATOM     45  C   UNL     1     -10.642   9.638  -0.233  1.00  0.00     0.029 A 
ATOM     46  N   UNL     1     -11.617   9.957   1.754  1.00  0.00    -0.354 N 
ATOM     47  C   UNL     1      -9.809  12.552   4.711  1.00  0.00     0.074 A 
ATOM     48  C   UNL     1      -8.578  13.124   4.211  1.00  0.00     0.031 C 
ATOM     49  C   UNL     1     -11.729   8.852  -0.187  1.00  0.00     0.029 A 
ATOM     50  C   UNL     1     -12.382   9.019   1.108  1.00  0.00     0.049 A 
ATOM     51  H   UNL     1     -11.823  10.292   2.657  1.00  0.00     0.167 HD
ATOM     52  C   UNL     1     -10.316  12.784   5.945  1.00  0.00     0.037 A 
ATOM     53  C   UNL     1     -13.484   8.365   1.518  1.00  0.00     0.037 A 
ATOM     54  C   UNL     1     -11.561  12.238   6.418  1.00  0.00     0.049 A 
ATOM     55  C   UNL     1     -14.055   8.671   2.874  1.00  0.00     0.074 A 
ATOM     56  C   UNL     1     -12.216  12.486   7.611  1.00  0.00     0.029 A 
ATOM     57  N   UNL     1     -12.338  11.327   5.717  1.00  0.00    -0.354 N 
ATOM     58  N   UNL     1     -13.598   9.480   3.798  1.00  0.00    -0.248 NA
ATOM     59  C   UNL     1     -15.301   7.984   3.238  1.00  0.00     0.031 C 
ATOM     60  C   UNL     1     -13.365  11.688   7.652  1.00  0.00     0.029 A 
ATOM     61  C   UNL     1     -13.453  10.980   6.464  1.00  0.00     0.049 A 
ATOM     62  H   UNL     1     -12.129  10.978   4.820  1.00  0.00     0.167 HD
ATOM     63  C   UNL     1     -14.505   9.416   4.846  1.00  0.00     0.074 A 
ATOM     64  C   UNL     1     -15.550   8.499   4.435  1.00  0.00     0.031 C 
ATOM     65  C   UNL     1     -14.477  10.058   6.040  1.00  0.00     0.037 A 
BRANCH  52  66
ATOM     66  C   UNL     1      -9.518  13.660   6.867  1.00  0.00     0.064 A 
ATOM     67  C   UNL     1      -9.354  15.034   6.626  1.00  0.00     0.173 A 
ATOM     68  C   UNL     1      -8.910  13.120   8.010  1.00  0.00     0.173 A 
ATOM     69  F   UNL     1      -9.904  15.599   5.541  1.00  0.00    -0.203 F 
ATOM     70  C   UNL     1      -8.578  15.823   7.472  1.00  0.00     0.198 A 
ATOM     71  C   UNL     1      -8.162  13.918   8.871  1.00  0.00     0.198 A 
ATOM     72  F   UNL     1      -9.039  11.814   8.292  1.00  0.00    -0.203 F 
ATOM     73  F   UNL     1      -8.383  17.117   7.185  1.00  0.00    -0.200 F 
ATOM     74  C   UNL     1      -7.986  15.266   8.595  1.00  0.00     0.200 A 
ATOM     75  F   UNL     1      -7.601  13.381   9.963  1.00  0.00    -0.200 F 
ATOM     76  F   UNL     1      -7.238  16.026   9.406  1.00  0.00    -0.200 F 
ENDBRANCH  52  66
BRANCH  53  77
ATOM     77  C   UNL     1     -14.127   7.383   0.609  1.00  0.00     0.064 A 
ATOM     78  C   UNL     1     -15.338   7.680  -0.032  1.00  0.00     0.173 A 
ATOM     79  C   UNL     1     -13.522   6.150   0.326  1.00  0.00     0.173 A 
ATOM     80  F   UNL     1     -15.960   8.841   0.220  1.00  0.00    -0.203 F 
ATOM     81  C   UNL     1     -15.923   6.777  -0.916  1.00  0.00     0.198 A 
ATOM     82  C   UNL     1     -14.096   5.258  -0.577  1.00  0.00     0.198 A 
ATOM     83  F   UNL     1     -12.358   5.825   0.906  1.00  0.00    -0.203 F 
ATOM     84  F   UNL     1     -17.094   7.074  -1.496  1.00  0.00    -0.200 F 
ATOM     85  C   UNL     1     -15.298   5.570  -1.194  1.00  0.00     0.200 A 
ATOM     86  F   UNL     1     -13.480   4.101  -0.856  1.00  0.00    -0.200 F 
ATOM     87  F   UNL     1     -15.854   4.709  -2.057  1.00  0.00    -0.200 F 
ENDBRANCH  53  77
BRANCH  65  88
ATOM     88  C   UNL     1     -15.615   9.801   6.983  1.00  0.00     0.064 A 
ATOM     89  C   UNL     1     -15.743   8.581   7.663  1.00  0.00     0.173 A 
ATOM     90  C   UNL     1     -16.565  10.802   7.240  1.00  0.00     0.173 A 
ATOM     91  F   UNL     1     -14.869   7.588   7.439  1.00  0.00    -0.203 F 
ATOM     92  C   UNL     1     -16.794   8.365   8.550  1.00  0.00     0.198 A 
ATOM     93  C   UNL     1     -17.597  10.591   8.149  1.00  0.00     0.198 A 
ATOM     94  F   UNL     1     -16.482  11.988   6.619  1.00  0.00    -0.203 F 
ATOM     95  F   UNL     1     -16.922   7.176   9.156  1.00  0.00    -0.200 F 
ATOM     96  C   UNL     1     -17.715   9.372   8.798  1.00  0.00     0.200 A 
ATOM     97  F   UNL     1     -18.479  11.570   8.398  1.00  0.00    -0.200 F 
ATOM     98  F   UNL     1     -18.721   9.164   9.659  1.00  0.00    -0.200 F 
ENDBRANCH  65  88
ENDBRANCH  39  40
ENDBRANCH  31  34
ENDBRANCH  29  30
ENDBRANCH  28  29
ENDBRANCH  27  28
ENDBRANCH  26  27
ENDBRANCH  25  26
ENDBRANCH   1  25
TORSDOF 20
