REMARK SMILES CC(C)[C@H](NC(=O)[C@H](C)NC(=O)C[NH3+])C(=O)NCCCCCCNC(=O)c1ccc(-c2c3nc(c(-c4c(F)c(F)c(F)c(F)c4F)c4ccc([nH]4)c(-c4c(F)c(F)c(F)c(F)c4F)c4nc(c(-c5c(F)c(F)c(F)c(F)c5F)c5ccc2[nH]5)C=C4)C=C3)cc1
REMARK SMILES IDX 19 1 18 2 17 3 15 4 16 5 4 7 2 8 1 9 3 10 5 11 6 12 7 14
REMARK SMILES IDX 8 15 9 16 10 17 11 18 12 20 13 21 14 22 20 26 21 27 22 28
REMARK SMILES IDX 23 29 24 30 25 31 26 33 27 34 28 35 89 36 29 37 88 38 30 39
REMARK SMILES IDX 31 40 32 41 82 42 33 43 87 44 81 45 83 46 34 47 86 48 80 49
REMARK SMILES IDX 79 50 35 52 67 53 47 54 66 55 48 56 51 57 65 58 84 59 49 60
REMARK SMILES IDX 50 61 64 63 85 64 52 65 36 66 37 67 45 68 38 69 39 70 43 71
REMARK SMILES IDX 46 72 40 73 41 74 44 75 42 76 68 77 69 78 77 79 70 80 71 81
REMARK SMILES IDX 75 82 78 83 72 84 73 85 76 86 74 87 53 88 54 89 62 90 55 91
REMARK SMILES IDX 56 92 60 93 63 94 57 95 58 96 61 97 59 98
REMARK H PARENT 17 6 5 13 10 19 14 23 14 24 14 25 24 32 83 51 51 62
REMARK Flexibility Score: inf
ROOT
ATOM      1  C   UNL     1      -1.719  -5.902   2.064  1.00  0.00     0.021 C 
ENDROOT
BRANCH   1   2
ATOM      2  C   UNL     1      -0.295  -5.444   1.776  1.00  0.00     0.116 C 
BRANCH   2   3
ATOM      3  N   UNL     1       0.136  -5.814   0.445  1.00  0.00    -0.354 N 
ATOM      4  C   UNL     1       0.872  -5.155  -0.487  1.00  0.00     0.242 C 
ATOM      5  O   UNL     1       1.300  -5.827  -1.432  1.00  0.00    -0.273 OA
ATOM      6  H   UNL     1      -0.158  -6.710   0.163  1.00  0.00     0.163 HD
BRANCH   4   7
ATOM      7  C   UNL     1       1.261  -3.666  -0.362  1.00  0.00     0.173 C 
BRANCH   7   8
ATOM      8  C   UNL     1       2.522  -3.369   0.490  1.00  0.00     0.015 C 
ATOM      9  C   UNL     1       2.519  -3.920   1.915  1.00  0.00     0.010 C 
ATOM     10  C   UNL     1       3.783  -3.869  -0.226  1.00  0.00     0.010 C 
ENDBRANCH   7   8
BRANCH   7  11
ATOM     11  N   UNL     1       0.114  -2.819  -0.024  1.00  0.00    -0.342 N 
ATOM     12  C   UNL     1      -0.289  -1.643  -0.579  1.00  0.00     0.242 C 
ATOM     13  H   UNL     1      -0.447  -3.149   0.714  1.00  0.00     0.164 HD
ATOM     14  O   UNL     1      -1.383  -1.194  -0.221  1.00  0.00    -0.273 OA
BRANCH  12  15
ATOM     15  C   UNL     1       0.586  -0.912  -1.608  1.00  0.00     0.168 C 
ATOM     16  C   UNL     1       1.150   0.365  -0.997  1.00  0.00     0.041 C 
BRANCH  15  17
ATOM     17  N   UNL     1      -0.264  -0.609  -2.757  1.00  0.00    -0.340 N 
ATOM     18  C   UNL     1      -0.241  -1.171  -4.001  1.00  0.00     0.275 C 
ATOM     19  H   UNL     1      -0.940   0.093  -2.617  1.00  0.00     0.164 HD
ATOM     20  O   UNL     1      -1.074  -0.814  -4.836  1.00  0.00    -0.268 OA
BRANCH  18  21
ATOM     21  C   UNL     1       0.798  -2.248  -4.332  1.00  0.00     0.360 C 
BRANCH  21  22
ATOM     22  N   UNL     1       2.169  -1.717  -4.251  1.00  0.00    -0.350 N 
ATOM     23  H   UNL     1       2.281  -0.961  -4.926  1.00  0.00     0.344 HD
ATOM     24  H   UNL     1       2.835  -2.461  -4.460  1.00  0.00     0.344 HD
ATOM     25  H   UNL     1       2.341  -1.361  -3.311  1.00  0.00     0.344 HD
ENDBRANCH  21  22
ENDBRANCH  18  21
ENDBRANCH  15  17
ENDBRANCH  12  15
ENDBRANCH   7  11
ENDBRANCH   4   7
ENDBRANCH   2   3
ENDBRANCH   1   2
BRANCH   1  26
ATOM     26  C   UNL     1      -1.882  -7.423   2.147  1.00  0.00     0.002 C 
BRANCH  26  27
ATOM     27  C   UNL     1      -0.912  -8.136   3.096  1.00  0.00     0.002 C 
BRANCH  27  28
ATOM     28  C   UNL     1      -0.857  -7.577   4.519  1.00  0.00     0.021 C 
BRANCH  28  29
ATOM     29  C   UNL     1      -2.204  -7.489   5.225  1.00  0.00     0.116 C 
BRANCH  29  30
ATOM     30  N   UNL     1      -2.856  -8.782   5.329  1.00  0.00    -0.352 N 
ATOM     31  C   UNL     1      -3.410  -9.390   6.426  1.00  0.00     0.251 C 
ATOM     32  H   UNL     1      -2.907  -9.296   4.491  1.00  0.00     0.163 HD
ATOM     33  O   UNL     1      -3.764 -10.561   6.370  1.00  0.00    -0.269 OA
BRANCH  31  34
ATOM     34  C   UNL     1      -3.557  -8.634   7.688  1.00  0.00     0.039 A 
ATOM     35  C   UNL     1      -3.209  -9.259   8.886  1.00  0.00     0.014 A 
ATOM     36  C   UNL     1      -4.040  -7.322   7.692  1.00  0.00     0.014 A 
ATOM     37  C   UNL     1      -3.298  -8.552  10.085  1.00  0.00     0.010 A 
ATOM     38  C   UNL     1      -4.054  -6.593   8.877  1.00  0.00     0.010 A 
ATOM     39  C   UNL     1      -3.692  -7.204  10.087  1.00  0.00    -0.014 A 
BRANCH  39  40
ATOM     40  C   UNL     1      -3.733  -6.423  11.349  1.00  0.00     0.031 A 
ATOM     41  C   UNL     1      -5.039  -5.888  11.865  1.00  0.00     0.074 A 
ATOM     42  C   UNL     1      -2.586  -6.155  12.002  1.00  0.00     0.049 A 
ATOM     43  N   UNL     1      -5.272  -5.150  12.922  1.00  0.00    -0.248 NA
ATOM     44  C   UNL     1      -6.242  -6.200  11.077  1.00  0.00     0.031 C 
ATOM     45  C   UNL     1      -1.251  -6.579  11.573  1.00  0.00     0.029 A 
ATOM     46  N   UNL     1      -2.356  -5.457  13.160  1.00  0.00    -0.354 N 
ATOM     47  C   UNL     1      -6.639  -4.904  12.917  1.00  0.00     0.074 A 
ATOM     48  C   UNL     1      -7.176  -5.520  11.724  1.00  0.00     0.031 C 
ATOM     49  C   UNL     1      -0.346  -6.154  12.469  1.00  0.00     0.029 A 
ATOM     50  C   UNL     1      -1.029  -5.395  13.512  1.00  0.00     0.049 A 
ATOM     51  H   UNL     1      -3.074  -5.040  13.689  1.00  0.00     0.167 HD
ATOM     52  C   UNL     1      -7.381  -4.244  13.838  1.00  0.00     0.037 A 
ATOM     53  C   UNL     1      -0.431  -4.787  14.554  1.00  0.00     0.037 A 
ATOM     54  C   UNL     1      -6.843  -3.651  15.035  1.00  0.00     0.049 A 
ATOM     55  C   UNL     1      -1.280  -4.052  15.557  1.00  0.00     0.074 A 
ATOM     56  C   UNL     1      -7.519  -3.013  16.060  1.00  0.00     0.029 A 
ATOM     57  N   UNL     1      -5.496  -3.619  15.364  1.00  0.00    -0.354 N 
ATOM     58  N   UNL     1      -2.580  -3.890  15.582  1.00  0.00    -0.248 NA
ATOM     59  C   UNL     1      -0.576  -3.422  16.683  1.00  0.00     0.031 C 
ATOM     60  C   UNL     1      -6.576  -2.546  16.981  1.00  0.00     0.029 A 
ATOM     61  C   UNL     1      -5.318  -2.947  16.563  1.00  0.00     0.049 A 
ATOM     62  H   UNL     1      -4.773  -4.014  14.825  1.00  0.00     0.167 HD
ATOM     63  C   UNL     1      -2.853  -3.169  16.737  1.00  0.00     0.074 A 
ATOM     64  C   UNL     1      -1.584  -2.940  17.395  1.00  0.00     0.031 C 
ATOM     65  C   UNL     1      -4.048  -2.734  17.209  1.00  0.00     0.037 A 
BRANCH  52  66
ATOM     66  C   UNL     1      -8.858  -4.129  13.591  1.00  0.00     0.064 A 
ATOM     67  C   UNL     1      -9.707  -5.245  13.655  1.00  0.00     0.173 A 
ATOM     68  C   UNL     1      -9.441  -2.879  13.329  1.00  0.00     0.173 A 
ATOM     69  F   UNL     1      -9.201  -6.465  13.892  1.00  0.00    -0.203 F 
ATOM     70  C   UNL     1     -11.077  -5.119  13.439  1.00  0.00     0.198 A 
ATOM     71  C   UNL     1     -10.815  -2.752  13.146  1.00  0.00     0.198 A 
ATOM     72  F   UNL     1      -8.678  -1.778  13.261  1.00  0.00    -0.203 F 
ATOM     73  F   UNL     1     -11.859  -6.207  13.457  1.00  0.00    -0.200 F 
ATOM     74  C   UNL     1     -11.631  -3.872  13.193  1.00  0.00     0.200 A 
ATOM     75  F   UNL     1     -11.351  -1.544  12.923  1.00  0.00    -0.200 F 
ATOM     76  F   UNL     1     -12.951  -3.751  12.996  1.00  0.00    -0.200 F 
ENDBRANCH  52  66
BRANCH  53  77
ATOM     77  C   UNL     1       1.045  -4.863  14.714  1.00  0.00     0.064 A 
ATOM     78  C   UNL     1       1.620  -5.579  15.774  1.00  0.00     0.173 A 
ATOM     79  C   UNL     1       1.910  -4.214  13.821  1.00  0.00     0.173 A 
ATOM     80  F   UNL     1       0.835  -6.201  16.666  1.00  0.00    -0.203 F 
ATOM     81  C   UNL     1       3.002  -5.619  15.950  1.00  0.00     0.198 A 
ATOM     82  C   UNL     1       3.292  -4.282  13.980  1.00  0.00     0.198 A 
ATOM     83  F   UNL     1       1.412  -3.521  12.786  1.00  0.00    -0.203 F 
ATOM     84  F   UNL     1       3.522  -6.265  17.002  1.00  0.00    -0.200 F 
ATOM     85  C   UNL     1       3.837  -4.975  15.050  1.00  0.00     0.200 A 
ATOM     86  F   UNL     1       4.096  -3.672  13.097  1.00  0.00    -0.200 F 
ATOM     87  F   UNL     1       5.166  -5.015  15.218  1.00  0.00    -0.200 F 
ENDBRANCH  53  77
BRANCH  65  88
ATOM     88  C   UNL     1      -4.044  -2.002  18.521  1.00  0.00     0.064 A 
ATOM     89  C   UNL     1      -3.511  -0.710  18.645  1.00  0.00     0.173 A 
ATOM     90  C   UNL     1      -4.615  -2.588  19.661  1.00  0.00     0.173 A 
ATOM     91  F   UNL     1      -2.941  -0.111  17.589  1.00  0.00    -0.203 F 
ATOM     92  C   UNL     1      -3.522  -0.046  19.869  1.00  0.00     0.198 A 
ATOM     93  C   UNL     1      -4.655  -1.907  20.874  1.00  0.00     0.198 A 
ATOM     94  F   UNL     1      -5.146  -3.819  19.596  1.00  0.00    -0.203 F 
ATOM     95  F   UNL     1      -2.957   1.165  19.976  1.00  0.00    -0.200 F 
ATOM     96  C   UNL     1      -4.101  -0.641  20.980  1.00  0.00     0.200 A 
ATOM     97  F   UNL     1      -5.230  -2.478  21.942  1.00  0.00    -0.200 F 
ATOM     98  F   UNL     1      -4.117   0.003  22.154  1.00  0.00    -0.200 F 
ENDBRANCH  65  88
ENDBRANCH  39  40
ENDBRANCH  31  34
ENDBRANCH  29  30
ENDBRANCH  28  29
ENDBRANCH  27  28
ENDBRANCH  26  27
ENDBRANCH   1  26
TORSDOF 19
