REMARK SMILES O=C(NCCCCCCNC(=O)[C@H](CO)NC(=O)[C@H](Cc1ccc(O)cc1)NC(=O)c1ccc(F)cc1)c1ccc(-c2c3nc(c(-c4c(F)c(F)c(F)c(F)c4F)c4ccc([nH]4)c(-c4c(F)c(F)c(F)c(F)c4F)c4nc(c(-c5c(F)c(F)c(F)c(F)c5F)c5ccc2[nH]5)C=C4)C=C3)cc1
REMARK SMILES IDX 8 1 7 2 6 3 5 4 4 5 3 6 1 7 2 8 38 10 39 11 100 12 40 13
REMARK SMILES IDX 99 14 41 15 42 16 43 17 93 18 44 19 98 20 92 21 94 22 45 23
REMARK SMILES IDX 97 24 91 25 90 26 46 28 78 29 58 30 77 31 59 32 62 33 76 34
REMARK SMILES IDX 95 35 60 36 61 37 75 39 96 40 63 41 47 42 48 43 56 44 49 45
REMARK SMILES IDX 50 46 54 47 57 48 51 49 52 50 55 51 53 52 79 53 80 54 88 55
REMARK SMILES IDX 81 56 82 57 86 58 89 59 83 60 84 61 87 62 85 63 64 64 65 65
REMARK SMILES IDX 73 66 66 67 67 68 71 69 74 70 68 71 69 72 72 73 70 74 9 75
REMARK SMILES IDX 10 76 11 77 12 79 13 80 16 81 17 82 18 84 19 85 28 86 29 87
REMARK SMILES IDX 30 89 31 90 32 91 37 92 33 93 36 94 34 95 35 96 20 97 21 98
REMARK SMILES IDX 22 99 27 100 23 101 26 102 24 103 25 104 14 106 15 107
REMARK H PARENT 3 9 94 27 62 38 10 78 16 83 28 88 25 105 15 108
REMARK Flexibility Score: inf
ROOT
ATOM      1  C   UNL     1       8.355  -5.964 -12.043  1.00  0.00     0.021 C 
ENDROOT
BRANCH   1   2
ATOM      2  C   UNL     1       8.250  -4.940 -13.180  1.00  0.00     0.002 C 
BRANCH   2   3
ATOM      3  C   UNL     1       8.782  -5.417 -14.535  1.00  0.00     0.002 C 
BRANCH   3   4
ATOM      4  C   UNL     1       8.230  -6.760 -15.010  1.00  0.00     0.021 C 
BRANCH   4   5
ATOM      5  C   UNL     1       6.712  -6.836 -15.052  1.00  0.00     0.116 C 
BRANCH   5   6
ATOM      6  N   UNL     1       6.137  -5.916 -16.018  1.00  0.00    -0.352 N 
ATOM      7  O   UNL     1       4.977  -5.327 -17.867  1.00  0.00    -0.269 OA
ATOM      8  C   UNL     1       5.245  -6.181 -17.027  1.00  0.00     0.251 C 
ATOM      9  H   UNL     1       6.425  -4.978 -15.938  1.00  0.00     0.163 HD
BRANCH   8  10
ATOM     10  C   UNL     1       4.629  -7.521 -17.108  1.00  0.00     0.039 A 
ATOM     11  C   UNL     1       4.114  -8.129 -15.960  1.00  0.00     0.014 A 
ATOM     12  C   UNL     1       4.591  -8.182 -18.337  1.00  0.00     0.014 A 
ATOM     13  C   UNL     1       3.696  -9.451 -16.014  1.00  0.00     0.010 A 
ATOM     14  C   UNL     1       4.080  -9.480 -18.407  1.00  0.00     0.010 A 
ATOM     15  C   UNL     1       3.656 -10.135 -17.240  1.00  0.00    -0.014 A 
BRANCH  15  16
ATOM     16  C   UNL     1       3.103 -11.511 -17.278  1.00  0.00     0.031 A 
ATOM     17  C   UNL     1       3.959 -12.688 -17.643  1.00  0.00     0.074 A 
ATOM     18  C   UNL     1       1.814 -11.690 -16.930  1.00  0.00     0.049 A 
ATOM     19  N   UNL     1       3.636 -13.957 -17.688  1.00  0.00    -0.248 NA
ATOM     20  C   UNL     1       5.355 -12.412 -18.011  1.00  0.00     0.031 C 
ATOM     21  C   UNL     1       0.890 -10.615 -16.562  1.00  0.00     0.029 A 
ATOM     22  N   UNL     1       1.067 -12.831 -16.798  1.00  0.00    -0.354 N 
ATOM     23  C   UNL     1       4.780 -14.627 -18.100  1.00  0.00     0.074 A 
ATOM     24  C   UNL     1       5.799 -13.623 -18.322  1.00  0.00     0.031 C 
ATOM     25  C   UNL     1      -0.277 -11.151 -16.181  1.00  0.00     0.029 A 
ATOM     26  C   UNL     1      -0.208 -12.599 -16.345  1.00  0.00     0.049 A 
ATOM     27  H   UNL     1       1.411 -13.730 -17.007  1.00  0.00     0.167 HD
ATOM     28  C   UNL     1       4.961 -15.959 -18.265  1.00  0.00     0.037 A 
ATOM     29  C   UNL     1      -1.216 -13.454 -16.095  1.00  0.00     0.037 A 
ATOM     30  C   UNL     1       3.942 -16.951 -18.032  1.00  0.00     0.049 A 
ATOM     31  C   UNL     1      -0.997 -14.921 -16.314  1.00  0.00     0.074 A 
ATOM     32  C   UNL     1       4.032 -18.327 -18.160  1.00  0.00     0.029 A 
ATOM     33  N   UNL     1       2.645 -16.673 -17.623  1.00  0.00    -0.354 N 
ATOM     34  N   UNL     1       0.090 -15.542 -16.699  1.00  0.00    -0.248 NA
ATOM     35  C   UNL     1      -2.145 -15.804 -16.074  1.00  0.00     0.031 C 
ATOM     36  C   UNL     1       2.778 -18.877 -17.872  1.00  0.00     0.029 A 
ATOM     37  C   UNL     1       1.920 -17.850 -17.512  1.00  0.00     0.049 A 
ATOM     38  H   UNL     1       2.291 -15.773 -17.439  1.00  0.00     0.167 HD
ATOM     39  C   UNL     1      -0.235 -16.889 -16.740  1.00  0.00     0.074 A 
ATOM     40  C   UNL     1      -1.618 -16.996 -16.319  1.00  0.00     0.031 C 
ATOM     41  C   UNL     1       0.542 -17.940 -17.098  1.00  0.00     0.037 A 
BRANCH  28  42
ATOM     42  C   UNL     1       6.310 -16.430 -18.729  1.00  0.00     0.064 A 
ATOM     43  C   UNL     1       6.471 -16.982 -20.009  1.00  0.00     0.173 A 
ATOM     44  C   UNL     1       7.431 -16.393 -17.886  1.00  0.00     0.173 A 
ATOM     45  F   UNL     1       5.430 -17.048 -20.853  1.00  0.00    -0.203 F 
ATOM     46  C   UNL     1       7.701 -17.486 -20.425  1.00  0.00     0.198 A 
ATOM     47  C   UNL     1       8.667 -16.873 -18.315  1.00  0.00     0.198 A 
ATOM     48  F   UNL     1       7.335 -15.867 -16.656  1.00  0.00    -0.203 F 
ATOM     49  F   UNL     1       7.823 -18.033 -21.642  1.00  0.00    -0.200 F 
ATOM     50  C   UNL     1       8.799 -17.427 -19.580  1.00  0.00     0.200 A 
ATOM     51  F   UNL     1       9.732 -16.793 -17.506  1.00  0.00    -0.200 F 
ATOM     52  F   UNL     1       9.985 -17.899 -19.986  1.00  0.00    -0.200 F 
ENDBRANCH  28  42
BRANCH  29  53
ATOM     53  C   UNL     1      -2.506 -12.921 -15.590  1.00  0.00     0.064 A 
ATOM     54  C   UNL     1      -3.334 -12.129 -16.400  1.00  0.00     0.173 A 
ATOM     55  C   UNL     1      -2.897 -13.131 -14.262  1.00  0.00     0.173 A 
ATOM     56  F   UNL     1      -2.996 -11.892 -17.676  1.00  0.00    -0.203 F 
ATOM     57  C   UNL     1      -4.488 -11.540 -15.890  1.00  0.00     0.198 A 
ATOM     58  C   UNL     1      -4.067 -12.563 -13.760  1.00  0.00     0.198 A 
ATOM     59  F   UNL     1      -2.145 -13.893 -13.454  1.00  0.00    -0.203 F 
ATOM     60  F   UNL     1      -5.233 -10.746 -16.671  1.00  0.00    -0.200 F 
ATOM     61  C   UNL     1      -4.854 -11.759 -14.571  1.00  0.00     0.200 A 
ATOM     62  F   UNL     1      -4.427 -12.791 -12.490  1.00  0.00    -0.200 F 
ATOM     63  F   UNL     1      -5.963 -11.191 -14.080  1.00  0.00    -0.200 F 
ENDBRANCH  29  53
BRANCH  41  64
ATOM     64  C   UNL     1      -0.077 -19.305 -17.040  1.00  0.00     0.064 A 
ATOM     65  C   UNL     1       0.323 -20.225 -16.059  1.00  0.00     0.173 A 
ATOM     66  C   UNL     1      -1.022 -19.721 -17.989  1.00  0.00     0.173 A 
ATOM     67  F   UNL     1       1.228 -19.876 -15.133  1.00  0.00    -0.203 F 
ATOM     68  C   UNL     1      -0.192 -21.518 -16.040  1.00  0.00     0.198 A 
ATOM     69  C   UNL     1      -1.555 -21.007 -17.949  1.00  0.00     0.198 A 
ATOM     70  F   UNL     1      -1.447 -18.872 -18.936  1.00  0.00    -0.203 F 
ATOM     71  F   UNL     1       0.227 -22.390 -15.113  1.00  0.00    -0.200 F 
ATOM     72  C   UNL     1      -1.133 -21.906 -16.981  1.00  0.00     0.200 A 
ATOM     73  F   UNL     1      -2.483 -21.373 -18.844  1.00  0.00    -0.200 F 
ATOM     74  F   UNL     1      -1.637 -23.148 -16.953  1.00  0.00    -0.200 F 
ENDBRANCH  41  64
ENDBRANCH  15  16
ENDBRANCH   8  10
ENDBRANCH   5   6
ENDBRANCH   4   5
ENDBRANCH   3   4
ENDBRANCH   2   3
ENDBRANCH   1   2
BRANCH   1  75
ATOM     75  C   UNL     1       9.757  -6.527 -11.843  1.00  0.00     0.116 C 
BRANCH  75  76
ATOM     76  N   UNL     1      10.667  -5.488 -11.412  1.00  0.00    -0.354 N 
ATOM     77  C   UNL     1      11.446  -5.405 -10.302  1.00  0.00     0.244 C 
ATOM     78  H   UNL     1      10.733  -4.718 -12.021  1.00  0.00     0.163 HD
ATOM     79  O   UNL     1      12.049  -4.348 -10.107  1.00  0.00    -0.273 OA
BRANCH  77  80
ATOM     80  C   UNL     1      11.553  -6.572  -9.310  1.00  0.00     0.197 C 
BRANCH  80  81
ATOM     81  N   UNL     1      10.294  -6.743  -8.569  1.00  0.00    -0.340 N 
ATOM     82  C   UNL     1       9.911  -6.456  -7.297  1.00  0.00     0.243 C 
ATOM     83  H   UNL     1       9.579  -7.153  -9.107  1.00  0.00     0.164 HD
ATOM     84  O   UNL     1       8.718  -6.679  -7.058  1.00  0.00    -0.273 OA
BRANCH  82  85
ATOM     85  C   UNL     1      10.914  -6.138  -6.159  1.00  0.00     0.176 C 
BRANCH  85  86
ATOM     86  N   UNL     1      12.025  -5.267  -6.537  1.00  0.00    -0.340 N 
ATOM     87  C   UNL     1      13.385  -5.394  -6.475  1.00  0.00     0.251 C 
ATOM     88  H   UNL     1      11.733  -4.407  -6.916  1.00  0.00     0.164 HD
ATOM     89  O   UNL     1      14.062  -4.385  -6.668  1.00  0.00    -0.269 OA
BRANCH  87  90
ATOM     90  C   UNL     1      14.094  -6.683  -6.240  1.00  0.00     0.040 A 
ATOM     91  C   UNL     1      13.605  -7.936  -6.632  1.00  0.00     0.017 A 
ATOM     92  C   UNL     1      15.399  -6.602  -5.726  1.00  0.00     0.017 A 
ATOM     93  C   UNL     1      14.390  -9.084  -6.492  1.00  0.00     0.040 A 
ATOM     94  C   UNL     1      16.186  -7.748  -5.589  1.00  0.00     0.040 A 
ATOM     95  C   UNL     1      15.673  -8.979  -5.973  1.00  0.00     0.123 A 
ATOM     96  F   UNL     1      16.430 -10.077  -5.862  1.00  0.00    -0.207 F 
ENDBRANCH  87  90
ENDBRANCH  85  86
BRANCH  85  97
ATOM     97  C   UNL     1      10.191  -5.620  -4.888  1.00  0.00     0.070 C 
BRANCH  97  98
ATOM     98  C   UNL     1       9.897  -4.135  -4.803  1.00  0.00    -0.045 A 
ATOM     99  C   UNL     1       9.364  -3.404  -5.875  1.00  0.00     0.007 A 
ATOM    100  C   UNL     1      10.135  -3.468  -3.589  1.00  0.00     0.007 A 
ATOM    101  C   UNL     1       9.148  -2.026  -5.759  1.00  0.00     0.046 A 
ATOM    102  C   UNL     1       9.904  -2.098  -3.469  1.00  0.00     0.046 A 
ATOM    103  C   UNL     1       9.430  -1.384  -4.559  1.00  0.00     0.115 A 
BRANCH 103 104
ATOM    104  O   UNL     1       9.250  -0.041  -4.410  1.00  0.00    -0.508 OA
ATOM    105  H   UNL     1       8.931   0.471  -5.126  1.00  0.00     0.293 HD
ENDBRANCH 103 104
ENDBRANCH  97  98
ENDBRANCH  85  97
ENDBRANCH  82  85
ENDBRANCH  80  81
BRANCH  80 106
ATOM    106  C   UNL     1      12.041  -7.869  -9.985  1.00  0.00     0.191 C 
BRANCH 106 107
ATOM    107  O   UNL     1      11.076  -8.921  -9.908  1.00  0.00    -0.394 OA
ATOM    108  H   UNL     1      10.905  -9.136  -8.978  1.00  0.00     0.210 HD
ENDBRANCH 106 107
ENDBRANCH  80 106
ENDBRANCH  77  80
ENDBRANCH  75  76
ENDBRANCH   1  75
TORSDOF 22
