REMARK SMILES CC[N@@H+]1CCC[C@H]1CN(C)C(=O)N1CCC[C@@H]1CC(=O)NCCCCCCNC(=O)c1ccc(-c2c3nc(c(-c4c(F)c(F)c(F)c(F)c4F)c4ccc([nH]4)c(-c4c(F)c(F)c(F)c(F)c4F)c4nc(c(-c5c(F)c(F)c(F)c(F)c5F)c5ccc2[nH]5)C=C4)C=C3)cc1
REMARK SMILES IDX 22 1 21 2 19 3 20 4 18 6 17 7 13 8 14 9 15 10 16 11 11 12
REMARK SMILES IDX 12 13 9 14 10 15 8 16 7 17 3 18 4 19 5 21 6 22 2 23 1 24
REMARK SMILES IDX 23 25 24 26 25 27 26 28 27 29 28 30 29 31 30 33 31 34 32 35
REMARK SMILES IDX 93 36 33 37 92 38 34 39 35 40 36 41 86 42 37 43 91 44 85 45
REMARK SMILES IDX 87 46 38 47 90 48 84 49 83 50 39 52 71 53 51 54 70 55 52 56
REMARK SMILES IDX 55 57 69 58 88 59 53 60 54 61 68 63 89 64 56 65 40 66 41 67
REMARK SMILES IDX 49 68 42 69 43 70 47 71 50 72 44 73 45 74 48 75 46 76 72 77
REMARK SMILES IDX 73 78 81 79 74 80 75 81 79 82 82 83 76 84 77 85 80 86 78 87
REMARK SMILES IDX 57 88 58 89 66 90 59 91 60 92 64 93 67 94 61 95 62 96 65 97
REMARK SMILES IDX 63 98
REMARK H PARENT 21 5 3 20 28 32 87 51 55 62
REMARK Flexibility Score: inf
ROOT
ATOM      1  C   UNL     1      -4.867   2.473   2.681  1.00  0.00     0.116 C 
ENDROOT
BRANCH   1   2
ATOM      2  N   UNL     1      -3.817   2.682   1.703  1.00  0.00    -0.356 N 
ATOM      3  C   UNL     1      -2.678   1.966   1.478  1.00  0.00     0.222 C 
ATOM      4  O   UNL     1      -1.854   2.416   0.682  1.00  0.00    -0.275 OA
ATOM      5  H   UNL     1      -3.946   3.458   1.111  1.00  0.00     0.163 HD
BRANCH   3   6
ATOM      6  C   UNL     1      -2.462   0.641   2.172  1.00  0.00     0.125 C 
BRANCH   6   7
ATOM      7  C   UNL     1      -1.441   0.706   3.312  1.00  0.00     0.096 C 
ATOM      8  N   UNL     1      -1.259  -0.651   3.847  1.00  0.00    -0.321 N 
ATOM      9  C   UNL     1      -1.669  -0.734   5.238  1.00  0.00     0.122 C 
ATOM     10  C   UNL     1      -2.568   0.475   5.424  1.00  0.00     0.024 C 
ATOM     11  C   UNL     1      -1.883   1.508   4.539  1.00  0.00     0.027 C 
BRANCH   8  12
ATOM     12  C   UNL     1      -0.267  -1.456   3.335  1.00  0.00     0.320 C 
ATOM     13  O   UNL     1       0.826  -0.982   3.037  1.00  0.00    -0.248 OA
BRANCH  12  14
ATOM     14  N   UNL     1      -0.620  -2.778   3.115  1.00  0.00    -0.322 N 
ATOM     15  C   UNL     1      -1.925  -3.351   3.400  1.00  0.00     0.149 C 
BRANCH  14  16
ATOM     16  C   UNL     1       0.320  -3.629   2.378  1.00  0.00     0.185 C 
BRANCH  16  17
ATOM     17  C   UNL     1       0.160  -3.478   0.835  1.00  0.00     0.204 C 
ATOM     18  N   UNL     1       1.043  -2.411   0.315  1.00  0.00    -0.331 N 
ATOM     19  C   UNL     1       2.137  -3.066  -0.407  1.00  0.00     0.262 C 
ATOM     20  H   UNL     1       1.413  -1.864   1.092  1.00  0.00     0.348 HD
ATOM     21  C   UNL     1       1.504  -4.305  -1.002  1.00  0.00     0.068 C 
ATOM     22  C   UNL     1       0.561  -4.761   0.094  1.00  0.00     0.073 C 
BRANCH  18  23
ATOM     23  C   UNL     1       0.339  -1.412  -0.494  1.00  0.00     0.259 C 
ATOM     24  C   UNL     1       1.064  -0.071  -0.438  1.00  0.00     0.071 C 
ENDBRANCH  18  23
ENDBRANCH  16  17
ENDBRANCH  14  16
ENDBRANCH  12  14
ENDBRANCH   8  12
ENDBRANCH   6   7
ENDBRANCH   3   6
ENDBRANCH   1   2
BRANCH   1  25
ATOM     25  C   UNL     1      -4.862   3.592   3.723  1.00  0.00     0.021 C 
BRANCH  25  26
ATOM     26  C   UNL     1      -5.753   4.784   3.374  1.00  0.00     0.002 C 
BRANCH  26  27
ATOM     27  C   UNL     1      -7.258   4.500   3.376  1.00  0.00     0.002 C 
BRANCH  27  28
ATOM     28  C   UNL     1      -7.806   3.813   4.630  1.00  0.00     0.021 C 
BRANCH  28  29
ATOM     29  C   UNL     1      -7.449   4.479   5.958  1.00  0.00     0.116 C 
BRANCH  29  30
ATOM     30  N   UNL     1      -7.961   5.835   6.056  1.00  0.00    -0.352 N 
ATOM     31  C   UNL     1      -8.819   6.386   6.972  1.00  0.00     0.251 C 
ATOM     32  H   UNL     1      -7.644   6.452   5.358  1.00  0.00     0.163 HD
ATOM     33  O   UNL     1      -9.265   7.518   6.793  1.00  0.00    -0.269 OA
BRANCH  31  34
ATOM     34  C   UNL     1      -9.232   5.622   8.168  1.00  0.00     0.039 A 
ATOM     35  C   UNL     1     -10.585   5.613   8.521  1.00  0.00     0.014 A 
ATOM     36  C   UNL     1      -8.298   4.945   8.958  1.00  0.00     0.014 A 
ATOM     37  C   UNL     1     -11.010   4.880   9.631  1.00  0.00     0.010 A 
ATOM     38  C   UNL     1      -8.730   4.168  10.032  1.00  0.00     0.010 A 
ATOM     39  C   UNL     1     -10.089   4.128  10.379  1.00  0.00    -0.014 A 
BRANCH  39  40
ATOM     40  C   UNL     1     -10.536   3.293  11.523  1.00  0.00     0.031 A 
ATOM     41  C   UNL     1     -10.118   3.638  12.924  1.00  0.00     0.074 A 
ATOM     42  C   UNL     1     -11.270   2.187  11.291  1.00  0.00     0.049 A 
ATOM     43  N   UNL     1     -10.353   2.994  14.040  1.00  0.00    -0.248 NA
ATOM     44  C   UNL     1      -9.307   4.854  13.093  1.00  0.00     0.031 C 
ATOM     45  C   UNL     1     -11.698   1.718   9.972  1.00  0.00     0.029 A 
ATOM     46  N   UNL     1     -11.773   1.248  12.156  1.00  0.00    -0.354 N 
ATOM     47  C   UNL     1      -9.706   3.713  15.036  1.00  0.00     0.074 A 
ATOM     48  C   UNL     1      -9.038   4.822  14.390  1.00  0.00     0.031 C 
ATOM     49  C   UNL     1     -12.406   0.587  10.116  1.00  0.00     0.029 A 
ATOM     50  C   UNL     1     -12.460   0.235  11.532  1.00  0.00     0.049 A 
ATOM     51  H   UNL     1     -11.654   1.296  13.132  1.00  0.00     0.167 HD
ATOM     52  C   UNL     1      -9.687   3.478  16.370  1.00  0.00     0.037 A 
ATOM     53  C   UNL     1     -13.058  -0.857  12.043  1.00  0.00     0.037 A 
ATOM     54  C   UNL     1     -10.386   2.398  17.016  1.00  0.00     0.049 A 
ATOM     55  C   UNL     1     -13.043  -1.077  13.531  1.00  0.00     0.074 A 
ATOM     56  C   UNL     1     -10.489   2.125  18.369  1.00  0.00     0.029 A 
ATOM     57  N   UNL     1     -11.102   1.413  16.353  1.00  0.00    -0.354 N 
ATOM     58  N   UNL     1     -12.488  -0.349  14.469  1.00  0.00    -0.248 NA
ATOM     59  C   UNL     1     -13.746  -2.267  14.033  1.00  0.00     0.031 C 
ATOM     60  C   UNL     1     -11.239   0.954  18.523  1.00  0.00     0.029 A 
ATOM     61  C   UNL     1     -11.634   0.520  17.269  1.00  0.00     0.049 A 
ATOM     62  H   UNL     1     -11.215   1.357  15.377  1.00  0.00     0.167 HD
ATOM     63  C   UNL     1     -12.793  -0.977  15.669  1.00  0.00     0.074 A 
ATOM     64  C   UNL     1     -13.596  -2.137  15.343  1.00  0.00     0.031 C 
ATOM     65  C   UNL     1     -12.437  -0.625  16.928  1.00  0.00     0.037 A 
BRANCH  52  66
ATOM     66  C   UNL     1      -8.891   4.413  17.231  1.00  0.00     0.064 A 
ATOM     67  C   UNL     1      -9.331   5.718  17.499  1.00  0.00     0.173 A 
ATOM     68  C   UNL     1      -7.707   3.979  17.844  1.00  0.00     0.173 A 
ATOM     69  F   UNL     1     -10.453   6.182  16.928  1.00  0.00    -0.203 F 
ATOM     70  C   UNL     1      -8.604   6.561  18.335  1.00  0.00     0.198 A 
ATOM     71  C   UNL     1      -6.995   4.817  18.699  1.00  0.00     0.198 A 
ATOM     72  F   UNL     1      -7.246   2.739  17.625  1.00  0.00    -0.203 F 
ATOM     73  F   UNL     1      -9.024   7.815  18.549  1.00  0.00    -0.200 F 
ATOM     74  C   UNL     1      -7.441   6.107  18.940  1.00  0.00     0.200 A 
ATOM     75  F   UNL     1      -5.877   4.373  19.292  1.00  0.00    -0.200 F 
ATOM     76  F   UNL     1      -6.748   6.916  19.754  1.00  0.00    -0.200 F 
ENDBRANCH  52  66
BRANCH  53  77
ATOM     77  C   UNL     1     -13.738  -1.821  11.142  1.00  0.00     0.064 A 
ATOM     78  C   UNL     1     -15.136  -1.929  11.127  1.00  0.00     0.173 A 
ATOM     79  C   UNL     1     -13.008  -2.660  10.289  1.00  0.00     0.173 A 
ATOM     80  F   UNL     1     -15.875  -1.162  11.941  1.00  0.00    -0.203 F 
ATOM     81  C   UNL     1     -15.776  -2.856  10.307  1.00  0.00     0.198 A 
ATOM     82  C   UNL     1     -13.651  -3.569   9.451  1.00  0.00     0.198 A 
ATOM     83  F   UNL     1     -11.669  -2.591  10.263  1.00  0.00    -0.203 F 
ATOM     84  F   UNL     1     -17.111  -2.971  10.346  1.00  0.00    -0.200 F 
ATOM     85  C   UNL     1     -15.034  -3.672   9.467  1.00  0.00     0.200 A 
ATOM     86  F   UNL     1     -12.931  -4.347   8.632  1.00  0.00    -0.200 F 
ATOM     87  F   UNL     1     -15.650  -4.563   8.679  1.00  0.00    -0.200 F 
ENDBRANCH  53  77
BRANCH  65  88
ATOM     88  C   UNL     1     -12.935  -1.489  18.048  1.00  0.00     0.064 A 
ATOM     89  C   UNL     1     -12.391  -2.758  18.292  1.00  0.00     0.173 A 
ATOM     90  C   UNL     1     -13.943  -1.027  18.908  1.00  0.00     0.173 A 
ATOM     91  F   UNL     1     -11.437  -3.249  17.486  1.00  0.00    -0.203 F 
ATOM     92  C   UNL     1     -12.854  -3.543  19.344  1.00  0.00     0.198 A 
ATOM     93  C   UNL     1     -14.385  -1.804  19.974  1.00  0.00     0.198 A 
ATOM     94  F   UNL     1     -14.491   0.183  18.719  1.00  0.00    -0.203 F 
ATOM     95  F   UNL     1     -12.350  -4.770  19.533  1.00  0.00    -0.200 F 
ATOM     96  C   UNL     1     -13.845  -3.063  20.187  1.00  0.00     0.200 A 
ATOM     97  F   UNL     1     -15.336  -1.336  20.794  1.00  0.00    -0.200 F 
ATOM     98  F   UNL     1     -14.286  -3.819  21.202  1.00  0.00    -0.200 F 
ENDBRANCH  65  88
ENDBRANCH  39  40
ENDBRANCH  31  34
ENDBRANCH  29  30
ENDBRANCH  28  29
ENDBRANCH  27  28
ENDBRANCH  26  27
ENDBRANCH  25  26
ENDBRANCH   1  25
TORSDOF 19
