REMARK SMILES CC[C@@](O)(C(=O)NCCCCCCNC(=O)c1ccc(-c2c3nc(c(-c4c(F)c(F)c(F)c(F)c4F)c4ccc([nH]4)c(-c4c(F)c(F)c(F)c(F)c4F)c4nc(c(-c5c(F)c(F)c(F)c(F)c5F)c5ccc2[nH]5)C=C4)C=C3)cc1)[C@H]1CCc2ccc(OC)cc21
REMARK SMILES IDX 10 1 9 2 8 3 7 4 5 5 6 6 3 8 2 9 1 10 4 11 80 13 81 14 90 15
REMARK SMILES IDX 82 16 83 17 89 18 84 19 86 20 85 21 87 22 88 23 11 24 12 25
REMARK SMILES IDX 13 26 14 27 15 28 16 30 17 31 18 32 79 33 19 34 78 35 20 36
REMARK SMILES IDX 21 37 22 38 72 39 23 40 77 41 71 42 73 43 24 44 76 45 70 46
REMARK SMILES IDX 69 47 25 49 57 50 37 51 56 52 38 53 41 54 55 55 74 56 39 57
REMARK SMILES IDX 40 58 54 60 75 61 42 62 26 63 27 64 35 65 28 66 29 67 33 68
REMARK SMILES IDX 36 69 30 70 31 71 34 72 32 73 58 74 59 75 67 76 60 77 61 78
REMARK SMILES IDX 65 79 68 80 62 81 63 82 66 83 64 84 43 85 44 86 52 87 45 88
REMARK SMILES IDX 46 89 50 90 53 91 47 92 48 93 51 94 49 95
REMARK H PARENT 7 7 4 12 14 29 73 48 41 59
REMARK Flexibility Score: inf
ROOT
ATOM      1  C   UNL     1       1.578  -5.883  -5.949  1.00  0.00     0.002 C 
ENDROOT
BRANCH   1   2
ATOM      2  C   UNL     1       2.745  -5.349  -5.106  1.00  0.00     0.021 C 
BRANCH   2   3
ATOM      3  C   UNL     1       3.273  -3.990  -5.559  1.00  0.00     0.116 C 
BRANCH   3   4
ATOM      4  N   UNL     1       2.383  -2.909  -5.192  1.00  0.00    -0.354 N 
ATOM      5  C   UNL     1       2.331  -1.996  -4.194  1.00  0.00     0.252 C 
ATOM      6  O   UNL     1       1.401  -1.183  -4.316  1.00  0.00    -0.272 OA
ATOM      7  H   UNL     1       1.632  -2.815  -5.822  1.00  0.00     0.163 HD
BRANCH   5   8
ATOM      8  C   UNL     1       3.328  -1.863  -2.986  1.00  0.00     0.149 C 
BRANCH   8   9
ATOM      9  C   UNL     1       4.596  -2.732  -3.037  1.00  0.00     0.043 C 
ATOM     10  C   UNL     1       5.591  -2.591  -1.891  1.00  0.00     0.007 C 
ENDBRANCH   8   9
BRANCH   8  11
ATOM     11  O   UNL     1       3.785  -0.488  -3.072  1.00  0.00    -0.379 OA
ATOM     12  H   UNL     1       4.338  -0.381  -3.861  1.00  0.00     0.212 HD
ENDBRANCH   8  11
BRANCH   8  13
ATOM     13  C   UNL     1       2.441  -2.003  -1.704  1.00  0.00     0.061 C 
ATOM     14  C   UNL     1       2.024  -3.469  -1.411  1.00  0.00     0.017 C 
ATOM     15  C   UNL     1       2.990  -1.589  -0.357  1.00  0.00    -0.035 A 
ATOM     16  C   UNL     1       1.697  -3.547   0.083  1.00  0.00     0.036 C 
ATOM     17  C   UNL     1       2.615  -2.504   0.634  1.00  0.00    -0.044 A 
ATOM     18  C   UNL     1       3.688  -0.435  -0.017  1.00  0.00     0.050 A 
ATOM     19  C   UNL     1       3.018  -2.344   1.949  1.00  0.00     0.008 A 
ATOM     20  C   UNL     1       4.083  -0.249   1.311  1.00  0.00     0.119 A 
ATOM     21  C   UNL     1       3.781  -1.222   2.276  1.00  0.00     0.047 A 
BRANCH  20  22
ATOM     22  O   UNL     1       4.785   0.832   1.776  1.00  0.00    -0.497 OA
ATOM     23  C   UNL     1       4.584   2.044   1.055  1.00  0.00     0.278 C 
ENDBRANCH  20  22
ENDBRANCH   8  13
ENDBRANCH   5   8
ENDBRANCH   3   4
ENDBRANCH   2   3
ENDBRANCH   1   2
BRANCH   1  24
ATOM     24  C   UNL     1       1.831  -5.958  -7.460  1.00  0.00     0.002 C 
BRANCH  24  25
ATOM     25  C   UNL     1       3.127  -6.659  -7.876  1.00  0.00     0.021 C 
BRANCH  25  26
ATOM     26  C   UNL     1       3.220  -8.121  -7.453  1.00  0.00     0.116 C 
BRANCH  26  27
ATOM     27  N   UNL     1       2.242  -8.946  -8.141  1.00  0.00    -0.352 N 
ATOM     28  C   UNL     1       2.436 -10.059  -8.919  1.00  0.00     0.251 C 
ATOM     29  H   UNL     1       1.304  -8.665  -8.034  1.00  0.00     0.163 HD
ATOM     30  O   UNL     1       1.519 -10.501  -9.604  1.00  0.00    -0.269 OA
BRANCH  28  31
ATOM     31  C   UNL     1       3.757 -10.724  -8.944  1.00  0.00     0.039 A 
ATOM     32  C   UNL     1       4.276 -11.150 -10.169  1.00  0.00     0.014 A 
ATOM     33  C   UNL     1       4.469 -10.952  -7.762  1.00  0.00     0.014 A 
ATOM     34  C   UNL     1       5.531 -11.761 -10.215  1.00  0.00     0.010 A 
ATOM     35  C   UNL     1       5.749 -11.495  -7.817  1.00  0.00     0.010 A 
ATOM     36  C   UNL     1       6.289 -11.914  -9.043  1.00  0.00    -0.014 A 
BRANCH  36  37
ATOM     37  C   UNL     1       7.644 -12.521  -9.079  1.00  0.00     0.031 A 
ATOM     38  C   UNL     1       7.908 -13.824  -8.377  1.00  0.00     0.074 A 
ATOM     39  C   UNL     1       8.649 -11.869  -9.694  1.00  0.00     0.049 A 
ATOM     40  N   UNL     1       9.033 -14.480  -8.243  1.00  0.00    -0.248 NA
ATOM     41  C   UNL     1       6.760 -14.462  -7.713  1.00  0.00     0.031 C 
ATOM     42  C   UNL     1       8.529 -10.575 -10.368  1.00  0.00     0.029 A 
ATOM     43  N   UNL     1       9.973 -12.199  -9.843  1.00  0.00    -0.354 N 
ATOM     44  C   UNL     1       8.731 -15.594  -7.471  1.00  0.00     0.074 A 
ATOM     45  C   UNL     1       7.331 -15.500  -7.120  1.00  0.00     0.031 C 
ATOM     46  C   UNL     1       9.723 -10.231 -10.875  1.00  0.00     0.029 A 
ATOM     47  C   UNL     1      10.700 -11.260 -10.532  1.00  0.00     0.049 A 
ATOM     48  H   UNL     1      10.364 -13.031  -9.490  1.00  0.00     0.167 HD
ATOM     49  C   UNL     1       9.543 -16.615  -7.107  1.00  0.00     0.037 A 
ATOM     50  C   UNL     1      12.010 -11.229 -10.845  1.00  0.00     0.037 A 
ATOM     51  C   UNL     1      10.930 -16.718  -7.481  1.00  0.00     0.049 A 
ATOM     52  C   UNL     1      12.890 -12.378 -10.432  1.00  0.00     0.074 A 
ATOM     53  C   UNL     1      11.821 -17.743  -7.217  1.00  0.00     0.029 A 
ATOM     54  N   UNL     1      11.627 -15.758  -8.200  1.00  0.00    -0.354 N 
ATOM     55  N   UNL     1      12.577 -13.460  -9.762  1.00  0.00    -0.248 NA
ATOM     56  C   UNL     1      14.303 -12.304 -10.827  1.00  0.00     0.031 C 
ATOM     57  C   UNL     1      13.070 -17.381  -7.733  1.00  0.00     0.029 A 
ATOM     58  C   UNL     1      12.944 -16.156  -8.368  1.00  0.00     0.049 A 
ATOM     59  H   UNL     1      11.243 -14.917  -8.540  1.00  0.00     0.167 HD
ATOM     60  C   UNL     1      13.743 -14.209  -9.680  1.00  0.00     0.074 A 
ATOM     61  C   UNL     1      14.767 -13.463 -10.383  1.00  0.00     0.031 C 
ATOM     62  C   UNL     1      13.949 -15.405  -9.076  1.00  0.00     0.037 A 
BRANCH  49  63
ATOM     63  C   UNL     1       8.954 -17.708  -6.261  1.00  0.00     0.064 A 
ATOM     64  C   UNL     1       8.009 -18.609  -6.776  1.00  0.00     0.173 A 
ATOM     65  C   UNL     1       9.369 -17.882  -4.933  1.00  0.00     0.173 A 
ATOM     66  F   UNL     1       7.570 -18.480  -8.037  1.00  0.00    -0.203 F 
ATOM     67  C   UNL     1       7.481 -19.625  -5.984  1.00  0.00     0.198 A 
ATOM     68  C   UNL     1       8.863 -18.919  -4.153  1.00  0.00     0.198 A 
ATOM     69  F   UNL     1      10.274 -17.053  -4.392  1.00  0.00    -0.203 F 
ATOM     70  F   UNL     1       6.544 -20.443  -6.483  1.00  0.00    -0.200 F 
ATOM     71  C   UNL     1       7.914 -19.785  -4.676  1.00  0.00     0.200 A 
ATOM     72  F   UNL     1       9.292 -19.080  -2.894  1.00  0.00    -0.200 F 
ATOM     73  F   UNL     1       7.412 -20.769  -3.918  1.00  0.00    -0.200 F 
ENDBRANCH  49  63
BRANCH  50  74
ATOM     74  C   UNL     1      12.563 -10.080 -11.609  1.00  0.00     0.064 A 
ATOM     75  C   UNL     1      12.997 -10.237 -12.933  1.00  0.00     0.173 A 
ATOM     76  C   UNL     1      12.670  -8.805 -11.035  1.00  0.00     0.173 A 
ATOM     77  F   UNL     1      12.932 -11.442 -13.519  1.00  0.00    -0.203 F 
ATOM     78  C   UNL     1      13.537  -9.169 -13.645  1.00  0.00     0.198 A 
ATOM     79  C   UNL     1      13.183  -7.731 -11.758  1.00  0.00     0.198 A 
ATOM     80  F   UNL     1      12.262  -8.600  -9.774  1.00  0.00    -0.203 F 
ATOM     81  F   UNL     1      13.987  -9.358 -14.893  1.00  0.00    -0.200 F 
ATOM     82  C   UNL     1      13.624  -7.915 -13.059  1.00  0.00     0.200 A 
ATOM     83  F   UNL     1      13.250  -6.517 -11.194  1.00  0.00    -0.200 F 
ATOM     84  F   UNL     1      14.139  -6.886 -13.747  1.00  0.00    -0.200 F 
ENDBRANCH  50  74
BRANCH  62  85
ATOM     85  C   UNL     1      15.323 -16.001  -9.179  1.00  0.00     0.064 A 
ATOM     86  C   UNL     1      16.414 -15.465  -8.479  1.00  0.00     0.173 A 
ATOM     87  C   UNL     1      15.541 -17.148  -9.958  1.00  0.00     0.173 A 
ATOM     88  F   UNL     1      16.260 -14.361  -7.733  1.00  0.00    -0.203 F 
ATOM     89  C   UNL     1      17.678 -16.038  -8.578  1.00  0.00     0.198 A 
ATOM     90  C   UNL     1      16.800 -17.737 -10.028  1.00  0.00     0.198 A 
ATOM     91  F   UNL     1      14.530 -17.705 -10.641  1.00  0.00    -0.203 F 
ATOM     92  F   UNL     1      18.717 -15.479  -7.941  1.00  0.00    -0.200 F 
ATOM     93  C   UNL     1      17.869 -17.178  -9.345  1.00  0.00     0.200 A 
ATOM     94  F   UNL     1      16.979 -18.847 -10.759  1.00  0.00    -0.200 F 
ATOM     95  F   UNL     1      19.086 -17.733  -9.433  1.00  0.00    -0.200 F 
ENDBRANCH  62  85
ENDBRANCH  36  37
ENDBRANCH  28  31
ENDBRANCH  26  27
ENDBRANCH  25  26
ENDBRANCH  24  25
ENDBRANCH   1  24
TORSDOF 17
