REMARK SMILES COc1cc(/C=N/[NH+]=C2\S[C@H](CC(=O)NCCCCCCNC(=O)c3ccc(-c4c5nc(c(-c6c(F)c(F)c(F)c(F)c6F)c6ccc([nH]6)c(-c6c(F)c(F)c(F)c(F)c6F)c6nc(c(-c7c(F)c(F)c(F)c(F)c7F)c7ccc4[nH]7)C=C6)C=C5)cc3)C(=O)N2C)cc(OC)c1OC
REMARK SMILES IDX 17 1 16 2 15 3 13 4 14 5 12 7 11 8 8 9 9 10 10 12 90 13
REMARK SMILES IDX 88 14 91 15 89 16 7 17 6 18 5 19 3 20 4 21 96 22 93 23 92 24
REMARK SMILES IDX 2 25 1 26 97 27 98 28 94 29 95 30 18 31 19 32 20 33 21 34
REMARK SMILES IDX 22 35 23 36 24 38 25 39 26 40 87 41 27 42 86 43 28 44 29 45
REMARK SMILES IDX 30 46 80 47 31 48 85 49 79 50 81 51 32 52 84 53 78 54 77 55
REMARK SMILES IDX 33 57 65 58 45 59 64 60 46 61 49 62 63 63 82 64 47 65 48 66
REMARK SMILES IDX 62 68 83 69 50 70 34 71 35 72 43 73 36 74 37 75 41 76 44 77
REMARK SMILES IDX 38 78 39 79 42 80 40 81 66 82 67 83 75 84 68 85 69 86 73 87
REMARK SMILES IDX 76 88 70 89 71 90 74 91 72 92 51 93 52 94 60 95 53 96 54 97
REMARK SMILES IDX 58 98 61 99 55 100 56 101 59 102 57 103
REMARK H PARENT 15 6 8 11 22 37 81 56 49 67
REMARK Flexibility Score: inf
ROOT
ATOM      1  C   UNL     1      -2.583   5.071   6.769  1.00  0.00     0.021 C 
ENDROOT
BRANCH   1   2
ATOM      2  C   UNL     1      -2.696   6.153   5.697  1.00  0.00     0.116 C 
BRANCH   2   3
ATOM      3  N   UNL     1      -2.265   5.698   4.389  1.00  0.00    -0.356 N 
ATOM      4  C   UNL     1      -2.843   5.815   3.164  1.00  0.00     0.221 C 
ATOM      5  O   UNL     1      -2.149   5.571   2.176  1.00  0.00    -0.275 OA
ATOM      6  H   UNL     1      -1.404   5.221   4.388  1.00  0.00     0.163 HD
BRANCH   4   7
ATOM      7  C   UNL     1      -4.301   6.200   3.007  1.00  0.00     0.127 C 
BRANCH   7   8
ATOM      8  C   UNL     1      -5.305   5.039   3.008  1.00  0.00     0.183 C 
ATOM      9  N   UNL     1      -3.534   2.316   4.910  1.00  0.00    -0.142 N 
ATOM     10  C   UNL     1      -4.443   3.071   4.368  1.00  0.00     0.339 C 
ATOM     11  H   UNL     1      -3.517   2.089   5.868  1.00  0.00     0.343 HD
ATOM     12  S   UNL     1      -4.633   3.396   2.653  1.00  0.00    -0.020 SA
ATOM     13  N   UNL     1      -5.364   3.816   5.066  1.00  0.00    -0.191 N 
ATOM     14  C   UNL     1      -5.916   4.882   4.383  1.00  0.00     0.324 C 
ATOM     15  C   UNL     1      -5.677   3.671   6.474  1.00  0.00     0.301 C 
ATOM     16  O   UNL     1      -6.714   5.684   4.857  1.00  0.00    -0.245 OA
BRANCH   9  17
ATOM     17  N   UNL     1      -2.573   1.856   3.987  1.00  0.00    -0.093 NA
ATOM     18  C   UNL     1      -1.378   1.796   4.489  1.00  0.00     0.166 C 
BRANCH  18  19
ATOM     19  C   UNL     1      -0.178   1.494   3.668  1.00  0.00     0.004 A 
ATOM     20  C   UNL     1       0.882   1.076   1.529  1.00  0.00     0.165 A 
ATOM     21  C   UNL     1      -0.273   1.326   2.289  1.00  0.00     0.060 A 
ATOM     22  C   UNL     1       2.158   1.026   2.127  1.00  0.00     0.203 A 
ATOM     23  C   UNL     1       2.247   1.208   3.522  1.00  0.00     0.165 A 
ATOM     24  C   UNL     1       1.079   1.438   4.278  1.00  0.00     0.060 A 
BRANCH  20  25
ATOM     25  O   UNL     1       0.752   0.994   0.165  1.00  0.00    -0.493 OA
ATOM     26  C   UNL     1       0.021  -0.169  -0.229  1.00  0.00     0.278 C 
ENDBRANCH  20  25
BRANCH  22  27
ATOM     27  O   UNL     1       3.331   0.891   1.432  1.00  0.00    -0.490 OA
ATOM     28  C   UNL     1       3.333   0.120   0.238  1.00  0.00     0.278 C 
ENDBRANCH  22  27
BRANCH  23  29
ATOM     29  O   UNL     1       3.375   1.206   4.309  1.00  0.00    -0.493 OA
ATOM     30  C   UNL     1       4.621   0.830   3.736  1.00  0.00     0.278 C 
ENDBRANCH  23  29
ENDBRANCH  18  19
ENDBRANCH   9  17
ENDBRANCH   7   8
ENDBRANCH   4   7
ENDBRANCH   2   3
ENDBRANCH   1   2
BRANCH   1  31
ATOM     31  C   UNL     1      -1.179   4.534   7.058  1.00  0.00     0.002 C 
BRANCH  31  32
ATOM     32  C   UNL     1      -0.484   5.166   8.262  1.00  0.00     0.002 C 
BRANCH  32  33
ATOM     33  C   UNL     1      -1.280   5.130   9.570  1.00  0.00     0.021 C 
BRANCH  33  34
ATOM     34  C   UNL     1      -1.898   3.777   9.912  1.00  0.00     0.116 C 
BRANCH  34  35
ATOM     35  N   UNL     1      -0.884   2.796  10.261  1.00  0.00    -0.352 N 
ATOM     36  C   UNL     1      -0.570   2.307  11.508  1.00  0.00     0.251 C 
ATOM     37  H   UNL     1      -0.355   2.436   9.512  1.00  0.00     0.163 HD
ATOM     38  O   UNL     1       0.466   1.693  11.709  1.00  0.00    -0.269 OA
BRANCH  36  39
ATOM     39  C   UNL     1      -1.518   2.553  12.613  1.00  0.00     0.039 A 
ATOM     40  C   UNL     1      -1.064   3.152  13.788  1.00  0.00     0.014 A 
ATOM     41  C   UNL     1      -2.868   2.226  12.451  1.00  0.00     0.014 A 
ATOM     42  C   UNL     1      -1.982   3.477  14.788  1.00  0.00     0.010 A 
ATOM     43  C   UNL     1      -3.789   2.623  13.412  1.00  0.00     0.010 A 
ATOM     44  C   UNL     1      -3.355   3.244  14.595  1.00  0.00    -0.014 A 
BRANCH  44  45
ATOM     45  C   UNL     1      -4.354   3.621  15.626  1.00  0.00     0.031 A 
ATOM     46  C   UNL     1      -5.177   2.554  16.293  1.00  0.00     0.074 A 
ATOM     47  C   UNL     1      -4.566   4.920  15.914  1.00  0.00     0.049 A 
ATOM     48  N   UNL     1      -6.148   2.678  17.162  1.00  0.00    -0.248 NA
ATOM     49  C   UNL     1      -4.891   1.163  15.909  1.00  0.00     0.031 C 
ATOM     50  C   UNL     1      -3.864   6.048  15.299  1.00  0.00     0.029 A 
ATOM     51  N   UNL     1      -5.441   5.513  16.790  1.00  0.00    -0.354 N 
ATOM     52  C   UNL     1      -6.595   1.387  17.415  1.00  0.00     0.074 A 
ATOM     53  C   UNL     1      -5.834   0.501  16.563  1.00  0.00     0.031 C 
ATOM     54  C   UNL     1      -4.319   7.193  15.832  1.00  0.00     0.029 A 
ATOM     55  C   UNL     1      -5.372   6.885  16.794  1.00  0.00     0.049 A 
ATOM     56  H   UNL     1      -6.059   5.002  17.361  1.00  0.00     0.167 HD
ATOM     57  C   UNL     1      -7.536   0.977  18.297  1.00  0.00     0.037 A 
ATOM     58  C   UNL     1      -6.087   7.791  17.490  1.00  0.00     0.037 A 
ATOM     59  C   UNL     1      -8.273   1.863  19.158  1.00  0.00     0.049 A 
ATOM     60  C   UNL     1      -7.138   7.309  18.455  1.00  0.00     0.074 A 
ATOM     61  C   UNL     1      -9.204   1.544  20.131  1.00  0.00     0.029 A 
ATOM     62  N   UNL     1      -8.165   3.246  19.146  1.00  0.00    -0.354 N 
ATOM     63  N   UNL     1      -7.500   6.081  18.740  1.00  0.00    -0.248 NA
ATOM     64  C   UNL     1      -7.875   8.338  19.201  1.00  0.00     0.031 C 
ATOM     65  C   UNL     1      -9.702   2.735  20.665  1.00  0.00     0.029 A 
ATOM     66  C   UNL     1      -9.034   3.796  20.074  1.00  0.00     0.049 A 
ATOM     67  H   UNL     1      -7.560   3.761  18.564  1.00  0.00     0.167 HD
ATOM     68  C   UNL     1      -8.480   6.188  19.718  1.00  0.00     0.074 A 
ATOM     69  C   UNL     1      -8.646   7.601  19.988  1.00  0.00     0.031 C 
ATOM     70  C   UNL     1      -9.179   5.205  20.338  1.00  0.00     0.037 A 
BRANCH  57  71
ATOM     71  C   UNL     1      -7.825  -0.495  18.373  1.00  0.00     0.064 A 
ATOM     72  C   UNL     1      -6.886  -1.408  18.879  1.00  0.00     0.173 A 
ATOM     73  C   UNL     1      -9.071  -0.998  17.967  1.00  0.00     0.173 A 
ATOM     74  F   UNL     1      -5.675  -0.983  19.270  1.00  0.00    -0.203 F 
ATOM     75  C   UNL     1      -7.171  -2.769  18.945  1.00  0.00     0.198 A 
ATOM     76  C   UNL     1      -9.366  -2.355  18.068  1.00  0.00     0.198 A 
ATOM     77  F   UNL     1     -10.008  -0.170  17.481  1.00  0.00    -0.203 F 
ATOM     78  F   UNL     1      -6.237  -3.627  19.380  1.00  0.00    -0.200 F 
ATOM     79  C   UNL     1      -8.413  -3.240  18.548  1.00  0.00     0.200 A 
ATOM     80  F   UNL     1     -10.572  -2.806  17.698  1.00  0.00    -0.200 F 
ATOM     81  F   UNL     1      -8.689  -4.550  18.621  1.00  0.00    -0.200 F 
ENDBRANCH  57  71
BRANCH  58  82
ATOM     82  C   UNL     1      -5.822   9.244  17.313  1.00  0.00     0.064 A 
ATOM     83  C   UNL     1      -5.266  10.008  18.349  1.00  0.00     0.173 A 
ATOM     84  C   UNL     1      -6.126   9.901  16.112  1.00  0.00     0.173 A 
ATOM     85  F   UNL     1      -4.975   9.431  19.524  1.00  0.00    -0.203 F 
ATOM     86  C   UNL     1      -5.049  11.376  18.199  1.00  0.00     0.198 A 
ATOM     87  C   UNL     1      -5.878  11.263  15.952  1.00  0.00     0.198 A 
ATOM     88  F   UNL     1      -6.654   9.216  15.086  1.00  0.00    -0.203 F 
ATOM     89  F   UNL     1      -4.564  12.091  19.224  1.00  0.00    -0.200 F 
ATOM     90  C   UNL     1      -5.349  12.001  16.999  1.00  0.00     0.200 A 
ATOM     91  F   UNL     1      -6.154  11.859  14.784  1.00  0.00    -0.200 F 
ATOM     92  F   UNL     1      -5.136  13.316  16.853  1.00  0.00    -0.200 F 
ENDBRANCH  58  82
BRANCH  70  93
ATOM     93  C   UNL     1     -10.157   5.616  21.402  1.00  0.00     0.064 A 
ATOM     94  C   UNL     1     -11.355   6.274  21.091  1.00  0.00     0.173 A 
ATOM     95  C   UNL     1      -9.912   5.298  22.747  1.00  0.00     0.173 A 
ATOM     96  F   UNL     1     -11.630   6.614  19.822  1.00  0.00    -0.203 F 
ATOM     97  C   UNL     1     -12.261   6.621  22.090  1.00  0.00     0.198 A 
ATOM     98  C   UNL     1     -10.836   5.614  23.738  1.00  0.00     0.198 A 
ATOM     99  F   UNL     1      -8.785   4.661  23.098  1.00  0.00    -0.203 F 
ATOM    100  F   UNL     1     -13.377   7.293  21.776  1.00  0.00    -0.200 F 
ATOM    101  C   UNL     1     -12.006   6.282  23.410  1.00  0.00     0.200 A 
ATOM    102  F   UNL     1     -10.595   5.270  25.011  1.00  0.00    -0.200 F 
ATOM    103  F   UNL     1     -12.885   6.605  24.369  1.00  0.00    -0.200 F 
ENDBRANCH  70  93
ENDBRANCH  44  45
ENDBRANCH  36  39
ENDBRANCH  34  35
ENDBRANCH  33  34
ENDBRANCH  32  33
ENDBRANCH  31  32
ENDBRANCH   1  31
TORSDOF 19
