REMARK SMILES Cc1ccccc1OC1(C(=O)NCCCCCCNC(=O)c2ccc(-c3c4nc(c(-c5c(F)c(F)c(F)c(F)c5F)c5ccc([nH]5)c(-c5c(F)c(F)c(F)c(F)c5F)c5nc(c(-c6c(F)c(F)c(F)c(F)c6F)c6ccc3[nH]6)C=C5)C=C4)cc2)CCN(C(=O)[C@H]2CCCCO2)CC1
REMARK SMILES IDX 15 1 14 2 13 3 12 4 10 5 11 6 9 8 85 9 97 10 86 11 96 12
REMARK SMILES IDX 87 13 88 14 89 15 8 16 7 17 1 18 2 19 3 20 4 21 6 22 5 23
REMARK SMILES IDX 90 24 91 25 95 26 92 27 94 28 93 29 16 30 17 31 18 32 19 33
REMARK SMILES IDX 20 34 21 36 22 37 23 38 84 39 24 40 83 41 25 42 26 43 27 44
REMARK SMILES IDX 77 45 28 46 82 47 76 48 78 49 29 50 81 51 75 52 74 53 30 55
REMARK SMILES IDX 62 56 42 57 61 58 43 59 46 60 60 61 79 62 44 63 45 64 59 66
REMARK SMILES IDX 80 67 47 68 31 69 32 70 40 71 33 72 34 73 38 74 41 75 35 76
REMARK SMILES IDX 36 77 39 78 37 79 63 80 64 81 72 82 65 83 66 84 70 85 73 86
REMARK SMILES IDX 67 87 68 88 71 89 69 90 48 91 49 92 57 93 50 94 51 95 55 96
REMARK SMILES IDX 58 97 52 98 53 99 56 100 54 101
REMARK H PARENT 12 7 19 35 78 54 46 65
REMARK Flexibility Score: inf
ROOT
ATOM      1  C   UNL     1       9.880  -4.178  -4.373  1.00  0.00     0.002 C 
ENDROOT
BRANCH   1   2
ATOM      2  C   UNL     1       9.028  -4.278  -3.100  1.00  0.00     0.021 C 
BRANCH   2   3
ATOM      3  C   UNL     1       7.514  -4.318  -3.324  1.00  0.00     0.116 C 
BRANCH   3   4
ATOM      4  N   UNL     1       7.008  -5.654  -3.537  1.00  0.00    -0.353 N 
ATOM      5  C   UNL     1       6.092  -6.413  -2.863  1.00  0.00     0.264 C 
ATOM      6  O   UNL     1       5.793  -7.469  -3.438  1.00  0.00    -0.270 OA
ATOM      7  H   UNL     1       7.400  -6.106  -4.319  1.00  0.00     0.163 HD
BRANCH   5   8
ATOM      8  C   UNL     1       5.461  -5.998  -1.470  1.00  0.00     0.190 C 
ATOM      9  C   UNL     1       6.590  -5.955  -0.443  1.00  0.00     0.080 C 
ATOM     10  C   UNL     1       4.592  -4.756  -1.688  1.00  0.00     0.080 C 
ATOM     11  C   UNL     1       6.996  -4.577   0.053  1.00  0.00     0.124 C 
ATOM     12  C   UNL     1       4.951  -3.484  -0.924  1.00  0.00     0.124 C 
ATOM     13  N   UNL     1       5.919  -3.596   0.159  1.00  0.00    -0.340 N 
ATOM     14  C   UNL     1       6.039  -2.643   1.184  1.00  0.00     0.251 C 
ATOM     15  O   UNL     1       7.007  -2.671   1.951  1.00  0.00    -0.272 OA
BRANCH   8  16
ATOM     16  O   UNL     1       4.624  -7.162  -1.216  1.00  0.00    -0.477 OA
BRANCH  16  17
ATOM     17  C   UNL     1       3.679  -7.463  -0.286  1.00  0.00     0.123 A 
ATOM     18  C   UNL     1       4.068  -5.825   1.689  1.00  0.00     0.048 C 
ATOM     19  C   UNL     1       3.373  -6.931   0.974  1.00  0.00    -0.009 A 
ATOM     20  C   UNL     1       2.342  -7.521   1.749  1.00  0.00     0.007 A 
ATOM     21  C   UNL     1       1.615  -8.615   1.300  1.00  0.00     0.001 A 
ATOM     22  C   UNL     1       2.925  -8.575  -0.715  1.00  0.00     0.047 A 
ATOM     23  C   UNL     1       1.909  -9.146   0.058  1.00  0.00     0.004 A 
ENDBRANCH  16  17
ENDBRANCH   8  16
BRANCH  14  24
ATOM     24  C   UNL     1       4.924  -1.574   1.355  1.00  0.00     0.207 C 
ATOM     25  C   UNL     1       3.740  -2.193   2.113  1.00  0.00     0.042 C 
ATOM     26  O   UNL     1       5.473  -0.467   2.081  1.00  0.00    -0.368 OA
ATOM     27  C   UNL     1       2.727  -1.151   2.571  1.00  0.00     0.006 C 
ATOM     28  C   UNL     1       4.527   0.549   2.391  1.00  0.00     0.161 C 
ATOM     29  C   UNL     1       3.428  -0.004   3.281  1.00  0.00     0.029 C 
ENDBRANCH  14  24
ENDBRANCH   5   8
ENDBRANCH   3   4
ENDBRANCH   2   3
ENDBRANCH   1   2
BRANCH   1  30
ATOM     30  C   UNL     1       9.538  -3.038  -5.350  1.00  0.00     0.002 C 
BRANCH  30  31
ATOM     31  C   UNL     1       9.297  -1.657  -4.733  1.00  0.00     0.021 C 
BRANCH  31  32
ATOM     32  C   UNL     1      10.542  -1.001  -4.151  1.00  0.00     0.116 C 
BRANCH  32  33
ATOM     33  N   UNL     1      11.192  -0.051  -5.045  1.00  0.00    -0.352 N 
ATOM     34  C   UNL     1      12.393   0.626  -4.883  1.00  0.00     0.251 C 
ATOM     35  H   UNL     1      10.711   0.137  -5.883  1.00  0.00     0.163 HD
ATOM     36  O   UNL     1      12.775   1.422  -5.716  1.00  0.00    -0.269 OA
BRANCH  34  37
ATOM     37  C   UNL     1      13.264   0.266  -3.736  1.00  0.00     0.039 A 
ATOM     38  C   UNL     1      14.606  -0.034  -3.999  1.00  0.00     0.014 A 
ATOM     39  C   UNL     1      12.726   0.032  -2.474  1.00  0.00     0.014 A 
ATOM     40  C   UNL     1      15.328  -0.791  -3.079  1.00  0.00     0.010 A 
ATOM     41  C   UNL     1      13.402  -0.800  -1.606  1.00  0.00     0.010 A 
ATOM     42  C   UNL     1      14.676  -1.269  -1.942  1.00  0.00    -0.014 A 
BRANCH  42  43
ATOM     43  C   UNL     1      15.210  -2.329  -1.094  1.00  0.00     0.031 A 
ATOM     44  C   UNL     1      15.803  -2.007   0.219  1.00  0.00     0.074 A 
ATOM     45  C   UNL     1      15.071  -3.614  -1.486  1.00  0.00     0.049 A 
ATOM     46  N   UNL     1      16.575  -2.796   0.886  1.00  0.00    -0.248 NA
ATOM     47  C   UNL     1      15.589  -0.723   0.874  1.00  0.00     0.031 C 
ATOM     48  C   UNL     1      15.301  -4.819  -0.694  1.00  0.00     0.029 A 
ATOM     49  N   UNL     1      14.899  -4.090  -2.798  1.00  0.00    -0.354 N 
ATOM     50  C   UNL     1      16.784  -2.242   2.128  1.00  0.00     0.074 A 
ATOM     51  C   UNL     1      16.168  -0.936   2.060  1.00  0.00     0.031 C 
ATOM     52  C   UNL     1      15.585  -5.832  -1.529  1.00  0.00     0.029 A 
ATOM     53  C   UNL     1      15.678  -5.272  -2.865  1.00  0.00     0.049 A 
ATOM     54  H   UNL     1      14.356  -3.689  -3.514  1.00  0.00     0.167 HD
ATOM     55  C   UNL     1      17.380  -2.991   3.101  1.00  0.00     0.037 A 
ATOM     56  C   UNL     1      16.780  -5.327  -3.670  1.00  0.00     0.037 A 
ATOM     57  C   UNL     1      17.835  -4.276   2.576  1.00  0.00     0.049 A 
ATOM     58  C   UNL     1      18.086  -5.540  -2.935  1.00  0.00     0.074 A 
ATOM     59  C   UNL     1      17.299  -5.553   2.538  1.00  0.00     0.029 A 
ATOM     60  N   UNL     1      18.897  -4.280   1.690  1.00  0.00    -0.354 N 
ATOM     61  N   UNL     1      18.207  -5.549  -1.636  1.00  0.00    -0.248 NA
ATOM     62  C   UNL     1      19.377  -5.664  -3.616  1.00  0.00     0.031 C 
ATOM     63  C   UNL     1      18.022  -6.307   1.569  1.00  0.00     0.029 A 
ATOM     64  C   UNL     1      19.002  -5.490   1.034  1.00  0.00     0.049 A 
ATOM     65  H   UNL     1      19.502  -3.517   1.545  1.00  0.00     0.167 HD
ATOM     66  C   UNL     1      19.531  -5.644  -1.309  1.00  0.00     0.074 A 
ATOM     67  C   UNL     1      20.229  -5.710  -2.578  1.00  0.00     0.031 C 
ATOM     68  C   UNL     1      19.982  -5.632  -0.025  1.00  0.00     0.037 A 
BRANCH  55  69
ATOM     69  C   UNL     1      17.380  -2.648   4.572  1.00  0.00     0.064 A 
ATOM     70  C   UNL     1      17.409  -3.670   5.546  1.00  0.00     0.173 A 
ATOM     71  C   UNL     1      17.309  -1.343   5.092  1.00  0.00     0.173 A 
ATOM     72  F   UNL     1      17.572  -4.956   5.205  1.00  0.00    -0.203 F 
ATOM     73  C   UNL     1      17.267  -3.411   6.912  1.00  0.00     0.198 A 
ATOM     74  C   UNL     1      17.104  -1.086   6.452  1.00  0.00     0.198 A 
ATOM     75  F   UNL     1      17.503  -0.271   4.314  1.00  0.00    -0.203 F 
ATOM     76  F   UNL     1      17.307  -4.424   7.789  1.00  0.00    -0.200 F 
ATOM     77  C   UNL     1      17.073  -2.122   7.362  1.00  0.00     0.200 A 
ATOM     78  F   UNL     1      16.944   0.177   6.872  1.00  0.00    -0.200 F 
ATOM     79  F   UNL     1      16.890  -1.876   8.666  1.00  0.00    -0.200 F 
ENDBRANCH  55  69
BRANCH  56  80
ATOM     80  C   UNL     1      16.619  -4.525  -4.913  1.00  0.00     0.064 A 
ATOM     81  C   UNL     1      15.551  -4.841  -5.777  1.00  0.00     0.173 A 
ATOM     82  C   UNL     1      17.226  -3.274  -5.067  1.00  0.00     0.173 A 
ATOM     83  F   UNL     1      14.937  -6.031  -5.678  1.00  0.00    -0.203 F 
ATOM     84  C   UNL     1      15.023  -3.895  -6.652  1.00  0.00     0.198 A 
ATOM     85  C   UNL     1      16.712  -2.339  -5.966  1.00  0.00     0.198 A 
ATOM     86  F   UNL     1      18.239  -2.907  -4.269  1.00  0.00    -0.203 F 
ATOM     87  F   UNL     1      13.922  -4.181  -7.361  1.00  0.00    -0.200 F 
ATOM     88  C   UNL     1      15.588  -2.634  -6.724  1.00  0.00     0.200 A 
ATOM     89  F   UNL     1      17.248  -1.111  -6.024  1.00  0.00    -0.200 F 
ATOM     90  F   UNL     1      15.026  -1.690  -7.492  1.00  0.00    -0.200 F 
ENDBRANCH  56  80
BRANCH  68  91
ATOM     91  C   UNL     1      21.428  -5.774   0.312  1.00  0.00     0.064 A 
ATOM     92  C   UNL     1      22.187  -6.853  -0.163  1.00  0.00     0.173 A 
ATOM     93  C   UNL     1      22.058  -4.898   1.214  1.00  0.00     0.173 A 
ATOM     94  F   UNL     1      21.647  -7.749  -1.003  1.00  0.00    -0.203 F 
ATOM     95  C   UNL     1      23.514  -7.032   0.226  1.00  0.00     0.198 A 
ATOM     96  C   UNL     1      23.369  -5.103   1.635  1.00  0.00     0.198 A 
ATOM     97  F   UNL     1      21.419  -3.817   1.689  1.00  0.00    -0.203 F 
ATOM     98  F   UNL     1      24.224  -8.051  -0.279  1.00  0.00    -0.200 F 
ATOM     99  C   UNL     1      24.099  -6.166   1.134  1.00  0.00     0.200 A 
ATOM    100  F   UNL     1      23.922  -4.266   2.523  1.00  0.00    -0.200 F 
ATOM    101  F   UNL     1      25.368  -6.351   1.523  1.00  0.00    -0.200 F 
ENDBRANCH  68  91
ENDBRANCH  42  43
ENDBRANCH  34  37
ENDBRANCH  32  33
ENDBRANCH  31  32
ENDBRANCH  30  31
ENDBRANCH   1  30
TORSDOF 16
