REMARK SMILES Cc1ccc(S(=O)(=O)N2CCN(C(=O)[C@H]3CCCC[C@H]3C(=O)NCCCCCCNC(=O)c3ccc(-c4c5nc(c(-c6c(F)c(F)c(F)c(F)c6F)c6ccc([nH]6)c(-c6c(F)c(F)c(F)c(F)c6F)c6nc(c(-c7c(F)c(F)c(F)c(F)c7F)c7ccc4[nH]7)C=C6)C=C5)cc3)CC2)cc1C
REMARK SMILES IDX 26 1 25 2 24 3 23 4 21 5 22 6 20 8 15 9 16 10 17 11 19 12
REMARK SMILES IDX 18 13 13 14 9 15 10 16 97 17 11 18 96 19 12 20 14 21 6 22
REMARK SMILES IDX 7 23 8 24 5 25 1 26 2 27 3 28 99 29 4 30 98 31 100 32 27 33
REMARK SMILES IDX 28 34 29 35 30 36 31 37 32 39 33 40 34 41 95 42 35 43 94 44
REMARK SMILES IDX 36 45 37 46 38 47 88 48 39 49 93 50 87 51 89 52 40 53 92 54
REMARK SMILES IDX 86 55 85 56 41 58 73 59 53 60 72 61 54 62 57 63 71 64 90 65
REMARK SMILES IDX 55 66 56 67 70 69 91 70 58 71 42 72 43 73 51 74 44 75 45 76
REMARK SMILES IDX 49 77 52 78 46 79 47 80 50 81 48 82 74 83 75 84 83 85 76 86
REMARK SMILES IDX 77 87 81 88 84 89 78 90 79 91 82 92 80 93 59 94 60 95 68 96
REMARK SMILES IDX 61 97 62 98 66 99 69 100 63 101 64 102 67 103 65 104
REMARK H PARENT 23 7 30 38 89 57 57 68
REMARK Flexibility Score: inf
ROOT
ATOM      1  C   UNL     1      -4.084   9.004   3.540  1.00  0.00     0.002 C 
ENDROOT
BRANCH   1   2
ATOM      2  C   UNL     1      -4.929   7.873   2.959  1.00  0.00     0.021 C 
BRANCH   2   3
ATOM      3  C   UNL     1      -4.855   7.683   1.444  1.00  0.00     0.116 C 
BRANCH   3   4
ATOM      4  N   UNL     1      -3.784   6.786   1.062  1.00  0.00    -0.356 N 
ATOM      5  C   UNL     1      -3.785   5.604   0.387  1.00  0.00     0.223 C 
ATOM      6  O   UNL     1      -2.717   4.981   0.357  1.00  0.00    -0.275 OA
ATOM      7  H   UNL     1      -2.889   7.087   1.342  1.00  0.00     0.163 HD
BRANCH   5   8
ATOM      8  C   UNL     1      -5.002   5.040  -0.364  1.00  0.00     0.091 C 
ATOM      9  C   UNL     1      -5.974   4.131   0.443  1.00  0.00     0.091 C 
ATOM     10  C   UNL     1      -7.172   3.684  -0.409  1.00  0.00     0.014 C 
ATOM     11  C   UNL     1      -7.821   4.823  -1.183  1.00  0.00     0.001 C 
ATOM     12  C   UNL     1      -5.650   6.059  -1.317  1.00  0.00     0.014 C 
ATOM     13  C   UNL     1      -6.807   5.470  -2.113  1.00  0.00     0.001 C 
BRANCH   9  14
ATOM     14  C   UNL     1      -6.291   4.616   1.857  1.00  0.00     0.226 C 
ATOM     15  N   UNL     1      -9.624   5.056   4.313  1.00  0.00    -0.194 NA
ATOM     16  C   UNL     1      -9.305   6.213   3.473  1.00  0.00     0.124 C 
ATOM     17  C   UNL     1      -9.538   3.762   3.614  1.00  0.00     0.124 C 
ATOM     18  C   UNL     1      -7.909   6.049   2.883  1.00  0.00     0.136 C 
ATOM     19  C   UNL     1      -8.172   3.573   2.934  1.00  0.00     0.136 C 
ATOM     20  N   UNL     1      -7.627   4.758   2.243  1.00  0.00    -0.340 N 
ATOM     21  O   UNL     1      -5.397   4.806   2.682  1.00  0.00    -0.275 OA
BRANCH  15  22
ATOM     22  S   UNL     1      -9.946   5.202   5.948  1.00  0.00     0.243 S 
ATOM     23  O   UNL     1     -10.600   3.985   6.385  1.00  0.00    -0.207 OA
ATOM     24  O   UNL     1     -10.555   6.500   6.144  1.00  0.00    -0.207 OA
BRANCH  22  25
ATOM     25  C   UNL     1      -8.388   5.265   6.809  1.00  0.00     0.082 A 
ATOM     26  C   UNL     1      -4.687   5.419   9.035  1.00  0.00     0.044 C 
ATOM     27  C   UNL     1      -5.994   5.396   8.290  1.00  0.00    -0.048 A 
ATOM     28  C   UNL     1      -5.997   4.971   6.953  1.00  0.00     0.005 A 
ATOM     29  C   UNL     1      -7.212   5.765   8.893  1.00  0.00    -0.047 A 
ATOM     30  C   UNL     1      -7.184   4.902   6.222  1.00  0.00     0.022 A 
ATOM     31  C   UNL     1      -8.399   5.705   8.139  1.00  0.00     0.025 A 
ATOM     32  C   UNL     1      -7.310   6.226  10.323  1.00  0.00     0.044 C 
ENDBRANCH  22  25
ENDBRANCH  15  22
ENDBRANCH   9  14
ENDBRANCH   5   8
ENDBRANCH   3   4
ENDBRANCH   2   3
ENDBRANCH   1   2
BRANCH   1  33
ATOM     33  C   UNL     1      -4.568  10.423   3.224  1.00  0.00     0.002 C 
BRANCH  33  34
ATOM     34  C   UNL     1      -6.059  10.705   3.443  1.00  0.00     0.021 C 
BRANCH  34  35
ATOM     35  C   UNL     1      -6.639  10.286   4.793  1.00  0.00     0.116 C 
BRANCH  35  36
ATOM     36  N   UNL     1      -6.033  10.986   5.909  1.00  0.00    -0.352 N 
ATOM     37  C   UNL     1      -6.599  11.830   6.831  1.00  0.00     0.251 C 
ATOM     38  H   UNL     1      -5.068  10.832   6.023  1.00  0.00     0.163 HD
ATOM     39  O   UNL     1      -5.886  12.442   7.621  1.00  0.00    -0.269 OA
BRANCH  37  40
ATOM     40  C   UNL     1      -8.064  12.035   6.864  1.00  0.00     0.039 A 
ATOM     41  C   UNL     1      -8.550  13.343   6.959  1.00  0.00     0.014 A 
ATOM     42  C   UNL     1      -8.955  10.958   6.843  1.00  0.00     0.014 A 
ATOM     43  C   UNL     1      -9.927  13.575   6.979  1.00  0.00     0.010 A 
ATOM     44  C   UNL     1     -10.330  11.194   6.801  1.00  0.00     0.010 A 
ATOM     45  C   UNL     1     -10.829  12.504   6.874  1.00  0.00    -0.014 A 
BRANCH  45  46
ATOM     46  C   UNL     1     -12.295  12.744   6.851  1.00  0.00     0.031 A 
ATOM     47  C   UNL     1     -13.159  12.271   7.986  1.00  0.00     0.074 A 
ATOM     48  C   UNL     1     -12.857  13.347   5.787  1.00  0.00     0.049 A 
ATOM     49  N   UNL     1     -14.460  12.345   8.125  1.00  0.00    -0.248 NA
ATOM     50  C   UNL     1     -12.472  11.610   9.105  1.00  0.00     0.031 C 
ATOM     51  C   UNL     1     -12.134  13.818   4.605  1.00  0.00     0.029 A 
ATOM     52  N   UNL     1     -14.168  13.656   5.521  1.00  0.00    -0.354 N 
ATOM     53  C   UNL     1     -14.745  11.731   9.337  1.00  0.00     0.074 A 
ATOM     54  C   UNL     1     -13.490  11.248   9.872  1.00  0.00     0.031 C 
ATOM     55  C   UNL     1     -13.008  14.363   3.744  1.00  0.00     0.029 A 
ATOM     56  C   UNL     1     -14.355  14.254   4.299  1.00  0.00     0.049 A 
ATOM     57  H   UNL     1     -14.904  13.466   6.146  1.00  0.00     0.167 HD
ATOM     58  C   UNL     1     -15.943  11.599   9.957  1.00  0.00     0.037 A 
ATOM     59  C   UNL     1     -15.485  14.661   3.690  1.00  0.00     0.037 A 
ATOM     60  C   UNL     1     -17.190  12.090   9.431  1.00  0.00     0.049 A 
ATOM     61  C   UNL     1     -16.803  14.501   4.396  1.00  0.00     0.074 A 
ATOM     62  C   UNL     1     -18.447  12.050  10.009  1.00  0.00     0.029 A 
ATOM     63  N   UNL     1     -17.336  12.707   8.198  1.00  0.00    -0.354 N 
ATOM     64  N   UNL     1     -17.054  13.976   5.570  1.00  0.00    -0.248 NA
ATOM     65  C   UNL     1     -17.995  14.998   3.695  1.00  0.00     0.031 C 
ATOM     66  C   UNL     1     -19.361  12.607   9.107  1.00  0.00     0.029 A 
ATOM     67  C   UNL     1     -18.666  13.035   7.987  1.00  0.00     0.049 A 
ATOM     68  H   UNL     1     -16.604  12.886   7.565  1.00  0.00     0.167 HD
ATOM     69  C   UNL     1     -18.423  14.097   5.759  1.00  0.00     0.074 A 
ATOM     70  C   UNL     1     -18.950  14.759   4.583  1.00  0.00     0.031 C 
ATOM     71  C   UNL     1     -19.176  13.694   6.812  1.00  0.00     0.037 A 
BRANCH  58  72
ATOM     72  C   UNL     1     -15.957  10.891  11.281  1.00  0.00     0.064 A 
ATOM     73  C   UNL     1     -15.399  11.473  12.430  1.00  0.00     0.173 A 
ATOM     74  C   UNL     1     -16.550   9.626  11.409  1.00  0.00     0.173 A 
ATOM     75  F   UNL     1     -14.811  12.677  12.360  1.00  0.00    -0.203 F 
ATOM     76  C   UNL     1     -15.404  10.800  13.649  1.00  0.00     0.198 A 
ATOM     77  C   UNL     1     -16.579   8.969  12.636  1.00  0.00     0.198 A 
ATOM     78  F   UNL     1     -17.106   9.028  10.344  1.00  0.00    -0.203 F 
ATOM     79  F   UNL     1     -14.819  11.354  14.720  1.00  0.00    -0.200 F 
ATOM     80  C   UNL     1     -15.998   9.552  13.753  1.00  0.00     0.200 A 
ATOM     81  F   UNL     1     -17.166   7.768  12.739  1.00  0.00    -0.200 F 
ATOM     82  F   UNL     1     -16.004   8.906  14.927  1.00  0.00    -0.200 F 
ENDBRANCH  58  72
BRANCH  59  83
ATOM     83  C   UNL     1     -15.410  15.280   2.342  1.00  0.00     0.064 A 
ATOM     84  C   UNL     1     -15.632  16.652   2.167  1.00  0.00     0.173 A 
ATOM     85  C   UNL     1     -15.097  14.517   1.208  1.00  0.00     0.173 A 
ATOM     86  F   UNL     1     -15.954  17.418   3.219  1.00  0.00    -0.203 F 
ATOM     87  C   UNL     1     -15.555  17.237   0.905  1.00  0.00     0.198 A 
ATOM     88  C   UNL     1     -14.995  15.108  -0.050  1.00  0.00     0.198 A 
ATOM     89  F   UNL     1     -14.870  13.200   1.325  1.00  0.00    -0.203 F 
ATOM     90  F   UNL     1     -15.805  18.546   0.759  1.00  0.00    -0.200 F 
ATOM     91  C   UNL     1     -15.229  16.466  -0.201  1.00  0.00     0.200 A 
ATOM     92  F   UNL     1     -14.667  14.362  -1.113  1.00  0.00    -0.200 F 
ATOM     93  F   UNL     1     -15.146  17.031  -1.413  1.00  0.00    -0.200 F 
ENDBRANCH  59  83
BRANCH  71  94
ATOM     94  C   UNL     1     -20.648  13.980   6.753  1.00  0.00     0.064 A 
ATOM     95  C   UNL     1     -21.503  13.259   5.906  1.00  0.00     0.173 A 
ATOM     96  C   UNL     1     -21.216  14.959   7.583  1.00  0.00     0.173 A 
ATOM     97  F   UNL     1     -21.005  12.325   5.081  1.00  0.00    -0.203 F 
ATOM     98  C   UNL     1     -22.869  13.523   5.876  1.00  0.00     0.198 A 
ATOM     99  C   UNL     1     -22.587  15.201   7.569  1.00  0.00     0.198 A 
ATOM    100  F   UNL     1     -20.442  15.672   8.414  1.00  0.00    -0.203 F 
ATOM    101  F   UNL     1     -23.661  12.853   5.028  1.00  0.00    -0.200 F 
ATOM    102  C   UNL     1     -23.411  14.488   6.712  1.00  0.00     0.200 A 
ATOM    103  F   UNL     1     -23.110  16.127   8.386  1.00  0.00    -0.200 F 
ATOM    104  F   UNL     1     -24.728  14.737   6.686  1.00  0.00    -0.200 F 
ENDBRANCH  71  94
ENDBRANCH  45  46
ENDBRANCH  37  40
ENDBRANCH  35  36
ENDBRANCH  34  35
ENDBRANCH  33  34
ENDBRANCH   1  33
TORSDOF 16
