REMARK SMILES C[C@@](CC(=O)Nc1ccc(NC(=O)c2ccco2)cc1)(C(=O)NCCCCCCNC(=O)c1ccc(-c2c3nc(c(-c4c(F)c(F)c(F)c(F)c4F)c4ccc([nH]4)c(-c4c(F)c(F)c(F)c(F)c4F)c4nc(c(-c5c(F)c(F)c(F)c(F)c5F)c5ccc2[nH]5)C=C4)C=C3)cc1)c1ccccc1
REMARK SMILES IDX 25 1 24 2 23 3 21 4 22 5 2 7 1 8 3 9 4 10 5 11 6 12 7 14
REMARK SMILES IDX 8 15 20 16 9 17 19 18 10 19 11 20 12 21 13 23 14 24 15 25
REMARK SMILES IDX 18 26 16 27 17 28 96 29 97 30 101 31 98 32 100 33 99 34
REMARK SMILES IDX 26 35 27 36 28 37 29 38 30 39 31 40 32 42 33 43 34 44 95 45
REMARK SMILES IDX 35 46 94 47 36 48 37 49 38 50 88 51 39 52 93 53 87 54 89 55
REMARK SMILES IDX 40 56 92 57 86 58 85 59 41 61 73 62 53 63 72 64 54 65 57 66
REMARK SMILES IDX 71 67 90 68 55 69 56 70 70 72 91 73 58 74 42 75 43 76 51 77
REMARK SMILES IDX 44 78 45 79 49 80 52 81 46 82 47 83 50 84 48 85 74 86 75 87
REMARK SMILES IDX 83 88 76 89 77 90 81 91 84 92 78 93 79 94 82 95 80 96 59 97
REMARK SMILES IDX 60 98 68 99 61 100 62 101 66 102 69 103 63 104 64 105 67 106
REMARK SMILES IDX 65 107
REMARK H PARENT 23 6 6 13 11 22 30 41 89 60 57 71
REMARK Flexibility Score: inf
ROOT
ATOM      1  C   UNL     1      -2.416   0.055   2.133  1.00  0.00     0.021 C 
ENDROOT
BRANCH   1   2
ATOM      2  C   UNL     1      -1.649  -1.202   1.733  1.00  0.00     0.116 C 
BRANCH   2   3
ATOM      3  N   UNL     1      -2.036  -1.796   0.468  1.00  0.00    -0.355 N 
ATOM      4  C   UNL     1      -1.324  -2.090  -0.668  1.00  0.00     0.230 C 
ATOM      5  O   UNL     1      -1.908  -2.823  -1.472  1.00  0.00    -0.274 OA
ATOM      6  H   UNL     1      -2.990  -2.033   0.414  1.00  0.00     0.163 HD
BRANCH   4   7
ATOM      7  C   UNL     1       0.096  -1.487  -0.959  1.00  0.00     0.080 C 
ATOM      8  C   UNL     1      -0.077   0.042  -0.780  1.00  0.00     0.027 C 
BRANCH   7   9
ATOM      9  C   UNL     1       1.211  -2.212  -0.132  1.00  0.00     0.121 C 
BRANCH   9  10
ATOM     10  C   UNL     1       1.265  -2.205   1.374  1.00  0.00     0.225 C 
ATOM     11  O   UNL     1       0.717  -3.119   2.005  1.00  0.00    -0.275 OA
ATOM     12  N   UNL     1       1.900  -1.263   2.119  1.00  0.00    -0.326 N 
ATOM     13  H   UNL     1       1.888  -1.472   3.081  1.00  0.00     0.169 HD
BRANCH  12  14
ATOM     14  C   UNL     1       2.569  -0.064   1.840  1.00  0.00     0.041 A 
ATOM     15  C   UNL     1       3.013   0.681   2.938  1.00  0.00     0.028 A 
ATOM     16  C   UNL     1       2.796   0.452   0.572  1.00  0.00     0.028 A 
ATOM     17  C   UNL     1       3.662   1.909   2.759  1.00  0.00     0.028 A 
ATOM     18  C   UNL     1       3.386   1.703   0.389  1.00  0.00     0.028 A 
ATOM     19  C   UNL     1       3.875   2.413   1.476  1.00  0.00     0.041 A 
BRANCH  19  20
ATOM     20  N   UNL     1       4.559   3.599   1.189  1.00  0.00    -0.319 N 
ATOM     21  C   UNL     1       5.552   4.260   1.889  1.00  0.00     0.291 C 
ATOM     22  H   UNL     1       4.288   4.037   0.350  1.00  0.00     0.170 HD
ATOM     23  O   UNL     1       5.843   5.394   1.525  1.00  0.00    -0.265 OA
BRANCH  21  24
ATOM     24  C   UNL     1       6.259   3.551   2.935  1.00  0.00     0.191 A 
ATOM     25  C   UNL     1       6.808   2.282   3.000  1.00  0.00     0.056 A 
ATOM     26  O   UNL     1       6.460   4.194   4.125  1.00  0.00    -0.459 OA
ATOM     27  C   UNL     1       7.322   2.128   4.309  1.00  0.00     0.043 A 
ATOM     28  C   UNL     1       7.090   3.321   4.951  1.00  0.00     0.196 A 
ENDBRANCH  21  24
ENDBRANCH  19  20
ENDBRANCH  12  14
ENDBRANCH   9  10
ENDBRANCH   7   9
BRANCH   7  29
ATOM     29  C   UNL     1       0.577  -1.779  -2.446  1.00  0.00    -0.032 A 
ATOM     30  C   UNL     1       0.640  -3.109  -2.917  1.00  0.00     0.005 A 
ATOM     31  C   UNL     1       1.151  -0.793  -3.276  1.00  0.00     0.005 A 
ATOM     32  C   UNL     1       1.290  -3.440  -4.111  1.00  0.00     0.000 A 
ATOM     33  C   UNL     1       1.799  -1.124  -4.473  1.00  0.00     0.000 A 
ATOM     34  C   UNL     1       1.883  -2.449  -4.882  1.00  0.00     0.000 A 
ENDBRANCH   7  29
ENDBRANCH   4   7
ENDBRANCH   2   3
ENDBRANCH   1   2
BRANCH   1  35
ATOM     35  C   UNL     1      -3.819  -0.163   2.693  1.00  0.00     0.002 C 
BRANCH  35  36
ATOM     36  C   UNL     1      -3.957  -1.218   3.795  1.00  0.00     0.002 C 
BRANCH  36  37
ATOM     37  C   UNL     1      -3.000  -1.107   4.988  1.00  0.00     0.021 C 
BRANCH  37  38
ATOM     38  C   UNL     1      -3.011   0.217   5.747  1.00  0.00     0.116 C 
BRANCH  38  39
ATOM     39  N   UNL     1      -4.325   0.563   6.258  1.00  0.00    -0.352 N 
ATOM     40  C   UNL     1      -4.755   0.812   7.536  1.00  0.00     0.251 C 
ATOM     41  H   UNL     1      -5.026   0.629   5.570  1.00  0.00     0.163 HD
ATOM     42  O   UNL     1      -5.958   0.944   7.751  1.00  0.00    -0.269 OA
BRANCH  40  43
ATOM     43  C   UNL     1      -3.806   0.908   8.669  1.00  0.00     0.039 A 
ATOM     44  C   UNL     1      -4.169   0.325   9.888  1.00  0.00     0.014 A 
ATOM     45  C   UNL     1      -2.605   1.619   8.572  1.00  0.00     0.014 A 
ATOM     46  C   UNL     1      -3.311   0.406  10.990  1.00  0.00     0.010 A 
ATOM     47  C   UNL     1      -1.725   1.655   9.655  1.00  0.00     0.010 A 
ATOM     48  C   UNL     1      -2.071   1.049  10.875  1.00  0.00    -0.014 A 
BRANCH  48  49
ATOM     49  C   UNL     1      -1.125   1.098  12.019  1.00  0.00     0.031 A 
ATOM     50  C   UNL     1      -0.812   2.403  12.695  1.00  0.00     0.074 A 
ATOM     51  C   UNL     1      -0.501  -0.029  12.414  1.00  0.00     0.049 A 
ATOM     52  N   UNL     1       0.046   2.656  13.652  1.00  0.00    -0.248 NA
ATOM     53  C   UNL     1      -1.544   3.585  12.216  1.00  0.00     0.031 C 
ATOM     54  C   UNL     1      -0.689  -1.351  11.819  1.00  0.00     0.029 A 
ATOM     55  N   UNL     1       0.429  -0.237  13.402  1.00  0.00    -0.354 N 
ATOM     56  C   UNL     1      -0.028   4.024  13.875  1.00  0.00     0.074 A 
ATOM     57  C   UNL     1      -0.991   4.554  12.933  1.00  0.00     0.031 C 
ATOM     58  C   UNL     1       0.092  -2.236  12.458  1.00  0.00     0.029 A 
ATOM     59  C   UNL     1       0.858  -1.539  13.488  1.00  0.00     0.049 A 
ATOM     60  H   UNL     1       0.757   0.478  13.993  1.00  0.00     0.167 HD
ATOM     61  C   UNL     1       0.635   4.768  14.793  1.00  0.00     0.037 A 
ATOM     62  C   UNL     1       1.771  -2.106  14.299  1.00  0.00     0.037 A 
ATOM     63  C   UNL     1       1.566   4.238  15.754  1.00  0.00     0.049 A 
ATOM     64  C   UNL     1       2.477  -1.262  15.323  1.00  0.00     0.074 A 
ATOM     65  C   UNL     1       2.243   4.906  16.761  1.00  0.00     0.029 A 
ATOM     66  N   UNL     1       1.949   2.908  15.831  1.00  0.00    -0.354 N 
ATOM     67  N   UNL     1       2.363   0.023  15.555  1.00  0.00    -0.248 NA
ATOM     68  C   UNL     1       3.434  -1.948  16.203  1.00  0.00     0.031 C 
ATOM     69  C   UNL     1       3.057   3.984  17.428  1.00  0.00     0.029 A 
ATOM     70  C   UNL     1       2.862   2.737  16.859  1.00  0.00     0.049 A 
ATOM     71  H   UNL     1       1.621   2.190  15.242  1.00  0.00     0.167 HD
ATOM     72  C   UNL     1       3.214   0.295  16.617  1.00  0.00     0.074 A 
ATOM     73  C   UNL     1       3.831  -0.960  16.992  1.00  0.00     0.031 C 
ATOM     74  C   UNL     1       3.463   1.480  17.224  1.00  0.00     0.037 A 
BRANCH  61  75
ATOM     75  C   UNL     1       0.377   6.245  14.803  1.00  0.00     0.064 A 
ATOM     76  C   UNL     1      -0.825   6.776  15.293  1.00  0.00     0.173 A 
ATOM     77  C   UNL     1       1.359   7.142  14.357  1.00  0.00     0.173 A 
ATOM     78  F   UNL     1      -1.799   5.958  15.720  1.00  0.00    -0.203 F 
ATOM     79  C   UNL     1      -1.044   8.151  15.315  1.00  0.00     0.198 A 
ATOM     80  C   UNL     1       1.146   8.517  14.403  1.00  0.00     0.198 A 
ATOM     81  F   UNL     1       2.529   6.685  13.885  1.00  0.00    -0.203 F 
ATOM     82  F   UNL     1      -2.216   8.634  15.751  1.00  0.00    -0.200 F 
ATOM     83  C   UNL     1      -0.057   9.020  14.876  1.00  0.00     0.200 A 
ATOM     84  F   UNL     1       2.105   9.357  13.988  1.00  0.00    -0.200 F 
ATOM     85  F   UNL     1      -0.267  10.343  14.902  1.00  0.00    -0.200 F 
ENDBRANCH  61  75
BRANCH  62  86
ATOM     86  C   UNL     1       2.052  -3.558  14.188  1.00  0.00     0.064 A 
ATOM     87  C   UNL     1       1.601  -4.454  15.167  1.00  0.00     0.173 A 
ATOM     88  C   UNL     1       2.769  -4.080  13.102  1.00  0.00     0.173 A 
ATOM     89  F   UNL     1       0.931  -3.996  16.234  1.00  0.00    -0.203 F 
ATOM     90  C   UNL     1       1.868  -5.817  15.071  1.00  0.00     0.198 A 
ATOM     91  C   UNL     1       3.017  -5.447  12.995  1.00  0.00     0.198 A 
ATOM     92  F   UNL     1       3.219  -3.262  12.139  1.00  0.00    -0.203 F 
ATOM     93  F   UNL     1       1.457  -6.648  16.038  1.00  0.00    -0.200 F 
ATOM     94  C   UNL     1       2.571  -6.314  13.982  1.00  0.00     0.200 A 
ATOM     95  F   UNL     1       3.687  -5.924  11.938  1.00  0.00    -0.200 F 
ATOM     96  F   UNL     1       2.824  -7.626  13.888  1.00  0.00    -0.200 F 
ENDBRANCH  62  86
BRANCH  74  97
ATOM     97  C   UNL     1       4.424   1.473  18.374  1.00  0.00     0.064 A 
ATOM     98  C   UNL     1       5.807   1.362  18.171  1.00  0.00     0.173 A 
ATOM     99  C   UNL     1       3.959   1.617  19.690  1.00  0.00     0.173 A 
ATOM    100  F   UNL     1       6.296   1.205  16.931  1.00  0.00    -0.203 F 
ATOM    101  C   UNL     1       6.690   1.377  19.247  1.00  0.00     0.198 A 
ATOM    102  C   UNL     1       4.847   1.655  20.761  1.00  0.00     0.198 A 
ATOM    103  F   UNL     1       2.645   1.731  19.934  1.00  0.00    -0.203 F 
ATOM    104  F   UNL     1       8.005   1.233  19.034  1.00  0.00    -0.200 F 
ATOM    105  C   UNL     1       6.210   1.530  20.540  1.00  0.00     0.200 A 
ATOM    106  F   UNL     1       4.383   1.810  22.009  1.00  0.00    -0.200 F 
ATOM    107  F   UNL     1       7.063   1.549  21.573  1.00  0.00    -0.200 F 
ENDBRANCH  74  97
ENDBRANCH  48  49
ENDBRANCH  40  43
ENDBRANCH  38  39
ENDBRANCH  37  38
ENDBRANCH  36  37
ENDBRANCH  35  36
ENDBRANCH   1  35
TORSDOF 19
