REMARK SMILES O=C(NCCCCCCNC(=O)c1cc(-c2ccc(Cl)cc2)nc2c3c(C4CC4)cc(C(F)(F)F)nc3nn12)c1ccc(-c2c3nc(c(-c4c(F)c(F)c(F)c(F)c4F)c4ccc([nH]4)c(-c4c(F)c(F)c(F)c(F)c4F)c4nc(c(-c5c(F)c(F)c(F)c(F)c5F)c5ccc2[nH]5)C=C4)C=C3)cc1
REMARK SMILES IDX 6 1 5 2 4 3 3 4 1 5 2 6 40 8 41 9 102 10 42 11 101 12 43 13
REMARK SMILES IDX 44 14 45 15 95 16 46 17 100 18 94 19 96 20 47 21 99 22 93 23
REMARK SMILES IDX 92 24 48 26 80 27 60 28 79 29 61 30 64 31 78 32 97 33 62 34
REMARK SMILES IDX 63 35 77 37 98 38 65 39 49 40 50 41 58 42 51 43 52 44 56 45
REMARK SMILES IDX 59 46 53 47 54 48 57 49 55 50 81 51 82 52 90 53 83 54 84 55
REMARK SMILES IDX 88 56 91 57 85 58 86 59 89 60 87 61 66 62 67 63 75 64 68 65
REMARK SMILES IDX 69 66 73 67 76 68 70 69 71 70 74 71 72 72 7 73 8 74 9 75
REMARK SMILES IDX 10 76 11 77 12 79 13 80 14 81 39 82 15 83 24 84 38 85 23 86
REMARK SMILES IDX 25 87 37 88 26 89 36 90 30 91 31 92 16 93 17 94 22 95 18 96
REMARK SMILES IDX 21 97 19 98 20 99 27 100 28 101 29 102 32 103 33 104 34 105
REMARK SMILES IDX 35 106
REMARK H PARENT 3 7 96 25 64 36 10 78
REMARK Flexibility Score: inf
ROOT
ATOM      1  C   UNL     1       3.991   3.872  -0.451  1.00  0.00     0.002 C 
ENDROOT
BRANCH   1   2
ATOM      2  C   UNL     1       4.490   2.480  -0.839  1.00  0.00     0.021 C 
BRANCH   2   3
ATOM      3  C   UNL     1       4.366   1.436   0.265  1.00  0.00     0.116 C 
BRANCH   3   4
ATOM      4  N   UNL     1       3.002   0.963   0.448  1.00  0.00    -0.352 N 
ATOM      5  O   UNL     1       1.316  -0.559   0.287  1.00  0.00    -0.269 OA
ATOM      6  C   UNL     1       2.490  -0.276   0.129  1.00  0.00     0.251 C 
ATOM      7  H   UNL     1       2.371   1.604   0.847  1.00  0.00     0.163 HD
BRANCH   6   8
ATOM      8  C   UNL     1       3.426  -1.251  -0.451  1.00  0.00     0.039 A 
ATOM      9  C   UNL     1       4.457  -1.762   0.343  1.00  0.00     0.014 A 
ATOM     10  C   UNL     1       3.380  -1.473  -1.828  1.00  0.00     0.014 A 
ATOM     11  C   UNL     1       5.526  -2.398  -0.273  1.00  0.00     0.010 A 
ATOM     12  C   UNL     1       4.434  -2.144  -2.435  1.00  0.00     0.010 A 
ATOM     13  C   UNL     1       5.530  -2.563  -1.666  1.00  0.00    -0.014 A 
BRANCH  13  14
ATOM     14  C   UNL     1       6.739  -3.157  -2.264  1.00  0.00     0.031 A 
ATOM     15  C   UNL     1       6.454  -4.329  -3.156  1.00  0.00     0.074 A 
ATOM     16  C   UNL     1       7.705  -2.302  -2.660  1.00  0.00     0.049 A 
ATOM     17  N   UNL     1       6.173  -4.297  -4.426  1.00  0.00    -0.248 NA
ATOM     18  C   UNL     1       6.265  -5.644  -2.536  1.00  0.00     0.031 C 
ATOM     19  C   UNL     1       7.501  -1.155  -3.548  1.00  0.00     0.029 A 
ATOM     20  N   UNL     1       9.075  -2.451  -2.584  1.00  0.00    -0.354 N 
ATOM     21  C   UNL     1       5.723  -5.564  -4.765  1.00  0.00     0.074 A 
ATOM     22  C   UNL     1       5.803  -6.365  -3.564  1.00  0.00     0.031 C 
ATOM     23  C   UNL     1       8.692  -0.786  -4.054  1.00  0.00     0.029 A 
ATOM     24  C   UNL     1       9.743  -1.631  -3.490  1.00  0.00     0.049 A 
ATOM     25  H   UNL     1       9.528  -3.065  -1.962  1.00  0.00     0.167 HD
ATOM     26  C   UNL     1       5.299  -5.919  -6.005  1.00  0.00     0.037 A 
ATOM     27  C   UNL     1      10.904  -1.973  -4.113  1.00  0.00     0.037 A 
ATOM     28  C   UNL     1       5.391  -4.921  -7.021  1.00  0.00     0.049 A 
ATOM     29  C   UNL     1      10.369  -2.684  -5.333  1.00  0.00     0.074 A 
ATOM     30  C   UNL     1       4.552  -4.014  -7.628  1.00  0.00     0.029 A 
ATOM     31  N   UNL     1       6.613  -4.729  -7.618  1.00  0.00    -0.354 N 
ATOM     32  N   UNL     1       9.917  -2.134  -6.430  1.00  0.00    -0.248 NA
ATOM     33  C   UNL     1       9.983  -4.087  -5.154  1.00  0.00     0.031 C 
ATOM     34  C   UNL     1       5.410  -3.044  -8.234  1.00  0.00     0.029 A 
ATOM     35  C   UNL     1       6.719  -3.394  -7.905  1.00  0.00     0.049 A 
ATOM     36  H   UNL     1       7.288  -5.422  -7.805  1.00  0.00     0.167 HD
ATOM     37  C   UNL     1       8.956  -3.028  -6.915  1.00  0.00     0.074 A 
ATOM     38  C   UNL     1       9.097  -4.234  -6.128  1.00  0.00     0.031 C 
ATOM     39  C   UNL     1       7.957  -2.662  -7.769  1.00  0.00     0.037 A 
BRANCH  26  40
ATOM     40  C   UNL     1       4.907  -7.290  -6.383  1.00  0.00     0.064 A 
ATOM     41  C   UNL     1       5.814  -8.063  -7.122  1.00  0.00     0.173 A 
ATOM     42  C   UNL     1       3.611  -7.779  -6.200  1.00  0.00     0.173 A 
ATOM     43  F   UNL     1       7.069  -7.623  -7.313  1.00  0.00    -0.203 F 
ATOM     44  C   UNL     1       5.425  -9.264  -7.702  1.00  0.00     0.198 A 
ATOM     45  C   UNL     1       3.225  -8.989  -6.776  1.00  0.00     0.198 A 
ATOM     46  F   UNL     1       2.712  -7.070  -5.502  1.00  0.00    -0.203 F 
ATOM     47  F   UNL     1       6.300  -9.959  -8.441  1.00  0.00    -0.200 F 
ATOM     48  C   UNL     1       4.127  -9.721  -7.539  1.00  0.00     0.200 A 
ATOM     49  F   UNL     1       1.972  -9.435  -6.619  1.00  0.00    -0.200 F 
ATOM     50  F   UNL     1       3.743 -10.863  -8.125  1.00  0.00    -0.200 F 
ENDBRANCH  26  40
BRANCH  27  51
ATOM     51  C   UNL     1      11.990  -2.504  -3.230  1.00  0.00     0.064 A 
ATOM     52  C   UNL     1      12.344  -1.755  -2.084  1.00  0.00     0.173 A 
ATOM     53  C   UNL     1      12.684  -3.707  -3.416  1.00  0.00     0.173 A 
ATOM     54  F   UNL     1      11.814  -0.538  -1.883  1.00  0.00    -0.203 F 
ATOM     55  C   UNL     1      13.225  -2.247  -1.121  1.00  0.00     0.198 A 
ATOM     56  C   UNL     1      13.549  -4.211  -2.441  1.00  0.00     0.198 A 
ATOM     57  F   UNL     1      12.525  -4.432  -4.530  1.00  0.00    -0.203 F 
ATOM     58  F   UNL     1      13.488  -1.525  -0.024  1.00  0.00    -0.200 F 
ATOM     59  C   UNL     1      13.801  -3.493  -1.285  1.00  0.00     0.200 A 
ATOM     60  F   UNL     1      14.113  -5.414  -2.614  1.00  0.00    -0.200 F 
ATOM     61  F   UNL     1      14.597  -4.000  -0.334  1.00  0.00    -0.200 F 
ENDBRANCH  27  51
BRANCH  39  62
ATOM     62  C   UNL     1       8.075  -1.299  -8.353  1.00  0.00     0.064 A 
ATOM     63  C   UNL     1       9.031  -1.040  -9.342  1.00  0.00     0.173 A 
ATOM     64  C   UNL     1       7.210  -0.260  -7.978  1.00  0.00     0.173 A 
ATOM     65  F   UNL     1       9.872  -2.007  -9.741  1.00  0.00    -0.203 F 
ATOM     66  C   UNL     1       9.100   0.207  -9.955  1.00  0.00     0.198 A 
ATOM     67  C   UNL     1       7.264   0.976  -8.613  1.00  0.00     0.198 A 
ATOM     68  F   UNL     1       6.289  -0.446  -7.020  1.00  0.00    -0.203 F 
ATOM     69  F   UNL     1      10.013   0.432 -10.910  1.00  0.00    -0.200 F 
ATOM     70  C   UNL     1       8.207   1.208  -9.601  1.00  0.00     0.200 A 
ATOM     71  F   UNL     1       6.381   1.932  -8.290  1.00  0.00    -0.200 F 
ATOM     72  F   UNL     1       8.244   2.392 -10.229  1.00  0.00    -0.200 F 
ENDBRANCH  39  62
ENDBRANCH  13  14
ENDBRANCH   6   8
ENDBRANCH   3   4
ENDBRANCH   2   3
ENDBRANCH   1   2
BRANCH   1  73
ATOM     73  C   UNL     1       4.564   4.436   0.855  1.00  0.00     0.002 C 
BRANCH  73  74
ATOM     74  C   UNL     1       6.090   4.370   0.999  1.00  0.00     0.021 C 
BRANCH  74  75
ATOM     75  C   UNL     1       6.870   5.114  -0.079  1.00  0.00     0.116 C 
BRANCH  75  76
ATOM     76  N   UNL     1       6.625   6.545  -0.025  1.00  0.00    -0.351 N 
ATOM     77  C   UNL     1       7.514   7.576  -0.027  1.00  0.00     0.270 C 
ATOM     78  H   UNL     1       5.678   6.807   0.020  1.00  0.00     0.163 HD
ATOM     79  O   UNL     1       7.113   8.728   0.124  1.00  0.00    -0.268 OA
BRANCH  77  80
ATOM     80  C   UNL     1       8.958   7.290  -0.107  1.00  0.00     0.134 A 
ATOM     81  C   UNL     1       9.696   7.763   0.907  1.00  0.00     0.063 A 
ATOM     82  N   UNL     1       9.552   6.592  -1.155  1.00  0.00    -0.207 N 
ATOM     83  C   UNL     1      11.157   7.494   0.812  1.00  0.00     0.075 A 
ATOM     84  C   UNL     1      10.937   6.324  -1.135  1.00  0.00     0.166 A 
ATOM     85  N   UNL     1       8.943   6.072  -2.247  1.00  0.00    -0.145 NA
ATOM     86  N   UNL     1      11.744   6.825  -0.139  1.00  0.00    -0.228 NA
ATOM     87  C   UNL     1      11.160   5.509  -2.230  1.00  0.00     0.069 A 
ATOM     88  C   UNL     1       9.894   5.397  -2.875  1.00  0.00     0.184 A 
ATOM     89  C   UNL     1      12.357   4.899  -2.639  1.00  0.00    -0.028 A 
ATOM     90  N   UNL     1       9.700   4.662  -3.994  1.00  0.00    -0.222 NA
ATOM     91  C   UNL     1      12.116   4.144  -3.810  1.00  0.00     0.038 A 
ATOM     92  C   UNL     1      10.838   4.043  -4.436  1.00  0.00     0.147 A 
BRANCH  83  93
ATOM     93  C   UNL     1      11.942   8.105   1.907  1.00  0.00     0.000 A 
ATOM     94  C   UNL     1      12.827   9.144   1.603  1.00  0.00     0.012 A 
ATOM     95  C   UNL     1      11.716   7.724   3.235  1.00  0.00     0.012 A 
ATOM     96  C   UNL     1      13.465   9.828   2.641  1.00  0.00     0.021 A 
ATOM     97  C   UNL     1      12.364   8.405   4.267  1.00  0.00     0.021 A 
ATOM     98  C   UNL     1      13.226   9.461   3.967  1.00  0.00     0.041 A 
ATOM     99  Cl  UNL     1      13.987  10.327   5.243  1.00  0.00    -0.084 Cl
ENDBRANCH  83  93
BRANCH  89 100
ATOM    100  C   UNL     1      13.655   5.050  -1.910  1.00  0.00     0.020 C 
ATOM    101  C   UNL     1      14.909   4.315  -2.327  1.00  0.00     0.009 C 
ATOM    102  C   UNL     1      14.789   5.787  -2.584  1.00  0.00     0.009 C 
ENDBRANCH  89 100
BRANCH  92 103
ATOM    103  C   UNL     1      10.718   3.210  -5.711  1.00  0.00     0.433 C 
ATOM    104  F   UNL     1       9.647   2.364  -5.709  1.00  0.00    -0.165 F 
ATOM    105  F   UNL     1      10.593   3.975  -6.832  1.00  0.00    -0.165 F 
ATOM    106  F   UNL     1      11.804   2.411  -5.936  1.00  0.00    -0.165 F 
ENDBRANCH  92 103
ENDBRANCH  77  80
ENDBRANCH  75  76
ENDBRANCH  74  75
ENDBRANCH  73  74
ENDBRANCH   1  73
TORSDOF 16
