REMARK SMILES CC[C@@H](C)[C@@H](C(=O)NCCCCCCNC(=O)c1ccc(-c2c3nc(c(-c4c(F)c(F)c(F)c(F)c4F)c4ccc([nH]4)c(-c4c(F)c(F)c(F)c(F)c4F)c4nc(c(-c5c(F)c(F)c(F)c(F)c5F)c5ccc2[nH]5)C=C4)C=C3)cc1)N1C(=O)/C(=C/c2ccc(O)cc2)SC1=S
REMARK SMILES IDX 11 1 10 2 9 3 8 4 6 5 7 6 5 8 3 9 4 10 2 11 1 12 81 13 82 14
REMARK SMILES IDX 94 15 83 16 84 17 93 18 95 19 85 20 86 21 87 22 92 23 88 24
REMARK SMILES IDX 91 25 89 26 90 27 12 29 13 30 14 31 15 32 16 33 17 35 18 36
REMARK SMILES IDX 19 37 80 38 20 39 79 40 21 41 22 42 23 43 73 44 24 45 78 46
REMARK SMILES IDX 72 47 74 48 25 49 77 50 71 51 70 52 26 54 58 55 38 56 57 57
REMARK SMILES IDX 39 58 42 59 56 60 75 61 40 62 41 63 55 65 76 66 43 67 27 68
REMARK SMILES IDX 28 69 36 70 29 71 30 72 34 73 37 74 31 75 32 76 35 77 33 78
REMARK SMILES IDX 59 79 60 80 68 81 61 82 62 83 66 84 69 85 63 86 64 87 67 88
REMARK SMILES IDX 65 89 44 90 45 91 53 92 46 93 47 94 51 95 54 96 48 97 49 98
REMARK SMILES IDX 52 99 50 100
REMARK H PARENT 8 7 90 28 15 34 74 53 42 64
REMARK Flexibility Score: inf
ROOT
ATOM      1  C   UNL     1       0.528   4.620  -1.692  1.00  0.00     0.002 C 
ENDROOT
BRANCH   1   2
ATOM      2  C   UNL     1       0.288   3.115  -1.559  1.00  0.00     0.021 C 
BRANCH   2   3
ATOM      3  C   UNL     1      -0.277   2.445  -2.819  1.00  0.00     0.116 C 
BRANCH   3   4
ATOM      4  N   UNL     1       0.812   2.047  -3.694  1.00  0.00    -0.354 N 
ATOM      5  C   UNL     1       1.428   0.829  -3.781  1.00  0.00     0.243 C 
ATOM      6  O   UNL     1       2.639   0.821  -4.022  1.00  0.00    -0.273 OA
ATOM      7  H   UNL     1       1.150   2.743  -4.302  1.00  0.00     0.163 HD
BRANCH   5   8
ATOM      8  C   UNL     1       0.626  -0.492  -3.576  1.00  0.00     0.184 C 
BRANCH   8   9
ATOM      9  C   UNL     1       1.296  -1.184  -2.310  1.00  0.00     0.018 C 
ATOM     10  C   UNL     1       1.025  -2.675  -2.104  1.00  0.00     0.010 C 
BRANCH   9  11
ATOM     11  C   UNL     1       0.903  -0.396  -1.034  1.00  0.00     0.002 C 
ATOM     12  C   UNL     1       1.437  -0.938   0.284  1.00  0.00     0.004 C 
ENDBRANCH   9  11
ENDBRANCH   8   9
BRANCH   8  13
ATOM     13  N   UNL     1       0.597  -1.356  -4.804  1.00  0.00    -0.280 N 
ATOM     14  C   UNL     1       1.274  -1.035  -5.972  1.00  0.00     0.266 C 
ATOM     15  C   UNL     1      -0.278  -2.409  -4.987  1.00  0.00     0.149 C 
ATOM     16  O   UNL     1       1.632   0.072  -6.345  1.00  0.00    -0.268 OA
ATOM     17  C   UNL     1       1.329  -2.210  -6.889  1.00  0.00     0.081 C 
ATOM     18  S   UNL     1       0.288  -3.434  -6.302  1.00  0.00    -0.054 SA
ATOM     19  S   UNL     1      -1.716  -2.727  -4.196  1.00  0.00    -0.052 S 
ATOM     20  C   UNL     1       2.110  -2.209  -7.980  1.00  0.00     0.029 C 
BRANCH  20  21
ATOM     21  C   UNL     1       2.329  -3.304  -8.937  1.00  0.00    -0.024 A 
ATOM     22  C   UNL     1       3.646  -3.605  -9.315  1.00  0.00     0.012 A 
ATOM     23  C   UNL     1       1.281  -4.031  -9.516  1.00  0.00     0.012 A 
ATOM     24  C   UNL     1       3.911  -4.647 -10.207  1.00  0.00     0.047 A 
ATOM     25  C   UNL     1       1.544  -5.082 -10.401  1.00  0.00     0.047 A 
ATOM     26  C   UNL     1       2.859  -5.386 -10.731  1.00  0.00     0.115 A 
BRANCH  26  27
ATOM     27  O   UNL     1       3.162  -6.413 -11.574  1.00  0.00    -0.508 OA
ATOM     28  H   UNL     1       4.056  -6.601 -11.783  1.00  0.00     0.293 HD
ENDBRANCH  26  27
ENDBRANCH  20  21
ENDBRANCH   8  13
ENDBRANCH   5   8
ENDBRANCH   3   4
ENDBRANCH   2   3
ENDBRANCH   1   2
BRANCH   1  29
ATOM     29  C   UNL     1      -0.731   5.487  -1.618  1.00  0.00     0.002 C 
BRANCH  29  30
ATOM     30  C   UNL     1      -1.617   5.277  -0.385  1.00  0.00     0.021 C 
BRANCH  30  31
ATOM     31  C   UNL     1      -0.905   5.335   0.966  1.00  0.00     0.116 C 
BRANCH  31  32
ATOM     32  N   UNL     1      -0.313   6.634   1.232  1.00  0.00    -0.352 N 
ATOM     33  C   UNL     1      -0.512   7.495   2.282  1.00  0.00     0.251 C 
ATOM     34  H   UNL     1       0.330   6.945   0.554  1.00  0.00     0.163 HD
ATOM     35  O   UNL     1      -0.030   8.623   2.248  1.00  0.00    -0.269 OA
BRANCH  33  36
ATOM     36  C   UNL     1      -1.321   7.086   3.452  1.00  0.00     0.039 A 
ATOM     37  C   UNL     1      -2.255   7.991   3.966  1.00  0.00     0.014 A 
ATOM     38  C   UNL     1      -1.131   5.850   4.077  1.00  0.00     0.014 A 
ATOM     39  C   UNL     1      -3.032   7.640   5.073  1.00  0.00     0.010 A 
ATOM     40  C   UNL     1      -1.943   5.479   5.149  1.00  0.00     0.010 A 
ATOM     41  C   UNL     1      -2.896   6.373   5.662  1.00  0.00    -0.014 A 
BRANCH  41  42
ATOM     42  C   UNL     1      -3.730   5.982   6.826  1.00  0.00     0.031 A 
ATOM     43  C   UNL     1      -3.101   5.795   8.179  1.00  0.00     0.074 A 
ATOM     44  C   UNL     1      -5.045   5.750   6.659  1.00  0.00     0.049 A 
ATOM     45  N   UNL     1      -3.652   5.411   9.303  1.00  0.00    -0.248 NA
ATOM     46  C   UNL     1      -1.656   6.053   8.275  1.00  0.00     0.031 C 
ATOM     47  C   UNL     1      -5.767   5.855   5.391  1.00  0.00     0.029 A 
ATOM     48  N   UNL     1      -6.008   5.368   7.560  1.00  0.00    -0.354 N 
ATOM     49  C   UNL     1      -2.622   5.363  10.232  1.00  0.00     0.074 A 
ATOM     50  C   UNL     1      -1.406   5.721   9.534  1.00  0.00     0.031 C 
ATOM     51  C   UNL     1      -7.061   5.561   5.597  1.00  0.00     0.029 A 
ATOM     52  C   UNL     1      -7.255   5.225   7.005  1.00  0.00     0.049 A 
ATOM     53  H   UNL     1      -5.821   5.212   8.514  1.00  0.00     0.167 HD
ATOM     54  C   UNL     1      -2.686   5.064  11.552  1.00  0.00     0.037 A 
ATOM     55  C   UNL     1      -8.424   4.865   7.570  1.00  0.00     0.037 A 
ATOM     56  C   UNL     1      -3.899   4.743  12.256  1.00  0.00     0.049 A 
ATOM     57  C   UNL     1      -8.474   4.571   9.043  1.00  0.00     0.074 A 
ATOM     58  C   UNL     1      -4.072   4.481  13.604  1.00  0.00     0.029 A 
ATOM     59  N   UNL     1      -5.150   4.645  11.666  1.00  0.00    -0.354 N 
ATOM     60  N   UNL     1      -7.503   4.583   9.922  1.00  0.00    -0.248 NA
ATOM     61  C   UNL     1      -9.787   4.223   9.605  1.00  0.00     0.031 C 
ATOM     62  C   UNL     1      -5.425   4.199  13.826  1.00  0.00     0.029 A 
ATOM     63  C   UNL     1      -6.099   4.318  12.621  1.00  0.00     0.049 A 
ATOM     64  H   UNL     1      -5.336   4.787  10.710  1.00  0.00     0.167 HD
ATOM     65  C   UNL     1      -8.087   4.270  11.141  1.00  0.00     0.074 A 
ATOM     66  C   UNL     1      -9.502   4.083  10.892  1.00  0.00     0.031 C 
ATOM     67  C   UNL     1      -7.504   4.148  12.358  1.00  0.00     0.037 A 
BRANCH  54  68
ATOM     68  C   UNL     1      -1.401   5.077  12.325  1.00  0.00     0.064 A 
ATOM     69  C   UNL     1      -0.756   6.278  12.654  1.00  0.00     0.173 A 
ATOM     70  C   UNL     1      -0.825   3.877  12.769  1.00  0.00     0.173 A 
ATOM     71  F   UNL     1      -1.261   7.450  12.241  1.00  0.00    -0.203 F 
ATOM     72  C   UNL     1       0.433   6.276  13.377  1.00  0.00     0.198 A 
ATOM     73  C   UNL     1       0.351   3.881  13.513  1.00  0.00     0.198 A 
ATOM     74  F   UNL     1      -1.406   2.702  12.484  1.00  0.00    -0.203 F 
ATOM     75  F   UNL     1       1.056   7.433  13.643  1.00  0.00    -0.200 F 
ATOM     76  C   UNL     1       0.983   5.079  13.811  1.00  0.00     0.200 A 
ATOM     77  F   UNL     1       0.877   2.724  13.939  1.00  0.00    -0.200 F 
ATOM     78  F   UNL     1       2.126   5.080  14.510  1.00  0.00    -0.200 F 
ENDBRANCH  54  68
BRANCH  55  79
ATOM     79  C   UNL     1      -9.653   4.800   6.741  1.00  0.00     0.064 A 
ATOM     80  C   UNL     1     -10.651   5.776   6.863  1.00  0.00     0.173 A 
ATOM     81  C   UNL     1      -9.854   3.768   5.814  1.00  0.00     0.173 A 
ATOM     82  F   UNL     1     -10.510   6.769   7.753  1.00  0.00    -0.203 F 
ATOM     83  C   UNL     1     -11.813   5.715   6.098  1.00  0.00     0.198 A 
ATOM     84  C   UNL     1     -11.007   3.720   5.033  1.00  0.00     0.198 A 
ATOM     85  F   UNL     1      -8.925   2.813   5.660  1.00  0.00    -0.203 F 
ATOM     86  F   UNL     1     -12.768   6.640   6.259  1.00  0.00    -0.200 F 
ATOM     87  C   UNL     1     -11.988   4.689   5.180  1.00  0.00     0.200 A 
ATOM     88  F   UNL     1     -11.169   2.734   4.141  1.00  0.00    -0.200 F 
ATOM     89  F   UNL     1     -13.105   4.633   4.441  1.00  0.00    -0.200 F 
ENDBRANCH  55  79
BRANCH  67  90
ATOM     90  C   UNL     1      -8.398   3.828  13.518  1.00  0.00     0.064 A 
ATOM     91  C   UNL     1      -8.918   2.541  13.708  1.00  0.00     0.173 A 
ATOM     92  C   UNL     1      -8.709   4.814  14.467  1.00  0.00     0.173 A 
ATOM     93  F   UNL     1      -8.661   1.570  12.818  1.00  0.00    -0.203 F 
ATOM     94  C   UNL     1      -9.735   2.255  14.799  1.00  0.00     0.198 A 
ATOM     95  C   UNL     1      -9.508   4.519  15.567  1.00  0.00     0.198 A 
ATOM     96  F   UNL     1      -8.232   6.059  14.329  1.00  0.00    -0.203 F 
ATOM     97  F   UNL     1     -10.253   1.027  14.942  1.00  0.00    -0.200 F 
ATOM     98  C   UNL     1     -10.024   3.242  15.730  1.00  0.00     0.200 A 
ATOM     99  F   UNL     1      -9.781   5.471  16.470  1.00  0.00    -0.200 F 
ATOM    100  F   UNL     1     -10.809   2.964  16.780  1.00  0.00    -0.200 F 
ENDBRANCH  67  90
ENDBRANCH  41  42
ENDBRANCH  33  36
ENDBRANCH  31  32
ENDBRANCH  30  31
ENDBRANCH  29  30
ENDBRANCH   1  29
TORSDOF 18
