REMARK SMILES O=C(NCCCCCCNC(=O)c1ccc(-c2c3nc(c(-c4c(F)c(F)c(F)c(F)c4F)c4ccc([nH]4)c(-c4c(F)c(F)c(F)c(F)c4F)c4nc(c(-c5c(F)c(F)c(F)c(F)c5F)c5ccc2[nH]5)C=C4)C=C3)cc1)C1=Cc2c(ccc(Cl)c2Sc2ccccc2)O[C@H]1C(F)(F)F
REMARK SMILES IDX 6 1 5 2 4 3 3 4 1 5 2 6 76 8 77 9 93 10 78 11 92 12 79 13
REMARK SMILES IDX 84 14 80 15 82 16 81 17 83 18 94 19 95 20 96 21 97 22 85 23
REMARK SMILES IDX 86 24 87 25 91 26 88 27 90 28 89 29 7 30 8 31 9 32 10 33
REMARK SMILES IDX 11 34 12 36 13 37 14 38 75 39 15 40 74 41 16 42 17 43 18 44
REMARK SMILES IDX 68 45 19 46 73 47 67 48 69 49 20 50 72 51 66 52 65 53 21 55
REMARK SMILES IDX 53 56 33 57 52 58 34 59 37 60 51 61 70 62 35 63 36 64 50 66
REMARK SMILES IDX 71 67 38 68 22 69 23 70 31 71 24 72 25 73 29 74 32 75 26 76
REMARK SMILES IDX 27 77 30 78 28 79 54 80 55 81 63 82 56 83 57 84 61 85 64 86
REMARK SMILES IDX 58 87 59 88 62 89 60 90 39 91 40 92 48 93 41 94 42 95 46 96
REMARK SMILES IDX 49 97 43 98 44 99 47 100 45 101
REMARK H PARENT 3 7 10 35 69 54 37 65
REMARK Flexibility Score: inf
ROOT
ATOM      1  C   UNL     1       3.803   2.486   3.729  1.00  0.00     0.002 C 
ENDROOT
BRANCH   1   2
ATOM      2  C   UNL     1       4.191   2.675   2.260  1.00  0.00     0.021 C 
BRANCH   2   3
ATOM      3  C   UNL     1       3.823   1.513   1.341  1.00  0.00     0.116 C 
BRANCH   3   4
ATOM      4  N   UNL     1       2.862   1.891   0.297  1.00  0.00    -0.352 N 
ATOM      5  O   UNL     1       1.944   1.918  -1.745  1.00  0.00    -0.270 OA
ATOM      6  C   UNL     1       2.759   1.463  -0.993  1.00  0.00     0.251 C 
ATOM      7  H   UNL     1       2.189   2.556   0.570  1.00  0.00     0.163 HD
BRANCH   6   8
ATOM      8  C   UNL     1       3.721   0.439  -1.471  1.00  0.00     0.067 C 
ATOM      9  C   UNL     1       3.683  -0.764  -0.889  1.00  0.00     0.026 C 
ATOM     10  C   UNL     1       4.926   0.916  -2.217  1.00  0.00     0.314 C 
ATOM     11  C   UNL     1       4.944  -1.236  -0.296  1.00  0.00     0.033 A 
ATOM     12  O   UNL     1       6.170   0.386  -1.692  1.00  0.00    -0.475 OA
ATOM     13  C   UNL     1       6.123  -0.586  -0.723  1.00  0.00     0.129 A 
ATOM     14  C   UNL     1       4.974  -2.159   0.785  1.00  0.00     0.042 A 
ATOM     15  C   UNL     1       7.338  -0.840  -0.098  1.00  0.00     0.049 A 
ATOM     16  C   UNL     1       6.226  -2.366   1.419  1.00  0.00     0.055 A 
ATOM     17  C   UNL     1       7.387  -1.716   0.978  1.00  0.00     0.025 A 
ATOM     18  Cl  UNL     1       6.429  -3.375   2.819  1.00  0.00    -0.083 Cl
BRANCH  10  19
ATOM     19  C   UNL     1       4.801   0.573  -3.710  1.00  0.00     0.429 C 
ATOM     20  F   UNL     1       4.796  -0.766  -3.924  1.00  0.00    -0.167 F 
ATOM     21  F   UNL     1       3.670   1.072  -4.259  1.00  0.00    -0.167 F 
ATOM     22  F   UNL     1       5.838   1.087  -4.413  1.00  0.00    -0.167 F 
ENDBRANCH  10  19
BRANCH  14  23
ATOM     23  S   UNL     1       3.519  -2.953   1.535  1.00  0.00    -0.088 SA
BRANCH  23  24
ATOM     24  C   UNL     1       2.234  -3.020   0.312  1.00  0.00     0.012 A 
ATOM     25  C   UNL     1       1.145  -2.143   0.421  1.00  0.00     0.015 A 
ATOM     26  C   UNL     1       2.296  -3.901  -0.773  1.00  0.00     0.015 A 
ATOM     27  C   UNL     1       0.174  -2.093  -0.580  1.00  0.00     0.001 A 
ATOM     28  C   UNL     1       1.318  -3.853  -1.773  1.00  0.00     0.001 A 
ATOM     29  C   UNL     1       0.267  -2.940  -1.682  1.00  0.00     0.000 A 
ENDBRANCH  23  24
ENDBRANCH  14  23
ENDBRANCH   6   8
ENDBRANCH   3   4
ENDBRANCH   2   3
ENDBRANCH   1   2
BRANCH   1  30
ATOM     30  C   UNL     1       4.363   1.251   4.447  1.00  0.00     0.002 C 
BRANCH  30  31
ATOM     31  C   UNL     1       5.869   0.997   4.333  1.00  0.00     0.021 C 
BRANCH  31  32
ATOM     32  C   UNL     1       6.795   2.142   4.738  1.00  0.00     0.116 C 
BRANCH  32  33
ATOM     33  N   UNL     1       6.622   2.575   6.112  1.00  0.00    -0.352 N 
ATOM     34  C   UNL     1       7.548   2.884   7.078  1.00  0.00     0.251 C 
ATOM     35  H   UNL     1       5.685   2.660   6.400  1.00  0.00     0.163 HD
ATOM     36  O   UNL     1       7.157   3.171   8.208  1.00  0.00    -0.269 OA
BRANCH  34  37
ATOM     37  C   UNL     1       9.009   2.851   6.810  1.00  0.00     0.039 A 
ATOM     38  C   UNL     1       9.850   2.363   7.819  1.00  0.00     0.014 A 
ATOM     39  C   UNL     1       9.572   3.342   5.629  1.00  0.00     0.014 A 
ATOM     40  C   UNL     1      11.234   2.311   7.625  1.00  0.00     0.010 A 
ATOM     41  C   UNL     1      10.952   3.246   5.415  1.00  0.00     0.010 A 
ATOM     42  C   UNL     1      11.795   2.728   6.410  1.00  0.00    -0.014 A 
BRANCH  42  43
ATOM     43  C   UNL     1      13.258   2.625   6.170  1.00  0.00     0.031 A 
ATOM     44  C   UNL     1      14.106   3.861   6.071  1.00  0.00     0.074 A 
ATOM     45  C   UNL     1      13.825   1.414   6.002  1.00  0.00     0.049 A 
ATOM     46  N   UNL     1      15.381   3.971   5.788  1.00  0.00    -0.248 NA
ATOM     47  C   UNL     1      13.430   5.146   6.306  1.00  0.00     0.031 C 
ATOM     48  C   UNL     1      13.119   0.135   6.059  1.00  0.00     0.029 A 
ATOM     49  N   UNL     1      15.128   1.065   5.745  1.00  0.00    -0.354 N 
ATOM     50  C   UNL     1      15.653   5.332   5.788  1.00  0.00     0.074 A 
ATOM     51  C   UNL     1      14.409   6.012   6.082  1.00  0.00     0.031 C 
ATOM     52  C   UNL     1      13.999  -0.861   5.864  1.00  0.00     0.029 A 
ATOM     53  C   UNL     1      15.324  -0.290   5.640  1.00  0.00     0.049 A 
ATOM     54  H   UNL     1      15.854   1.723   5.646  1.00  0.00     0.167 HD
ATOM     55  C   UNL     1      16.835   5.958   5.572  1.00  0.00     0.037 A 
ATOM     56  C   UNL     1      16.444  -0.993   5.388  1.00  0.00     0.037 A 
ATOM     57  C   UNL     1      18.084   5.292   5.317  1.00  0.00     0.049 A 
ATOM     58  C   UNL     1      17.745  -0.275   5.169  1.00  0.00     0.074 A 
ATOM     59  C   UNL     1      19.337   5.850   5.119  1.00  0.00     0.029 A 
ATOM     60  N   UNL     1      18.242   3.918   5.235  1.00  0.00    -0.354 N 
ATOM     61  N   UNL     1      17.989   1.012   5.181  1.00  0.00    -0.248 NA
ATOM     62  C   UNL     1      18.926  -1.108   4.900  1.00  0.00     0.031 C 
ATOM     63  C   UNL     1      20.250   4.812   4.901  1.00  0.00     0.029 A 
ATOM     64  C   UNL     1      19.570   3.609   4.986  1.00  0.00     0.049 A 
ATOM     65  H   UNL     1      17.519   3.259   5.339  1.00  0.00     0.167 HD
ATOM     66  C   UNL     1      19.349   1.143   4.941  1.00  0.00     0.074 A 
ATOM     67  C   UNL     1      19.882  -0.195   4.793  1.00  0.00     0.031 C 
ATOM     68  C   UNL     1      20.088   2.274   4.851  1.00  0.00     0.037 A 
BRANCH  55  69
ATOM     69  C   UNL     1      16.834   7.456   5.600  1.00  0.00     0.064 A 
ATOM     70  C   UNL     1      16.794   8.163   6.810  1.00  0.00     0.173 A 
ATOM     71  C   UNL     1      16.921   8.188   4.408  1.00  0.00     0.173 A 
ATOM     72  F   UNL     1      16.698   7.503   7.974  1.00  0.00    -0.203 F 
ATOM     73  C   UNL     1      16.823   9.555   6.823  1.00  0.00     0.198 A 
ATOM     74  C   UNL     1      16.969   9.579   4.426  1.00  0.00     0.198 A 
ATOM     75  F   UNL     1      16.966   7.554   3.226  1.00  0.00    -0.203 F 
ATOM     76  F   UNL     1      16.753  10.213   7.988  1.00  0.00    -0.200 F 
ATOM     77  C   UNL     1      16.916  10.261   5.633  1.00  0.00     0.200 A 
ATOM     78  F   UNL     1      17.064  10.261   3.276  1.00  0.00    -0.200 F 
ATOM     79  F   UNL     1      16.949  11.601   5.649  1.00  0.00    -0.200 F 
ENDBRANCH  55  69
BRANCH  56  80
ATOM     80  C   UNL     1      16.388  -2.474   5.354  1.00  0.00     0.064 A 
ATOM     81  C   UNL     1      16.888  -3.231   6.423  1.00  0.00     0.173 A 
ATOM     82  C   UNL     1      15.833  -3.159   4.265  1.00  0.00     0.173 A 
ATOM     83  F   UNL     1      17.448  -2.615   7.473  1.00  0.00    -0.203 F 
ATOM     84  C   UNL     1      16.841  -4.622   6.399  1.00  0.00     0.198 A 
ATOM     85  C   UNL     1      15.772  -4.551   4.251  1.00  0.00     0.198 A 
ATOM     86  F   UNL     1      15.343  -2.475   3.221  1.00  0.00    -0.203 F 
ATOM     87  F   UNL     1      17.351  -5.325   7.420  1.00  0.00    -0.200 F 
ATOM     88  C   UNL     1      16.279  -5.281   5.316  1.00  0.00     0.200 A 
ATOM     89  F   UNL     1      15.223  -5.184   3.205  1.00  0.00    -0.200 F 
ATOM     90  F   UNL     1      16.232  -6.620   5.295  1.00  0.00    -0.200 F 
ENDBRANCH  56  80
BRANCH  68  91
ATOM     91  C   UNL     1      21.557   2.115   4.605  1.00  0.00     0.064 A 
ATOM     92  C   UNL     1      22.055   1.834   3.325  1.00  0.00     0.173 A 
ATOM     93  C   UNL     1      22.475   2.286   5.651  1.00  0.00     0.173 A 
ATOM     94  F   UNL     1      21.212   1.648   2.299  1.00  0.00    -0.203 F 
ATOM     95  C   UNL     1      23.424   1.716   3.104  1.00  0.00     0.198 A 
ATOM     96  C   UNL     1      23.844   2.183   5.422  1.00  0.00     0.198 A 
ATOM     97  F   UNL     1      22.043   2.557   6.891  1.00  0.00    -0.203 F 
ATOM     98  F   UNL     1      23.880   1.419   1.879  1.00  0.00    -0.200 F 
ATOM     99  C   UNL     1      24.317   1.895   4.150  1.00  0.00     0.200 A 
ATOM    100  F   UNL     1      24.706   2.359   6.433  1.00  0.00    -0.200 F 
ATOM    101  F   UNL     1      25.635   1.784   3.934  1.00  0.00    -0.200 F 
ENDBRANCH  68  91
ENDBRANCH  42  43
ENDBRANCH  34  37
ENDBRANCH  32  33
ENDBRANCH  31  32
ENDBRANCH  30  31
ENDBRANCH   1  30
TORSDOF 16
