REMARK SMILES COc1ccc(/C=C(/Sc2nc(C)n[nH]2)C(=O)NCCCCCCNC(=O)c2ccc(-c3c4nc(c(-c5c(F)c(F)c(F)c(F)c5F)c5ccc([nH]5)c(-c5c(F)c(F)c(F)c(F)c5F)c5nc(c(-c6c(F)c(F)c(F)c(F)c6F)c6ccc3[nH]6)C=C5)C=C4)cc2)cc1OC
REMARK SMILES IDX 21 1 20 2 19 3 18 4 16 5 17 6 8 8 7 9 6 10 3 11 4 12 92 13
REMARK SMILES IDX 5 14 91 15 2 16 1 17 93 18 94 19 9 20 10 21 11 22 15 23
REMARK SMILES IDX 12 24 14 25 13 27 22 28 23 29 24 30 25 31 26 32 27 34 28 35
REMARK SMILES IDX 29 36 90 37 30 38 89 39 31 40 32 41 33 42 83 43 34 44 88 45
REMARK SMILES IDX 82 46 84 47 35 48 87 49 81 50 80 51 36 53 68 54 48 55 67 56
REMARK SMILES IDX 49 57 52 58 66 59 85 60 50 61 51 62 65 64 86 65 53 66 37 67
REMARK SMILES IDX 38 68 46 69 39 70 40 71 44 72 47 73 41 74 42 75 45 76 43 77
REMARK SMILES IDX 69 78 70 79 78 80 71 81 72 82 76 83 79 84 73 85 74 86 77 87
REMARK SMILES IDX 75 88 54 89 55 90 63 91 56 92 57 93 61 94 64 95 58 96 59 97
REMARK SMILES IDX 62 98 60 99
REMARK H PARENT 18 7 15 26 25 33 84 52 52 63
REMARK Flexibility Score: inf
ROOT
ATOM      1  C   UNL     1      -2.906  -9.685   4.076  1.00  0.00     0.002 C 
ENDROOT
BRANCH   1   2
ATOM      2  C   UNL     1      -1.410  -9.834   3.783  1.00  0.00     0.021 C 
BRANCH   2   3
ATOM      3  C   UNL     1      -1.004  -9.556   2.339  1.00  0.00     0.116 C 
BRANCH   3   4
ATOM      4  N   UNL     1      -1.094  -8.160   1.957  1.00  0.00    -0.352 N 
ATOM      5  C   UNL     1      -0.234  -7.314   1.311  1.00  0.00     0.258 C 
ATOM      6  O   UNL     1      -0.784  -6.495   0.569  1.00  0.00    -0.269 OA
ATOM      7  H   UNL     1      -1.944  -7.735   2.214  1.00  0.00     0.163 HD
BRANCH   5   8
ATOM      8  C   UNL     1       1.268  -7.281   1.532  1.00  0.00     0.081 C 
ATOM      9  C   UNL     1       1.940  -6.107   1.516  1.00  0.00     0.029 C 
BRANCH   9  10
ATOM     10  C   UNL     1       1.552  -4.689   1.319  1.00  0.00    -0.020 A 
ATOM     11  C   UNL     1       1.117  -1.895   1.112  1.00  0.00     0.160 A 
ATOM     12  C   UNL     1       0.134  -2.738   1.645  1.00  0.00     0.051 A 
ATOM     13  C   UNL     1       2.342  -2.429   0.709  1.00  0.00     0.161 A 
ATOM     14  C   UNL     1       0.360  -4.117   1.768  1.00  0.00     0.012 A 
ATOM     15  C   UNL     1       2.529  -3.821   0.797  1.00  0.00     0.058 A 
BRANCH  11  16
ATOM     16  O   UNL     1       0.863  -0.550   1.142  1.00  0.00    -0.493 OA
ATOM     17  C   UNL     1       0.195  -0.106  -0.040  1.00  0.00     0.278 C 
ENDBRANCH  11  16
BRANCH  13  18
ATOM     18  O   UNL     1       3.460  -1.786   0.255  1.00  0.00    -0.493 OA
ATOM     19  C   UNL     1       3.446  -0.376   0.114  1.00  0.00     0.278 C 
ENDBRANCH  13  18
ENDBRANCH   9  10
BRANCH   8  20
ATOM     20  S   UNL     1       2.070  -8.761   1.983  1.00  0.00    -0.045 SA
BRANCH  20  21
ATOM     21  C   UNL     1       3.563  -8.800   1.133  1.00  0.00     0.188 A 
ATOM     22  N   UNL     1       4.424  -7.845   0.886  1.00  0.00    -0.206 NA
ATOM     23  N   UNL     1       4.135 -10.006   0.857  1.00  0.00    -0.254 N 
ATOM     24  C   UNL     1       5.544  -8.532   0.484  1.00  0.00     0.148 A 
ATOM     25  N   UNL     1       5.406  -9.864   0.445  1.00  0.00    -0.158 NA
ATOM     26  H   UNL     1       3.675 -10.872   0.947  1.00  0.00     0.192 HD
ATOM     27  C   UNL     1       6.824  -7.852   0.204  1.00  0.00     0.092 C 
ENDBRANCH  20  21
ENDBRANCH   8  20
ENDBRANCH   5   8
ENDBRANCH   3   4
ENDBRANCH   2   3
ENDBRANCH   1   2
BRANCH   1  28
ATOM     28  C   UNL     1      -3.868 -10.370   3.091  1.00  0.00     0.002 C 
BRANCH  28  29
ATOM     29  C   UNL     1      -3.582 -11.837   2.732  1.00  0.00     0.021 C 
BRANCH  29  30
ATOM     30  C   UNL     1      -3.647 -12.794   3.908  1.00  0.00     0.116 C 
BRANCH  30  31
ATOM     31  N   UNL     1      -4.994 -12.921   4.454  1.00  0.00    -0.352 N 
ATOM     32  C   UNL     1      -5.407 -13.672   5.538  1.00  0.00     0.251 C 
ATOM     33  H   UNL     1      -5.696 -12.407   3.993  1.00  0.00     0.163 HD
ATOM     34  O   UNL     1      -6.569 -14.018   5.661  1.00  0.00    -0.269 OA
BRANCH  32  35
ATOM     35  C   UNL     1      -4.406 -14.043   6.556  1.00  0.00     0.039 A 
ATOM     36  C   UNL     1      -4.428 -15.299   7.167  1.00  0.00     0.014 A 
ATOM     37  C   UNL     1      -3.428 -13.108   6.884  1.00  0.00     0.014 A 
ATOM     38  C   UNL     1      -3.410 -15.624   8.060  1.00  0.00     0.010 A 
ATOM     39  C   UNL     1      -2.341 -13.485   7.628  1.00  0.00     0.010 A 
ATOM     40  C   UNL     1      -2.358 -14.715   8.269  1.00  0.00    -0.014 A 
BRANCH  40  41
ATOM     41  C   UNL     1      -1.185 -15.095   9.047  1.00  0.00     0.031 A 
ATOM     42  C   UNL     1      -0.533 -16.335   8.554  1.00  0.00     0.074 A 
ATOM     43  C   UNL     1      -0.624 -14.293   9.980  1.00  0.00     0.049 A 
ATOM     44  N   UNL     1      -0.496 -17.482   9.142  1.00  0.00    -0.248 NA
ATOM     45  C   UNL     1      -0.014 -16.358   7.175  1.00  0.00     0.031 C 
ATOM     46  C   UNL     1      -0.999 -12.919  10.334  1.00  0.00     0.029 A 
ATOM     47  N   UNL     1       0.478 -14.503  10.754  1.00  0.00    -0.354 N 
ATOM     48  C   UNL     1       0.254 -18.311   8.313  1.00  0.00     0.074 A 
ATOM     49  C   UNL     1       0.334 -17.640   7.044  1.00  0.00     0.031 C 
ATOM     50  C   UNL     1      -0.015 -12.348  11.065  1.00  0.00     0.029 A 
ATOM     51  C   UNL     1       0.977 -13.359  11.376  1.00  0.00     0.049 A 
ATOM     52  H   UNL     1       0.888 -15.391  10.866  1.00  0.00     0.167 HD
ATOM     53  C   UNL     1       0.992 -19.320   8.852  1.00  0.00     0.037 A 
ATOM     54  C   UNL     1       2.132 -13.252  12.080  1.00  0.00     0.037 A 
ATOM     55  C   UNL     1       0.546 -19.608  10.196  1.00  0.00     0.049 A 
ATOM     56  C   UNL     1       2.516 -14.623  12.489  1.00  0.00     0.074 A 
ATOM     57  C   UNL     1      -0.639 -20.019  10.773  1.00  0.00     0.029 A 
ATOM     58  N   UNL     1       1.300 -19.084  11.216  1.00  0.00    -0.354 N 
ATOM     59  N   UNL     1       1.842 -15.340  13.344  1.00  0.00    -0.248 NA
ATOM     60  C   UNL     1       3.403 -15.366  11.610  1.00  0.00     0.031 C 
ATOM     61  C   UNL     1      -0.712 -19.320  12.017  1.00  0.00     0.029 A 
ATOM     62  C   UNL     1       0.463 -18.582  12.174  1.00  0.00     0.049 A 
ATOM     63  H   UNL     1       2.283 -19.070  11.252  1.00  0.00     0.167 HD
ATOM     64  C   UNL     1       1.861 -16.620  12.812  1.00  0.00     0.074 A 
ATOM     65  C   UNL     1       2.928 -16.597  11.813  1.00  0.00     0.031 C 
ATOM     66  C   UNL     1       0.814 -17.470  13.026  1.00  0.00     0.037 A 
BRANCH  53  67
ATOM     67  C   UNL     1       2.383 -19.705   8.382  1.00  0.00     0.064 A 
ATOM     68  C   UNL     1       3.038 -20.773   9.031  1.00  0.00     0.173 A 
ATOM     69  C   UNL     1       3.214 -18.887   7.585  1.00  0.00     0.173 A 
ATOM     70  F   UNL     1       2.355 -21.615   9.821  1.00  0.00    -0.203 F 
ATOM     71  C   UNL     1       4.426 -20.934   8.980  1.00  0.00     0.198 A 
ATOM     72  C   UNL     1       4.592 -19.082   7.495  1.00  0.00     0.198 A 
ATOM     73  F   UNL     1       2.765 -17.800   6.951  1.00  0.00    -0.203 F 
ATOM     74  F   UNL     1       5.015 -21.871   9.735  1.00  0.00    -0.200 F 
ATOM     75  C   UNL     1       5.203 -20.080   8.221  1.00  0.00     0.200 A 
ATOM     76  F   UNL     1       5.329 -18.231   6.767  1.00  0.00    -0.200 F 
ATOM     77  F   UNL     1       6.538 -20.184   8.227  1.00  0.00    -0.200 F 
ENDBRANCH  53  67
BRANCH  54  78
ATOM     78  C   UNL     1       3.085 -12.116  12.167  1.00  0.00     0.064 A 
ATOM     79  C   UNL     1       4.112 -12.106  13.128  1.00  0.00     0.173 A 
ATOM     80  C   UNL     1       3.201 -11.177  11.123  1.00  0.00     0.173 A 
ATOM     81  F   UNL     1       4.104 -12.994  14.133  1.00  0.00    -0.203 F 
ATOM     82  C   UNL     1       5.209 -11.242  13.027  1.00  0.00     0.198 A 
ATOM     83  C   UNL     1       4.294 -10.312  11.027  1.00  0.00     0.198 A 
ATOM     84  F   UNL     1       2.312 -11.152  10.120  1.00  0.00    -0.203 F 
ATOM     85  F   UNL     1       6.205 -11.317  13.921  1.00  0.00    -0.200 F 
ATOM     86  C   UNL     1       5.306 -10.356  11.968  1.00  0.00     0.200 A 
ATOM     87  F   UNL     1       4.395  -9.486   9.975  1.00  0.00    -0.200 F 
ATOM     88  F   UNL     1       6.389  -9.579  11.829  1.00  0.00    -0.200 F 
ENDBRANCH  54  78
BRANCH  66  89
ATOM     89  C   UNL     1      -0.160 -17.115  14.116  1.00  0.00     0.064 A 
ATOM     90  C   UNL     1      -0.982 -15.974  14.119  1.00  0.00     0.173 A 
ATOM     91  C   UNL     1      -0.349 -18.045  15.147  1.00  0.00     0.173 A 
ATOM     92  F   UNL     1      -0.929 -15.080  13.124  1.00  0.00    -0.203 F 
ATOM     93  C   UNL     1      -1.916 -15.759  15.133  1.00  0.00     0.198 A 
ATOM     94  C   UNL     1      -1.308 -17.849  16.134  1.00  0.00     0.198 A 
ATOM     95  F   UNL     1       0.374 -19.176  15.170  1.00  0.00    -0.203 F 
ATOM     96  F   UNL     1      -2.677 -14.654  15.124  1.00  0.00    -0.200 F 
ATOM     97  C   UNL     1      -2.083 -16.701  16.134  1.00  0.00     0.200 A 
ATOM     98  F   UNL     1      -1.497 -18.786  17.073  1.00  0.00    -0.200 F 
ATOM     99  F   UNL     1      -3.008 -16.515  17.087  1.00  0.00    -0.200 F 
ENDBRANCH  66  89
ENDBRANCH  40  41
ENDBRANCH  32  35
ENDBRANCH  30  31
ENDBRANCH  29  30
ENDBRANCH  28  29
ENDBRANCH   1  28
TORSDOF 18
