REMARK SMILES COCC[C@H]([NH3+])C(=O)N[C@@H]1CCCCC[C@@H]1C(=O)NCCCCCCNC(=O)c1ccc(-c2c3nc(c(-c4c(F)c(F)c(F)c(F)c4F)c4ccc([nH]4)c(-c4c(F)c(F)c(F)c(F)c4F)c4nc(c(-c5c(F)c(F)c(F)c(F)c5F)c5ccc2[nH]5)C=C4)C=C3)cc1
REMARK SMILES IDX 20 1 19 2 17 3 18 4 16 6 10 7 9 8 7 9 8 10 5 12 4 13 3 14
REMARK SMILES IDX 2 15 1 16 6 17 11 21 15 23 14 24 13 25 12 26 21 28 22 29
REMARK SMILES IDX 23 30 24 31 25 32 26 33 27 34 28 36 29 37 30 38 91 39 31 40
REMARK SMILES IDX 90 41 32 42 33 43 34 44 84 45 35 46 89 47 83 48 85 49 36 50
REMARK SMILES IDX 88 51 82 52 81 53 37 55 69 56 49 57 68 58 50 59 53 60 67 61
REMARK SMILES IDX 86 62 51 63 52 64 66 66 87 67 54 68 38 69 39 70 47 71 40 72
REMARK SMILES IDX 41 73 45 74 48 75 42 76 43 77 46 78 44 79 70 80 71 81 79 82
REMARK SMILES IDX 72 83 73 84 77 85 80 86 74 87 75 88 78 89 76 90 55 91 56 92
REMARK SMILES IDX 64 93 57 94 58 95 62 96 65 97 59 98 60 99 63 100 61 101
REMARK H PARENT 19 5 9 11 6 18 6 19 6 20 26 35 85 54 53 65
REMARK Flexibility Score: 90.00
ROOT
ATOM      1  C   UNL     1       0.375   1.250   1.760  1.00  0.00     0.116 C 
ENDROOT
BRANCH   1   2
ATOM      2  N   UNL     1       1.711   0.683   1.896  1.00  0.00    -0.356 N 
ATOM      3  C   UNL     1       2.457   0.229   2.941  1.00  0.00     0.225 C 
ATOM      4  O   UNL     1       3.571  -0.235   2.664  1.00  0.00    -0.275 OA
ATOM      5  H   UNL     1       2.182   0.611   1.035  1.00  0.00     0.163 HD
BRANCH   3   6
ATOM      6  C   UNL     1       2.044   0.283   4.408  1.00  0.00     0.101 C 
BRANCH   6   7
ATOM      7  C   UNL     1       1.693  -1.078   5.091  1.00  0.00     0.094 C 
BRANCH   7   8
ATOM      8  N   UNL     1       0.754  -1.974   4.374  1.00  0.00    -0.347 N 
ATOM      9  C   UNL     1       1.195  -3.113   3.706  1.00  0.00     0.278 C 
ATOM     10  O   UNL     1       1.593  -4.099   4.320  1.00  0.00    -0.268 OA
ATOM     11  H   UNL     1      -0.207  -1.757   4.370  1.00  0.00     0.163 HD
BRANCH   9  12
ATOM     12  C   UNL     1       0.993  -3.106   2.173  1.00  0.00     0.273 C 
BRANCH  12  13
ATOM     13  C   UNL     1       2.295  -2.710   1.462  1.00  0.00     0.104 C 
BRANCH  13  14
ATOM     14  C   UNL     1       2.642  -3.558   0.239  1.00  0.00     0.166 C 
BRANCH  14  15
ATOM     15  O   UNL     1       2.380  -2.897  -1.002  1.00  0.00    -0.384 OA
ATOM     16  C   UNL     1       1.000  -2.709  -1.264  1.00  0.00     0.194 C 
ENDBRANCH  14  15
ENDBRANCH  13  14
ENDBRANCH  12  13
BRANCH  12  17
ATOM     17  N   UNL     1      -0.143  -2.208   1.866  1.00  0.00    -0.347 N 
ATOM     18  H   UNL     1       0.065  -1.269   2.205  1.00  0.00     0.345 HD
ATOM     19  H   UNL     1      -0.986  -2.556   2.324  1.00  0.00     0.345 HD
ATOM     20  H   UNL     1      -0.291  -2.180   0.857  1.00  0.00     0.345 HD
ENDBRANCH  12  17
ENDBRANCH   9  12
ENDBRANCH   7   8
BRANCH   7  21
ATOM     21  C   UNL     1       1.137  -0.902   6.529  1.00  0.00     0.026 CG0
ATOM     22  G   UNL     1       1.875   0.080   7.436  1.00  0.00     0.000 G0
ENDBRANCH   7  21
ENDBRANCH   6   7
BRANCH   6  23
ATOM     23  C   UNL     1       1.212   1.513   4.780  1.00  0.00     0.015 C 
BRANCH  23  24
ATOM     24  C   UNL     1       1.685   2.218   6.048  1.00  0.00     0.001 C 
BRANCH  24  25
ATOM     25  C   UNL     1       1.337   1.504   7.339  1.00  0.00     0.000 C 
BRANCH  25  26
ATOM     26  C   UNL     1       1.875   0.080   7.436  1.00  0.00     0.002 CG0
ATOM     27  G   UNL     1       1.137  -0.902   6.529  1.00  0.00     0.000 G0
ENDBRANCH  25  26
ENDBRANCH  24  25
ENDBRANCH  23  24
ENDBRANCH   6  23
ENDBRANCH   3   6
ENDBRANCH   1   2
BRANCH   1  28
ATOM     28  C   UNL     1       0.183   1.967   0.422  1.00  0.00     0.021 C 
BRANCH  28  29
ATOM     29  C   UNL     1      -0.072   1.061  -0.786  1.00  0.00     0.002 C 
BRANCH  29  30
ATOM     30  C   UNL     1      -1.315   0.168  -0.713  1.00  0.00     0.002 C 
BRANCH  30  31
ATOM     31  C   UNL     1      -2.625   0.847  -0.322  1.00  0.00     0.021 C 
BRANCH  31  32
ATOM     32  C   UNL     1      -2.998   2.063  -1.153  1.00  0.00     0.116 C 
BRANCH  32  33
ATOM     33  N   UNL     1      -3.177   1.771  -2.562  1.00  0.00    -0.352 N 
ATOM     34  C   UNL     1      -4.078   2.329  -3.445  1.00  0.00     0.251 C 
ATOM     35  H   UNL     1      -2.578   1.085  -2.937  1.00  0.00     0.163 HD
ATOM     36  O   UNL     1      -4.173   1.918  -4.583  1.00  0.00    -0.269 OA
BRANCH  34  37
ATOM     37  C   UNL     1      -4.966   3.414  -2.965  1.00  0.00     0.039 A 
ATOM     38  C   UNL     1      -6.334   3.323  -3.231  1.00  0.00     0.014 A 
ATOM     39  C   UNL     1      -4.460   4.489  -2.230  1.00  0.00     0.014 A 
ATOM     40  C   UNL     1      -7.203   4.279  -2.704  1.00  0.00     0.010 A 
ATOM     41  C   UNL     1      -5.334   5.393  -1.637  1.00  0.00     0.010 A 
ATOM     42  C   UNL     1      -6.714   5.301  -1.873  1.00  0.00    -0.014 A 
BRANCH  42  43
ATOM     43  C   UNL     1      -7.630   6.288  -1.250  1.00  0.00     0.031 A 
ATOM     44  C   UNL     1      -7.531   7.742  -1.614  1.00  0.00     0.074 A 
ATOM     45  C   UNL     1      -8.508   5.884  -0.312  1.00  0.00     0.049 A 
ATOM     46  N   UNL     1      -8.212   8.761  -1.155  1.00  0.00    -0.248 NA
ATOM     47  C   UNL     1      -6.507   8.103  -2.607  1.00  0.00     0.031 C 
ATOM     48  C   UNL     1      -8.667   4.507   0.158  1.00  0.00     0.029 A 
ATOM     49  N   UNL     1      -9.431   6.593   0.414  1.00  0.00    -0.354 N 
ATOM     50  C   UNL     1      -7.690   9.880  -1.789  1.00  0.00     0.074 A 
ATOM     51  C   UNL     1      -6.594   9.424  -2.616  1.00  0.00     0.031 C 
ATOM     52  C   UNL     1      -9.658   4.465   1.063  1.00  0.00     0.029 A 
ATOM     53  C   UNL     1     -10.175   5.815   1.266  1.00  0.00     0.049 A 
ATOM     54  H   UNL     1      -9.548   7.567   0.332  1.00  0.00     0.167 HD
ATOM     55  C   UNL     1      -8.103  11.168  -1.709  1.00  0.00     0.037 A 
ATOM     56  C   UNL     1     -11.167   6.155   2.111  1.00  0.00     0.037 A 
ATOM     57  C   UNL     1      -9.207  11.611  -0.899  1.00  0.00     0.049 A 
ATOM     58  C   UNL     1     -11.592   7.595   2.201  1.00  0.00     0.074 A 
ATOM     59  C   UNL     1      -9.751  12.879  -0.799  1.00  0.00     0.029 A 
ATOM     60  N   UNL     1      -9.930  10.796  -0.038  1.00  0.00    -0.354 N 
ATOM     61  N   UNL     1     -11.146   8.634   1.539  1.00  0.00    -0.248 NA
ATOM     62  C   UNL     1     -12.663   7.907   3.158  1.00  0.00     0.031 C 
ATOM     63  C   UNL     1     -10.765  12.844   0.165  1.00  0.00     0.029 A 
ATOM     64  C   UNL     1     -10.894  11.542   0.623  1.00  0.00     0.049 A 
ATOM     65  H   UNL     1      -9.780   9.831   0.085  1.00  0.00     0.167 HD
ATOM     66  C   UNL     1     -11.900   9.716   1.971  1.00  0.00     0.074 A 
ATOM     67  C   UNL     1     -12.840   9.204   2.948  1.00  0.00     0.031 C 
ATOM     68  C   UNL     1     -11.824  11.016   1.591  1.00  0.00     0.037 A 
BRANCH  55  69
ATOM     69  C   UNL     1      -7.342  12.184  -2.514  1.00  0.00     0.064 A 
ATOM     70  C   UNL     1      -7.367  12.188  -3.918  1.00  0.00     0.173 A 
ATOM     71  C   UNL     1      -6.571  13.165  -1.873  1.00  0.00     0.173 A 
ATOM     72  F   UNL     1      -8.080  11.265  -4.583  1.00  0.00    -0.203 F 
ATOM     73  C   UNL     1      -6.610  13.100  -4.648  1.00  0.00     0.198 A 
ATOM     74  C   UNL     1      -5.844  14.100  -2.606  1.00  0.00     0.198 A 
ATOM     75  F   UNL     1      -6.515  13.215  -0.533  1.00  0.00    -0.203 F 
ATOM     76  F   UNL     1      -6.592  13.034  -5.986  1.00  0.00    -0.200 F 
ATOM     77  C   UNL     1      -5.852  14.058  -3.992  1.00  0.00     0.200 A 
ATOM     78  F   UNL     1      -5.123  15.034  -1.970  1.00  0.00    -0.200 F 
ATOM     79  F   UNL     1      -5.120  14.933  -4.695  1.00  0.00    -0.200 F 
ENDBRANCH  55  69
BRANCH  56  80
ATOM     80  C   UNL     1     -11.860   5.103   2.898  1.00  0.00     0.064 A 
ATOM     81  C   UNL     1     -13.182   4.745   2.599  1.00  0.00     0.173 A 
ATOM     82  C   UNL     1     -11.220   4.424   3.944  1.00  0.00     0.173 A 
ATOM     83  F   UNL     1     -13.842   5.380   1.620  1.00  0.00    -0.203 F 
ATOM     84  C   UNL     1     -13.843   3.757   3.326  1.00  0.00     0.198 A 
ATOM     85  C   UNL     1     -11.873   3.417   4.653  1.00  0.00     0.198 A 
ATOM     86  F   UNL     1      -9.954   4.725   4.266  1.00  0.00    -0.203 F 
ATOM     87  F   UNL     1     -15.118   3.460   3.042  1.00  0.00    -0.200 F 
ATOM     88  C   UNL     1     -13.185   3.088   4.347  1.00  0.00     0.200 A 
ATOM     89  F   UNL     1     -11.230   2.763   5.630  1.00  0.00    -0.200 F 
ATOM     90  F   UNL     1     -13.817   2.131   5.039  1.00  0.00    -0.200 F 
ENDBRANCH  56  80
BRANCH  68  91
ATOM     91  C   UNL     1     -12.807  11.971   2.206  1.00  0.00     0.064 A 
ATOM     92  C   UNL     1     -12.719  12.358   3.551  1.00  0.00     0.173 A 
ATOM     93  C   UNL     1     -13.830  12.534   1.427  1.00  0.00     0.173 A 
ATOM     94  F   UNL     1     -11.770  11.836   4.343  1.00  0.00    -0.203 F 
ATOM     95  C   UNL     1     -13.634  13.253   4.100  1.00  0.00     0.198 A 
ATOM     96  C   UNL     1     -14.722  13.454   1.970  1.00  0.00     0.198 A 
ATOM     97  F   UNL     1     -13.955  12.203   0.133  1.00  0.00    -0.203 F 
ATOM     98  F   UNL     1     -13.562  13.569   5.400  1.00  0.00    -0.200 F 
ATOM     99  C   UNL     1     -14.629  13.806   3.308  1.00  0.00     0.200 A 
ATOM    100  F   UNL     1     -15.674  13.998   1.199  1.00  0.00    -0.200 F 
ATOM    101  F   UNL     1     -15.504  14.673   3.836  1.00  0.00    -0.200 F 
ENDBRANCH  68  91
ENDBRANCH  42  43
ENDBRANCH  34  37
ENDBRANCH  32  33
ENDBRANCH  31  32
ENDBRANCH  30  31
ENDBRANCH  29  30
ENDBRANCH  28  29
ENDBRANCH   1  28
TORSDOF 19
