REMARK SMILES O=C(NCCCCCCNC(=O)[C@H]1[C@H]2CC[C@H](CC2)[C@H]1C(=O)Nc1ccc(C(=O)N2CCCC2)cc1)c1ccc(-c2c3nc(c(-c4c(F)c(F)c(F)c(F)c4F)c4ccc([nH]4)c(-c4c(F)c(F)c(F)c(F)c4F)c4nc(c(-c5c(F)c(F)c(F)c(F)c5F)c5ccc2[nH]5)C=C4)C=C3)cc1
REMARK SMILES IDX 7 1 6 2 5 3 4 4 3 5 1 6 2 7 37 9 38 10 99 11 39 12 98 13
REMARK SMILES IDX 40 14 41 15 42 16 92 17 43 18 97 19 91 20 93 21 44 22 96 23
REMARK SMILES IDX 90 24 89 25 45 27 77 28 57 29 76 30 58 31 61 32 75 33 94 34
REMARK SMILES IDX 59 35 60 36 74 38 95 39 62 40 46 41 47 42 55 43 48 44 49 45
REMARK SMILES IDX 53 46 56 47 50 48 51 49 54 50 52 51 78 52 79 53 87 54 80 55
REMARK SMILES IDX 81 56 85 57 88 58 82 59 83 60 86 61 84 62 63 63 64 64 72 65
REMARK SMILES IDX 65 66 66 67 70 68 73 69 67 70 68 71 71 72 69 73 8 74 9 75
REMARK SMILES IDX 10 76 11 77 12 79 13 80 14 81 20 82 19 83 15 84 17 85 18 86
REMARK SMILES IDX 16 87 21 88 22 89 23 90 24 92 25 93 36 94 26 95 35 96 27 97
REMARK SMILES IDX 28 98 29 99 30 100 31 101 34 102 32 103 33 104
REMARK H PARENT 3 8 93 26 61 37 10 78 23 91
REMARK Flexibility Score: inf
ROOT
ATOM      1  C   UNL     1       5.072  -3.585   2.110  1.00  0.00     0.002 C 
ENDROOT
BRANCH   1   2
ATOM      2  C   UNL     1       4.422  -2.448   2.904  1.00  0.00     0.002 C 
BRANCH   2   3
ATOM      3  C   UNL     1       4.753  -1.050   2.387  1.00  0.00     0.021 C 
BRANCH   3   4
ATOM      4  C   UNL     1       4.467  -0.847   0.905  1.00  0.00     0.116 C 
BRANCH   4   5
ATOM      5  N   UNL     1       3.051  -0.946   0.597  1.00  0.00    -0.352 N 
ATOM      6  O   UNL     1       1.042  -0.185  -0.106  1.00  0.00    -0.269 OA
ATOM      7  C   UNL     1       2.257  -0.047  -0.073  1.00  0.00     0.251 C 
ATOM      8  H   UNL     1       2.602  -1.764   0.910  1.00  0.00     0.163 HD
BRANCH   7   9
ATOM      9  C   UNL     1       2.891   1.112  -0.732  1.00  0.00     0.039 A 
ATOM     10  C   UNL     1       4.016   0.940  -1.545  1.00  0.00     0.014 A 
ATOM     11  C   UNL     1       2.362   2.385  -0.513  1.00  0.00     0.014 A 
ATOM     12  C   UNL     1       4.687   2.052  -2.039  1.00  0.00     0.010 A 
ATOM     13  C   UNL     1       2.991   3.495  -1.076  1.00  0.00     0.010 A 
ATOM     14  C   UNL     1       4.172   3.339  -1.821  1.00  0.00    -0.014 A 
BRANCH  14  15
ATOM     15  C   UNL     1       4.841   4.520  -2.417  1.00  0.00     0.031 A 
ATOM     16  C   UNL     1       5.442   5.583  -1.545  1.00  0.00     0.074 A 
ATOM     17  C   UNL     1       4.867   4.644  -3.757  1.00  0.00     0.049 A 
ATOM     18  N   UNL     1       5.973   6.730  -1.886  1.00  0.00    -0.248 NA
ATOM     19  C   UNL     1       5.435   5.330  -0.097  1.00  0.00     0.031 C 
ATOM     20  C   UNL     1       4.317   3.671  -4.702  1.00  0.00     0.029 A 
ATOM     21  N   UNL     1       5.362   5.643  -4.555  1.00  0.00    -0.354 N 
ATOM     22  C   UNL     1       6.340   7.346  -0.697  1.00  0.00     0.074 A 
ATOM     23  C   UNL     1       5.948   6.457   0.376  1.00  0.00     0.031 C 
ATOM     24  C   UNL     1       4.510   4.116  -5.951  1.00  0.00     0.029 A 
ATOM     25  C   UNL     1       5.135   5.432  -5.892  1.00  0.00     0.049 A 
ATOM     26  H   UNL     1       5.833   6.433  -4.204  1.00  0.00     0.167 HD
ATOM     27  C   UNL     1       6.951   8.544  -0.523  1.00  0.00     0.037 A 
ATOM     28  C   UNL     1       5.367   6.228  -6.952  1.00  0.00     0.037 A 
ATOM     29  C   UNL     1       7.334   9.418  -1.603  1.00  0.00     0.049 A 
ATOM     30  C   UNL     1       5.999   7.572  -6.732  1.00  0.00     0.074 A 
ATOM     31  C   UNL     1       7.988  10.636  -1.538  1.00  0.00     0.029 A 
ATOM     32  N   UNL     1       7.083   9.173  -2.947  1.00  0.00    -0.354 N 
ATOM     33  N   UNL     1       6.373   8.133  -5.608  1.00  0.00    -0.248 NA
ATOM     34  C   UNL     1       6.243   8.392  -7.925  1.00  0.00     0.031 C 
ATOM     35  C   UNL     1       8.077  11.156  -2.833  1.00  0.00     0.029 A 
ATOM     36  C   UNL     1       7.544  10.230  -3.716  1.00  0.00     0.049 A 
ATOM     37  H   UNL     1       6.643   8.366  -3.301  1.00  0.00     0.167 HD
ATOM     38  C   UNL     1       6.925   9.357  -5.958  1.00  0.00     0.074 A 
ATOM     39  C   UNL     1       6.839   9.455  -7.401  1.00  0.00     0.031 C 
ATOM     40  C   UNL     1       7.462  10.308  -5.154  1.00  0.00     0.037 A 
BRANCH  27  41
ATOM     41  C   UNL     1       7.206   8.995   0.888  1.00  0.00     0.064 A 
ATOM     42  C   UNL     1       8.136   8.350   1.718  1.00  0.00     0.173 A 
ATOM     43  C   UNL     1       6.519  10.101   1.414  1.00  0.00     0.173 A 
ATOM     44  F   UNL     1       8.815   7.283   1.271  1.00  0.00    -0.203 F 
ATOM     45  C   UNL     1       8.337   8.768   3.032  1.00  0.00     0.198 A 
ATOM     46  C   UNL     1       6.748  10.537   2.717  1.00  0.00     0.198 A 
ATOM     47  F   UNL     1       5.625  10.761   0.664  1.00  0.00    -0.203 F 
ATOM     48  F   UNL     1       9.182   8.095   3.825  1.00  0.00    -0.200 F 
ATOM     49  C   UNL     1       7.647   9.863   3.529  1.00  0.00     0.200 A 
ATOM     50  F   UNL     1       6.090  11.605   3.189  1.00  0.00    -0.200 F 
ATOM     51  F   UNL     1       7.840  10.262   4.793  1.00  0.00    -0.200 F 
ENDBRANCH  27  41
BRANCH  28  52
ATOM     52  C   UNL     1       4.987   5.759  -8.308  1.00  0.00     0.064 A 
ATOM     53  C   UNL     1       5.963   5.407  -9.249  1.00  0.00     0.173 A 
ATOM     54  C   UNL     1       3.640   5.607  -8.673  1.00  0.00     0.173 A 
ATOM     55  F   UNL     1       7.262   5.548  -8.950  1.00  0.00    -0.203 F 
ATOM     56  C   UNL     1       5.607   4.927 -10.507  1.00  0.00     0.198 A 
ATOM     57  C   UNL     1       3.286   5.099  -9.920  1.00  0.00     0.198 A 
ATOM     58  F   UNL     1       2.669   5.920  -7.803  1.00  0.00    -0.203 F 
ATOM     59  F   UNL     1       6.559   4.625 -11.400  1.00  0.00    -0.200 F 
ATOM     60  C   UNL     1       4.269   4.764 -10.838  1.00  0.00     0.200 A 
ATOM     61  F   UNL     1       1.994   4.923 -10.227  1.00  0.00    -0.200 F 
ATOM     62  F   UNL     1       3.929   4.286 -12.043  1.00  0.00    -0.200 F 
ENDBRANCH  28  52
BRANCH  40  63
ATOM     63  C   UNL     1       8.054  11.519  -5.816  1.00  0.00     0.064 A 
ATOM     64  C   UNL     1       7.255  12.508  -6.407  1.00  0.00     0.173 A 
ATOM     65  C   UNL     1       9.444  11.718  -5.802  1.00  0.00     0.173 A 
ATOM     66  F   UNL     1       5.923  12.357  -6.462  1.00  0.00    -0.203 F 
ATOM     67  C   UNL     1       7.827  13.646  -6.972  1.00  0.00     0.198 A 
ATOM     68  C   UNL     1      10.009  12.870  -6.339  1.00  0.00     0.198 A 
ATOM     69  F   UNL     1      10.252  10.802  -5.246  1.00  0.00    -0.203 F 
ATOM     70  F   UNL     1       7.049  14.560  -7.566  1.00  0.00    -0.200 F 
ATOM     71  C   UNL     1       9.202  13.830  -6.928  1.00  0.00     0.200 A 
ATOM     72  F   UNL     1      11.336  13.053  -6.281  1.00  0.00    -0.200 F 
ATOM     73  F   UNL     1       9.748  14.934  -7.457  1.00  0.00    -0.200 F 
ENDBRANCH  40  63
ENDBRANCH  14  15
ENDBRANCH   7   9
ENDBRANCH   4   5
ENDBRANCH   3   4
ENDBRANCH   2   3
ENDBRANCH   1   2
BRANCH   1  74
ATOM     74  C   UNL     1       6.608  -3.518   1.999  1.00  0.00     0.021 C 
BRANCH  74  75
ATOM     75  C   UNL     1       7.360  -3.464   3.336  1.00  0.00     0.116 C 
BRANCH  75  76
ATOM     76  N   UNL     1       6.962  -4.583   4.154  1.00  0.00    -0.356 N 
ATOM     77  C   UNL     1       7.668  -5.685   4.484  1.00  0.00     0.224 C 
ATOM     78  H   UNL     1       6.050  -4.537   4.521  1.00  0.00     0.163 HD
ATOM     79  O   UNL     1       7.051  -6.750   4.396  1.00  0.00    -0.275 OA
BRANCH  77  80
ATOM     80  C   UNL     1       9.129  -5.634   4.874  1.00  0.00     0.094 C 
ATOM     81  C   UNL     1       9.805  -4.411   5.573  1.00  0.00     0.002 C 
ATOM     82  C   UNL     1       9.576  -6.928   5.583  1.00  0.00     0.094 C 
ATOM     83  C   UNL     1       9.917  -4.489   7.114  1.00  0.00     0.005 C 
ATOM     84  C   UNL     1      11.283  -4.448   5.116  1.00  0.00     0.005 C 
ATOM     85  C   UNL     1      10.892  -6.647   6.365  1.00  0.00     0.002 C 
ATOM     86  C   UNL     1      10.589  -5.782   7.583  1.00  0.00     0.005 C 
ATOM     87  C   UNL     1      11.878  -5.828   5.478  1.00  0.00     0.005 C 
BRANCH  82  88
ATOM     88  C   UNL     1       8.581  -7.881   6.324  1.00  0.00     0.228 C 
ATOM     89  O   UNL     1       8.719  -9.099   6.103  1.00  0.00    -0.274 OA
ATOM     90  N   UNL     1       7.679  -7.601   7.315  1.00  0.00    -0.326 N 
ATOM     91  H   UNL     1       7.233  -8.409   7.658  1.00  0.00     0.169 HD
BRANCH  90  92
ATOM     92  C   UNL     1       7.243  -6.436   7.955  1.00  0.00     0.041 A 
ATOM     93  C   UNL     1       7.396  -6.338   9.333  1.00  0.00     0.027 A 
ATOM     94  C   UNL     1       6.611  -5.386   7.310  1.00  0.00     0.027 A 
ATOM     95  C   UNL     1       7.255  -5.091   9.960  1.00  0.00     0.016 A 
ATOM     96  C   UNL     1       6.481  -4.126   7.918  1.00  0.00     0.016 A 
ATOM     97  C   UNL     1       6.921  -3.937   9.225  1.00  0.00     0.040 A 
BRANCH  97  98
ATOM     98  C   UNL     1       7.311  -2.620   9.844  1.00  0.00     0.253 C 
ATOM     99  O   UNL     1       7.577  -2.613  11.048  1.00  0.00    -0.269 OA
ATOM    100  N   UNL     1       7.663  -1.542   9.043  1.00  0.00    -0.339 N 
ATOM    101  C   UNL     1       6.879  -0.832   8.051  1.00  0.00     0.120 C 
ATOM    102  C   UNL     1       8.819  -0.733   9.411  1.00  0.00     0.120 C 
ATOM    103  C   UNL     1       7.939  -0.086   7.260  1.00  0.00     0.023 C 
ATOM    104  C   UNL     1       8.911   0.361   8.348  1.00  0.00     0.023 C 
ENDBRANCH  97  98
ENDBRANCH  90  92
ENDBRANCH  82  88
ENDBRANCH  77  80
ENDBRANCH  75  76
ENDBRANCH  74  75
ENDBRANCH   1  74
TORSDOF 16
