REMARK SMILES C[C@@H](C(=O)NCCCCCCNC(=O)c1ccc(-c2c3nc(c(-c4c(F)c(F)c(F)c(F)c4F)c4ccc([nH]4)c(-c4c(F)c(F)c(F)c(F)c4F)c4nc(c(-c5c(F)c(F)c(F)c(F)c5F)c5ccc2[nH]5)C=C4)C=C3)cc1)c1ccc(-c2cccc(OC(=O)NC3CC3)c2)c(F)c1
REMARK SMILES IDX 7 1 6 2 5 3 3 4 4 5 2 7 1 8 78 9 79 10 97 11 80 12 95 13
REMARK SMILES IDX 81 14 96 15 82 16 83 17 94 18 84 19 86 20 85 21 87 22 88 23
REMARK SMILES IDX 89 24 90 25 91 27 92 28 93 29 8 30 9 31 10 32 11 33 12 34
REMARK SMILES IDX 13 35 14 37 15 38 16 39 77 40 17 41 76 42 18 43 19 44 20 45
REMARK SMILES IDX 70 46 21 47 75 48 69 49 71 50 22 51 74 52 68 53 67 54 23 56
REMARK SMILES IDX 55 57 35 58 54 59 36 60 39 61 53 62 72 63 37 64 38 65 52 67
REMARK SMILES IDX 73 68 40 69 24 70 25 71 33 72 26 73 27 74 31 75 34 76 28 77
REMARK SMILES IDX 29 78 32 79 30 80 56 81 57 82 65 83 58 84 59 85 63 86 66 87
REMARK SMILES IDX 60 88 61 89 64 90 62 91 41 92 42 93 50 94 43 95 44 96 48 97
REMARK SMILES IDX 51 98 45 99 46 100 49 101 47 102
REMARK H PARENT 5 6 90 26 12 36 71 55 39 66
REMARK Flexibility Score: inf
ROOT
ATOM      1  C   UNL     1       4.246   1.428  -0.706  1.00  0.00     0.021 C 
ENDROOT
BRANCH   1   2
ATOM      2  C   UNL     1       3.412   1.917   0.483  1.00  0.00     0.116 C 
BRANCH   2   3
ATOM      3  N   UNL     1       2.340   2.763   0.005  1.00  0.00    -0.356 N 
ATOM      4  C   UNL     1       1.056   2.410  -0.296  1.00  0.00     0.227 C 
ATOM      5  O   UNL     1       0.451   3.137  -1.086  1.00  0.00    -0.274 OA
ATOM      6  H   UNL     1       2.564   3.713  -0.118  1.00  0.00     0.163 HD
BRANCH   4   7
ATOM      7  C   UNL     1       0.439   1.174   0.383  1.00  0.00     0.105 C 
ATOM      8  C   UNL     1       0.903  -0.094  -0.349  1.00  0.00     0.023 C 
BRANCH   7   9
ATOM      9  C   UNL     1      -1.085   1.240   0.514  1.00  0.00    -0.033 A 
ATOM     10  C   UNL     1      -1.757   2.464   0.679  1.00  0.00     0.005 A 
ATOM     11  C   UNL     1      -1.860   0.071   0.518  1.00  0.00     0.044 A 
ATOM     12  C   UNL     1      -3.152   2.526   0.745  1.00  0.00     0.012 A 
ATOM     13  C   UNL     1      -3.245   0.136   0.594  1.00  0.00     0.131 A 
ATOM     14  C   UNL     1      -3.918   1.357   0.696  1.00  0.00     0.018 A 
ATOM     15  F   UNL     1      -3.929  -1.019   0.575  1.00  0.00    -0.206 F 
BRANCH  14  16
ATOM     16  C   UNL     1      -5.370   1.400   0.848  1.00  0.00    -0.012 A 
ATOM     17  C   UNL     1      -6.203   2.041  -0.080  1.00  0.00     0.009 A 
ATOM     18  C   UNL     1      -5.947   0.780   1.965  1.00  0.00     0.056 A 
ATOM     19  C   UNL     1      -7.587   2.050   0.103  1.00  0.00     0.004 A 
ATOM     20  C   UNL     1      -7.321   0.790   2.147  1.00  0.00     0.133 A 
ATOM     21  C   UNL     1      -8.148   1.424   1.218  1.00  0.00     0.047 A 
BRANCH  20  22
ATOM     22  O   UNL     1      -7.970   0.188   3.250  1.00  0.00    -0.410 OA
BRANCH  22  23
ATOM     23  C   UNL     1      -7.374  -0.637   4.200  1.00  0.00     0.412 C 
ATOM     24  O   UNL     1      -6.180  -0.917   4.283  1.00  0.00    -0.224 OA
ATOM     25  N   UNL     1      -8.254  -1.173   5.101  1.00  0.00    -0.318 N 
ATOM     26  H   UNL     1      -7.858  -1.788   5.759  1.00  0.00     0.167 HD
BRANCH  25  27
ATOM     27  C   UNL     1      -9.657  -0.971   5.227  1.00  0.00     0.085 C 
ATOM     28  C   UNL     1     -10.617  -0.600   4.133  1.00  0.00     0.027 C 
ATOM     29  C   UNL     1     -10.581  -2.007   4.641  1.00  0.00     0.027 C 
ENDBRANCH  25  27
ENDBRANCH  22  23
ENDBRANCH  20  22
ENDBRANCH  14  16
ENDBRANCH   7   9
ENDBRANCH   4   7
ENDBRANCH   2   3
ENDBRANCH   1   2
BRANCH   1  30
ATOM     30  C   UNL     1       4.996   2.549  -1.434  1.00  0.00     0.002 C 
BRANCH  30  31
ATOM     31  C   UNL     1       5.957   3.344  -0.549  1.00  0.00     0.002 C 
BRANCH  31  32
ATOM     32  C   UNL     1       6.989   2.487   0.188  1.00  0.00     0.021 C 
BRANCH  32  33
ATOM     33  C   UNL     1       7.866   1.640  -0.728  1.00  0.00     0.116 C 
BRANCH  33  34
ATOM     34  N   UNL     1       8.653   2.462  -1.631  1.00  0.00    -0.352 N 
ATOM     35  C   UNL     1      10.010   2.502  -1.817  1.00  0.00     0.251 C 
ATOM     36  H   UNL     1       8.135   3.084  -2.191  1.00  0.00     0.163 HD
ATOM     37  O   UNL     1      10.516   3.425  -2.449  1.00  0.00    -0.269 OA
BRANCH  35  38
ATOM     38  C   UNL     1      10.870   1.445  -1.244  1.00  0.00     0.039 A 
ATOM     39  C   UNL     1      12.084   1.815  -0.664  1.00  0.00     0.014 A 
ATOM     40  C   UNL     1      10.500   0.097  -1.298  1.00  0.00     0.014 A 
ATOM     41  C   UNL     1      12.902   0.840  -0.093  1.00  0.00     0.010 A 
ATOM     42  C   UNL     1      11.279  -0.865  -0.659  1.00  0.00     0.010 A 
ATOM     43  C   UNL     1      12.491  -0.503  -0.053  1.00  0.00    -0.014 A 
BRANCH  43  44
ATOM     44  C   UNL     1      13.319  -1.522   0.642  1.00  0.00     0.031 A 
ATOM     45  C   UNL     1      13.938  -2.660  -0.120  1.00  0.00     0.074 A 
ATOM     46  C   UNL     1      13.494  -1.426   1.975  1.00  0.00     0.049 A 
ATOM     47  N   UNL     1      14.694  -3.635   0.322  1.00  0.00    -0.248 NA
ATOM     48  C   UNL     1      13.659  -2.728  -1.563  1.00  0.00     0.031 C 
ATOM     49  C   UNL     1      12.899  -0.398   2.832  1.00  0.00     0.029 A 
ATOM     50  N   UNL     1      14.223  -2.199   2.844  1.00  0.00    -0.354 N 
ATOM     51  C   UNL     1      14.986  -4.421  -0.785  1.00  0.00     0.074 A 
ATOM     52  C   UNL     1      14.273  -3.851  -1.907  1.00  0.00     0.031 C 
ATOM     53  C   UNL     1      13.311  -0.585   4.096  1.00  0.00     0.029 A 
ATOM     54  C   UNL     1      14.165  -1.767   4.147  1.00  0.00     0.049 A 
ATOM     55  H   UNL     1      14.739  -2.987   2.560  1.00  0.00     0.167 HD
ATOM     56  C   UNL     1      15.799  -5.501  -0.864  1.00  0.00     0.037 A 
ATOM     57  C   UNL     1      14.730  -2.272   5.259  1.00  0.00     0.037 A 
ATOM     58  C   UNL     1      16.512  -6.064   0.255  1.00  0.00     0.049 A 
ATOM     59  C   UNL     1      15.611  -3.487   5.142  1.00  0.00     0.074 A 
ATOM     60  C   UNL     1      17.385  -7.138   0.270  1.00  0.00     0.029 A 
ATOM     61  N   UNL     1      16.431  -5.598   1.559  1.00  0.00    -0.354 N 
ATOM     62  N   UNL     1      15.935  -4.178   4.076  1.00  0.00    -0.248 NA
ATOM     63  C   UNL     1      16.215  -3.987   6.385  1.00  0.00     0.031 C 
ATOM     64  C   UNL     1      17.792  -7.354   1.590  1.00  0.00     0.029 A 
ATOM     65  C   UNL     1      17.222  -6.378   2.389  1.00  0.00     0.049 A 
ATOM     66  H   UNL     1      15.892  -4.828   1.851  1.00  0.00     0.167 HD
ATOM     67  C   UNL     1      16.798  -5.173   4.514  1.00  0.00     0.074 A 
ATOM     68  C   UNL     1      16.973  -4.976   5.937  1.00  0.00     0.031 C 
ATOM     69  C   UNL     1      17.387  -6.168   3.805  1.00  0.00     0.037 A 
BRANCH  56  70
ATOM     70  C   UNL     1      15.982  -6.144  -2.210  1.00  0.00     0.064 A 
ATOM     71  C   UNL     1      16.695  -5.503  -3.235  1.00  0.00     0.173 A 
ATOM     72  C   UNL     1      15.502  -7.439  -2.457  1.00  0.00     0.173 A 
ATOM     73  F   UNL     1      17.166  -4.260  -3.055  1.00  0.00    -0.203 F 
ATOM     74  C   UNL     1      16.906  -6.128  -4.462  1.00  0.00     0.198 A 
ATOM     75  C   UNL     1      15.742  -8.073  -3.674  1.00  0.00     0.198 A 
ATOM     76  F   UNL     1      14.819  -8.099  -1.510  1.00  0.00    -0.203 F 
ATOM     77  F   UNL     1      17.559  -5.481  -5.438  1.00  0.00    -0.200 F 
ATOM     78  C   UNL     1      16.440  -7.416  -4.676  1.00  0.00     0.200 A 
ATOM     79  F   UNL     1      15.304  -9.324  -3.873  1.00  0.00    -0.200 F 
ATOM     80  F   UNL     1      16.660  -8.023  -5.850  1.00  0.00    -0.200 F 
ENDBRANCH  56  70
BRANCH  57  81
ATOM     81  C   UNL     1      14.488  -1.635   6.582  1.00  0.00     0.064 A 
ATOM     82  C   UNL     1      15.529  -1.029   7.300  1.00  0.00     0.173 A 
ATOM     83  C   UNL     1      13.216  -1.655   7.175  1.00  0.00     0.173 A 
ATOM     84  F   UNL     1      16.767  -0.999   6.785  1.00  0.00    -0.203 F 
ATOM     85  C   UNL     1      15.318  -0.507   8.574  1.00  0.00     0.198 A 
ATOM     86  C   UNL     1      12.998  -1.098   8.433  1.00  0.00     0.198 A 
ATOM     87  F   UNL     1      12.182  -2.214   6.529  1.00  0.00    -0.203 F 
ATOM     88  F   UNL     1      16.347   0.000   9.266  1.00  0.00    -0.200 F 
ATOM     89  C   UNL     1      14.052  -0.539   9.138  1.00  0.00     0.200 A 
ATOM     90  F   UNL     1      11.768  -1.114   8.965  1.00  0.00    -0.200 F 
ATOM     91  F   UNL     1      13.850  -0.042  10.366  1.00  0.00    -0.200 F 
ENDBRANCH  57  81
BRANCH  69  92
ATOM     92  C   UNL     1      18.298  -7.097   4.558  1.00  0.00     0.064 A 
ATOM     93  C   UNL     1      17.805  -8.000   5.513  1.00  0.00     0.173 A 
ATOM     94  C   UNL     1      19.680  -7.087   4.317  1.00  0.00     0.173 A 
ATOM     95  F   UNL     1      16.493  -8.040   5.791  1.00  0.00    -0.203 F 
ATOM     96  C   UNL     1      18.668  -8.825   6.230  1.00  0.00     0.198 A 
ATOM     97  C   UNL     1      20.535  -7.942   5.008  1.00  0.00     0.198 A 
ATOM     98  F   UNL     1      20.204  -6.252   3.408  1.00  0.00    -0.203 F 
ATOM     99  F   UNL     1      18.181  -9.627   7.187  1.00  0.00    -0.200 F 
ATOM    100  C   UNL     1      20.030  -8.799   5.974  1.00  0.00     0.200 A 
ATOM    101  F   UNL     1      21.849  -7.928   4.747  1.00  0.00    -0.200 F 
ATOM    102  F   UNL     1      20.858  -9.594   6.665  1.00  0.00    -0.200 F 
ENDBRANCH  69  92
ENDBRANCH  43  44
ENDBRANCH  35  38
ENDBRANCH  33  34
ENDBRANCH  32  33
ENDBRANCH  31  32
ENDBRANCH  30  31
ENDBRANCH   1  30
TORSDOF 18
