REMARK SMILES CC(C)(C)OC(=O)N1C[C@H](Oc2ccncc2)C[C@H]1C(=O)NCCCCCCNC(=O)c1ccc(-c2c3nc(c(-c4c(F)c(F)c(F)c(F)c4F)c4ccc([nH]4)c(-c4c(F)c(F)c(F)c(F)c4F)c4nc(c(-c5c(F)c(F)c(F)c(F)c5F)c5ccc2[nH]5)C=C4)C=C3)cc1
REMARK SMILES IDX 25 1 24 2 23 3 22 4 20 5 21 6 19 8 8 9 9 10 10 11 18 12 6 13
REMARK SMILES IDX 7 14 5 15 2 16 1 17 3 18 4 19 11 20 12 21 13 22 17 23 14 24
REMARK SMILES IDX 16 25 15 26 26 27 27 28 28 29 29 30 30 31 31 33 32 34 33 35
REMARK SMILES IDX 94 36 34 37 93 38 35 39 36 40 37 41 87 42 38 43 92 44 86 45
REMARK SMILES IDX 88 46 39 47 91 48 85 49 84 50 40 52 72 53 52 54 71 55 53 56
REMARK SMILES IDX 56 57 70 58 89 59 54 60 55 61 69 63 90 64 57 65 41 66 42 67
REMARK SMILES IDX 50 68 43 69 44 70 48 71 51 72 45 73 46 74 49 75 47 76 73 77
REMARK SMILES IDX 74 78 82 79 75 80 76 81 80 82 83 83 77 84 78 85 81 86 79 87
REMARK SMILES IDX 58 88 59 89 67 90 60 91 61 92 65 93 68 94 62 95 63 96 66 97
REMARK SMILES IDX 64 98
REMARK H PARENT 22 7 29 32 88 51 56 62
REMARK Flexibility Score: inf
ROOT
ATOM      1  C   UNL     1       0.058  -2.604  10.779  1.00  0.00     0.002 C 
ENDROOT
BRANCH   1   2
ATOM      2  C   UNL     1       0.163  -3.257   9.393  1.00  0.00     0.021 C 
BRANCH   2   3
ATOM      3  C   UNL     1      -0.809  -2.680   8.358  1.00  0.00     0.116 C 
BRANCH   3   4
ATOM      4  N   UNL     1      -0.419  -1.331   8.000  1.00  0.00    -0.354 N 
ATOM      5  C   UNL     1       0.263  -0.882   6.903  1.00  0.00     0.243 C 
ATOM      6  O   UNL     1       0.732   0.257   6.955  1.00  0.00    -0.273 OA
ATOM      7  H   UNL     1      -0.685  -0.634   8.642  1.00  0.00     0.163 HD
BRANCH   5   8
ATOM      8  C   UNL     1       0.428  -1.808   5.676  1.00  0.00     0.181 C 
ATOM      9  N   UNL     1       1.059  -1.103   4.563  1.00  0.00    -0.292 N 
ATOM     10  C   UNL     1       2.401  -1.589   4.309  1.00  0.00     0.169 C 
ATOM     11  C   UNL     1       2.354  -3.033   4.791  1.00  0.00     0.195 C 
ATOM     12  C   UNL     1       1.369  -2.993   5.965  1.00  0.00     0.082 C 
BRANCH   9  13
ATOM     13  C   UNL     1       0.370  -0.196   3.800  1.00  0.00     0.411 C 
ATOM     14  O   UNL     1      -0.748   0.211   4.083  1.00  0.00    -0.224 OA
BRANCH  13  15
ATOM     15  O   UNL     1       1.058   0.120   2.676  1.00  0.00    -0.444 OA
BRANCH  15  16
ATOM     16  C   UNL     1       0.559   1.028   1.661  1.00  0.00     0.106 C 
ATOM     17  C   UNL     1       1.280   0.598   0.374  1.00  0.00     0.056 C 
ATOM     18  C   UNL     1       0.989   2.447   2.034  1.00  0.00     0.056 C 
ATOM     19  C   UNL     1      -0.952   0.951   1.412  1.00  0.00     0.056 C 
ENDBRANCH  15  16
ENDBRANCH  13  15
ENDBRANCH   9  13
BRANCH  11  20
ATOM     20  O   UNL     1       2.062  -4.037   3.800  1.00  0.00    -0.488 OA
BRANCH  20  21
ATOM     21  C   UNL     1       0.892  -3.933   3.104  1.00  0.00     0.122 A 
ATOM     22  C   UNL     1       0.802  -3.133   1.974  1.00  0.00     0.066 A 
ATOM     23  C   UNL     1      -0.170  -4.760   3.445  1.00  0.00     0.066 A 
ATOM     24  C   UNL     1      -0.396  -3.117   1.281  1.00  0.00     0.115 A 
ATOM     25  C   UNL     1      -1.321  -4.688   2.679  1.00  0.00     0.115 A 
ATOM     26  N   UNL     1      -1.464  -3.872   1.613  1.00  0.00    -0.264 NA
ENDBRANCH  20  21
ENDBRANCH  11  20
ENDBRANCH   5   8
ENDBRANCH   3   4
ENDBRANCH   2   3
ENDBRANCH   1   2
BRANCH   1  27
ATOM     27  C   UNL     1      -1.280  -2.816  11.496  1.00  0.00     0.002 C 
BRANCH  27  28
ATOM     28  C   UNL     1      -1.682  -4.279  11.700  1.00  0.00     0.021 C 
BRANCH  28  29
ATOM     29  C   UNL     1      -0.688  -5.110  12.506  1.00  0.00     0.116 C 
BRANCH  29  30
ATOM     30  N   UNL     1      -0.573  -4.651  13.881  1.00  0.00    -0.352 N 
ATOM     31  C   UNL     1      -0.695  -5.360  15.050  1.00  0.00     0.251 C 
ATOM     32  H   UNL     1      -0.380  -3.691  13.990  1.00  0.00     0.163 HD
ATOM     33  O   UNL     1      -0.746  -4.775  16.127  1.00  0.00    -0.269 OA
BRANCH  31  34
ATOM     34  C   UNL     1      -0.784  -6.836  15.013  1.00  0.00     0.039 A 
ATOM     35  C   UNL     1      -1.750  -7.473  15.797  1.00  0.00     0.014 A 
ATOM     36  C   UNL     1       0.090  -7.589  14.223  1.00  0.00     0.014 A 
ATOM     37  C   UNL     1      -1.879  -8.863  15.744  1.00  0.00     0.010 A 
ATOM     38  C   UNL     1      -0.081  -8.968  14.124  1.00  0.00     0.010 A 
ATOM     39  C   UNL     1      -1.065  -9.618  14.884  1.00  0.00    -0.014 A 
BRANCH  39  40
ATOM     40  C   UNL     1      -1.230 -11.088  14.764  1.00  0.00     0.031 A 
ATOM     41  C   UNL     1      -0.133 -12.011  15.212  1.00  0.00     0.074 A 
ATOM     42  C   UNL     1      -2.338 -11.588  14.185  1.00  0.00     0.049 A 
ATOM     43  N   UNL     1      -0.055 -13.314  15.115  1.00  0.00    -0.248 NA
ATOM     44  C   UNL     1       1.046 -11.382  15.826  1.00  0.00     0.031 C 
ATOM     45  C   UNL     1      -3.450 -10.793  13.663  1.00  0.00     0.029 A 
ATOM     46  N   UNL     1      -2.703 -12.885  13.923  1.00  0.00    -0.354 N 
ATOM     47  C   UNL     1       1.182 -13.658  15.643  1.00  0.00     0.074 A 
ATOM     48  C   UNL     1       1.843 -12.424  16.011  1.00  0.00     0.031 C 
ATOM     49  C   UNL     1      -4.376 -11.618  13.150  1.00  0.00     0.029 A 
ATOM     50  C   UNL     1      -3.910 -12.996  13.279  1.00  0.00     0.049 A 
ATOM     51  H   UNL     1      -2.151 -13.661  14.173  1.00  0.00     0.167 HD
ATOM     52  C   UNL     1       1.709 -14.893  15.827  1.00  0.00     0.037 A 
ATOM     53  C   UNL     1      -4.564 -14.086  12.834  1.00  0.00     0.037 A 
ATOM     54  C   UNL     1       1.042 -16.120  15.478  1.00  0.00     0.049 A 
ATOM     55  C   UNL     1      -3.963 -15.447  13.056  1.00  0.00     0.074 A 
ATOM     56  C   UNL     1       1.469 -17.422  15.673  1.00  0.00     0.029 A 
ATOM     57  N   UNL     1      -0.198 -16.194  14.859  1.00  0.00    -0.354 N 
ATOM     58  N   UNL     1      -2.821 -15.764  13.614  1.00  0.00    -0.248 NA
ATOM     59  C   UNL     1      -4.748 -16.601  12.596  1.00  0.00     0.031 C 
ATOM     60  C   UNL     1       0.505 -18.284  15.138  1.00  0.00     0.029 A 
ATOM     61  C   UNL     1      -0.543 -17.520  14.649  1.00  0.00     0.049 A 
ATOM     62  H   UNL     1      -0.750 -15.420  14.607  1.00  0.00     0.167 HD
ATOM     63  C   UNL     1      -2.756 -17.150  13.591  1.00  0.00     0.074 A 
ATOM     64  C   UNL     1      -3.984 -17.615  12.978  1.00  0.00     0.031 C 
ATOM     65  C   UNL     1      -1.769 -17.965  14.036  1.00  0.00     0.037 A 
BRANCH  52  66
ATOM     66  C   UNL     1       3.078 -14.973  16.438  1.00  0.00     0.064 A 
ATOM     67  C   UNL     1       3.300 -14.647  17.785  1.00  0.00     0.173 A 
ATOM     68  C   UNL     1       4.177 -15.396  15.676  1.00  0.00     0.173 A 
ATOM     69  F   UNL     1       2.284 -14.225  18.553  1.00  0.00    -0.203 F 
ATOM     70  C   UNL     1       4.577 -14.709  18.337  1.00  0.00     0.198 A 
ATOM     71  C   UNL     1       5.448 -15.486  16.240  1.00  0.00     0.198 A 
ATOM     72  F   UNL     1       4.020 -15.725  14.385  1.00  0.00    -0.203 F 
ATOM     73  F   UNL     1       4.773 -14.340  19.610  1.00  0.00    -0.200 F 
ATOM     74  C   UNL     1       5.648 -15.133  17.566  1.00  0.00     0.200 A 
ATOM     75  F   UNL     1       6.481 -15.906  15.496  1.00  0.00    -0.200 F 
ATOM     76  F   UNL     1       6.876 -15.193  18.099  1.00  0.00    -0.200 F 
ENDBRANCH  52  66
BRANCH  53  77
ATOM     77  C   UNL     1      -5.873 -13.929  12.150  1.00  0.00     0.064 A 
ATOM     78  C   UNL     1      -7.065 -14.312  12.780  1.00  0.00     0.173 A 
ATOM     79  C   UNL     1      -5.960 -13.377  10.864  1.00  0.00     0.173 A 
ATOM     80  F   UNL     1      -7.028 -14.863  14.002  1.00  0.00    -0.203 F 
ATOM     81  C   UNL     1      -8.294 -14.162  12.143  1.00  0.00     0.198 A 
ATOM     82  C   UNL     1      -7.193 -13.204  10.239  1.00  0.00     0.198 A 
ATOM     83  F   UNL     1      -4.848 -12.988  10.223  1.00  0.00    -0.203 F 
ATOM     84  F   UNL     1      -9.416 -14.570  12.752  1.00  0.00    -0.200 F 
ATOM     85  C   UNL     1      -8.358 -13.602  10.876  1.00  0.00     0.200 A 
ATOM     86  F   UNL     1      -7.251 -12.649   9.021  1.00  0.00    -0.200 F 
ATOM     87  F   UNL     1      -9.542 -13.450  10.267  1.00  0.00    -0.200 F 
ENDBRANCH  53  77
BRANCH  65  88
ATOM     88  C   UNL     1      -1.984 -19.443  13.896  1.00  0.00     0.064 A 
ATOM     89  C   UNL     1      -1.906 -20.081  12.650  1.00  0.00     0.173 A 
ATOM     90  C   UNL     1      -2.231 -20.236  15.027  1.00  0.00     0.173 A 
ATOM     91  F   UNL     1      -1.688 -19.363  11.537  1.00  0.00    -0.203 F 
ATOM     92  C   UNL     1      -2.089 -21.456  12.538  1.00  0.00     0.198 A 
ATOM     93  C   UNL     1      -2.387 -21.614  14.915  1.00  0.00     0.198 A 
ATOM     94  F   UNL     1      -2.309 -19.674  16.243  1.00  0.00    -0.203 F 
ATOM     95  F   UNL     1      -2.053 -22.039  11.332  1.00  0.00    -0.200 F 
ATOM     96  C   UNL     1      -2.322 -22.223  13.671  1.00  0.00     0.200 A 
ATOM     97  F   UNL     1      -2.601 -22.355  16.012  1.00  0.00    -0.200 F 
ATOM     98  F   UNL     1      -2.492 -23.547  13.561  1.00  0.00    -0.200 F 
ENDBRANCH  65  88
ENDBRANCH  39  40
ENDBRANCH  31  34
ENDBRANCH  29  30
ENDBRANCH  28  29
ENDBRANCH  27  28
ENDBRANCH   1  27
TORSDOF 18
