REMARK SMILES Cc1ccccc1/[NH+]=C1\S[C@@H](CC(=O)Nc2ccc(C(=O)NCCCCCCNC(=O)c3ccc(-c4c5nc(c(-c6c(F)c(F)c(F)c(F)c6F)c6ccc([nH]6)c(-c6c(F)c(F)c(F)c(F)c6F)c6nc(c(-c7c(F)c(F)c(F)c(F)c7F)c7ccc4[nH]7)C=C6)C=C5)cc3)cc2)C(=O)N1C
REMARK SMILES IDX 24 1 23 2 22 3 20 4 21 5 19 7 16 8 17 9 96 10 18 11 95 12
REMARK SMILES IDX 15 13 13 14 14 15 12 17 11 18 8 19 9 20 10 22 99 23 97 24
REMARK SMILES IDX 100 25 98 26 7 27 1 28 2 29 3 30 4 31 6 32 5 33 25 34 26 35
REMARK SMILES IDX 27 36 28 37 29 38 30 39 31 41 32 42 33 43 94 44 34 45 93 46
REMARK SMILES IDX 35 47 36 48 37 49 87 50 38 51 92 52 86 53 88 54 39 55 91 56
REMARK SMILES IDX 85 57 84 58 40 60 72 61 52 62 71 63 53 64 56 65 70 66 89 67
REMARK SMILES IDX 54 68 55 69 69 71 90 72 57 73 41 74 42 75 50 76 43 77 44 78
REMARK SMILES IDX 48 79 51 80 45 81 46 82 49 83 47 84 73 85 74 86 82 87 75 88
REMARK SMILES IDX 76 89 80 90 83 91 77 92 78 93 81 94 79 95 58 96 59 97 67 98
REMARK SMILES IDX 60 99 61 100 65 101 68 102 62 103 63 104 66 105 64 106
REMARK H PARENT 22 6 15 16 8 21 29 40 88 59 56 70
REMARK Flexibility Score: inf
ROOT
ATOM      1  C   UNL     1       2.067   6.267  -2.268  1.00  0.00     0.021 C 
ENDROOT
BRANCH   1   2
ATOM      2  C   UNL     1       3.126   5.371  -2.920  1.00  0.00     0.116 C 
BRANCH   2   3
ATOM      3  N   UNL     1       4.202   6.151  -3.516  1.00  0.00    -0.352 N 
ATOM      4  C   UNL     1       5.547   6.229  -3.239  1.00  0.00     0.251 C 
ATOM      5  O   UNL     1       6.277   6.832  -4.024  1.00  0.00    -0.269 OA
ATOM      6  H   UNL     1       3.912   6.731  -4.257  1.00  0.00     0.163 HD
BRANCH   4   7
ATOM      7  C   UNL     1       6.158   5.586  -2.048  1.00  0.00     0.039 A 
ATOM      8  C   UNL     1       7.323   4.211   0.093  1.00  0.00     0.041 A 
ATOM      9  C   UNL     1       6.089   4.843   0.238  1.00  0.00     0.027 A 
ATOM     10  C   UNL     1       8.063   4.410  -1.064  1.00  0.00     0.027 A 
ATOM     11  C   UNL     1       5.504   5.531  -0.821  1.00  0.00     0.016 A 
ATOM     12  C   UNL     1       7.470   5.085  -2.141  1.00  0.00     0.016 A 
BRANCH   8  13
ATOM     13  N   UNL     1       7.787   3.352   1.097  1.00  0.00    -0.326 N 
ATOM     14  C   UNL     1       7.119   2.238   1.564  1.00  0.00     0.226 C 
ATOM     15  O   UNL     1       7.451   1.692   2.615  1.00  0.00    -0.275 OA
ATOM     16  H   UNL     1       8.659   3.559   1.503  1.00  0.00     0.169 HD
BRANCH  14  17
ATOM     17  C   UNL     1       6.106   1.589   0.631  1.00  0.00     0.128 C 
BRANCH  17  18
ATOM     18  C   UNL     1       4.679   1.537   1.129  1.00  0.00     0.183 C 
ATOM     19  N   UNL     1       1.017   1.856   0.605  1.00  0.00    -0.234 N 
ATOM     20  C   UNL     1       2.281   2.063   0.535  1.00  0.00     0.319 C 
ATOM     21  H   UNL     1       0.502   2.556   1.068  1.00  0.00     0.313 HD
ATOM     22  S   UNL     1       3.543   1.199  -0.275  1.00  0.00    -0.022 SA
ATOM     23  N   UNL     1       2.852   3.083   1.235  1.00  0.00    -0.193 N 
ATOM     24  C   UNL     1       4.103   2.802   1.740  1.00  0.00     0.324 C 
ATOM     25  C   UNL     1       2.131   4.267   1.656  1.00  0.00     0.301 C 
ATOM     26  O   UNL     1       4.628   3.422   2.657  1.00  0.00    -0.245 OA
BRANCH  19  27
ATOM     27  C   UNL     1       0.260   0.779   0.120  1.00  0.00     0.128 A 
ATOM     28  C   UNL     1       1.818  -1.188   0.765  1.00  0.00     0.049 C 
ATOM     29  C   UNL     1       0.538  -0.600   0.242  1.00  0.00    -0.004 A 
ATOM     30  C   UNL     1      -0.447  -1.541  -0.128  1.00  0.00     0.008 A 
ATOM     31  C   UNL     1      -1.720  -1.144  -0.523  1.00  0.00     0.001 A 
ATOM     32  C   UNL     1      -1.034   1.149  -0.297  1.00  0.00     0.052 A 
ATOM     33  C   UNL     1      -2.019   0.207  -0.600  1.00  0.00     0.004 A 
ENDBRANCH  19  27
ENDBRANCH  17  18
ENDBRANCH  14  17
ENDBRANCH   8  13
ENDBRANCH   4   7
ENDBRANCH   2   3
ENDBRANCH   1   2
BRANCH   1  34
ATOM     34  C   UNL     1       1.100   6.959  -3.245  1.00  0.00     0.002 C 
BRANCH  34  35
ATOM     35  C   UNL     1       0.284   6.046  -4.177  1.00  0.00     0.002 C 
BRANCH  35  36
ATOM     36  C   UNL     1      -0.497   4.920  -3.496  1.00  0.00     0.021 C 
BRANCH  36  37
ATOM     37  C   UNL     1      -1.740   5.385  -2.744  1.00  0.00     0.116 C 
BRANCH  37  38
ATOM     38  N   UNL     1      -2.952   5.414  -3.556  1.00  0.00    -0.352 N 
ATOM     39  C   UNL     1      -4.231   5.853  -3.249  1.00  0.00     0.251 C 
ATOM     40  H   UNL     1      -2.845   5.065  -4.471  1.00  0.00     0.163 HD
ATOM     41  O   UNL     1      -5.131   5.718  -4.060  1.00  0.00    -0.269 OA
BRANCH  39  42
ATOM     42  C   UNL     1      -4.476   6.609  -1.994  1.00  0.00     0.039 A 
ATOM     43  C   UNL     1      -5.301   7.744  -2.054  1.00  0.00     0.014 A 
ATOM     44  C   UNL     1      -3.772   6.330  -0.830  1.00  0.00     0.014 A 
ATOM     45  C   UNL     1      -5.211   8.717  -1.059  1.00  0.00     0.010 A 
ATOM     46  C   UNL     1      -3.598   7.333   0.099  1.00  0.00     0.010 A 
ATOM     47  C   UNL     1      -4.262   8.555  -0.054  1.00  0.00    -0.014 A 
BRANCH  47  48
ATOM     48  C   UNL     1      -3.791   9.619   0.821  1.00  0.00     0.031 A 
ATOM     49  C   UNL     1      -4.077   9.585   2.271  1.00  0.00     0.074 A 
ATOM     50  C   UNL     1      -2.906  10.520   0.335  1.00  0.00     0.049 A 
ATOM     51  N   UNL     1      -3.827  10.564   3.072  1.00  0.00    -0.248 NA
ATOM     52  C   UNL     1      -4.740   8.467   2.931  1.00  0.00     0.031 C 
ATOM     53  C   UNL     1      -1.976  11.345   1.103  1.00  0.00     0.029 A 
ATOM     54  N   UNL     1      -2.792  11.004  -0.980  1.00  0.00    -0.354 N 
ATOM     55  C   UNL     1      -4.021  10.126   4.359  1.00  0.00     0.074 A 
ATOM     56  C   UNL     1      -4.713   8.869   4.207  1.00  0.00     0.031 C 
ATOM     57  C   UNL     1      -1.604  12.394   0.356  1.00  0.00     0.029 A 
ATOM     58  C   UNL     1      -2.413  12.366  -0.847  1.00  0.00     0.049 A 
ATOM     59  H   UNL     1      -2.943  10.505  -1.815  1.00  0.00     0.167 HD
ATOM     60  C   UNL     1      -3.465  10.847   5.377  1.00  0.00     0.037 A 
ATOM     61  C   UNL     1      -3.235  13.376  -1.257  1.00  0.00     0.037 A 
ATOM     62  C   UNL     1      -2.946  12.130   4.888  1.00  0.00     0.049 A 
ATOM     63  C   UNL     1      -3.652  14.352  -0.176  1.00  0.00     0.074 A 
ATOM     64  C   UNL     1      -1.691  12.670   4.668  1.00  0.00     0.029 A 
ATOM     65  N   UNL     1      -3.844  13.023   4.333  1.00  0.00    -0.354 N 
ATOM     66  N   UNL     1      -3.357  14.218   1.085  1.00  0.00    -0.248 NA
ATOM     67  C   UNL     1      -4.531  15.498  -0.419  1.00  0.00     0.031 C 
ATOM     68  C   UNL     1      -1.858  13.916   3.991  1.00  0.00     0.029 A 
ATOM     69  C   UNL     1      -3.212  14.130   3.812  1.00  0.00     0.049 A 
ATOM     70  H   UNL     1      -4.819  12.884   4.313  1.00  0.00     0.167 HD
ATOM     71  C   UNL     1      -4.043  15.151   1.816  1.00  0.00     0.074 A 
ATOM     72  C   UNL     1      -4.753  15.942   0.831  1.00  0.00     0.031 C 
ATOM     73  C   UNL     1      -4.023  15.157   3.180  1.00  0.00     0.037 A 
BRANCH  60  74
ATOM     74  C   UNL     1      -3.239  10.390   6.809  1.00  0.00     0.064 A 
ATOM     75  C   UNL     1      -2.539  11.228   7.713  1.00  0.00     0.173 A 
ATOM     76  C   UNL     1      -3.582   9.133   7.344  1.00  0.00     0.173 A 
ATOM     77  F   UNL     1      -2.186  12.478   7.381  1.00  0.00    -0.203 F 
ATOM     78  C   UNL     1      -2.162  10.816   8.995  1.00  0.00     0.198 A 
ATOM     79  C   UNL     1      -3.230   8.731   8.637  1.00  0.00     0.198 A 
ATOM     80  F   UNL     1      -4.252   8.214   6.650  1.00  0.00    -0.203 F 
ATOM     81  F   UNL     1      -1.452  11.641   9.776  1.00  0.00    -0.200 F 
ATOM     82  C   UNL     1      -2.502   9.563   9.456  1.00  0.00     0.200 A 
ATOM     83  F   UNL     1      -3.590   7.514   9.069  1.00  0.00    -0.200 F 
ATOM     84  F   UNL     1      -2.132   9.159  10.678  1.00  0.00    -0.200 F 
ENDBRANCH  60  74
BRANCH  61  85
ATOM     85  C   UNL     1      -4.086  12.978  -2.408  1.00  0.00     0.064 A 
ATOM     86  C   UNL     1      -3.456  12.674  -3.630  1.00  0.00     0.173 A 
ATOM     87  C   UNL     1      -5.386  12.499  -2.205  1.00  0.00     0.173 A 
ATOM     88  F   UNL     1      -2.207  13.104  -3.865  1.00  0.00    -0.203 F 
ATOM     89  C   UNL     1      -4.053  11.819  -4.553  1.00  0.00     0.198 A 
ATOM     90  C   UNL     1      -5.984  11.655  -3.139  1.00  0.00     0.198 A 
ATOM     91  F   UNL     1      -6.026  12.742  -1.052  1.00  0.00    -0.203 F 
ATOM     92  F   UNL     1      -3.381  11.448  -5.652  1.00  0.00    -0.200 F 
ATOM     93  C   UNL     1      -5.304  11.286  -4.291  1.00  0.00     0.200 A 
ATOM     94  F   UNL     1      -7.183  11.115  -2.874  1.00  0.00    -0.200 F 
ATOM     95  F   UNL     1      -5.837  10.382  -5.125  1.00  0.00    -0.200 F 
ENDBRANCH  61  85
BRANCH  73  96
ATOM     96  C   UNL     1      -4.800  16.115   4.039  1.00  0.00     0.064 A 
ATOM     97  C   UNL     1      -4.827  17.496   3.800  1.00  0.00     0.173 A 
ATOM     98  C   UNL     1      -5.446  15.677   5.217  1.00  0.00     0.173 A 
ATOM     99  F   UNL     1      -4.204  18.020   2.734  1.00  0.00    -0.203 F 
ATOM    100  C   UNL     1      -5.480  18.377   4.669  1.00  0.00     0.198 A 
ATOM    101  C   UNL     1      -6.048  16.561   6.109  1.00  0.00     0.198 A 
ATOM    102  F   UNL     1      -5.539  14.375   5.523  1.00  0.00    -0.203 F 
ATOM    103  F   UNL     1      -5.523  19.685   4.381  1.00  0.00    -0.200 F 
ATOM    104  C   UNL     1      -6.074  17.912   5.830  1.00  0.00     0.200 A 
ATOM    105  F   UNL     1      -6.606  16.093   7.234  1.00  0.00    -0.200 F 
ATOM    106  F   UNL     1      -6.675  18.761   6.674  1.00  0.00    -0.200 F 
ENDBRANCH  73  96
ENDBRANCH  47  48
ENDBRANCH  39  42
ENDBRANCH  37  38
ENDBRANCH  36  37
ENDBRANCH  35  36
ENDBRANCH  34  35
ENDBRANCH   1  34
TORSDOF 17
