REMARK SMILES O=C(Cc1cccn1-c1ccc2c(c1)OCCO2)NCCCCCCNC(=O)c1ccc(-c2c3nc(c(-c4c(F)c(F)c(F)c(F)c4F)c4ccc([nH]4)c(-c4c(F)c(F)c(F)c(F)c4F)c4nc(c(-c5c(F)c(F)c(F)c(F)c5F)c5ccc2[nH]5)C=C4)C=C3)cc1
REMARK SMILES IDX 22 1 21 2 20 3 19 4 1 5 2 6 3 8 4 9 5 10 8 11 6 12 7 13 9 14
REMARK SMILES IDX 10 15 14 16 11 17 13 18 12 19 15 20 18 21 16 22 17 23 23 24
REMARK SMILES IDX 24 25 25 26 26 27 27 28 28 30 29 31 30 32 91 33 31 34 90 35
REMARK SMILES IDX 32 36 33 37 34 38 84 39 35 40 89 41 83 42 85 43 36 44 88 45
REMARK SMILES IDX 82 46 81 47 37 49 69 50 49 51 68 52 50 53 53 54 67 55 86 56
REMARK SMILES IDX 51 57 52 58 66 60 87 61 54 62 38 63 39 64 47 65 40 66 41 67
REMARK SMILES IDX 45 68 48 69 42 70 43 71 46 72 44 73 70 74 71 75 79 76 72 77
REMARK SMILES IDX 73 78 77 79 80 80 74 81 75 82 78 83 76 84 55 85 56 86 64 87
REMARK SMILES IDX 57 88 58 89 62 90 65 91 59 92 60 93 63 94 61 95
REMARK H PARENT 19 7 26 29 85 48 53 59
REMARK Flexibility Score: inf
ROOT
ATOM      1  C   UNL     1       4.171   3.584   1.472  1.00  0.00     0.002 C 
ENDROOT
BRANCH   1   2
ATOM      2  C   UNL     1       2.674   3.264   1.579  1.00  0.00     0.021 C 
BRANCH   2   3
ATOM      3  C   UNL     1       2.107   2.460   0.411  1.00  0.00     0.116 C 
BRANCH   3   4
ATOM      4  N   UNL     1       2.757   1.175   0.295  1.00  0.00    -0.356 N 
ATOM      5  O   UNL     1       0.875  -0.025  -0.258  1.00  0.00    -0.275 OA
ATOM      6  C   UNL     1       2.085   0.024  -0.058  1.00  0.00     0.225 C 
ATOM      7  H   UNL     1       3.723   1.119   0.475  1.00  0.00     0.163 HD
BRANCH   6   8
ATOM      8  C   UNL     1       2.983  -1.199  -0.140  1.00  0.00     0.154 C 
BRANCH   8   9
ATOM      9  C   UNL     1       3.808  -1.229  -1.403  1.00  0.00     0.032 A 
ATOM     10  C   UNL     1       4.309  -0.178  -2.160  1.00  0.00     0.024 A 
ATOM     11  N   UNL     1       4.347  -2.401  -1.928  1.00  0.00    -0.320 N 
ATOM     12  C   UNL     1       5.243  -0.698  -3.079  1.00  0.00     0.020 A 
ATOM     13  C   UNL     1       5.287  -2.056  -2.879  1.00  0.00     0.091 A 
BRANCH  11  14
ATOM     14  C   UNL     1       4.029  -3.738  -1.584  1.00  0.00     0.049 A 
ATOM     15  C   UNL     1       5.060  -4.668  -1.397  1.00  0.00     0.031 A 
ATOM     16  C   UNL     1       2.691  -4.135  -1.493  1.00  0.00     0.077 A 
ATOM     17  C   UNL     1       4.748  -5.991  -1.080  1.00  0.00     0.052 A 
ATOM     18  C   UNL     1       2.388  -5.461  -1.193  1.00  0.00     0.163 A 
ATOM     19  C   UNL     1       3.415  -6.390  -0.996  1.00  0.00     0.161 A 
ATOM     20  O   UNL     1       1.057  -5.786  -1.136  1.00  0.00    -0.486 OA
ATOM     21  O   UNL     1       3.185  -7.714  -0.723  1.00  0.00    -0.486 OA
ATOM     22  C   UNL     1       0.851  -7.068  -0.533  1.00  0.00     0.271 C 
ATOM     23  C   UNL     1       1.845  -8.085  -1.067  1.00  0.00     0.271 C 
ENDBRANCH  11  14
ENDBRANCH   8   9
ENDBRANCH   6   8
ENDBRANCH   3   4
ENDBRANCH   2   3
ENDBRANCH   1   2
BRANCH   1  24
ATOM     24  C   UNL     1       4.584   4.383   0.231  1.00  0.00     0.002 C 
BRANCH  24  25
ATOM     25  C   UNL     1       3.864   5.725   0.048  1.00  0.00     0.021 C 
BRANCH  25  26
ATOM     26  C   UNL     1       4.091   6.713   1.192  1.00  0.00     0.116 C 
BRANCH  26  27
ATOM     27  N   UNL     1       5.475   7.152   1.233  1.00  0.00    -0.352 N 
ATOM     28  C   UNL     1       6.074   8.096   2.027  1.00  0.00     0.251 C 
ATOM     29  H   UNL     1       6.075   6.705   0.593  1.00  0.00     0.163 HD
ATOM     30  O   UNL     1       7.122   8.611   1.659  1.00  0.00    -0.269 OA
BRANCH  28  31
ATOM     31  C   UNL     1       5.484   8.505   3.320  1.00  0.00     0.039 A 
ATOM     32  C   UNL     1       5.634   9.843   3.711  1.00  0.00     0.014 A 
ATOM     33  C   UNL     1       4.898   7.579   4.189  1.00  0.00     0.014 A 
ATOM     34  C   UNL     1       5.154  10.261   4.946  1.00  0.00     0.010 A 
ATOM     35  C   UNL     1       4.391   7.997   5.414  1.00  0.00     0.010 A 
ATOM     36  C   UNL     1       4.509   9.341   5.784  1.00  0.00    -0.014 A 
BRANCH  36  37
ATOM     37  C   UNL     1       3.777   9.856   6.962  1.00  0.00     0.031 A 
ATOM     38  C   UNL     1       2.424  10.489   6.528  1.00  0.00     0.074 A 
ATOM     39  C   UNL     1       4.398   9.708   8.175  1.00  0.00     0.049 A 
ATOM     40  N   UNL     1       1.691  11.398   7.098  1.00  0.00    -0.248 NA
ATOM     41  C   UNL     1       1.817  10.077   5.227  1.00  0.00     0.031 C 
ATOM     42  C   UNL     1       5.680   8.993   8.391  1.00  0.00     0.029 A 
ATOM     43  N   UNL     1       4.108  10.114   9.464  1.00  0.00    -0.354 N 
ATOM     44  C   UNL     1       0.483  11.513   6.362  1.00  0.00     0.074 A 
ATOM     45  C   UNL     1       0.670  10.759   5.163  1.00  0.00     0.031 C 
ATOM     46  C   UNL     1       6.087   9.091   9.677  1.00  0.00     0.029 A 
ATOM     47  C   UNL     1       5.125   9.867  10.433  1.00  0.00     0.049 A 
ATOM     48  H   UNL     1       3.254  10.546   9.697  1.00  0.00     0.167 HD
ATOM     49  C   UNL     1      -0.644  12.110   6.860  1.00  0.00     0.037 A 
ATOM     50  C   UNL     1       5.205  10.309  11.732  1.00  0.00     0.037 A 
ATOM     51  C   UNL     1      -0.361  12.649   8.144  1.00  0.00     0.049 A 
ATOM     52  C   UNL     1       3.910  10.952  11.969  1.00  0.00     0.074 A 
ATOM     53  C   UNL     1       0.358  13.744   8.538  1.00  0.00     0.029 A 
ATOM     54  N   UNL     1      -0.546  11.813   9.216  1.00  0.00    -0.354 N 
ATOM     55  N   UNL     1       2.795  10.310  12.141  1.00  0.00    -0.248 NA
ATOM     56  C   UNL     1       3.831  12.415  11.905  1.00  0.00     0.031 C 
ATOM     57  C   UNL     1       1.018  13.284   9.694  1.00  0.00     0.029 A 
ATOM     58  C   UNL     1       0.479  12.054  10.092  1.00  0.00     0.049 A 
ATOM     59  H   UNL     1      -1.277  11.164   9.333  1.00  0.00     0.167 HD
ATOM     60  C   UNL     1       1.865  11.279  11.862  1.00  0.00     0.074 A 
ATOM     61  C   UNL     1       2.518  12.555  12.056  1.00  0.00     0.031 C 
ATOM     62  C   UNL     1       0.855  11.002  11.001  1.00  0.00     0.037 A 
BRANCH  49  63
ATOM     63  C   UNL     1      -2.099  12.085   6.462  1.00  0.00     0.064 A 
ATOM     64  C   UNL     1      -2.968  13.039   7.060  1.00  0.00     0.173 A 
ATOM     65  C   UNL     1      -2.719  10.976   5.876  1.00  0.00     0.173 A 
ATOM     66  F   UNL     1      -2.484  14.175   7.588  1.00  0.00    -0.203 F 
ATOM     67  C   UNL     1      -4.332  12.804   7.220  1.00  0.00     0.198 A 
ATOM     68  C   UNL     1      -4.100  10.771   5.991  1.00  0.00     0.198 A 
ATOM     69  F   UNL     1      -2.002  10.020   5.275  1.00  0.00    -0.203 F 
ATOM     70  F   UNL     1      -5.077  13.654   7.941  1.00  0.00    -0.200 F 
ATOM     71  C   UNL     1      -4.894  11.655   6.706  1.00  0.00     0.200 A 
ATOM     72  F   UNL     1      -4.649   9.663   5.475  1.00  0.00    -0.200 F 
ATOM     73  F   UNL     1      -6.187  11.381   6.925  1.00  0.00    -0.200 F 
ENDBRANCH  49  63
BRANCH  50  74
ATOM     74  C   UNL     1       6.200  10.401  12.876  1.00  0.00     0.064 A 
ATOM     75  C   UNL     1       7.453   9.784  12.943  1.00  0.00     0.173 A 
ATOM     76  C   UNL     1       5.923  11.258  13.987  1.00  0.00     0.173 A 
ATOM     77  F   UNL     1       7.807   8.849  12.054  1.00  0.00    -0.203 F 
ATOM     78  C   UNL     1       8.390  10.102  13.950  1.00  0.00     0.198 A 
ATOM     79  C   UNL     1       6.868  11.619  14.948  1.00  0.00     0.198 A 
ATOM     80  F   UNL     1       4.711  11.791  14.185  1.00  0.00    -0.203 F 
ATOM     81  F   UNL     1       9.583   9.489  13.969  1.00  0.00    -0.200 F 
ATOM     82  C   UNL     1       8.116  11.054  14.919  1.00  0.00     0.200 A 
ATOM     83  F   UNL     1       6.553  12.533  15.878  1.00  0.00    -0.200 F 
ATOM     84  F   UNL     1       9.037  11.412  15.824  1.00  0.00    -0.200 F 
ENDBRANCH  50  74
BRANCH  62  85
ATOM     85  C   UNL     1       0.546   9.520  10.860  1.00  0.00     0.064 A 
ATOM     86  C   UNL     1       0.132   8.787  11.983  1.00  0.00     0.173 A 
ATOM     87  C   UNL     1       0.766   8.771   9.690  1.00  0.00     0.173 A 
ATOM     88  F   UNL     1      -0.125   9.422  13.136  1.00  0.00    -0.203 F 
ATOM     89  C   UNL     1      -0.023   7.397  11.942  1.00  0.00     0.198 A 
ATOM     90  C   UNL     1       0.609   7.383   9.643  1.00  0.00     0.198 A 
ATOM     91  F   UNL     1       1.133   9.368   8.559  1.00  0.00    -0.203 F 
ATOM     92  F   UNL     1      -0.415   6.738  13.041  1.00  0.00    -0.200 F 
ATOM     93  C   UNL     1       0.220   6.695  10.774  1.00  0.00     0.200 A 
ATOM     94  F   UNL     1       0.830   6.720   8.496  1.00  0.00    -0.200 F 
ATOM     95  F   UNL     1       0.061   5.364  10.733  1.00  0.00    -0.200 F 
ENDBRANCH  62  85
ENDBRANCH  36  37
ENDBRANCH  28  31
ENDBRANCH  26  27
ENDBRANCH  25  26
ENDBRANCH  24  25
ENDBRANCH   1  24
TORSDOF 15
