REMARK SMILES C[C@H](Oc1ccnc2c(F)cc(F)cc12)C(=O)NCCCCCCNC(=O)c1ccc(-c2c3nc(c(-c4c(F)c(F)c(F)c(F)c4F)c4ccc([nH]4)c(-c4c(F)c(F)c(F)c(F)c4F)c4nc(c(-c5c(F)c(F)c(F)c(F)c5F)c5ccc2[nH]5)C=C4)C=C3)cc1
REMARK SMILES IDX 21 1 20 2 19 3 18 4 16 5 17 6 2 8 1 9 3 10 4 11 5 12 15 13
REMARK SMILES IDX 6 14 8 15 14 16 7 17 9 18 12 19 10 20 11 21 13 22 22 23
REMARK SMILES IDX 23 24 24 25 25 26 26 27 27 29 28 30 29 31 90 32 30 33 89 34
REMARK SMILES IDX 31 35 32 36 33 37 83 38 34 39 88 40 82 41 84 42 35 43 87 44
REMARK SMILES IDX 81 45 80 46 36 48 68 49 48 50 67 51 49 52 52 53 66 54 85 55
REMARK SMILES IDX 50 56 51 57 65 59 86 60 53 61 37 62 38 63 46 64 39 65 40 66
REMARK SMILES IDX 44 67 47 68 41 69 42 70 45 71 43 72 69 73 70 74 78 75 71 76
REMARK SMILES IDX 72 77 76 78 79 79 73 80 74 81 77 82 75 83 54 84 55 85 63 86
REMARK SMILES IDX 56 87 57 88 61 89 64 90 58 91 59 92 62 93 60 94
REMARK H PARENT 18 7 25 28 84 47 52 58
REMARK Flexibility Score: inf
ROOT
ATOM      1  C   UNL     1      -2.954   0.607   2.886  1.00  0.00     0.002 C 
ENDROOT
BRANCH   1   2
ATOM      2  C   UNL     1      -1.424   0.586   2.792  1.00  0.00     0.021 C 
BRANCH   2   3
ATOM      3  C   UNL     1      -0.787  -0.791   2.606  1.00  0.00     0.116 C 
BRANCH   3   4
ATOM      4  N   UNL     1      -1.397  -1.553   1.536  1.00  0.00    -0.353 N 
ATOM      5  C   UNL     1      -0.989  -1.786   0.262  1.00  0.00     0.260 C 
ATOM      6  O   UNL     1      -1.754  -2.424  -0.470  1.00  0.00    -0.271 OA
ATOM      7  H   UNL     1      -2.255  -1.974   1.773  1.00  0.00     0.163 HD
BRANCH   5   8
ATOM      8  C   UNL     1       0.386  -1.316  -0.274  1.00  0.00     0.258 C 
ATOM      9  C   UNL     1       1.443  -2.283   0.270  1.00  0.00     0.064 C 
BRANCH   8  10
ATOM     10  O   UNL     1       0.881  -0.009  -0.040  1.00  0.00    -0.480 OA
BRANCH  10  11
ATOM     11  C   UNL     1       0.125   1.098  -0.324  1.00  0.00     0.131 A 
ATOM     12  C   UNL     1      -1.162   1.070  -0.845  1.00  0.00     0.067 A 
ATOM     13  C   UNL     1       0.698   2.335   0.059  1.00  0.00     0.048 A 
ATOM     14  C   UNL     1      -1.887   2.246  -0.832  1.00  0.00     0.115 A 
ATOM     15  C   UNL     1      -0.128   3.479   0.043  1.00  0.00     0.110 A 
ATOM     16  C   UNL     1       2.046   2.459   0.466  1.00  0.00     0.053 A 
ATOM     17  N   UNL     1      -1.409   3.420  -0.374  1.00  0.00    -0.253 NA
ATOM     18  C   UNL     1       0.422   4.685   0.492  1.00  0.00     0.152 A 
ATOM     19  C   UNL     1       2.557   3.688   0.860  1.00  0.00     0.127 A 
ATOM     20  F   UNL     1      -0.346   5.786   0.550  1.00  0.00    -0.204 F 
ATOM     21  C   UNL     1       1.749   4.806   0.894  1.00  0.00     0.080 A 
ATOM     22  F   UNL     1       3.844   3.787   1.213  1.00  0.00    -0.207 F 
ENDBRANCH  10  11
ENDBRANCH   8  10
ENDBRANCH   5   8
ENDBRANCH   3   4
ENDBRANCH   2   3
ENDBRANCH   1   2
BRANCH   1  23
ATOM     23  C   UNL     1      -3.543  -0.103   4.105  1.00  0.00     0.002 C 
BRANCH  23  24
ATOM     24  C   UNL     1      -2.947   0.322   5.447  1.00  0.00     0.021 C 
BRANCH  24  25
ATOM     25  C   UNL     1      -2.946   1.826   5.696  1.00  0.00     0.116 C 
BRANCH  25  26
ATOM     26  N   UNL     1      -4.282   2.346   5.929  1.00  0.00    -0.352 N 
ATOM     27  C   UNL     1      -4.753   2.989   7.048  1.00  0.00     0.251 C 
ATOM     28  H   UNL     1      -4.928   2.222   5.196  1.00  0.00     0.163 HD
ATOM     29  O   UNL     1      -5.941   3.239   7.190  1.00  0.00    -0.269 OA
BRANCH  27  30
ATOM     30  C   UNL     1      -3.785   3.357   8.099  1.00  0.00     0.039 A 
ATOM     31  C   UNL     1      -3.959   2.851   9.387  1.00  0.00     0.014 A 
ATOM     32  C   UNL     1      -2.684   4.160   7.783  1.00  0.00     0.014 A 
ATOM     33  C   UNL     1      -2.998   3.119  10.361  1.00  0.00     0.010 A 
ATOM     34  C   UNL     1      -1.701   4.383   8.742  1.00  0.00     0.010 A 
ATOM     35  C   UNL     1      -1.857   3.873  10.040  1.00  0.00    -0.014 A 
BRANCH  35  36
ATOM     36  C   UNL     1      -0.845   4.190  11.074  1.00  0.00     0.031 A 
ATOM     37  C   UNL     1      -0.746   5.591  11.601  1.00  0.00     0.074 A 
ATOM     38  C   UNL     1      -0.008   3.233  11.515  1.00  0.00     0.049 A 
ATOM     39  N   UNL     1       0.071   6.082  12.497  1.00  0.00    -0.248 NA
ATOM     40  C   UNL     1      -1.680   6.577  11.033  1.00  0.00     0.031 C 
ATOM     41  C   UNL     1       0.005   1.844  11.057  1.00  0.00     0.029 A 
ATOM     42  N   UNL     1       0.995   3.287  12.450  1.00  0.00    -0.354 N 
ATOM     43  C   UNL     1      -0.255   7.426  12.604  1.00  0.00     0.074 A 
ATOM     44  C   UNL     1      -1.301   7.691  11.640  1.00  0.00     0.031 C 
ATOM     45  C   UNL     1       0.957   1.172  11.727  1.00  0.00     0.029 A 
ATOM     46  C   UNL     1       1.632   2.086  12.645  1.00  0.00     0.049 A 
ATOM     47  H   UNL     1       1.236   4.109  12.935  1.00  0.00     0.167 HD
ATOM     48  C   UNL     1       0.250   8.349  13.453  1.00  0.00     0.037 A 
ATOM     49  C   UNL     1       2.642   1.764  13.475  1.00  0.00     0.037 A 
ATOM     50  C   UNL     1       1.278   8.081  14.421  1.00  0.00     0.049 A 
ATOM     51  C   UNL     1       3.216   2.820  14.380  1.00  0.00     0.074 A 
ATOM     52  C   UNL     1       1.826   8.938  15.357  1.00  0.00     0.029 A 
ATOM     53  N   UNL     1       1.915   6.857  14.572  1.00  0.00    -0.354 N 
ATOM     54  N   UNL     1       2.860   4.074  14.517  1.00  0.00    -0.248 NA
ATOM     55  C   UNL     1       4.332   2.417  15.249  1.00  0.00     0.031 C 
ATOM     56  C   UNL     1       2.821   8.244  16.052  1.00  0.00     0.029 A 
ATOM     57  C   UNL     1       2.867   6.944  15.574  1.00  0.00     0.049 A 
ATOM     58  H   UNL     1       1.718   6.049  14.046  1.00  0.00     0.167 HD
ATOM     59  C   UNL     1       3.688   4.603  15.498  1.00  0.00     0.074 A 
ATOM     60  C   UNL     1       4.559   3.531  15.931  1.00  0.00     0.031 C 
ATOM     61  C   UNL     1       3.721   5.863  15.994  1.00  0.00     0.037 A 
BRANCH  48  62
ATOM     62  C   UNL     1      -0.319   9.733  13.386  1.00  0.00     0.064 A 
ATOM     63  C   UNL     1      -1.607  10.013  13.867  1.00  0.00     0.173 A 
ATOM     64  C   UNL     1       0.440  10.796  12.877  1.00  0.00     0.173 A 
ATOM     65  F   UNL     1      -2.376   9.026  14.350  1.00  0.00    -0.203 F 
ATOM     66  C   UNL     1      -2.123  11.305  13.822  1.00  0.00     0.198 A 
ATOM     67  C   UNL     1      -0.070  12.092  12.856  1.00  0.00     0.198 A 
ATOM     68  F   UNL     1       1.678  10.580  12.408  1.00  0.00    -0.203 F 
ATOM     69  F   UNL     1      -3.369  11.543  14.252  1.00  0.00    -0.200 F 
ATOM     70  C   UNL     1      -1.351  12.344  13.324  1.00  0.00     0.200 A 
ATOM     71  F   UNL     1       0.680  13.098  12.383  1.00  0.00    -0.200 F 
ATOM     72  F   UNL     1      -1.845  13.590  13.290  1.00  0.00    -0.200 F 
ENDBRANCH  48  62
BRANCH  49  73
ATOM     73  C   UNL     1       3.148   0.369  13.516  1.00  0.00     0.064 A 
ATOM     74  C   UNL     1       2.878  -0.457  14.616  1.00  0.00     0.173 A 
ATOM     75  C   UNL     1       3.896  -0.171  12.461  1.00  0.00     0.173 A 
ATOM     76  F   UNL     1       2.184   0.022  15.658  1.00  0.00    -0.203 F 
ATOM     77  C   UNL     1       3.346  -1.769  14.663  1.00  0.00     0.198 A 
ATOM     78  C   UNL     1       4.346  -1.489  12.499  1.00  0.00     0.198 A 
ATOM     79  F   UNL     1       4.178   0.579  11.385  1.00  0.00    -0.203 F 
ATOM     80  F   UNL     1       3.100  -2.528  15.739  1.00  0.00    -0.200 F 
ATOM     81  C   UNL     1       4.075  -2.286  13.602  1.00  0.00     0.200 A 
ATOM     82  F   UNL     1       5.040  -1.989  11.467  1.00  0.00    -0.200 F 
ATOM     83  F   UNL     1       4.518  -3.549  13.644  1.00  0.00    -0.200 F 
ENDBRANCH  49  73
BRANCH  61  84
ATOM     84  C   UNL     1       4.722   6.160  17.070  1.00  0.00     0.064 A 
ATOM     85  C   UNL     1       6.082   6.321  16.774  1.00  0.00     0.173 A 
ATOM     86  C   UNL     1       4.303   6.374  18.391  1.00  0.00     0.173 A 
ATOM     87  F   UNL     1       6.531   6.114  15.527  1.00  0.00    -0.203 F 
ATOM     88  C   UNL     1       6.990   6.681  17.766  1.00  0.00     0.198 A 
ATOM     89  C   UNL     1       5.209   6.757  19.375  1.00  0.00     0.198 A 
ATOM     90  F   UNL     1       3.009   6.239  18.721  1.00  0.00    -0.203 F 
ATOM     91  F   UNL     1       8.290   6.807  17.467  1.00  0.00    -0.200 F 
ATOM     92  C   UNL     1       6.552   6.908  19.062  1.00  0.00     0.200 A 
ATOM     93  F   UNL     1       4.782   6.989  20.624  1.00  0.00    -0.200 F 
ATOM     94  F   UNL     1       7.425   7.274  20.011  1.00  0.00    -0.200 F 
ENDBRANCH  61  84
ENDBRANCH  35  36
ENDBRANCH  27  30
ENDBRANCH  25  26
ENDBRANCH  24  25
ENDBRANCH  23  24
ENDBRANCH   1  23
TORSDOF 15
