REMARK SMILES CC1=C(CC(=O)NCCCCCCNC(=O)c2ccc(-c3c4nc(c(-c5c(F)c(F)c(F)c(F)c5F)c5ccc([nH]5)c(-c5c(F)c(F)c(F)c(F)c5F)c5nc(c(-c6c(F)c(F)c(F)c(F)c6F)c6ccc3[nH]6)C=C5)C=C4)cc2)c2cc(F)ccc2/C1=C\c1cccc(OCc2ccccc2)c1
REMARK SMILES IDX 9 1 8 2 7 3 5 4 6 5 4 7 3 8 1 9 2 10 87 11 80 12 86 13 88 14
REMARK SMILES IDX 81 15 85 16 82 17 84 18 83 19 89 20 90 21 102 22 91 23 93 24
REMARK SMILES IDX 92 25 94 26 95 27 96 28 97 29 101 30 98 31 100 32 99 33
REMARK SMILES IDX 10 34 11 35 12 36 13 37 14 38 15 39 16 41 17 42 18 43 79 44
REMARK SMILES IDX 19 45 78 46 20 47 21 48 22 49 72 50 23 51 77 52 71 53 73 54
REMARK SMILES IDX 24 55 76 56 70 57 69 58 25 60 57 61 37 62 56 63 38 64 41 65
REMARK SMILES IDX 55 66 74 67 39 68 40 69 54 71 75 72 42 73 26 74 27 75 35 76
REMARK SMILES IDX 28 77 29 78 33 79 36 80 30 81 31 82 34 83 32 84 58 85 59 86
REMARK SMILES IDX 67 87 60 88 61 89 65 90 68 91 62 92 63 93 66 94 64 95 43 96
REMARK SMILES IDX 44 97 52 98 45 99 46 100 50 101 53 102 47 103 48 104 51 105
REMARK SMILES IDX 49 106
REMARK H PARENT 7 6 14 40 73 59 41 70
REMARK Flexibility Score: inf
ROOT
ATOM      1  C   UNL     1       1.058   1.422   3.786  1.00  0.00     0.021 C 
ENDROOT
BRANCH   1   2
ATOM      2  C   UNL     1       0.125   0.283   3.374  1.00  0.00     0.116 C 
BRANCH   2   3
ATOM      3  N   UNL     1      -1.266   0.665   3.502  1.00  0.00    -0.356 N 
ATOM      4  C   UNL     1      -2.155   1.013   2.530  1.00  0.00     0.224 C 
ATOM      5  O   UNL     1      -3.278   1.390   2.874  1.00  0.00    -0.275 OA
ATOM      6  H   UNL     1      -1.618   0.675   4.421  1.00  0.00     0.163 HD
BRANCH   4   7
ATOM      7  C   UNL     1      -1.784   0.885   1.054  1.00  0.00     0.136 C 
BRANCH   7   8
ATOM      8  C   UNL     1      -0.719   1.833   0.610  1.00  0.00    -0.027 C 
ATOM      9  C   UNL     1       1.054   0.232  -0.321  1.00  0.00     0.045 C 
ATOM     10  C   UNL     1       0.484   1.564   0.049  1.00  0.00    -0.039 C 
ATOM     11  C   UNL     1       1.211   2.822  -0.181  1.00  0.00    -0.014 C 
ATOM     12  C   UNL     1      -0.860   3.299   0.689  1.00  0.00    -0.011 A 
ATOM     13  C   UNL     1       0.297   3.919   0.179  1.00  0.00    -0.010 A 
ATOM     14  C   UNL     1       2.486   2.890  -0.601  1.00  0.00     0.017 C 
ATOM     15  C   UNL     1      -1.925   4.062   1.148  1.00  0.00     0.048 A 
ATOM     16  C   UNL     1       0.383   5.302   0.092  1.00  0.00     0.012 A 
ATOM     17  C   UNL     1      -1.817   5.448   1.087  1.00  0.00     0.123 A 
ATOM     18  C   UNL     1      -0.684   6.071   0.560  1.00  0.00     0.040 A 
ATOM     19  F   UNL     1      -2.826   6.207   1.533  1.00  0.00    -0.207 F 
BRANCH  14  20
ATOM     20  C   UNL     1       3.238   4.115  -0.861  1.00  0.00    -0.021 A 
ATOM     21  C   UNL     1       3.796   4.871   0.173  1.00  0.00     0.008 A 
ATOM     22  C   UNL     1       3.357   4.546  -2.187  1.00  0.00     0.054 A 
ATOM     23  C   UNL     1       4.440   6.072  -0.122  1.00  0.00     0.004 A 
ATOM     24  C   UNL     1       4.033   5.725  -2.491  1.00  0.00     0.120 A 
ATOM     25  C   UNL     1       4.553   6.497  -1.449  1.00  0.00     0.046 A 
BRANCH  24  26
ATOM     26  O   UNL     1       4.240   6.222  -3.749  1.00  0.00    -0.489 OA
BRANCH  26  27
ATOM     27  C   UNL     1       3.994   5.355  -4.865  1.00  0.00     0.265 C 
BRANCH  27  28
ATOM     28  C   UNL     1       5.003   4.232  -4.973  1.00  0.00    -0.011 A 
ATOM     29  C   UNL     1       6.377   4.514  -4.958  1.00  0.00     0.007 A 
ATOM     30  C   UNL     1       4.586   2.897  -5.073  1.00  0.00     0.007 A 
ATOM     31  C   UNL     1       7.312   3.481  -5.016  1.00  0.00     0.000 A 
ATOM     32  C   UNL     1       5.524   1.864  -5.122  1.00  0.00     0.000 A 
ATOM     33  C   UNL     1       6.886   2.157  -5.090  1.00  0.00     0.000 A 
ENDBRANCH  27  28
ENDBRANCH  26  27
ENDBRANCH  24  26
ENDBRANCH  14  20
ENDBRANCH   7   8
ENDBRANCH   4   7
ENDBRANCH   2   3
ENDBRANCH   1   2
BRANCH   1  34
ATOM     34  C   UNL     1       1.065   1.707   5.295  1.00  0.00     0.002 C 
BRANCH  34  35
ATOM     35  C   UNL     1       1.458   0.522   6.184  1.00  0.00     0.002 C 
BRANCH  35  36
ATOM     36  C   UNL     1       2.786  -0.148   5.827  1.00  0.00     0.021 C 
BRANCH  36  37
ATOM     37  C   UNL     1       3.999   0.773   5.896  1.00  0.00     0.116 C 
BRANCH  37  38
ATOM     38  N   UNL     1       4.298   1.199   7.255  1.00  0.00    -0.352 N 
ATOM     39  C   UNL     1       5.476   1.100   7.956  1.00  0.00     0.251 C 
ATOM     40  H   UNL     1       3.551   1.616   7.741  1.00  0.00     0.163 HD
ATOM     41  O   UNL     1       5.514   1.360   9.155  1.00  0.00    -0.269 OA
BRANCH  39  42
ATOM     42  C   UNL     1       6.699   0.643   7.262  1.00  0.00     0.039 A 
ATOM     43  C   UNL     1       7.047   1.173   6.018  1.00  0.00     0.014 A 
ATOM     44  C   UNL     1       7.488  -0.347   7.853  1.00  0.00     0.014 A 
ATOM     45  C   UNL     1       8.087   0.601   5.294  1.00  0.00     0.010 A 
ATOM     46  C   UNL     1       8.583  -0.866   7.156  1.00  0.00     0.010 A 
ATOM     47  C   UNL     1       8.863  -0.428   5.852  1.00  0.00    -0.014 A 
BRANCH  47  48
ATOM     48  C   UNL     1       9.958  -1.034   5.053  1.00  0.00     0.031 A 
ATOM     49  C   UNL     1       9.883  -2.471   4.612  1.00  0.00     0.074 A 
ATOM     50  C   UNL     1      10.999  -0.268   4.678  1.00  0.00     0.049 A 
ATOM     51  N   UNL     1      10.745  -3.166   3.912  1.00  0.00    -0.248 NA
ATOM     52  C   UNL     1       8.686  -3.229   5.008  1.00  0.00     0.031 C 
ATOM     53  C   UNL     1      11.171   1.143   5.027  1.00  0.00     0.029 A 
ATOM     54  N   UNL     1      12.095  -0.555   3.905  1.00  0.00    -0.354 N 
ATOM     55  C   UNL     1      10.205  -4.440   3.798  1.00  0.00     0.074 A 
ATOM     56  C   UNL     1       8.953  -4.434   4.522  1.00  0.00     0.031 C 
ATOM     57  C   UNL     1      12.276   1.612   4.429  1.00  0.00     0.029 A 
ATOM     58  C   UNL     1      12.924   0.521   3.709  1.00  0.00     0.049 A 
ATOM     59  H   UNL     1      12.269  -1.448   3.527  1.00  0.00     0.167 HD
ATOM     60  C   UNL     1      10.706  -5.512   3.138  1.00  0.00     0.037 A 
ATOM     61  C   UNL     1      14.086   0.617   3.036  1.00  0.00     0.037 A 
ATOM     62  C   UNL     1      11.943  -5.508   2.401  1.00  0.00     0.049 A 
ATOM     63  C   UNL     1      14.640  -0.601   2.353  1.00  0.00     0.074 A 
ATOM     64  C   UNL     1      12.528  -6.544   1.693  1.00  0.00     0.029 A 
ATOM     65  N   UNL     1      12.784  -4.412   2.273  1.00  0.00    -0.354 N 
ATOM     66  N   UNL     1      14.125  -1.802   2.261  1.00  0.00    -0.248 NA
ATOM     67  C   UNL     1      15.943  -0.452   1.690  1.00  0.00     0.031 C 
ATOM     68  C   UNL     1      13.742  -6.087   1.169  1.00  0.00     0.029 A 
ATOM     69  C   UNL     1      13.891  -4.752   1.511  1.00  0.00     0.049 A 
ATOM     70  H   UNL     1      12.620  -3.525   2.666  1.00  0.00     0.167 HD
ATOM     71  C   UNL     1      15.030  -2.549   1.522  1.00  0.00     0.074 A 
ATOM     72  C   UNL     1      16.119  -1.660   1.172  1.00  0.00     0.031 C 
ATOM     73  C   UNL     1      14.966  -3.856   1.171  1.00  0.00     0.037 A 
BRANCH  60  74
ATOM     74  C   UNL     1       9.921  -6.791   3.180  1.00  0.00     0.064 A 
ATOM     75  C   UNL     1       8.736  -6.949   2.448  1.00  0.00     0.173 A 
ATOM     76  C   UNL     1      10.400  -7.896   3.901  1.00  0.00     0.173 A 
ATOM     77  F   UNL     1       8.229  -5.920   1.752  1.00  0.00    -0.203 F 
ATOM     78  C   UNL     1       8.052  -8.163   2.446  1.00  0.00     0.198 A 
ATOM     79  C   UNL     1       9.728  -9.115   3.877  1.00  0.00     0.198 A 
ATOM     80  F   UNL     1      11.533  -7.798   4.613  1.00  0.00    -0.203 F 
ATOM     81  F   UNL     1       6.905  -8.283   1.763  1.00  0.00    -0.200 F 
ATOM     82  C   UNL     1       8.553  -9.247   3.152  1.00  0.00     0.200 A 
ATOM     83  F   UNL     1      10.220 -10.164   4.549  1.00  0.00    -0.200 F 
ATOM     84  F   UNL     1       7.902 -10.418   3.135  1.00  0.00    -0.200 F 
ENDBRANCH  60  74
BRANCH  61  85
ATOM     85  C   UNL     1      14.791   1.922   2.977  1.00  0.00     0.064 A 
ATOM     86  C   UNL     1      14.861   2.647   1.781  1.00  0.00     0.173 A 
ATOM     87  C   UNL     1      15.376   2.486   4.120  1.00  0.00     0.173 A 
ATOM     88  F   UNL     1      14.334   2.139   0.657  1.00  0.00    -0.203 F 
ATOM     89  C   UNL     1      15.492   3.889   1.730  1.00  0.00     0.198 A 
ATOM     90  C   UNL     1      15.982   3.739   4.075  1.00  0.00     0.198 A 
ATOM     91  F   UNL     1      15.333   1.831   5.290  1.00  0.00    -0.203 F 
ATOM     92  F   UNL     1      15.569   4.551   0.568  1.00  0.00    -0.200 F 
ATOM     93  C   UNL     1      16.042   4.438   2.878  1.00  0.00     0.200 A 
ATOM     94  F   UNL     1      16.497   4.273   5.190  1.00  0.00    -0.200 F 
ATOM     95  F   UNL     1      16.634   5.639   2.832  1.00  0.00    -0.200 F 
ENDBRANCH  61  85
BRANCH  73  96
ATOM     96  C   UNL     1      16.095  -4.404   0.350  1.00  0.00     0.064 A 
ATOM     97  C   UNL     1      17.353  -4.660   0.915  1.00  0.00     0.173 A 
ATOM     98  C   UNL     1      15.900  -4.729  -1.001  1.00  0.00     0.173 A 
ATOM     99  F   UNL     1      17.591  -4.353   2.198  1.00  0.00    -0.203 F 
ATOM    100  C   UNL     1      18.380  -5.206   0.151  1.00  0.00     0.198 A 
ATOM    101  C   UNL     1      16.921  -5.300  -1.754  1.00  0.00     0.198 A 
ATOM    102  F   UNL     1      14.712  -4.510  -1.584  1.00  0.00    -0.203 F 
ATOM    103  F   UNL     1      19.586  -5.409   0.700  1.00  0.00    -0.200 F 
ATOM    104  C   UNL     1      18.162  -5.533  -1.179  1.00  0.00     0.200 A 
ATOM    105  F   UNL     1      16.705  -5.627  -3.035  1.00  0.00    -0.200 F 
ATOM    106  F   UNL     1      19.149  -6.069  -1.910  1.00  0.00    -0.200 F 
ENDBRANCH  73  96
ENDBRANCH  47  48
ENDBRANCH  39  42
ENDBRANCH  37  38
ENDBRANCH  36  37
ENDBRANCH  35  36
ENDBRANCH  34  35
ENDBRANCH   1  34
TORSDOF 18
