REMARK SMILES O=C(NCCCCCCNC(=O)c1cc(-c2ccccc2)nc(Nc2nc3ccccc3s2)n1)c1ccc(-c2c3nc(c(-c4c(F)c(F)c(F)c(F)c4F)c4ccc([nH]4)c(-c4c(F)c(F)c(F)c(F)c4F)c4nc(c(-c5c(F)c(F)c(F)c(F)c5F)c5ccc2[nH]5)C=C4)C=C3)cc1
REMARK SMILES IDX 6 1 5 2 4 3 3 4 1 5 2 6 35 8 36 9 97 10 37 11 96 12 38 13
REMARK SMILES IDX 39 14 40 15 90 16 41 17 95 18 89 19 91 20 42 21 94 22 88 23
REMARK SMILES IDX 87 24 43 26 75 27 55 28 74 29 56 30 59 31 73 32 92 33 57 34
REMARK SMILES IDX 58 35 72 37 93 38 60 39 44 40 45 41 53 42 46 43 47 44 51 45
REMARK SMILES IDX 54 46 48 47 49 48 52 49 50 50 76 51 77 52 85 53 78 54 79 55
REMARK SMILES IDX 83 56 86 57 80 58 81 59 84 60 82 61 61 62 62 63 70 64 63 65
REMARK SMILES IDX 64 66 68 67 71 68 65 69 66 70 69 71 67 72 7 73 8 74 9 75
REMARK SMILES IDX 10 76 11 77 12 79 13 80 14 81 34 82 15 83 23 84 22 85 16 86
REMARK SMILES IDX 17 87 21 88 18 89 20 90 19 91 24 92 25 94 26 95 33 96 27 97
REMARK SMILES IDX 32 98 28 99 31 100 29 101 30 102
REMARK H PARENT 3 7 91 25 59 36 10 78 24 93
REMARK Flexibility Score: inf
ROOT
ATOM      1  C   UNL     1       4.063  -3.373  -2.071  1.00  0.00     0.002 C 
ENDROOT
BRANCH   1   2
ATOM      2  C   UNL     1       4.526  -2.658  -0.803  1.00  0.00     0.021 C 
BRANCH   2   3
ATOM      3  C   UNL     1       4.318  -1.150  -0.789  1.00  0.00     0.116 C 
BRANCH   3   4
ATOM      4  N   UNL     1       2.918  -0.764  -0.821  1.00  0.00    -0.352 N 
ATOM      5  O   UNL     1       1.014   0.207  -0.096  1.00  0.00    -0.269 OA
ATOM      6  C   UNL     1       2.227   0.092   0.006  1.00  0.00     0.251 C 
ATOM      7  H   UNL     1       2.385  -1.176  -1.539  1.00  0.00     0.163 HD
BRANCH   6   8
ATOM      8  C   UNL     1       2.954   0.850   1.051  1.00  0.00     0.039 A 
ATOM      9  C   UNL     1       4.164   1.486   0.768  1.00  0.00     0.014 A 
ATOM     10  C   UNL     1       2.417   0.912   2.341  1.00  0.00     0.014 A 
ATOM     11  C   UNL     1       4.912   2.037   1.803  1.00  0.00     0.010 A 
ATOM     12  C   UNL     1       3.130   1.545   3.363  1.00  0.00     0.010 A 
ATOM     13  C   UNL     1       4.405   2.073   3.113  1.00  0.00    -0.014 A 
BRANCH  13  14
ATOM     14  C   UNL     1       5.223   2.690   4.190  1.00  0.00     0.031 A 
ATOM     15  C   UNL     1       5.750   1.869   5.335  1.00  0.00     0.074 A 
ATOM     16  C   UNL     1       5.529   3.999   4.104  1.00  0.00     0.049 A 
ATOM     17  N   UNL     1       6.528   2.235   6.324  1.00  0.00    -0.248 NA
ATOM     18  C   UNL     1       5.348   0.455   5.384  1.00  0.00     0.031 C 
ATOM     19  C   UNL     1       5.063   4.903   3.051  1.00  0.00     0.029 A 
ATOM     20  N   UNL     1       6.324   4.790   4.893  1.00  0.00    -0.354 N 
ATOM     21  C   UNL     1       6.686   1.111   7.123  1.00  0.00     0.074 A 
ATOM     22  C   UNL     1       5.906   0.052   6.518  1.00  0.00     0.031 C 
ATOM     23  C   UNL     1       5.625   6.108   3.225  1.00  0.00     0.029 A 
ATOM     24  C   UNL     1       6.448   6.077   4.430  1.00  0.00     0.049 A 
ATOM     25  H   UNL     1       6.763   4.467   5.713  1.00  0.00     0.167 HD
ATOM     26  C   UNL     1       7.420   0.973   8.254  1.00  0.00     0.037 A 
ATOM     27  C   UNL     1       7.145   7.118   4.920  1.00  0.00     0.037 A 
ATOM     28  C   UNL     1       8.220   2.020   8.838  1.00  0.00     0.049 A 
ATOM     29  C   UNL     1       7.957   6.933   6.170  1.00  0.00     0.074 A 
ATOM     30  C   UNL     1       9.038   1.961   9.954  1.00  0.00     0.029 A 
ATOM     31  N   UNL     1       8.302   3.316   8.352  1.00  0.00    -0.354 N 
ATOM     32  N   UNL     1       8.132   5.852   6.890  1.00  0.00    -0.248 NA
ATOM     33  C   UNL     1       8.668   8.115   6.674  1.00  0.00     0.031 C 
ATOM     34  C   UNL     1       9.582   3.233  10.167  1.00  0.00     0.029 A 
ATOM     35  C   UNL     1       9.140   4.072   9.157  1.00  0.00     0.049 A 
ATOM     36  H   UNL     1       7.833   3.651   7.553  1.00  0.00     0.167 HD
ATOM     37  C   UNL     1       8.986   6.216   7.920  1.00  0.00     0.074 A 
ATOM     38  C   UNL     1       9.310   7.614   7.720  1.00  0.00     0.031 C 
ATOM     39  C   UNL     1       9.457   5.461   8.942  1.00  0.00     0.037 A 
BRANCH  26  40
ATOM     40  C   UNL     1       7.385  -0.356   8.952  1.00  0.00     0.064 A 
ATOM     41  C   UNL     1       8.035  -1.483   8.429  1.00  0.00     0.173 A 
ATOM     42  C   UNL     1       6.731  -0.490  10.187  1.00  0.00     0.173 A 
ATOM     43  F   UNL     1       8.666  -1.411   7.247  1.00  0.00    -0.203 F 
ATOM     44  C   UNL     1       8.014  -2.701   9.105  1.00  0.00     0.198 A 
ATOM     45  C   UNL     1       6.733  -1.703  10.872  1.00  0.00     0.198 A 
ATOM     46  F   UNL     1       6.100   0.558  10.735  1.00  0.00    -0.203 F 
ATOM     47  F   UNL     1       8.608  -3.775   8.567  1.00  0.00    -0.200 F 
ATOM     48  C   UNL     1       7.369  -2.808  10.328  1.00  0.00     0.200 A 
ATOM     49  F   UNL     1       6.120  -1.801  12.060  1.00  0.00    -0.200 F 
ATOM     50  F   UNL     1       7.356  -3.979  10.980  1.00  0.00    -0.200 F 
ENDBRANCH  26  40
BRANCH  27  51
ATOM     51  C   UNL     1       7.120   8.421   4.209  1.00  0.00     0.064 A 
ATOM     52  C   UNL     1       8.256   8.897   3.541  1.00  0.00     0.173 A 
ATOM     53  C   UNL     1       5.960   9.207   4.169  1.00  0.00     0.173 A 
ATOM     54  F   UNL     1       9.395   8.188   3.567  1.00  0.00    -0.203 F 
ATOM     55  C   UNL     1       8.236  10.117   2.870  1.00  0.00     0.198 A 
ATOM     56  C   UNL     1       5.932  10.413   3.475  1.00  0.00     0.198 A 
ATOM     57  F   UNL     1       4.845   8.791   4.789  1.00  0.00    -0.203 F 
ATOM     58  F   UNL     1       9.347  10.568   2.271  1.00  0.00    -0.200 F 
ATOM     59  C   UNL     1       7.072  10.871   2.832  1.00  0.00     0.200 A 
ATOM     60  F   UNL     1       4.802  11.131   3.427  1.00  0.00    -0.200 F 
ATOM     61  F   UNL     1       7.051  12.041   2.179  1.00  0.00    -0.200 F 
ENDBRANCH  27  51
BRANCH  39  62
ATOM     62  C   UNL     1      10.399   6.125   9.901  1.00  0.00     0.064 A 
ATOM     63  C   UNL     1       9.952   7.073  10.833  1.00  0.00     0.173 A 
ATOM     64  C   UNL     1      11.763   5.798   9.898  1.00  0.00     0.173 A 
ATOM     65  F   UNL     1       8.660   7.432  10.863  1.00  0.00    -0.203 F 
ATOM     66  C   UNL     1      10.842   7.691  11.707  1.00  0.00     0.198 A 
ATOM     67  C   UNL     1      12.646   6.397  10.791  1.00  0.00     0.198 A 
ATOM     68  F   UNL     1      12.240   4.893   9.029  1.00  0.00    -0.203 F 
ATOM     69  F   UNL     1      10.402   8.632  12.554  1.00  0.00    -0.200 F 
ATOM     70  C   UNL     1      12.186   7.349  11.689  1.00  0.00     0.200 A 
ATOM     71  F   UNL     1      13.942   6.059  10.780  1.00  0.00    -0.200 F 
ATOM     72  F   UNL     1      13.042   7.946  12.531  1.00  0.00    -0.200 F 
ENDBRANCH  39  62
ENDBRANCH  13  14
ENDBRANCH   6   8
ENDBRANCH   3   4
ENDBRANCH   2   3
ENDBRANCH   1   2
BRANCH   1  73
ATOM     73  C   UNL     1       4.628  -2.832  -3.387  1.00  0.00     0.002 C 
BRANCH  73  74
ATOM     74  C   UNL     1       6.153  -2.711  -3.470  1.00  0.00     0.021 C 
BRANCH  74  75
ATOM     75  C   UNL     1       6.936  -3.971  -3.112  1.00  0.00     0.116 C 
BRANCH  75  76
ATOM     76  N   UNL     1       6.575  -5.110  -3.934  1.00  0.00    -0.351 N 
ATOM     77  C   UNL     1       7.401  -5.978  -4.610  1.00  0.00     0.270 C 
ATOM     78  H   UNL     1       5.610  -5.286  -4.019  1.00  0.00     0.163 HD
ATOM     79  O   UNL     1       6.921  -6.887  -5.280  1.00  0.00    -0.268 OA
BRANCH  77  80
ATOM     80  C   UNL     1       8.869  -5.821  -4.489  1.00  0.00     0.134 A 
ATOM     81  C   UNL     1       9.475  -5.968  -3.273  1.00  0.00     0.063 A 
ATOM     82  N   UNL     1       9.516  -5.490  -5.611  1.00  0.00    -0.207 NA
ATOM     83  C   UNL     1      10.823  -5.696  -3.256  1.00  0.00     0.077 A 
ATOM     84  C   UNL     1      10.831  -5.278  -5.531  1.00  0.00     0.230 A 
ATOM     85  N   UNL     1      11.514  -5.362  -4.375  1.00  0.00    -0.213 NA
BRANCH  83  86
ATOM     86  C   UNL     1      11.551  -5.669  -1.978  1.00  0.00     0.000 A 
ATOM     87  C   UNL     1      12.306  -4.545  -1.605  1.00  0.00     0.010 A 
ATOM     88  C   UNL     1      11.427  -6.719  -1.050  1.00  0.00     0.010 A 
ATOM     89  C   UNL     1      12.881  -4.456  -0.334  1.00  0.00     0.001 A 
ATOM     90  C   UNL     1      12.005  -6.633   0.219  1.00  0.00     0.001 A 
ATOM     91  C   UNL     1      12.723  -5.496   0.579  1.00  0.00     0.000 A 
ENDBRANCH  83  86
BRANCH  84  92
ATOM     92  N   UNL     1      11.558  -5.034  -6.694  1.00  0.00    -0.300 N 
ATOM     93  H   UNL     1      12.538  -4.965  -6.630  1.00  0.00     0.172 HD
BRANCH  92  94
ATOM     94  C   UNL     1      10.979  -4.888  -7.904  1.00  0.00     0.190 A 
ATOM     95  N   UNL     1       9.823  -4.301  -8.120  1.00  0.00    -0.220 NA
ATOM     96  S   UNL     1      11.737  -5.495  -9.330  1.00  0.00    -0.097 S 
ATOM     97  C   UNL     1       9.390  -4.525  -9.408  1.00  0.00     0.084 A 
ATOM     98  C   UNL     1      10.295  -5.195 -10.229  1.00  0.00     0.056 A 
ATOM     99  C   UNL     1       8.132  -4.159  -9.924  1.00  0.00     0.030 A 
ATOM    100  C   UNL     1       9.976  -5.526 -11.557  1.00  0.00     0.021 A 
ATOM    101  C   UNL     1       7.798  -4.496 -11.237  1.00  0.00     0.002 A 
ATOM    102  C   UNL     1       8.709  -5.175 -12.040  1.00  0.00     0.002 A 
ENDBRANCH  92  94
ENDBRANCH  84  92
ENDBRANCH  77  80
ENDBRANCH  75  76
ENDBRANCH  74  75
ENDBRANCH  73  74
ENDBRANCH   1  73
TORSDOF 16
