REMARK SMILES C[C@H](CNS(=O)(=O)CCC(=O)NCCCCCCNC(=O)c1ccc(-c2c3nc(c(-c4c(F)c(F)c(F)c(F)c4F)c4ccc([nH]4)c(-c4c(F)c(F)c(F)c(F)c4F)c4nc(c(-c5c(F)c(F)c(F)c(F)c5F)c5ccc2[nH]5)C=C4)C=C3)cc1)c1ccccc1
REMARK SMILES IDX 13 1 12 2 10 3 11 4 9 6 8 7 5 8 6 9 7 10 4 11 3 13 2 14 1 15
REMARK SMILES IDX 85 16 86 17 90 18 87 19 89 20 88 21 14 22 15 23 16 24 17 25
REMARK SMILES IDX 18 26 19 27 20 28 21 30 22 31 23 32 84 33 24 34 83 35 25 36
REMARK SMILES IDX 26 37 27 38 77 39 28 40 82 41 76 42 78 43 29 44 81 45 75 46
REMARK SMILES IDX 74 47 30 49 62 50 42 51 61 52 43 53 46 54 60 55 79 56 44 57
REMARK SMILES IDX 45 58 59 60 80 61 47 62 31 63 32 64 40 65 33 66 34 67 38 68
REMARK SMILES IDX 41 69 35 70 36 71 39 72 37 73 63 74 64 75 72 76 65 77 66 78
REMARK SMILES IDX 70 79 73 80 67 81 68 82 71 83 69 84 48 85 49 86 57 87 50 88
REMARK SMILES IDX 51 89 55 90 58 91 52 92 53 93 56 94 54 95
REMARK H PARENT 12 5 4 12 19 29 78 48 46 59
REMARK Flexibility Score: inf
ROOT
ATOM      1  C   UNL     1      -0.724  -2.165   2.789  1.00  0.00     0.116 C 
ENDROOT
BRANCH   1   2
ATOM      2  N   UNL     1       0.347  -2.581   1.887  1.00  0.00    -0.356 N 
ATOM      3  C   UNL     1       1.698  -2.594   2.050  1.00  0.00     0.221 C 
ATOM      4  O   UNL     1       2.382  -3.182   1.211  1.00  0.00    -0.275 OA
ATOM      5  H   UNL     1       0.039  -2.907   1.011  1.00  0.00     0.163 HD
BRANCH   3   6
ATOM      6  C   UNL     1       2.362  -1.841   3.171  1.00  0.00     0.117 C 
BRANCH   6   7
ATOM      7  C   UNL     1       3.059  -0.597   2.638  1.00  0.00     0.164 C 
BRANCH   7   8
ATOM      8  S   UNL     1       1.926   0.695   2.155  1.00  0.00     0.212 S 
ATOM      9  O   UNL     1       2.700   1.871   1.819  1.00  0.00    -0.212 OA
ATOM     10  O   UNL     1       0.903   0.756   3.174  1.00  0.00    -0.212 OA
BRANCH   8  11
ATOM     11  N   UNL     1       1.238   0.112   0.745  1.00  0.00    -0.215 NA
ATOM     12  H   UNL     1       1.387  -0.897   0.740  1.00  0.00     0.141 HD
BRANCH  11  13
ATOM     13  C   UNL     1       1.692   0.612  -0.557  1.00  0.00     0.106 C 
BRANCH  13  14
ATOM     14  C   UNL     1       1.301  -0.278  -1.767  1.00  0.00     0.031 C 
ATOM     15  C   UNL     1       2.066  -1.607  -1.728  1.00  0.00     0.014 C 
BRANCH  14  16
ATOM     16  C   UNL     1      -0.189  -0.422  -2.089  1.00  0.00    -0.044 A 
ATOM     17  C   UNL     1      -0.969   0.726  -2.313  1.00  0.00     0.004 A 
ATOM     18  C   UNL     1      -0.798  -1.671  -2.320  1.00  0.00     0.004 A 
ATOM     19  C   UNL     1      -2.287   0.626  -2.777  1.00  0.00     0.000 A 
ATOM     20  C   UNL     1      -2.118  -1.771  -2.774  1.00  0.00     0.000 A 
ATOM     21  C   UNL     1      -2.854  -0.621  -3.024  1.00  0.00     0.000 A 
ENDBRANCH  14  16
ENDBRANCH  13  14
ENDBRANCH  11  13
ENDBRANCH   8  11
ENDBRANCH   7   8
ENDBRANCH   6   7
ENDBRANCH   3   6
ENDBRANCH   1   2
BRANCH   1  22
ATOM     22  C   UNL     1      -1.572  -1.006   2.260  1.00  0.00     0.021 C 
BRANCH  22  23
ATOM     23  C   UNL     1      -2.185  -1.246   0.882  1.00  0.00     0.002 C 
BRANCH  23  24
ATOM     24  C   UNL     1      -3.613  -1.777   0.919  1.00  0.00     0.002 C 
BRANCH  24  25
ATOM     25  C   UNL     1      -4.639  -0.796   1.487  1.00  0.00     0.021 C 
BRANCH  25  26
ATOM     26  C   UNL     1      -4.676   0.565   0.801  1.00  0.00     0.116 C 
BRANCH  26  27
ATOM     27  N   UNL     1      -5.009   0.455  -0.612  1.00  0.00    -0.352 N 
ATOM     28  C   UNL     1      -6.040   1.013  -1.323  1.00  0.00     0.251 C 
ATOM     29  H   UNL     1      -4.398  -0.109  -1.140  1.00  0.00     0.163 HD
ATOM     30  O   UNL     1      -6.259   0.692  -2.486  1.00  0.00    -0.269 OA
BRANCH  28  31
ATOM     31  C   UNL     1      -6.911   1.984  -0.643  1.00  0.00     0.039 A 
ATOM     32  C   UNL     1      -8.290   1.775  -0.650  1.00  0.00     0.014 A 
ATOM     33  C   UNL     1      -6.343   3.031   0.088  1.00  0.00     0.014 A 
ATOM     34  C   UNL     1      -9.096   2.566   0.163  1.00  0.00     0.010 A 
ATOM     35  C   UNL     1      -7.135   3.747   0.972  1.00  0.00     0.010 A 
ATOM     36  C   UNL     1      -8.516   3.516   1.022  1.00  0.00    -0.014 A 
BRANCH  36  37
ATOM     37  C   UNL     1      -9.351   4.245   2.004  1.00  0.00     0.031 A 
ATOM     38  C   UNL     1      -9.489   5.736   1.912  1.00  0.00     0.074 A 
ATOM     39  C   UNL     1      -9.942   3.552   2.997  1.00  0.00     0.049 A 
ATOM     40  N   UNL     1     -10.199   6.546   2.654  1.00  0.00    -0.248 NA
ATOM     41  C   UNL     1      -8.702   6.414   0.869  1.00  0.00     0.031 C 
ATOM     42  C   UNL     1      -9.795   2.111   3.222  1.00  0.00     0.029 A 
ATOM     43  N   UNL     1     -10.787   3.957   3.996  1.00  0.00    -0.354 N 
ATOM     44  C   UNL     1      -9.942   7.821   2.169  1.00  0.00     0.074 A 
ATOM     45  C   UNL     1      -8.957   7.688   1.120  1.00  0.00     0.031 C 
ATOM     46  C   UNL     1     -10.565   1.746   4.259  1.00  0.00     0.029 A 
ATOM     47  C   UNL     1     -11.230   2.929   4.793  1.00  0.00     0.049 A 
ATOM     48  H   UNL     1     -11.053   4.896   4.130  1.00  0.00     0.167 HD
ATOM     49  C   UNL     1     -10.504   8.992   2.548  1.00  0.00     0.037 A 
ATOM     50  C   UNL     1     -12.087   2.944   5.831  1.00  0.00     0.037 A 
ATOM     51  C   UNL     1     -11.491   9.100   3.590  1.00  0.00     0.049 A 
ATOM     52  C   UNL     1     -12.714   4.257   6.216  1.00  0.00     0.074 A 
ATOM     53  C   UNL     1     -12.171  10.221   4.026  1.00  0.00     0.029 A 
ATOM     54  N   UNL     1     -11.931   8.035   4.367  1.00  0.00    -0.354 N 
ATOM     55  N   UNL     1     -12.537   5.446   5.689  1.00  0.00    -0.248 NA
ATOM     56  C   UNL     1     -13.670   4.229   7.329  1.00  0.00     0.031 C 
ATOM     57  C   UNL     1     -12.980   9.847   5.104  1.00  0.00     0.029 A 
ATOM     58  C   UNL     1     -12.856   8.480   5.298  1.00  0.00     0.049 A 
ATOM     59  H   UNL     1     -11.631   7.103   4.270  1.00  0.00     0.167 HD
ATOM     60  C   UNL     1     -13.371   6.303   6.390  1.00  0.00     0.074 A 
ATOM     61  C   UNL     1     -14.080   5.489   7.357  1.00  0.00     0.031 C 
ATOM     62  C   UNL     1     -13.536   7.644   6.256  1.00  0.00     0.037 A 
BRANCH  49  63
ATOM     63  C   UNL     1     -10.063  10.239   1.833  1.00  0.00     0.064 A 
ATOM     64  C   UNL     1     -10.360  10.459   0.478  1.00  0.00     0.173 A 
ATOM     65  C   UNL     1      -9.348  11.236   2.514  1.00  0.00     0.173 A 
ATOM     66  F   UNL     1     -11.027   9.532  -0.227  1.00  0.00    -0.203 F 
ATOM     67  C   UNL     1      -9.930  11.612  -0.175  1.00  0.00     0.198 A 
ATOM     68  C   UNL     1      -8.950  12.404   1.867  1.00  0.00     0.198 A 
ATOM     69  F   UNL     1      -9.037  11.081   3.809  1.00  0.00    -0.203 F 
ATOM     70  F   UNL     1     -10.176  11.770  -1.483  1.00  0.00    -0.200 F 
ATOM     71  C   UNL     1      -9.233  12.586   0.522  1.00  0.00     0.200 A 
ATOM     72  F   UNL     1      -8.287  13.351   2.545  1.00  0.00    -0.200 F 
ATOM     73  F   UNL     1      -8.826  13.699  -0.105  1.00  0.00    -0.200 F 
ENDBRANCH  49  63
BRANCH  50  74
ATOM     74  C   UNL     1     -12.426   1.683   6.545  1.00  0.00     0.064 A 
ATOM     75  C   UNL     1     -13.716   1.138   6.482  1.00  0.00     0.173 A 
ATOM     76  C   UNL     1     -11.469   0.996   7.306  1.00  0.00     0.173 A 
ATOM     77  F   UNL     1     -14.674   1.761   5.779  1.00  0.00    -0.203 F 
ATOM     78  C   UNL     1     -14.043  -0.028   7.174  1.00  0.00     0.198 A 
ATOM     79  C   UNL     1     -11.787  -0.188   7.970  1.00  0.00     0.198 A 
ATOM     80  F   UNL     1     -10.216   1.466   7.393  1.00  0.00    -0.203 F 
ATOM     81  F   UNL     1     -15.298  -0.496   7.138  1.00  0.00    -0.200 F 
ATOM     82  C   UNL     1     -13.077  -0.693   7.913  1.00  0.00     0.200 A 
ATOM     83  F   UNL     1     -10.844  -0.837   8.666  1.00  0.00    -0.200 F 
ATOM     84  F   UNL     1     -13.389  -1.815   8.574  1.00  0.00    -0.200 F 
ENDBRANCH  50  74
BRANCH  62  85
ATOM     85  C   UNL     1     -14.535   8.295   7.168  1.00  0.00     0.064 A 
ATOM     86  C   UNL     1     -14.310   8.405   8.549  1.00  0.00     0.173 A 
ATOM     87  C   UNL     1     -15.729   8.821   6.653  1.00  0.00     0.173 A 
ATOM     88  F   UNL     1     -13.189   7.906   9.093  1.00  0.00    -0.203 F 
ATOM     89  C   UNL     1     -15.265   8.974   9.386  1.00  0.00     0.198 A 
ATOM     90  C   UNL     1     -16.663   9.426   7.488  1.00  0.00     0.198 A 
ATOM     91  F   UNL     1     -15.989   8.752   5.339  1.00  0.00    -0.203 F 
ATOM     92  F   UNL     1     -15.061   9.001  10.710  1.00  0.00    -0.200 F 
ATOM     93  C   UNL     1     -16.438   9.489   8.854  1.00  0.00     0.200 A 
ATOM     94  F   UNL     1     -17.788   9.940   6.971  1.00  0.00    -0.200 F 
ATOM     95  F   UNL     1     -17.357  10.035   9.662  1.00  0.00    -0.200 F 
ENDBRANCH  62  85
ENDBRANCH  36  37
ENDBRANCH  28  31
ENDBRANCH  26  27
ENDBRANCH  25  26
ENDBRANCH  24  25
ENDBRANCH  23  24
ENDBRANCH  22  23
ENDBRANCH   1  22
TORSDOF 19
