REMARK SMILES O=C(CSc1nc2cnccc2n1CCC(F)(F)F)NCCCCCCNC(=O)c1ccc(-c2c3nc(c(-c4c(F)c(F)c(F)c(F)c4F)c4ccc([nH]4)c(-c4c(F)c(F)c(F)c(F)c4F)c4nc(c(-c5c(F)c(F)c(F)c(F)c5F)c5ccc2[nH]5)C=C4)C=C3)cc1
REMARK SMILES IDX 22 1 21 2 20 3 1 4 2 5 3 7 4 8 5 9 6 10 13 11 7 12 12 13
REMARK SMILES IDX 8 14 11 15 9 16 10 17 14 18 15 19 16 20 17 21 18 22 19 23
REMARK SMILES IDX 23 24 24 25 25 26 26 27 27 28 28 29 29 31 30 32 31 33 92 34
REMARK SMILES IDX 32 35 91 36 33 37 34 38 35 39 85 40 36 41 90 42 84 43 86 44
REMARK SMILES IDX 37 45 89 46 83 47 82 48 38 50 70 51 50 52 69 53 51 54 54 55
REMARK SMILES IDX 68 56 87 57 52 58 53 59 67 61 88 62 55 63 39 64 40 65 48 66
REMARK SMILES IDX 41 67 42 68 46 69 49 70 43 71 44 72 47 73 45 74 71 75 72 76
REMARK SMILES IDX 80 77 73 78 74 79 78 80 81 81 75 82 76 83 79 84 77 85 56 86
REMARK SMILES IDX 57 87 65 88 58 89 59 90 63 91 66 92 60 93 61 94 64 95 62 96
REMARK H PARENT 20 6 27 30 86 49 54 60
REMARK Flexibility Score: inf
ROOT
ATOM      1  C   UNL     1       2.724  -2.500   2.208  1.00  0.00     0.021 C 
ENDROOT
BRANCH   1   2
ATOM      2  C   UNL     1       2.217  -1.058   2.214  1.00  0.00     0.116 C 
BRANCH   2   3
ATOM      3  N   UNL     1       2.646  -0.344   1.030  1.00  0.00    -0.355 N 
ATOM      4  O   UNL     1       0.547  -0.171   0.132  1.00  0.00    -0.274 OA
ATOM      5  C   UNL     1       1.742   0.059   0.061  1.00  0.00     0.230 C 
ATOM      6  H   UNL     1       3.602  -0.140   0.910  1.00  0.00     0.163 HD
BRANCH   5   7
ATOM      7  C   UNL     1       2.354   0.639  -1.201  1.00  0.00     0.178 C 
BRANCH   7   8
ATOM      8  S   UNL     1       3.616   1.899  -0.969  1.00  0.00    -0.078 SA
BRANCH   8   9
ATOM      9  C   UNL     1       2.866   3.107   0.017  1.00  0.00     0.169 A 
ATOM     10  N   UNL     1       1.823   2.912   0.783  1.00  0.00    -0.221 NA
ATOM     11  N   UNL     1       3.363   4.385   0.143  1.00  0.00    -0.318 N 
ATOM     12  C   UNL     1       1.587   4.116   1.401  1.00  0.00     0.108 A 
ATOM     13  C   UNL     1       2.519   5.072   0.996  1.00  0.00     0.072 A 
ATOM     14  C   UNL     1       0.594   4.484   2.314  1.00  0.00     0.141 A 
ATOM     15  C   UNL     1       2.461   6.393   1.447  1.00  0.00     0.049 A 
ATOM     16  N   UNL     1       0.521   5.762   2.773  1.00  0.00    -0.262 NA
ATOM     17  C   UNL     1       1.424   6.666   2.332  1.00  0.00     0.113 A 
BRANCH  11  18
ATOM     18  C   UNL     1       4.495   4.973  -0.552  1.00  0.00     0.134 C 
BRANCH  18  19
ATOM     19  C   UNL     1       5.833   4.897   0.180  1.00  0.00     0.137 C 
BRANCH  19  20
ATOM     20  C   UNL     1       6.481   3.533   0.139  1.00  0.00     0.390 C 
ATOM     21  F   UNL     1       6.551   3.063  -1.123  1.00  0.00    -0.171 F 
ATOM     22  F   UNL     1       7.747   3.605   0.610  1.00  0.00    -0.171 F 
ATOM     23  F   UNL     1       5.825   2.639   0.903  1.00  0.00    -0.171 F 
ENDBRANCH  19  20
ENDBRANCH  18  19
ENDBRANCH  11  18
ENDBRANCH   8   9
ENDBRANCH   7   8
ENDBRANCH   5   7
ENDBRANCH   2   3
ENDBRANCH   1   2
BRANCH   1  24
ATOM     24  C   UNL     1       4.226  -2.638   2.481  1.00  0.00     0.002 C 
BRANCH  24  25
ATOM     25  C   UNL     1       4.677  -2.202   3.880  1.00  0.00     0.002 C 
BRANCH  25  26
ATOM     26  C   UNL     1       3.964  -2.890   5.052  1.00  0.00     0.021 C 
BRANCH  26  27
ATOM     27  C   UNL     1       3.984  -4.419   5.001  1.00  0.00     0.116 C 
BRANCH  27  28
ATOM     28  N   UNL     1       5.318  -4.982   4.999  1.00  0.00    -0.352 N 
ATOM     29  C   UNL     1       6.227  -5.316   5.963  1.00  0.00     0.251 C 
ATOM     30  H   UNL     1       5.648  -5.168   4.090  1.00  0.00     0.163 HD
ATOM     31  O   UNL     1       7.254  -5.876   5.572  1.00  0.00    -0.269 OA
BRANCH  29  32
ATOM     32  C   UNL     1       6.095  -5.006   7.415  1.00  0.00     0.039 A 
ATOM     33  C   UNL     1       4.979  -4.437   8.030  1.00  0.00     0.014 A 
ATOM     34  C   UNL     1       7.230  -5.271   8.206  1.00  0.00     0.014 A 
ATOM     35  C   UNL     1       5.028  -4.047   9.364  1.00  0.00     0.010 A 
ATOM     36  C   UNL     1       7.277  -4.904   9.547  1.00  0.00     0.010 A 
ATOM     37  C   UNL     1       6.191  -4.240  10.111  1.00  0.00    -0.014 A 
BRANCH  37  38
ATOM     38  C   UNL     1       6.206  -3.737  11.482  1.00  0.00     0.031 A 
ATOM     39  C   UNL     1       5.228  -4.349  12.433  1.00  0.00     0.074 A 
ATOM     40  C   UNL     1       7.111  -2.835  11.909  1.00  0.00     0.049 A 
ATOM     41  N   UNL     1       4.350  -3.762  13.186  1.00  0.00    -0.248 NA
ATOM     42  C   UNL     1       5.202  -5.817  12.521  1.00  0.00     0.031 C 
ATOM     43  C   UNL     1       8.305  -2.345  11.215  1.00  0.00     0.029 A 
ATOM     44  N   UNL     1       7.196  -2.234  13.130  1.00  0.00    -0.354 N 
ATOM     45  C   UNL     1       3.739  -4.769  13.934  1.00  0.00     0.074 A 
ATOM     46  C   UNL     1       4.250  -6.020  13.432  1.00  0.00     0.031 C 
ATOM     47  C   UNL     1       9.104  -1.710  12.100  1.00  0.00     0.029 A 
ATOM     48  C   UNL     1       8.418  -1.630  13.378  1.00  0.00     0.049 A 
ATOM     49  H   UNL     1       6.455  -2.231  13.778  1.00  0.00     0.167 HD
ATOM     50  C   UNL     1       2.945  -4.515  15.012  1.00  0.00     0.037 A 
ATOM     51  C   UNL     1       8.860  -1.177  14.575  1.00  0.00     0.037 A 
ATOM     52  C   UNL     1       2.451  -3.169  15.016  1.00  0.00     0.049 A 
ATOM     53  C   UNL     1       7.681  -0.989  15.455  1.00  0.00     0.074 A 
ATOM     54  C   UNL     1       1.609  -2.446  14.194  1.00  0.00     0.029 A 
ATOM     55  N   UNL     1       3.051  -2.242  15.827  1.00  0.00    -0.354 N 
ATOM     56  N   UNL     1       6.777  -0.065  15.290  1.00  0.00    -0.248 NA
ATOM     57  C   UNL     1       7.293  -2.098  16.312  1.00  0.00     0.031 C 
ATOM     58  C   UNL     1       2.123  -1.117  14.213  1.00  0.00     0.029 A 
ATOM     59  C   UNL     1       3.225  -1.113  15.068  1.00  0.00     0.049 A 
ATOM     60  H   UNL     1       3.307  -2.363  16.770  1.00  0.00     0.167 HD
ATOM     61  C   UNL     1       5.587  -0.665  15.671  1.00  0.00     0.074 A 
ATOM     62  C   UNL     1       5.980  -1.876  16.384  1.00  0.00     0.031 C 
ATOM     63  C   UNL     1       4.394  -0.271  15.139  1.00  0.00     0.037 A 
BRANCH  50  64
ATOM     64  C   UNL     1       2.797  -5.429  16.199  1.00  0.00     0.064 A 
ATOM     65  C   UNL     1       1.756  -5.227  17.128  1.00  0.00     0.173 A 
ATOM     66  C   UNL     1       3.806  -6.330  16.599  1.00  0.00     0.173 A 
ATOM     67  F   UNL     1       0.763  -4.365  16.866  1.00  0.00    -0.203 F 
ATOM     68  C   UNL     1       1.753  -5.851  18.380  1.00  0.00     0.198 A 
ATOM     69  C   UNL     1       3.774  -6.989  17.827  1.00  0.00     0.198 A 
ATOM     70  F   UNL     1       4.907  -6.523  15.860  1.00  0.00    -0.203 F 
ATOM     71  F   UNL     1       0.798  -5.551  19.271  1.00  0.00    -0.200 F 
ATOM     72  C   UNL     1       2.761  -6.731  18.728  1.00  0.00     0.200 A 
ATOM     73  F   UNL     1       4.771  -7.821  18.157  1.00  0.00    -0.200 F 
ATOM     74  F   UNL     1       2.785  -7.291  19.945  1.00  0.00    -0.200 F 
ENDBRANCH  50  64
BRANCH  51  75
ATOM     75  C   UNL     1      10.240  -1.236  15.110  1.00  0.00     0.064 A 
ATOM     76  C   UNL     1      10.612  -0.472  16.227  1.00  0.00     0.173 A 
ATOM     77  C   UNL     1      11.134  -2.253  14.719  1.00  0.00     0.173 A 
ATOM     78  F   UNL     1       9.796   0.486  16.690  1.00  0.00    -0.203 F 
ATOM     79  C   UNL     1      11.792  -0.731  16.930  1.00  0.00     0.198 A 
ATOM     80  C   UNL     1      12.316  -2.503  15.415  1.00  0.00     0.198 A 
ATOM     81  F   UNL     1      10.831  -3.090  13.717  1.00  0.00    -0.203 F 
ATOM     82  F   UNL     1      12.081  -0.027  18.034  1.00  0.00    -0.200 F 
ATOM     83  C   UNL     1      12.637  -1.753  16.530  1.00  0.00     0.200 A 
ATOM     84  F   UNL     1      13.107  -3.517  15.037  1.00  0.00    -0.200 F 
ATOM     85  F   UNL     1      13.735  -2.043  17.241  1.00  0.00    -0.200 F 
ENDBRANCH  51  75
BRANCH  63  86
ATOM     86  C   UNL     1       4.370   0.994  14.330  1.00  0.00     0.064 A 
ATOM     87  C   UNL     1       5.084   1.165  13.131  1.00  0.00     0.173 A 
ATOM     88  C   UNL     1       3.477   2.010  14.698  1.00  0.00     0.173 A 
ATOM     89  F   UNL     1       5.873   0.194  12.655  1.00  0.00    -0.203 F 
ATOM     90  C   UNL     1       4.946   2.321  12.365  1.00  0.00     0.198 A 
ATOM     91  C   UNL     1       3.312   3.147  13.911  1.00  0.00     0.198 A 
ATOM     92  F   UNL     1       2.721   1.875  15.800  1.00  0.00    -0.203 F 
ATOM     93  F   UNL     1       5.648   2.465  11.231  1.00  0.00    -0.200 F 
ATOM     94  C   UNL     1       4.054   3.307  12.752  1.00  0.00     0.200 A 
ATOM     95  F   UNL     1       2.410   4.074  14.261  1.00  0.00    -0.200 F 
ATOM     96  F   UNL     1       3.888   4.399  11.992  1.00  0.00    -0.200 F 
ENDBRANCH  63  86
ENDBRANCH  37  38
ENDBRANCH  29  32
ENDBRANCH  27  28
ENDBRANCH  26  27
ENDBRANCH  25  26
ENDBRANCH  24  25
ENDBRANCH   1  24
TORSDOF 18
