REMARK SMILES O=C(NCCCCCCNC(=O)c1ccccc1/C=N\NC(=S)NCc1ccccc1)c1ccc(-c2c3nc(c(-c4c(F)c(F)c(F)c(F)c4F)c4ccc([nH]4)c(-c4c(F)c(F)c(F)c(F)c4F)c4nc(c(-c5c(F)c(F)c(F)c(F)c5F)c5ccc2[nH]5)C=C4)C=C3)cc1
REMARK SMILES IDX 8 1 7 2 6 3 5 4 4 5 3 6 1 7 2 8 32 10 33 11 94 12 34 13
REMARK SMILES IDX 93 14 35 15 36 16 37 17 87 18 38 19 92 20 86 21 88 22 39 23
REMARK SMILES IDX 91 24 85 25 84 26 40 28 72 29 52 30 71 31 53 32 56 33 70 34
REMARK SMILES IDX 89 35 54 36 55 37 69 39 90 40 57 41 41 42 42 43 50 44 43 45
REMARK SMILES IDX 44 46 48 47 51 48 45 49 46 50 49 51 47 52 73 53 74 54 82 55
REMARK SMILES IDX 75 56 76 57 80 58 83 59 77 60 78 61 81 62 79 63 58 64 59 65
REMARK SMILES IDX 67 66 60 67 61 68 65 69 68 70 62 71 63 72 66 73 64 74 9 75
REMARK SMILES IDX 10 76 11 77 12 79 13 80 14 81 18 82 15 83 17 84 16 85 19 86
REMARK SMILES IDX 20 87 21 88 22 90 23 91 24 92 25 94 26 95 27 96 31 97 28 98
REMARK SMILES IDX 30 99 29 100
REMARK H PARENT 3 9 88 27 56 38 10 78 21 89 24 93
REMARK Flexibility Score: inf
ROOT
ATOM      1  C   UNL     1       5.953   1.738   4.432  1.00  0.00     0.021 C 
ENDROOT
BRANCH   1   2
ATOM      2  C   UNL     1       4.438   1.596   4.281  1.00  0.00     0.002 C 
BRANCH   2   3
ATOM      3  C   UNL     1       3.826   2.317   3.075  1.00  0.00     0.002 C 
BRANCH   3   4
ATOM      4  C   UNL     1       4.483   2.026   1.721  1.00  0.00     0.021 C 
BRANCH   4   5
ATOM      5  C   UNL     1       4.389   0.574   1.272  1.00  0.00     0.116 C 
BRANCH   5   6
ATOM      6  N   UNL     1       3.009   0.169   1.067  1.00  0.00    -0.352 N 
ATOM      7  O   UNL     1       1.126  -0.194  -0.114  1.00  0.00    -0.269 OA
ATOM      8  C   UNL     1       2.352  -0.139  -0.096  1.00  0.00     0.251 C 
ATOM      9  H   UNL     1       2.465   0.106   1.885  1.00  0.00     0.163 HD
BRANCH   8  10
ATOM     10  C   UNL     1       3.117  -0.416  -1.330  1.00  0.00     0.039 A 
ATOM     11  C   UNL     1       4.265  -1.213  -1.291  1.00  0.00     0.014 A 
ATOM     12  C   UNL     1       2.639   0.067  -2.551  1.00  0.00     0.014 A 
ATOM     13  C   UNL     1       4.989  -1.444  -2.454  1.00  0.00     0.010 A 
ATOM     14  C   UNL     1       3.324  -0.232  -3.732  1.00  0.00     0.010 A 
ATOM     15  C   UNL     1       4.509  -0.983  -3.690  1.00  0.00    -0.014 A 
BRANCH  15  16
ATOM     16  C   UNL     1       5.204  -1.386  -4.937  1.00  0.00     0.031 A 
ATOM     17  C   UNL     1       5.884  -0.374  -5.810  1.00  0.00     0.074 A 
ATOM     18  C   UNL     1       5.205  -2.690  -5.274  1.00  0.00     0.049 A 
ATOM     19  N   UNL     1       6.517  -0.556  -6.942  1.00  0.00    -0.248 NA
ATOM     20  C   UNL     1       5.845   1.026  -5.362  1.00  0.00     0.031 C 
ATOM     21  C   UNL     1       4.559  -3.757  -4.506  1.00  0.00     0.029 A 
ATOM     22  N   UNL     1       5.766  -3.344  -6.341  1.00  0.00    -0.354 N 
ATOM     23  C   UNL     1       6.935   0.703  -7.351  1.00  0.00     0.074 A 
ATOM     24  C   UNL     1       6.467   1.646  -6.357  1.00  0.00     0.031 C 
ATOM     25  C   UNL     1       4.782  -4.933  -5.109  1.00  0.00     0.029 A 
ATOM     26  C   UNL     1       5.530  -4.697  -6.338  1.00  0.00     0.049 A 
ATOM     27  H   UNL     1       6.287  -2.888  -7.041  1.00  0.00     0.167 HD
ATOM     28  C   UNL     1       7.649   1.033  -8.454  1.00  0.00     0.037 A 
ATOM     29  C   UNL     1       5.854  -5.641  -7.241  1.00  0.00     0.037 A 
ATOM     30  C   UNL     1       8.120   0.081  -9.429  1.00  0.00     0.049 A 
ATOM     31  C   UNL     1       6.615  -5.238  -8.470  1.00  0.00     0.074 A 
ATOM     32  C   UNL     1       8.901   0.308 -10.548  1.00  0.00     0.029 A 
ATOM     33  N   UNL     1       7.842  -1.278  -9.406  1.00  0.00    -0.354 N 
ATOM     34  N   UNL     1       7.056  -4.053  -8.817  1.00  0.00    -0.248 NA
ATOM     35  C   UNL     1       6.921  -6.300  -9.437  1.00  0.00     0.031 C 
ATOM     36  C   UNL     1       9.048  -0.902 -11.233  1.00  0.00     0.029 A 
ATOM     37  C   UNL     1       8.406  -1.896 -10.511  1.00  0.00     0.049 A 
ATOM     38  H   UNL     1       7.320  -1.737  -8.708  1.00  0.00     0.167 HD
ATOM     39  C   UNL     1       7.702  -4.227 -10.031  1.00  0.00     0.074 A 
ATOM     40  C   UNL     1       7.617  -5.638 -10.350  1.00  0.00     0.031 C 
ATOM     41  C   UNL     1       8.308  -3.301 -10.814  1.00  0.00     0.037 A 
BRANCH  28  42
ATOM     42  C   UNL     1       7.953   2.485  -8.686  1.00  0.00     0.064 A 
ATOM     43  C   UNL     1       8.882   3.181  -7.899  1.00  0.00     0.173 A 
ATOM     44  C   UNL     1       7.352   3.172  -9.752  1.00  0.00     0.173 A 
ATOM     45  F   UNL     1       9.478   2.574  -6.862  1.00  0.00    -0.203 F 
ATOM     46  C   UNL     1       9.182   4.517  -8.159  1.00  0.00     0.198 A 
ATOM     47  C   UNL     1       7.675   4.499 -10.025  1.00  0.00     0.198 A 
ATOM     48  F   UNL     1       6.461   2.551 -10.541  1.00  0.00    -0.203 F 
ATOM     49  F   UNL     1      10.046   5.173  -7.371  1.00  0.00    -0.200 F 
ATOM     50  C   UNL     1       8.585   5.172  -9.226  1.00  0.00     0.200 A 
ATOM     51  F   UNL     1       7.107   5.125 -11.066  1.00  0.00    -0.200 F 
ATOM     52  F   UNL     1       8.885   6.453  -9.481  1.00  0.00    -0.200 F 
ENDBRANCH  28  42
BRANCH  29  53
ATOM     53  C   UNL     1       5.438  -7.050  -7.018  1.00  0.00     0.064 A 
ATOM     54  C   UNL     1       6.382  -8.051  -6.757  1.00  0.00     0.173 A 
ATOM     55  C   UNL     1       4.084  -7.421  -7.050  1.00  0.00     0.173 A 
ATOM     56  F   UNL     1       7.689  -7.749  -6.733  1.00  0.00    -0.203 F 
ATOM     57  C   UNL     1       5.991  -9.373  -6.554  1.00  0.00     0.198 A 
ATOM     58  C   UNL     1       3.692  -8.736  -6.815  1.00  0.00     0.198 A 
ATOM     59  F   UNL     1       3.140  -6.498  -7.289  1.00  0.00    -0.203 F 
ATOM     60  F   UNL     1       6.917 -10.319  -6.349  1.00  0.00    -0.200 F 
ATOM     61  C   UNL     1       4.646  -9.713  -6.576  1.00  0.00     0.200 A 
ATOM     62  F   UNL     1       2.391  -9.055  -6.819  1.00  0.00    -0.200 F 
ATOM     63  F   UNL     1       4.271 -10.982  -6.372  1.00  0.00    -0.200 F 
ENDBRANCH  29  53
BRANCH  41  64
ATOM     64  C   UNL     1       8.945  -3.791 -12.081  1.00  0.00     0.064 A 
ATOM     65  C   UNL     1       8.173  -4.197 -13.180  1.00  0.00     0.173 A 
ATOM     66  C   UNL     1      10.341  -3.819 -12.210  1.00  0.00     0.173 A 
ATOM     67  F   UNL     1       6.834  -4.206 -13.098  1.00  0.00    -0.203 F 
ATOM     68  C   UNL     1       8.778  -4.635 -14.355  1.00  0.00     0.198 A 
ATOM     69  C   UNL     1      10.942  -4.229 -13.397  1.00  0.00     0.198 A 
ATOM     70  F   UNL     1      11.123  -3.438 -11.189  1.00  0.00    -0.203 F 
ATOM     71  F   UNL     1       8.023  -5.062 -15.376  1.00  0.00    -0.200 F 
ATOM     72  C   UNL     1      10.161  -4.642 -14.465  1.00  0.00     0.200 A 
ATOM     73  F   UNL     1      12.278  -4.223 -13.506  1.00  0.00    -0.200 F 
ATOM     74  F   UNL     1      10.741  -5.056 -15.600  1.00  0.00    -0.200 F 
ENDBRANCH  41  64
ENDBRANCH  15  16
ENDBRANCH   8  10
ENDBRANCH   5   6
ENDBRANCH   4   5
ENDBRANCH   3   4
ENDBRANCH   2   3
ENDBRANCH   1   2
BRANCH   1  75
ATOM     75  C   UNL     1       6.495   3.156   4.257  1.00  0.00     0.116 C 
BRANCH  75  76
ATOM     76  N   UNL     1       6.438   3.999   5.439  1.00  0.00    -0.352 N 
ATOM     77  C   UNL     1       7.429   4.658   6.139  1.00  0.00     0.251 C 
ATOM     78  H   UNL     1       5.533   4.123   5.806  1.00  0.00     0.163 HD
ATOM     79  O   UNL     1       7.140   5.352   7.108  1.00  0.00    -0.269 OA
BRANCH  77  80
ATOM     80  C   UNL     1       8.852   4.371   5.869  1.00  0.00     0.048 A 
ATOM     81  C   UNL     1       9.738   3.603   7.251  1.00  0.00     0.014 A 
ATOM     82  C   UNL     1       9.480   4.133   4.190  1.00  0.00     0.007 A 
ATOM     83  C   UNL     1      11.270   2.669   6.965  1.00  0.00     0.001 A 
ATOM     84  C   UNL     1      11.041   3.220   3.882  1.00  0.00     0.010 A 
ATOM     85  C   UNL     1      11.918   2.495   5.284  1.00  0.00     0.001 A 
BRANCH  82  86
ATOM     86  C   UNL     1       9.204   5.185   3.262  1.00  0.00     0.142 C 
ATOM     87  N   UNL     1      10.101   6.090   3.111  1.00  0.00    -0.181 NA
BRANCH  87  88
ATOM     88  N   UNL     1      11.181   6.062   3.966  1.00  0.00    -0.254 N 
ATOM     89  H   UNL     1      11.932   6.620   3.661  1.00  0.00     0.193 HD
BRANCH  88  90
ATOM     90  C   UNL     1      11.428   5.423   5.146  1.00  0.00     0.187 C 
ATOM     91  S   UNL     1      12.590   6.159   6.128  1.00  0.00    -0.039 S 
BRANCH  90  92
ATOM     92  N   UNL     1      10.874   4.215   5.643  1.00  0.00    -0.357 N 
ATOM     93  H   UNL     1      11.156   4.199   6.586  1.00  0.00     0.163 HD
BRANCH  92  94
ATOM     94  C   UNL     1       9.778   2.460   5.423  1.00  0.00     0.151 C 
BRANCH  94  95
ATOM     95  C   UNL     1       9.807   0.906   6.022  1.00  0.00    -0.029 A 
ATOM     96  C   UNL     1       8.948   0.570   7.097  1.00  0.00     0.005 A 
ATOM     97  C   UNL     1      10.270  -0.127   5.185  1.00  0.00     0.005 A 
ATOM     98  C   UNL     1       8.534  -0.747   7.294  1.00  0.00     0.000 A 
ATOM     99  C   UNL     1       9.849  -1.442   5.392  1.00  0.00     0.000 A 
ATOM    100  C   UNL     1       8.967  -1.747   6.429  1.00  0.00     0.000 A 
ENDBRANCH  94  95
ENDBRANCH  92  94
ENDBRANCH  90  92
ENDBRANCH  88  90
ENDBRANCH  87  88
ENDBRANCH  82  86
ENDBRANCH  77  80
ENDBRANCH  75  76
ENDBRANCH   1  75
TORSDOF 19
