REMARK SMILES [NH3+]Cc1c(-c2ccccc2)c(C(=O)NCCCCCCNC(=O)c2ccc(-c3c4nc(c(-c5c(F)c(F)c(F)c(F)c5F)c5ccc([nH]5)c(-c5c(F)c(F)c(F)c(F)c5F)c5nc(c(-c6c(F)c(F)c(F)c(F)c6F)c6ccc3[nH]6)C=C5)C=C4)cc2)c2ccccn12
REMARK SMILES IDX 17 1 16 2 15 3 14 4 12 5 13 6 11 8 3 9 4 10 92 11 87 12
REMARK SMILES IDX 91 13 88 14 90 15 89 16 2 17 1 18 5 22 6 23 10 24 7 25 9 26
REMARK SMILES IDX 8 27 18 28 19 29 20 30 21 31 22 32 23 34 24 35 25 36 86 37
REMARK SMILES IDX 26 38 85 39 27 40 28 41 29 42 79 43 30 44 84 45 78 46 80 47
REMARK SMILES IDX 31 48 83 49 77 50 76 51 32 53 64 54 44 55 63 56 45 57 48 58
REMARK SMILES IDX 62 59 81 60 46 61 47 62 61 64 82 65 49 66 33 67 34 68 42 69
REMARK SMILES IDX 35 70 36 71 40 72 43 73 37 74 38 75 41 76 39 77 65 78 66 79
REMARK SMILES IDX 74 80 67 81 68 82 72 83 75 84 69 85 70 86 73 87 71 88 50 89
REMARK SMILES IDX 51 90 59 91 52 92 53 93 57 94 60 95 54 96 55 97 58 98 56 99
REMARK H PARENT 14 7 1 19 1 20 1 21 21 33 80 52 48 63
REMARK Flexibility Score: inf
ROOT
ATOM      1  C   UNL     1       2.130  -0.724   9.705  1.00  0.00     0.002 C 
ENDROOT
BRANCH   1   2
ATOM      2  C   UNL     1       1.243  -0.308   8.529  1.00  0.00     0.021 C 
BRANCH   2   3
ATOM      3  C   UNL     1       1.886  -0.290   7.147  1.00  0.00     0.116 C 
BRANCH   3   4
ATOM      4  N   UNL     1       2.367  -1.564   6.670  1.00  0.00    -0.352 N 
ATOM      5  C   UNL     1       2.506  -2.050   5.387  1.00  0.00     0.254 C 
ATOM      6  O   UNL     1       3.049  -3.151   5.288  1.00  0.00    -0.269 OA
ATOM      7  H   UNL     1       2.642  -2.190   7.378  1.00  0.00     0.163 HD
BRANCH   5   8
ATOM      8  C   UNL     1       1.965  -1.345   4.215  1.00  0.00     0.073 A 
ATOM      9  C   UNL     1       0.956  -1.017   2.162  1.00  0.00     0.086 A 
ATOM     10  C   UNL     1       1.446  -1.991   3.028  1.00  0.00     0.022 A 
ATOM     11  N   UNL     1       1.107   0.198   2.806  1.00  0.00    -0.314 N 
ATOM     12  C   UNL     1       1.927   0.015   3.921  1.00  0.00     0.059 A 
ATOM     13  C   UNL     1       0.589   1.451   2.455  1.00  0.00     0.092 A 
ATOM     14  C   UNL     1       2.467   1.203   4.504  1.00  0.00     0.027 A 
ATOM     15  C   UNL     1       0.967   2.546   3.133  1.00  0.00     0.018 A 
ATOM     16  C   UNL     1       1.985   2.410   4.154  1.00  0.00     0.004 A 
BRANCH   9  17
ATOM     17  C   UNL     1       0.335  -1.150   0.808  1.00  0.00     0.315 C 
BRANCH  17  18
ATOM     18  N   UNL     1       1.105  -0.438  -0.206  1.00  0.00    -0.353 N 
ATOM     19  H   UNL     1       0.656  -0.548  -1.115  1.00  0.00     0.344 HD
ATOM     20  H   UNL     1       2.050  -0.819  -0.245  1.00  0.00     0.344 HD
ATOM     21  H   UNL     1       1.149   0.553   0.034  1.00  0.00     0.344 HD
ENDBRANCH  17  18
ENDBRANCH   9  17
BRANCH  10  22
ATOM     22  C   UNL     1       1.412  -3.413   2.715  1.00  0.00    -0.016 A 
ATOM     23  C   UNL     1       0.588  -4.283   3.437  1.00  0.00     0.009 A 
ATOM     24  C   UNL     1       2.239  -3.928   1.707  1.00  0.00     0.009 A 
ATOM     25  C   UNL     1       0.597  -5.652   3.158  1.00  0.00     0.001 A 
ATOM     26  C   UNL     1       2.242  -5.296   1.427  1.00  0.00     0.001 A 
ATOM     27  C   UNL     1       1.425  -6.157   2.155  1.00  0.00     0.000 A 
ENDBRANCH  10  22
ENDBRANCH   5   8
ENDBRANCH   3   4
ENDBRANCH   2   3
ENDBRANCH   1   2
BRANCH   1  28
ATOM     28  C   UNL     1       3.484  -0.022   9.845  1.00  0.00     0.002 C 
BRANCH  28  29
ATOM     29  C   UNL     1       3.476   1.508   9.835  1.00  0.00     0.021 C 
BRANCH  29  30
ATOM     30  C   UNL     1       2.523   2.183  10.815  1.00  0.00     0.116 C 
BRANCH  30  31
ATOM     31  N   UNL     1       2.778   1.822  12.198  1.00  0.00    -0.352 N 
ATOM     32  C   UNL     1       2.965   2.623  13.299  1.00  0.00     0.251 C 
ATOM     33  H   UNL     1       2.824   0.855  12.375  1.00  0.00     0.163 HD
ATOM     34  O   UNL     1       3.306   2.128  14.367  1.00  0.00    -0.269 OA
BRANCH  32  35
ATOM     35  C   UNL     1       2.786   4.089  13.196  1.00  0.00     0.039 A 
ATOM     36  C   UNL     1       3.732   4.922  13.799  1.00  0.00     0.014 A 
ATOM     37  C   UNL     1       1.691   4.645  12.528  1.00  0.00     0.014 A 
ATOM     38  C   UNL     1       3.620   6.309  13.672  1.00  0.00     0.010 A 
ATOM     39  C   UNL     1       1.619   6.024  12.341  1.00  0.00     0.010 A 
ATOM     40  C   UNL     1       2.585   6.870  12.907  1.00  0.00    -0.014 A 
BRANCH  40  41
ATOM     41  C   UNL     1       2.511   8.335  12.672  1.00  0.00     0.031 A 
ATOM     42  C   UNL     1       1.345   9.133  13.186  1.00  0.00     0.074 A 
ATOM     43  C   UNL     1       3.466   8.937  11.936  1.00  0.00     0.049 A 
ATOM     44  N   UNL     1       1.071  10.403  13.019  1.00  0.00    -0.248 NA
ATOM     45  C   UNL     1       0.341   8.401  13.973  1.00  0.00     0.031 C 
ATOM     46  C   UNL     1       4.626   8.265  11.347  1.00  0.00     0.029 A 
ATOM     47  N   UNL     1       3.609  10.246  11.547  1.00  0.00    -0.354 N 
ATOM     48  C   UNL     1      -0.137  10.618  13.669  1.00  0.00     0.074 A 
ATOM     49  C   UNL     1      -0.571   9.339  14.187  1.00  0.00     0.031 C 
ATOM     50  C   UNL     1       5.371   9.168  10.690  1.00  0.00     0.029 A 
ATOM     51  C   UNL     1       4.721  10.472  10.772  1.00  0.00     0.049 A 
ATOM     52  H   UNL     1       2.975  10.956  11.800  1.00  0.00     0.167 HD
ATOM     53  C   UNL     1      -0.810  11.782  13.837  1.00  0.00     0.037 A 
ATOM     54  C   UNL     1       5.160  11.601  10.182  1.00  0.00     0.037 A 
ATOM     55  C   UNL     1      -0.366  13.055  13.331  1.00  0.00     0.049 A 
ATOM     56  C   UNL     1       4.377  12.873  10.361  1.00  0.00     0.074 A 
ATOM     57  C   UNL     1      -0.949  14.300  13.495  1.00  0.00     0.029 A 
ATOM     58  N   UNL     1       0.767  13.245  12.552  1.00  0.00    -0.354 N 
ATOM     59  N   UNL     1       3.272  13.079  11.036  1.00  0.00    -0.248 NA
ATOM     60  C   UNL     1       4.906  14.074   9.698  1.00  0.00     0.031 C 
ATOM     61  C   UNL     1      -0.202  15.233  12.768  1.00  0.00     0.029 A 
ATOM     62  C   UNL     1       0.882  14.582  12.203  1.00  0.00     0.049 A 
ATOM     63  H   UNL     1       1.396  12.536  12.288  1.00  0.00     0.167 HD
ATOM     64  C   UNL     1       2.989  14.432  10.903  1.00  0.00     0.074 A 
ATOM     65  C   UNL     1       4.050  15.002  10.099  1.00  0.00     0.031 C 
ATOM     66  C   UNL     1       1.945  15.138  11.402  1.00  0.00     0.037 A 
BRANCH  53  67
ATOM     67  C   UNL     1      -2.106  11.734  14.597  1.00  0.00     0.064 A 
ATOM     68  C   UNL     1      -2.145  11.468  15.974  1.00  0.00     0.173 A 
ATOM     69  C   UNL     1      -3.322  11.999  13.948  1.00  0.00     0.173 A 
ATOM     70  F   UNL     1      -1.013  11.199  16.642  1.00  0.00    -0.203 F 
ATOM     71  C   UNL     1      -3.353  11.438  16.666  1.00  0.00     0.198 A 
ATOM     72  C   UNL     1      -4.525  12.002  14.649  1.00  0.00     0.198 A 
ATOM     73  F   UNL     1      -3.344  12.266  12.633  1.00  0.00    -0.203 F 
ATOM     74  F   UNL     1      -3.369  11.130  17.970  1.00  0.00    -0.200 F 
ATOM     75  C   UNL     1      -4.541  11.713  16.005  1.00  0.00     0.200 A 
ATOM     76  F   UNL     1      -5.670  12.283  14.012  1.00  0.00    -0.200 F 
ATOM     77  F   UNL     1      -5.702  11.693  16.674  1.00  0.00    -0.200 F 
ENDBRANCH  53  67
BRANCH  54  78
ATOM     78  C   UNL     1       6.409  11.581   9.375  1.00  0.00     0.064 A 
ATOM     79  C   UNL     1       7.557  12.261   9.806  1.00  0.00     0.173 A 
ATOM     80  C   UNL     1       6.480  10.892   8.155  1.00  0.00     0.173 A 
ATOM     81  F   UNL     1       7.533  12.951  10.956  1.00  0.00    -0.203 F 
ATOM     82  C   UNL     1       8.719  12.272   9.038  1.00  0.00     0.198 A 
ATOM     83  C   UNL     1       7.652  10.877   7.403  1.00  0.00     0.198 A 
ATOM     84  F   UNL     1       5.412  10.221   7.699  1.00  0.00    -0.203 F 
ATOM     85  F   UNL     1       9.784  12.973   9.449  1.00  0.00    -0.200 F 
ATOM     86  C   UNL     1       8.768  11.575   7.840  1.00  0.00     0.200 A 
ATOM     87  F   UNL     1       7.700  10.188   6.255  1.00  0.00    -0.200 F 
ATOM     88  F   UNL     1       9.887  11.583   7.103  1.00  0.00    -0.200 F 
ENDBRANCH  54  78
BRANCH  66  89
ATOM     89  C   UNL     1       1.913  16.613  11.121  1.00  0.00     0.064 A 
ATOM     90  C   UNL     1       1.660  17.115   9.835  1.00  0.00     0.173 A 
ATOM     91  C   UNL     1       2.106  17.538  12.159  1.00  0.00     0.173 A 
ATOM     92  F   UNL     1       1.485  16.273   8.805  1.00  0.00    -0.203 F 
ATOM     93  C   UNL     1       1.631  18.486   9.594  1.00  0.00     0.198 A 
ATOM     94  C   UNL     1       2.041  18.908  11.921  1.00  0.00     0.198 A 
ATOM     95  F   UNL     1       2.345  17.113  13.408  1.00  0.00    -0.203 F 
ATOM     96  F   UNL     1       1.442  18.941   8.348  1.00  0.00    -0.200 F 
ATOM     97  C   UNL     1       1.813  19.381  10.637  1.00  0.00     0.200 A 
ATOM     98  F   UNL     1       2.201  19.771  12.934  1.00  0.00    -0.200 F 
ATOM     99  F   UNL     1       1.776  20.700  10.405  1.00  0.00    -0.200 F 
ENDBRANCH  66  89
ENDBRANCH  40  41
ENDBRANCH  32  35
ENDBRANCH  30  31
ENDBRANCH  29  30
ENDBRANCH  28  29
ENDBRANCH   1  28
TORSDOF 16
