REMARK SMILES CCOc1ccccc1Nc1ccc(C(=O)NCCCCCCNC(=O)c2ccc(-c3c4nc(c(-c5c(F)c(F)c(F)c(F)c5F)c5ccc([nH]5)c(-c5c(F)c(F)c(F)c(F)c5F)c5nc(c(-c6c(F)c(F)c(F)c(F)c6F)c6ccc3[nH]6)C=C5)C=C4)cc2)cc1N
REMARK SMILES IDX 19 1 18 2 17 3 15 4 16 5 14 7 11 8 12 9 91 10 13 11 90 12
REMARK SMILES IDX 10 13 9 15 4 16 5 17 6 18 8 19 7 20 3 21 2 22 1 23 92 24
REMARK SMILES IDX 20 27 21 28 22 29 23 30 24 31 25 32 26 34 27 35 28 36 89 37
REMARK SMILES IDX 29 38 88 39 30 40 31 41 32 42 82 43 33 44 87 45 81 46 83 47
REMARK SMILES IDX 34 48 86 49 80 50 79 51 35 53 67 54 47 55 66 56 48 57 51 58
REMARK SMILES IDX 65 59 84 60 49 61 50 62 64 64 85 65 52 66 36 67 37 68 45 69
REMARK SMILES IDX 38 70 39 71 43 72 46 73 40 74 41 75 44 76 42 77 68 78 69 79
REMARK SMILES IDX 77 80 70 81 71 82 75 83 78 84 72 85 73 86 76 87 74 88 53 89
REMARK SMILES IDX 54 90 62 91 55 92 56 93 60 94 63 95 57 96 58 97 61 98 59 99
REMARK H PARENT 17 6 10 14 92 25 92 26 24 33 83 52 51 63
REMARK Flexibility Score: inf
ROOT
ATOM      1  C   UNL     1       7.585   4.321   1.819  1.00  0.00     0.021 C 
ENDROOT
BRANCH   1   2
ATOM      2  C   UNL     1       7.573   2.965   2.527  1.00  0.00     0.116 C 
BRANCH   2   3
ATOM      3  N   UNL     1       6.765   3.059   3.728  1.00  0.00    -0.352 N 
ATOM      4  C   UNL     1       5.495   2.635   4.017  1.00  0.00     0.251 C 
ATOM      5  O   UNL     1       5.025   2.913   5.119  1.00  0.00    -0.269 OA
ATOM      6  H   UNL     1       7.214   3.513   4.477  1.00  0.00     0.163 HD
BRANCH   4   7
ATOM      7  C   UNL     1       4.718   1.773   3.091  1.00  0.00     0.041 A 
ATOM      8  C   UNL     1       3.383  -0.104   1.475  1.00  0.00     0.062 A 
ATOM      9  C   UNL     1       3.225  -0.115   2.869  1.00  0.00     0.029 A 
ATOM     10  C   UNL     1       4.179   0.903   0.882  1.00  0.00     0.056 A 
ATOM     11  C   UNL     1       3.898   0.803   3.671  1.00  0.00     0.016 A 
ATOM     12  C   UNL     1       4.771   1.873   1.700  1.00  0.00     0.041 A 
BRANCH   8  13
ATOM     13  N   UNL     1       2.755  -1.133   0.751  1.00  0.00    -0.351 N 
ATOM     14  H   UNL     1       1.869  -1.383   1.099  1.00  0.00     0.167 HD
BRANCH  13  15
ATOM     15  C   UNL     1       3.155  -1.869  -0.374  1.00  0.00     0.081 A 
ATOM     16  C   UNL     1       2.194  -2.235  -1.330  1.00  0.00     0.142 A 
ATOM     17  C   UNL     1       2.548  -2.953  -2.472  1.00  0.00     0.048 A 
ATOM     18  C   UNL     1       3.886  -3.283  -2.689  1.00  0.00     0.004 A 
ATOM     19  C   UNL     1       4.495  -2.188  -0.619  1.00  0.00     0.030 A 
ATOM     20  C   UNL     1       4.859  -2.899  -1.765  1.00  0.00     0.002 A 
BRANCH  16  21
ATOM     21  O   UNL     1       0.873  -1.938  -1.102  1.00  0.00    -0.492 OA
BRANCH  21  22
ATOM     22  C   UNL     1       0.489  -0.696  -1.711  1.00  0.00     0.226 C 
ATOM     23  C   UNL     1       0.292   0.379  -0.652  1.00  0.00     0.049 C 
ENDBRANCH  21  22
ENDBRANCH  16  21
ENDBRANCH  13  15
ENDBRANCH   8  13
BRANCH  10  24
ATOM     24  N   UNL     1       4.251   1.080  -0.502  1.00  0.00    -0.397 N 
ATOM     25  H   UNL     1       3.845   0.416  -1.105  1.00  0.00     0.156 HD
ATOM     26  H   UNL     1       4.707   1.869  -0.874  1.00  0.00     0.156 HD
ENDBRANCH  10  24
ENDBRANCH   4   7
ENDBRANCH   2   3
ENDBRANCH   1   2
BRANCH   1  27
ATOM     27  C   UNL     1       8.525   5.328   2.495  1.00  0.00     0.002 C 
BRANCH  27  28
ATOM     28  C   UNL     1      10.008   4.943   2.442  1.00  0.00     0.002 C 
BRANCH  28  29
ATOM     29  C   UNL     1      10.558   4.717   1.032  1.00  0.00     0.021 C 
BRANCH  29  30
ATOM     30  C   UNL     1      10.468   5.942   0.129  1.00  0.00     0.116 C 
BRANCH  30  31
ATOM     31  N   UNL     1      11.307   7.027   0.616  1.00  0.00    -0.352 N 
ATOM     32  C   UNL     1      12.324   7.683  -0.025  1.00  0.00     0.251 C 
ATOM     33  H   UNL     1      11.117   7.332   1.532  1.00  0.00     0.163 HD
ATOM     34  O   UNL     1      13.093   8.411   0.602  1.00  0.00    -0.269 OA
BRANCH  32  35
ATOM     35  C   UNL     1      12.504   7.502  -1.478  1.00  0.00     0.039 A 
ATOM     36  C   UNL     1      13.784   7.260  -1.982  1.00  0.00     0.014 A 
ATOM     37  C   UNL     1      11.405   7.571  -2.339  1.00  0.00     0.014 A 
ATOM     38  C   UNL     1      13.954   7.026  -3.347  1.00  0.00     0.010 A 
ATOM     39  C   UNL     1      11.565   7.271  -3.687  1.00  0.00     0.010 A 
ATOM     40  C   UNL     1      12.841   6.998  -4.204  1.00  0.00    -0.014 A 
BRANCH  40  41
ATOM     41  C   UNL     1      12.985   6.685  -5.647  1.00  0.00     0.031 A 
ATOM     42  C   UNL     1      12.647   7.726  -6.677  1.00  0.00     0.074 A 
ATOM     43  C   UNL     1      13.348   5.445  -6.027  1.00  0.00     0.049 A 
ATOM     44  N   UNL     1      12.607   7.619  -7.981  1.00  0.00    -0.248 NA
ATOM     45  C   UNL     1      12.280   9.058  -6.172  1.00  0.00     0.031 C 
ATOM     46  C   UNL     1      13.666   4.342  -5.120  1.00  0.00     0.029 A 
ATOM     47  N   UNL     1      13.495   4.900  -7.278  1.00  0.00    -0.354 N 
ATOM     48  C   UNL     1      12.203   8.862  -8.449  1.00  0.00     0.074 A 
ATOM     49  C   UNL     1      11.955   9.691  -7.290  1.00  0.00     0.031 C 
ATOM     50  C   UNL     1      13.987   3.257  -5.843  1.00  0.00     0.029 A 
ATOM     51  C   UNL     1      13.855   3.575  -7.261  1.00  0.00     0.049 A 
ATOM     52  H   UNL     1      13.355   5.410  -8.108  1.00  0.00     0.167 HD
ATOM     53  C   UNL     1      12.075   9.280  -9.731  1.00  0.00     0.037 A 
ATOM     54  C   UNL     1      14.043   2.711  -8.277  1.00  0.00     0.037 A 
ATOM     55  C   UNL     1      12.339   8.456 -10.880  1.00  0.00     0.049 A 
ATOM     56  C   UNL     1      13.861   3.194  -9.691  1.00  0.00     0.074 A 
ATOM     57  C   UNL     1      12.282   8.797 -12.220  1.00  0.00     0.029 A 
ATOM     58  N   UNL     1      12.711   7.120 -10.824  1.00  0.00    -0.354 N 
ATOM     59  N   UNL     1      13.534   4.387 -10.124  1.00  0.00    -0.248 NA
ATOM     60  C   UNL     1      14.076   2.207 -10.760  1.00  0.00     0.031 C 
ATOM     61  C   UNL     1      12.575   7.657 -12.975  1.00  0.00     0.029 A 
ATOM     62  C   UNL     1      12.865   6.618 -12.106  1.00  0.00     0.049 A 
ATOM     63  H   UNL     1      12.847   6.606  -9.995  1.00  0.00     0.167 HD
ATOM     64  C   UNL     1      13.534   4.304 -11.510  1.00  0.00     0.074 A 
ATOM     65  C   UNL     1      13.908   2.946 -11.847  1.00  0.00     0.031 C 
ATOM     66  C   UNL     1      13.249   5.266 -12.422  1.00  0.00     0.037 A 
BRANCH  53  67
ATOM     67  C   UNL     1      11.634  10.697  -9.957  1.00  0.00     0.064 A 
ATOM     68  C   UNL     1      12.472  11.783  -9.657  1.00  0.00     0.173 A 
ATOM     69  C   UNL     1      10.377  10.975 -10.514  1.00  0.00     0.173 A 
ATOM     70  F   UNL     1      13.680  11.573  -9.112  1.00  0.00    -0.203 F 
ATOM     71  C   UNL     1      12.056  13.093  -9.879  1.00  0.00     0.198 A 
ATOM     72  C   UNL     1       9.977  12.285 -10.764  1.00  0.00     0.198 A 
ATOM     73  F   UNL     1       9.539   9.974 -10.825  1.00  0.00    -0.203 F 
ATOM     74  F   UNL     1      12.854  14.114  -9.539  1.00  0.00    -0.200 F 
ATOM     75  C   UNL     1      10.813  13.342 -10.439  1.00  0.00     0.200 A 
ATOM     76  F   UNL     1       8.780  12.524 -11.317  1.00  0.00    -0.200 F 
ATOM     77  F   UNL     1      10.417  14.604 -10.660  1.00  0.00    -0.200 F 
ENDBRANCH  53  67
BRANCH  54  78
ATOM     78  C   UNL     1      14.438   1.305  -7.999  1.00  0.00     0.064 A 
ATOM     79  C   UNL     1      15.710   0.833  -8.351  1.00  0.00     0.173 A 
ATOM     80  C   UNL     1      13.551   0.402  -7.394  1.00  0.00     0.173 A 
ATOM     81  F   UNL     1      16.585   1.653  -8.951  1.00  0.00    -0.203 F 
ATOM     82  C   UNL     1      16.071  -0.495  -8.133  1.00  0.00     0.198 A 
ATOM     83  C   UNL     1      13.925  -0.918  -7.149  1.00  0.00     0.198 A 
ATOM     84  F   UNL     1      12.324   0.804  -7.034  1.00  0.00    -0.203 F 
ATOM     85  F   UNL     1      17.275  -0.932  -8.527  1.00  0.00    -0.200 F 
ATOM     86  C   UNL     1      15.180  -1.368  -7.527  1.00  0.00     0.200 A 
ATOM     87  F   UNL     1      13.066  -1.754  -6.551  1.00  0.00    -0.200 F 
ATOM     88  F   UNL     1      15.528  -2.645  -7.317  1.00  0.00    -0.200 F 
ENDBRANCH  54  78
BRANCH  66  89
ATOM     89  C   UNL     1      13.365   4.894 -13.871  1.00  0.00     0.064 A 
ATOM     90  C   UNL     1      12.432   4.051 -14.492  1.00  0.00     0.173 A 
ATOM     91  C   UNL     1      14.398   5.426 -14.659  1.00  0.00     0.173 A 
ATOM     92  F   UNL     1      11.436   3.504 -13.778  1.00  0.00    -0.203 F 
ATOM     93  C   UNL     1      12.543   3.734 -15.843  1.00  0.00     0.198 A 
ATOM     94  C   UNL     1      14.488   5.132 -16.016  1.00  0.00     0.198 A 
ATOM     95  F   UNL     1      15.312   6.243 -14.114  1.00  0.00    -0.203 F 
ATOM     96  F   UNL     1      11.668   2.889 -16.405  1.00  0.00    -0.200 F 
ATOM     97  C   UNL     1      13.565   4.281 -16.605  1.00  0.00     0.200 A 
ATOM     98  F   UNL     1      15.467   5.672 -16.754  1.00  0.00    -0.200 F 
ATOM     99  F   UNL     1      13.664   3.983 -17.908  1.00  0.00    -0.200 F 
ENDBRANCH  66  89
ENDBRANCH  40  41
ENDBRANCH  32  35
ENDBRANCH  30  31
ENDBRANCH  29  30
ENDBRANCH  28  29
ENDBRANCH  27  28
ENDBRANCH   1  27
TORSDOF 18
