REMARK SMILES O=C(NCCCCCCNC(=O)C1(Cc2ccncc2)Cc2ccccc2C1)c1ccc(-c2c3nc(c(-c4c(F)c(F)c(F)c(F)c4F)c4ccc([nH]4)c(-c4c(F)c(F)c(F)c(F)c4F)c4nc(c(-c5c(F)c(F)c(F)c(F)c5F)c5ccc2[nH]5)C=C4)C=C3)cc1
REMARK SMILES IDX 6 1 5 2 4 3 3 4 1 5 2 6 29 8 30 9 91 10 31 11 90 12 32 13
REMARK SMILES IDX 33 14 34 15 84 16 35 17 89 18 83 19 85 20 36 21 88 22 82 23
REMARK SMILES IDX 81 24 37 26 69 27 49 28 68 29 50 30 53 31 67 32 86 33 51 34
REMARK SMILES IDX 52 35 66 37 87 38 54 39 38 40 39 41 47 42 40 43 41 44 45 45
REMARK SMILES IDX 48 46 42 47 43 48 46 49 44 50 70 51 71 52 79 53 72 54 73 55
REMARK SMILES IDX 77 56 80 57 74 58 75 59 78 60 76 61 55 62 56 63 64 64 57 65
REMARK SMILES IDX 58 66 62 67 65 68 59 69 60 70 63 71 61 72 7 73 8 74 9 75
REMARK SMILES IDX 10 76 11 77 12 79 13 80 21 81 28 82 22 83 27 84 23 85 26 86
REMARK SMILES IDX 24 87 25 88 14 89 15 90 16 91 20 92 17 93 19 94 18 95
REMARK H PARENT 3 7 85 25 53 36 10 78
REMARK Flexibility Score: inf
ROOT
ATOM      1  C   UNL     1       4.125  -2.314  -3.016  1.00  0.00     0.002 C 
ENDROOT
BRANCH   1   2
ATOM      2  C   UNL     1       4.498  -2.104  -1.550  1.00  0.00     0.021 C 
BRANCH   2   3
ATOM      3  C   UNL     1       4.353  -0.667  -1.068  1.00  0.00     0.116 C 
BRANCH   3   4
ATOM      4  N   UNL     1       2.964  -0.243  -1.009  1.00  0.00    -0.352 N 
ATOM      5  O   UNL     1       1.054   0.420   0.006  1.00  0.00    -0.269 OA
ATOM      6  C   UNL     1       2.272   0.278   0.057  1.00  0.00     0.251 C 
ATOM      7  H   UNL     1       2.451  -0.342  -1.843  1.00  0.00     0.163 HD
BRANCH   6   8
ATOM      8  C   UNL     1       3.009   0.646   1.284  1.00  0.00     0.039 A 
ATOM      9  C   UNL     1       4.198   1.373   1.200  1.00  0.00     0.014 A 
ATOM     10  C   UNL     1       2.512   0.246   2.527  1.00  0.00     0.014 A 
ATOM     11  C   UNL     1       4.962   1.577   2.341  1.00  0.00     0.010 A 
ATOM     12  C   UNL     1       3.238   0.533   3.686  1.00  0.00     0.010 A 
ATOM     13  C   UNL     1       4.483   1.175   3.599  1.00  0.00    -0.014 A 
BRANCH  13  14
ATOM     14  C   UNL     1       5.278   1.498   4.810  1.00  0.00     0.031 A 
ATOM     15  C   UNL     1       5.877   0.417   5.664  1.00  0.00     0.074 A 
ATOM     16  C   UNL     1       5.483   2.794   5.114  1.00  0.00     0.049 A 
ATOM     17  N   UNL     1       6.626   0.531   6.733  1.00  0.00    -0.248 NA
ATOM     18  C   UNL     1       5.596  -0.973   5.276  1.00  0.00     0.031 C 
ATOM     19  C   UNL     1       4.939   3.928   4.363  1.00  0.00     0.029 A 
ATOM     20  N   UNL     1       6.217   3.380   6.112  1.00  0.00    -0.354 N 
ATOM     21  C   UNL     1       6.887  -0.765   7.157  1.00  0.00     0.074 A 
ATOM     22  C   UNL     1       6.197  -1.652   6.244  1.00  0.00     0.031 C 
ATOM     23  C   UNL     1       5.403   5.069   4.890  1.00  0.00     0.029 A 
ATOM     24  C   UNL     1       6.222   4.752   6.054  1.00  0.00     0.049 A 
ATOM     25  H   UNL     1       6.694   2.867   6.804  1.00  0.00     0.167 HD
ATOM     26  C   UNL     1       7.640  -1.173   8.207  1.00  0.00     0.037 A 
ATOM     27  C   UNL     1       6.812   5.656   6.855  1.00  0.00     0.037 A 
ATOM     28  C   UNL     1       8.337  -0.282   9.101  1.00  0.00     0.049 A 
ATOM     29  C   UNL     1       7.621   5.173   8.024  1.00  0.00     0.074 A 
ATOM     30  C   UNL     1       9.159  -0.599  10.170  1.00  0.00     0.029 A 
ATOM     31  N   UNL     1       8.288   1.103   9.034  1.00  0.00    -0.354 N 
ATOM     32  N   UNL     1       7.893   3.945   8.390  1.00  0.00    -0.248 NA
ATOM     33  C   UNL     1       8.201   6.204   8.892  1.00  0.00     0.031 C 
ATOM     34  C   UNL     1       9.568   0.594  10.777  1.00  0.00     0.029 A 
ATOM     35  C   UNL     1       9.044   1.655  10.057  1.00  0.00     0.049 A 
ATOM     36  H   UNL     1       7.790   1.619   8.359  1.00  0.00     0.167 HD
ATOM     37  C   UNL     1       8.691   4.053   9.519  1.00  0.00     0.074 A 
ATOM     38  C   UNL     1       8.876   5.469   9.764  1.00  0.00     0.031 C 
ATOM     39  C   UNL     1       9.219   3.067  10.286  1.00  0.00     0.037 A 
BRANCH  26  40
ATOM     40  C   UNL     1       7.735  -2.650   8.465  1.00  0.00     0.064 A 
ATOM     41  C   UNL     1       8.459  -3.504   7.620  1.00  0.00     0.173 A 
ATOM     42  C   UNL     1       7.125  -3.213   9.598  1.00  0.00     0.173 A 
ATOM     43  F   UNL     1       9.052  -3.020   6.519  1.00  0.00    -0.203 F 
ATOM     44  C   UNL     1       8.547  -4.870   7.884  1.00  0.00     0.198 A 
ATOM     45  C   UNL     1       7.239  -4.574   9.874  1.00  0.00     0.198 A 
ATOM     46  F   UNL     1       6.427  -2.442  10.444  1.00  0.00    -0.203 F 
ATOM     47  F   UNL     1       9.207  -5.673   7.038  1.00  0.00    -0.200 F 
ATOM     48  C   UNL     1       7.943  -5.402   9.013  1.00  0.00     0.200 A 
ATOM     49  F   UNL     1       6.666  -5.084  10.973  1.00  0.00    -0.200 F 
ATOM     50  F   UNL     1       8.034  -6.714   9.269  1.00  0.00    -0.200 F 
ENDBRANCH  26  40
BRANCH  27  51
ATOM     51  C   UNL     1       6.662   7.105   6.568  1.00  0.00     0.064 A 
ATOM     52  C   UNL     1       7.754   7.869   6.135  1.00  0.00     0.173 A 
ATOM     53  C   UNL     1       5.424   7.751   6.702  1.00  0.00     0.173 A 
ATOM     54  F   UNL     1       8.961   7.300   6.008  1.00  0.00    -0.203 F 
ATOM     55  C   UNL     1       7.616   9.228   5.860  1.00  0.00     0.198 A 
ATOM     56  C   UNL     1       5.280   9.102   6.397  1.00  0.00     0.198 A 
ATOM     57  F   UNL     1       4.347   7.061   7.107  1.00  0.00    -0.203 F 
ATOM     58  F   UNL     1       8.684   9.944   5.484  1.00  0.00    -0.200 F 
ATOM     59  C   UNL     1       6.378   9.841   5.984  1.00  0.00     0.200 A 
ATOM     60  F   UNL     1       4.079   9.686   6.500  1.00  0.00    -0.200 F 
ATOM     61  F   UNL     1       6.244  11.146   5.709  1.00  0.00    -0.200 F 
ENDBRANCH  27  51
BRANCH  39  62
ATOM     62  C   UNL     1      10.075   3.494  11.442  1.00  0.00     0.064 A 
ATOM     63  C   UNL     1       9.522   4.087  12.587  1.00  0.00     0.173 A 
ATOM     64  C   UNL     1      11.463   3.294  11.409  1.00  0.00     0.173 A 
ATOM     65  F   UNL     1       8.202   4.316  12.659  1.00  0.00    -0.203 F 
ATOM     66  C   UNL     1      10.333   4.494  13.644  1.00  0.00     0.198 A 
ATOM     67  C   UNL     1      12.267   3.674  12.480  1.00  0.00     0.198 A 
ATOM     68  F   UNL     1      12.040   2.727  10.339  1.00  0.00    -0.203 F 
ATOM     69  F   UNL     1       9.790   5.109  14.703  1.00  0.00    -0.200 F 
ATOM     70  C   UNL     1      11.703   4.282  13.592  1.00  0.00     0.200 A 
ATOM     71  F   UNL     1      13.588   3.459  12.433  1.00  0.00    -0.200 F 
ATOM     72  F   UNL     1      12.481   4.673  14.610  1.00  0.00    -0.200 F 
ENDBRANCH  39  62
ENDBRANCH  13  14
ENDBRANCH   6   8
ENDBRANCH   3   4
ENDBRANCH   2   3
ENDBRANCH   1   2
BRANCH   1  73
ATOM     73  C   UNL     1       4.898  -1.437  -4.005  1.00  0.00     0.002 C 
BRANCH  73  74
ATOM     74  C   UNL     1       6.428  -1.490  -3.866  1.00  0.00     0.021 C 
BRANCH  74  75
ATOM     75  C   UNL     1       7.024  -2.893  -4.026  1.00  0.00     0.116 C 
BRANCH  75  76
ATOM     76  N   UNL     1       6.769  -3.378  -5.368  1.00  0.00    -0.356 N 
ATOM     77  C   UNL     1       7.539  -3.242  -6.481  1.00  0.00     0.227 C 
ATOM     78  H   UNL     1       5.927  -3.872  -5.490  1.00  0.00     0.163 HD
ATOM     79  O   UNL     1       6.921  -2.984  -7.517  1.00  0.00    -0.274 OA
BRANCH  77  80
ATOM     80  C   UNL     1       9.071  -3.358  -6.446  1.00  0.00     0.061 C 
ATOM     81  C   UNL     1       9.676  -2.031  -5.885  1.00  0.00     0.053 C 
ATOM     82  C   UNL     1       9.566  -4.504  -5.512  1.00  0.00     0.053 C 
ATOM     83  C   UNL     1      10.773  -2.505  -4.983  1.00  0.00    -0.044 A 
ATOM     84  C   UNL     1      10.720  -3.884  -4.787  1.00  0.00    -0.044 A 
ATOM     85  C   UNL     1      11.740  -1.734  -4.356  1.00  0.00     0.004 A 
ATOM     86  C   UNL     1      11.640  -4.526  -3.972  1.00  0.00     0.004 A 
ATOM     87  C   UNL     1      12.674  -2.371  -3.537  1.00  0.00     0.000 A 
ATOM     88  C   UNL     1      12.627  -3.760  -3.348  1.00  0.00     0.000 A 
BRANCH  80  89
ATOM     89  C   UNL     1       9.618  -3.547  -7.904  1.00  0.00     0.053 C 
BRANCH  89  90
ATOM     90  C   UNL     1       9.427  -4.895  -8.574  1.00  0.00    -0.044 A 
ATOM     91  C   UNL     1       8.175  -5.355  -8.992  1.00  0.00     0.024 A 
ATOM     92  C   UNL     1      10.535  -5.709  -8.835  1.00  0.00     0.024 A 
ATOM     93  C   UNL     1       8.080  -6.591  -9.613  1.00  0.00     0.111 A 
ATOM     94  C   UNL     1      10.341  -6.927  -9.472  1.00  0.00     0.111 A 
ATOM     95  N   UNL     1       9.136  -7.392  -9.859  1.00  0.00    -0.265 NA
ENDBRANCH  89  90
ENDBRANCH  80  89
ENDBRANCH  77  80
ENDBRANCH  75  76
ENDBRANCH  74  75
ENDBRANCH  73  74
ENDBRANCH   1  73
TORSDOF 15
