REMARK SMILES Cc1cc(C)c(C#N)c(NC[C@H](CC(C)C)C(=O)NCCCCCCNC(=O)c2ccc(-c3c4nc(c(-c5c(F)c(F)c(F)c(F)c5F)c5ccc([nH]5)c(-c5c(F)c(F)c(F)c(F)c5F)c5nc(c(-c6c(F)c(F)c(F)c(F)c6F)c6ccc3[nH]6)C=C5)C=C4)cc2)n1
REMARK SMILES IDX 21 1 20 2 19 3 17 4 18 5 12 7 11 8 10 9 9 11 1 12 2 13 3 14
REMARK SMILES IDX 92 15 4 16 5 17 6 18 7 19 8 20 13 21 14 22 15 23 16 24 22 25
REMARK SMILES IDX 23 26 24 27 25 28 26 29 27 30 28 32 29 33 30 34 91 35 31 36
REMARK SMILES IDX 90 37 32 38 33 39 34 40 84 41 35 42 89 43 83 44 85 45 36 46
REMARK SMILES IDX 88 47 82 48 81 49 37 51 69 52 49 53 68 54 50 55 53 56 67 57
REMARK SMILES IDX 86 58 51 59 52 60 66 62 87 63 54 64 38 65 39 66 47 67 40 68
REMARK SMILES IDX 41 69 45 70 48 71 42 72 43 73 46 74 44 75 70 76 71 77 79 78
REMARK SMILES IDX 72 79 73 80 77 81 80 82 74 83 75 84 78 85 76 86 55 87 56 88
REMARK SMILES IDX 64 89 57 90 58 91 62 92 65 93 59 94 60 95 63 96 61 97
REMARK H PARENT 19 6 10 10 26 31 85 50 53 61
REMARK Flexibility Score: inf
ROOT
ATOM      1  C   UNL     1       5.291   4.590   1.646  1.00  0.00     0.021 C 
ENDROOT
BRANCH   1   2
ATOM      2  C   UNL     1       4.649   5.183   0.388  1.00  0.00     0.116 C 
BRANCH   2   3
ATOM      3  N   UNL     1       4.726   4.275  -0.731  1.00  0.00    -0.356 N 
ATOM      4  C   UNL     1       3.774   3.619  -1.435  1.00  0.00     0.224 C 
ATOM      5  O   UNL     1       4.181   2.981  -2.414  1.00  0.00    -0.275 OA
ATOM      6  H   UNL     1       5.644   4.101  -1.042  1.00  0.00     0.163 HD
BRANCH   4   7
ATOM      7  C   UNL     1       2.276   3.611  -1.102  1.00  0.00     0.098 C 
BRANCH   7   8
ATOM      8  C   UNL     1       1.460   4.816  -1.600  1.00  0.00     0.128 C 
BRANCH   8   9
ATOM      9  N   UNL     1       1.856   6.139  -1.168  1.00  0.00    -0.368 N 
ATOM     10  H   UNL     1       2.376   6.178  -0.333  1.00  0.00     0.162 HD
BRANCH   9  11
ATOM     11  C   UNL     1       1.602   7.348  -1.772  1.00  0.00     0.144 A 
ATOM     12  C   UNL     1       1.802  10.741  -0.298  1.00  0.00     0.067 C 
ATOM     13  C   UNL     1       1.615   9.655  -1.316  1.00  0.00     0.040 A 
ATOM     14  C   UNL     1       1.288   9.973  -2.623  1.00  0.00     0.028 A 
ATOM     15  N   UNL     1       1.778   8.374  -0.898  1.00  0.00    -0.235 NA
ATOM     16  C   UNL     1       1.102   8.939  -3.538  1.00  0.00    -0.028 A 
ATOM     17  C   UNL     1       0.758   9.271  -4.968  1.00  0.00     0.046 C 
ATOM     18  C   UNL     1       1.245   7.601  -3.103  1.00  0.00     0.097 A 
BRANCH  18  19
ATOM     19  C   UNL     1       0.999   6.569  -4.063  1.00  0.00     0.103 C 
ATOM     20  N   UNL     1       0.757   5.774  -4.877  1.00  0.00    -0.192 NA
ENDBRANCH  18  19
ENDBRANCH   9  11
ENDBRANCH   8   9
ENDBRANCH   7   8
BRANCH   7  21
ATOM     21  C   UNL     1       1.780   2.807   0.122  1.00  0.00     0.018 C 
BRANCH  21  22
ATOM     22  C   UNL     1       2.164   3.203   1.548  1.00  0.00    -0.017 C 
ATOM     23  C   UNL     1       1.440   4.438   2.069  1.00  0.00     0.007 C 
ATOM     24  C   UNL     1       1.938   2.046   2.529  1.00  0.00     0.007 C 
ENDBRANCH  21  22
ENDBRANCH   7  21
ENDBRANCH   4   7
ENDBRANCH   2   3
ENDBRANCH   1   2
BRANCH   1  25
ATOM     25  C   UNL     1       6.637   5.194   2.026  1.00  0.00     0.002 C 
BRANCH  25  26
ATOM     26  C   UNL     1       6.599   6.701   2.292  1.00  0.00     0.002 C 
BRANCH  26  27
ATOM     27  C   UNL     1       5.572   7.155   3.333  1.00  0.00     0.021 C 
BRANCH  27  28
ATOM     28  C   UNL     1       5.701   6.475   4.693  1.00  0.00     0.116 C 
BRANCH  28  29
ATOM     29  N   UNL     1       7.055   6.573   5.216  1.00  0.00    -0.352 N 
ATOM     30  C   UNL     1       7.536   7.259   6.298  1.00  0.00     0.251 C 
ATOM     31  H   UNL     1       7.732   6.066   4.712  1.00  0.00     0.163 HD
ATOM     32  O   UNL     1       8.741   7.466   6.407  1.00  0.00    -0.269 OA
BRANCH  30  33
ATOM     33  C   UNL     1       6.608   7.747   7.336  1.00  0.00     0.039 A 
ATOM     34  C   UNL     1       6.840   8.997   7.913  1.00  0.00     0.014 A 
ATOM     35  C   UNL     1       5.539   6.958   7.770  1.00  0.00     0.014 A 
ATOM     36  C   UNL     1       5.972   9.473   8.895  1.00  0.00     0.010 A 
ATOM     37  C   UNL     1       4.623   7.473   8.680  1.00  0.00     0.010 A 
ATOM     38  C   UNL     1       4.838   8.730   9.263  1.00  0.00    -0.014 A 
BRANCH  38  39
ATOM     39  C   UNL     1       3.869   9.264  10.251  1.00  0.00     0.031 A 
ATOM     40  C   UNL     1       3.643   8.560  11.558  1.00  0.00     0.074 A 
ATOM     41  C   UNL     1       3.165  10.370   9.946  1.00  0.00     0.049 A 
ATOM     42  N   UNL     1       2.849   8.887  12.548  1.00  0.00    -0.248 NA
ATOM     43  C   UNL     1       4.385   7.310  11.773  1.00  0.00     0.031 C 
ATOM     44  C   UNL     1       3.266  11.114   8.690  1.00  0.00     0.029 A 
ATOM     45  N   UNL     1       2.232  11.065  10.672  1.00  0.00    -0.354 N 
ATOM     46  C   UNL     1       2.991   7.881  13.494  1.00  0.00     0.074 A 
ATOM     47  C   UNL     1       3.891   6.898  12.931  1.00  0.00     0.031 C 
ATOM     48  C   UNL     1       2.471  12.192   8.755  1.00  0.00     0.029 A 
ATOM     49  C   UNL     1       1.768  12.188  10.033  1.00  0.00     0.049 A 
ATOM     50  H   UNL     1       1.924  10.786  11.564  1.00  0.00     0.167 HD
ATOM     51  C   UNL     1       2.439   7.796  14.729  1.00  0.00     0.037 A 
ATOM     52  C   UNL     1       0.878  13.113  10.437  1.00  0.00     0.037 A 
ATOM     53  C   UNL     1       1.539   8.778  15.278  1.00  0.00     0.049 A 
ATOM     54  C   UNL     1       0.245  12.973  11.794  1.00  0.00     0.074 A 
ATOM     55  C   UNL     1       0.966   8.819  16.537  1.00  0.00     0.029 A 
ATOM     56  N   UNL     1       1.062   9.886  14.588  1.00  0.00    -0.354 N 
ATOM     57  N   UNL     1       0.450  12.065  12.717  1.00  0.00    -0.248 NA
ATOM     58  C   UNL     1      -0.740  13.997  12.165  1.00  0.00     0.031 C 
ATOM     59  C   UNL     1       0.082   9.902  16.580  1.00  0.00     0.029 A 
ATOM     60  C   UNL     1       0.167  10.590  15.380  1.00  0.00     0.049 A 
ATOM     61  H   UNL     1       1.322  10.135  13.672  1.00  0.00     0.167 HD
ATOM     62  C   UNL     1      -0.354  12.425  13.791  1.00  0.00     0.074 A 
ATOM     63  C   UNL     1      -1.033  13.646  13.408  1.00  0.00     0.031 C 
ATOM     64  C   UNL     1      -0.513  11.801  14.986  1.00  0.00     0.037 A 
BRANCH  51  65
ATOM     65  C   UNL     1       2.774   6.579  15.552  1.00  0.00     0.064 A 
ATOM     66  C   UNL     1       4.079   6.317  15.999  1.00  0.00     0.173 A 
ATOM     67  C   UNL     1       1.774   5.654  15.890  1.00  0.00     0.173 A 
ATOM     68  F   UNL     1       5.078   7.163  15.703  1.00  0.00    -0.203 F 
ATOM     69  C   UNL     1       4.381   5.150  16.697  1.00  0.00     0.198 A 
ATOM     70  C   UNL     1       2.071   4.510  16.627  1.00  0.00     0.198 A 
ATOM     71  F   UNL     1       0.506   5.854  15.502  1.00  0.00    -0.203 F 
ATOM     72  F   UNL     1       5.650   4.883  17.037  1.00  0.00    -0.200 F 
ATOM     73  C   UNL     1       3.376   4.250  17.014  1.00  0.00     0.200 A 
ATOM     74  F   UNL     1       1.094   3.651  16.950  1.00  0.00    -0.200 F 
ATOM     75  F   UNL     1       3.667   3.124  17.681  1.00  0.00    -0.200 F 
ENDBRANCH  51  65
BRANCH  52  76
ATOM     76  C   UNL     1       0.573  14.276   9.563  1.00  0.00     0.064 A 
ATOM     77  C   UNL     1       0.969  15.569   9.931  1.00  0.00     0.173 A 
ATOM     78  C   UNL     1      -0.104  14.123   8.344  1.00  0.00     0.173 A 
ATOM     79  F   UNL     1       1.604  15.769  11.096  1.00  0.00    -0.203 F 
ATOM     80  C   UNL     1       0.686  16.667   9.122  1.00  0.00     0.198 A 
ATOM     81  C   UNL     1      -0.357  15.217   7.520  1.00  0.00     0.198 A 
ATOM     82  F   UNL     1      -0.498  12.906   7.942  1.00  0.00    -0.203 F 
ATOM     83  F   UNL     1       1.038  17.897   9.519  1.00  0.00    -0.200 F 
ATOM     84  C   UNL     1       0.030  16.489   7.914  1.00  0.00     0.200 A 
ATOM     85  F   UNL     1      -0.973  15.038   6.344  1.00  0.00    -0.200 F 
ATOM     86  F   UNL     1      -0.233  17.544   7.130  1.00  0.00    -0.200 F 
ENDBRANCH  52  76
BRANCH  64  87
ATOM     87  C   UNL     1      -1.434  12.453  15.981  1.00  0.00     0.064 A 
ATOM     88  C   UNL     1      -2.818  12.545  15.766  1.00  0.00     0.173 A 
ATOM     89  C   UNL     1      -0.924  12.987  17.175  1.00  0.00     0.173 A 
ATOM     90  F   UNL     1      -3.360  12.063  14.637  1.00  0.00    -0.203 F 
ATOM     91  C   UNL     1      -3.646  13.189  16.683  1.00  0.00     0.198 A 
ATOM     92  C   UNL     1      -1.760  13.590  18.110  1.00  0.00     0.198 A 
ATOM     93  F   UNL     1       0.390  12.920  17.440  1.00  0.00    -0.203 F 
ATOM     94  F   UNL     1      -4.952  13.331  16.418  1.00  0.00    -0.200 F 
ATOM     95  C   UNL     1      -3.118  13.704  17.857  1.00  0.00     0.200 A 
ATOM     96  F   UNL     1      -1.250  14.068  19.253  1.00  0.00    -0.200 F 
ATOM     97  F   UNL     1      -3.917  14.321  18.739  1.00  0.00    -0.200 F 
ENDBRANCH  64  87
ENDBRANCH  38  39
ENDBRANCH  30  33
ENDBRANCH  28  29
ENDBRANCH  27  28
ENDBRANCH  26  27
ENDBRANCH  25  26
ENDBRANCH   1  25
TORSDOF 19
