REMARK SMILES COc1ccc(F)cc1-c1ccc(C[C@]2(C(=O)NCCCCCCNC(=O)c3ccc(-c4c5nc(c(-c6c(F)c(F)c(F)c(F)c6F)c6ccc([nH]6)c(-c6c(F)c(F)c(F)c(F)c6F)c6nc(c(-c7c(F)c(F)c(F)c(F)c7F)c7ccc4[nH]7)C=C6)C=C5)cc3)CCCO2)cc1
REMARK SMILES IDX 20 1 19 2 18 3 16 4 17 5 15 7 91 8 94 9 92 10 93 11 14 12
REMARK SMILES IDX 13 13 10 14 11 15 96 16 12 17 95 18 9 19 3 20 4 21 5 22 8 23
REMARK SMILES IDX 6 24 7 25 2 26 1 27 21 28 22 29 23 30 24 31 25 32 26 33
REMARK SMILES IDX 27 35 28 36 29 37 90 38 30 39 89 40 31 41 32 42 33 43 83 44
REMARK SMILES IDX 34 45 88 46 82 47 84 48 35 49 87 50 81 51 80 52 36 54 68 55
REMARK SMILES IDX 48 56 67 57 49 58 52 59 66 60 85 61 50 62 51 63 65 65 86 66
REMARK SMILES IDX 53 67 37 68 38 69 46 70 39 71 40 72 44 73 47 74 41 75 42 76
REMARK SMILES IDX 45 77 43 78 69 79 70 80 78 81 71 82 72 83 76 84 79 85 73 86
REMARK SMILES IDX 74 87 77 88 75 89 54 90 55 91 63 92 56 93 57 94 61 95 64 96
REMARK SMILES IDX 58 97 59 98 62 99 60 100
REMARK H PARENT 18 6 25 34 84 53 52 64
REMARK Flexibility Score: inf
ROOT
ATOM      1  C   UNL     1      -9.473  -2.167   6.025  1.00  0.00     0.021 C 
ENDROOT
BRANCH   1   2
ATOM      2  C   UNL     1      -9.084  -2.415   4.567  1.00  0.00     0.116 C 
BRANCH   2   3
ATOM      3  N   UNL     1      -8.917  -1.169   3.850  1.00  0.00    -0.354 N 
ATOM      4  C   UNL     1      -7.787  -0.531   3.421  1.00  0.00     0.252 C 
ATOM      5  O   UNL     1      -7.960   0.569   2.884  1.00  0.00    -0.272 OA
ATOM      6  H   UNL     1      -9.757  -0.703   3.635  1.00  0.00     0.163 HD
BRANCH   4   7
ATOM      7  C   UNL     1      -6.360  -1.132   3.634  1.00  0.00     0.150 C 
ATOM      8  C   UNL     1      -6.012  -1.204   5.123  1.00  0.00     0.048 C 
ATOM      9  O   UNL     1      -6.316  -2.479   3.125  1.00  0.00    -0.365 OA
ATOM     10  C   UNL     1      -5.603  -2.637   5.381  1.00  0.00     0.032 C 
ATOM     11  C   UNL     1      -5.537  -3.283   4.016  1.00  0.00     0.162 C 
BRANCH   7  12
ATOM     12  C   UNL     1      -5.362  -0.240   2.830  1.00  0.00     0.081 C 
BRANCH  12  13
ATOM     13  C   UNL     1      -3.925  -0.714   2.743  1.00  0.00    -0.045 A 
ATOM     14  C   UNL     1      -1.274  -1.684   2.583  1.00  0.00    -0.015 A 
ATOM     15  C   UNL     1      -1.709  -0.969   3.706  1.00  0.00     0.009 A 
ATOM     16  C   UNL     1      -2.175  -1.888   1.530  1.00  0.00     0.009 A 
ATOM     17  C   UNL     1      -3.013  -0.473   3.777  1.00  0.00     0.004 A 
ATOM     18  C   UNL     1      -3.487  -1.415   1.611  1.00  0.00     0.004 A 
BRANCH  14  19
ATOM     19  C   UNL     1       0.093  -2.212   2.521  1.00  0.00     0.027 A 
ATOM     20  C   UNL     1       1.122  -1.545   1.827  1.00  0.00     0.126 A 
ATOM     21  C   UNL     1       2.424  -2.063   1.809  1.00  0.00     0.050 A 
ATOM     22  C   UNL     1       2.703  -3.265   2.458  1.00  0.00     0.043 A 
ATOM     23  C   UNL     1       0.395  -3.421   3.169  1.00  0.00     0.051 A 
ATOM     24  C   UNL     1       1.687  -3.933   3.130  1.00  0.00     0.124 A 
ATOM     25  F   UNL     1       1.959  -5.083   3.761  1.00  0.00    -0.207 F 
BRANCH  20  26
ATOM     26  O   UNL     1       0.832  -0.331   1.255  1.00  0.00    -0.496 OA
ATOM     27  C   UNL     1       1.230  -0.242  -0.110  1.00  0.00     0.278 C 
ENDBRANCH  20  26
ENDBRANCH  14  19
ENDBRANCH  12  13
ENDBRANCH   7  12
ENDBRANCH   4   7
ENDBRANCH   2   3
ENDBRANCH   1   2
BRANCH   1  28
ATOM     28  C   UNL     1     -10.945  -1.792   6.223  1.00  0.00     0.002 C 
BRANCH  28  29
ATOM     29  C   UNL     1     -11.949  -2.878   5.825  1.00  0.00     0.002 C 
BRANCH  29  30
ATOM     30  C   UNL     1     -11.724  -4.249   6.471  1.00  0.00     0.021 C 
BRANCH  30  31
ATOM     31  C   UNL     1     -11.695  -4.250   7.998  1.00  0.00     0.116 C 
BRANCH  31  32
ATOM     32  N   UNL     1     -12.940  -3.767   8.568  1.00  0.00    -0.352 N 
ATOM     33  C   UNL     1     -13.780  -4.351   9.480  1.00  0.00     0.251 C 
ATOM     34  H   UNL     1     -13.226  -2.880   8.249  1.00  0.00     0.163 HD
ATOM     35  O   UNL     1     -14.889  -3.868   9.682  1.00  0.00    -0.269 OA
BRANCH  33  36
ATOM     36  C   UNL     1     -13.368  -5.565  10.219  1.00  0.00     0.039 A 
ATOM     37  C   UNL     1     -14.316  -6.572  10.418  1.00  0.00     0.014 A 
ATOM     38  C   UNL     1     -12.088  -5.692  10.767  1.00  0.00     0.014 A 
ATOM     39  C   UNL     1     -13.971  -7.720  11.133  1.00  0.00     0.010 A 
ATOM     40  C   UNL     1     -11.725  -6.865  11.429  1.00  0.00     0.010 A 
ATOM     41  C   UNL     1     -12.667  -7.885  11.628  1.00  0.00    -0.014 A 
BRANCH  41  42
ATOM     42  C   UNL     1     -12.293  -9.129  12.345  1.00  0.00     0.031 A 
ATOM     43  C   UNL     1     -11.986  -9.107  13.814  1.00  0.00     0.074 A 
ATOM     44  C   UNL     1     -12.221 -10.284  11.658  1.00  0.00     0.049 A 
ATOM     45  N   UNL     1     -11.701 -10.106  14.612  1.00  0.00    -0.248 NA
ATOM     46  C   UNL     1     -11.976  -7.792  14.472  1.00  0.00     0.031 C 
ATOM     47  C   UNL     1     -12.438 -10.421  10.218  1.00  0.00     0.029 A 
ATOM     48  N   UNL     1     -11.956 -11.563  12.081  1.00  0.00    -0.354 N 
ATOM     49  C   UNL     1     -11.474  -9.541  15.859  1.00  0.00     0.074 A 
ATOM     50  C   UNL     1     -11.604  -8.108  15.704  1.00  0.00     0.031 C 
ATOM     51  C   UNL     1     -12.341 -11.717   9.883  1.00  0.00     0.029 A 
ATOM     52  C   UNL     1     -12.038 -12.498  11.079  1.00  0.00     0.049 A 
ATOM     53  H   UNL     1     -11.729 -11.787  13.012  1.00  0.00     0.167 HD
ATOM     54  C   UNL     1     -11.207 -10.165  17.032  1.00  0.00     0.037 A 
ATOM     55  C   UNL     1     -11.904 -13.836  11.123  1.00  0.00     0.037 A 
ATOM     56  C   UNL     1     -11.104 -11.592  17.188  1.00  0.00     0.049 A 
ATOM     57  C   UNL     1     -11.639 -14.508  12.440  1.00  0.00     0.074 A 
ATOM     58  C   UNL     1     -10.905 -12.321  18.347  1.00  0.00     0.029 A 
ATOM     59  N   UNL     1     -11.191 -12.508  16.150  1.00  0.00    -0.354 N 
ATOM     60  N   UNL     1     -11.498 -13.971  13.626  1.00  0.00    -0.248 NA
ATOM     61  C   UNL     1     -11.525 -15.973  12.425  1.00  0.00     0.031 C 
ATOM     62  C   UNL     1     -10.831 -13.676  18.005  1.00  0.00     0.029 A 
ATOM     63  C   UNL     1     -11.027 -13.795  16.639  1.00  0.00     0.049 A 
ATOM     64  H   UNL     1     -11.346 -12.278  15.205  1.00  0.00     0.167 HD
ATOM     65  C   UNL     1     -11.287 -15.027  14.501  1.00  0.00     0.074 A 
ATOM     66  C   UNL     1     -11.342 -16.240  13.711  1.00  0.00     0.031 C 
ATOM     67  C   UNL     1     -11.067 -14.992  15.838  1.00  0.00     0.037 A 
BRANCH  54  68
ATOM     68  C   UNL     1     -11.018  -9.305  18.247  1.00  0.00     0.064 A 
ATOM     69  C   UNL     1      -9.755  -9.181  18.845  1.00  0.00     0.173 A 
ATOM     70  C   UNL     1     -12.097  -8.638  18.848  1.00  0.00     0.173 A 
ATOM     71  F   UNL     1      -8.691  -9.802  18.314  1.00  0.00    -0.203 F 
ATOM     72  C   UNL     1      -9.580  -8.424  20.001  1.00  0.00     0.198 A 
ATOM     73  C   UNL     1     -11.914  -7.861  19.989  1.00  0.00     0.198 A 
ATOM     74  F   UNL     1     -13.323  -8.716  18.309  1.00  0.00    -0.203 F 
ATOM     75  F   UNL     1      -8.368  -8.337  20.566  1.00  0.00    -0.200 F 
ATOM     76  C   UNL     1     -10.658  -7.760  20.568  1.00  0.00     0.200 A 
ATOM     77  F   UNL     1     -12.951  -7.200  20.521  1.00  0.00    -0.200 F 
ATOM     78  F   UNL     1     -10.484  -7.018  21.670  1.00  0.00    -0.200 F 
ENDBRANCH  54  68
BRANCH  55  79
ATOM     79  C   UNL     1     -12.091 -14.622   9.879  1.00  0.00     0.064 A 
ATOM     80  C   UNL     1     -11.135 -14.604   8.853  1.00  0.00     0.173 A 
ATOM     81  C   UNL     1     -13.264 -15.360   9.669  1.00  0.00     0.173 A 
ATOM     82  F   UNL     1     -10.001 -13.906   9.005  1.00  0.00    -0.203 F 
ATOM     83  C   UNL     1     -11.357 -15.277   7.654  1.00  0.00     0.198 A 
ATOM     84  C   UNL     1     -13.476 -16.049   8.478  1.00  0.00     0.198 A 
ATOM     85  F   UNL     1     -14.198 -15.418  10.630  1.00  0.00    -0.203 F 
ATOM     86  F   UNL     1     -10.445 -15.215   6.674  1.00  0.00    -0.200 F 
ATOM     87  C   UNL     1     -12.526 -16.000   7.468  1.00  0.00     0.200 A 
ATOM     88  F   UNL     1     -14.599 -16.759   8.308  1.00  0.00    -0.200 F 
ATOM     89  F   UNL     1     -12.739 -16.647   6.314  1.00  0.00    -0.200 F 
ENDBRANCH  55  79
BRANCH  67  90
ATOM     90  C   UNL     1     -10.857 -16.304  16.534  1.00  0.00     0.064 A 
ATOM     91  C   UNL     1     -11.837 -16.820  17.395  1.00  0.00     0.173 A 
ATOM     92  C   UNL     1      -9.663 -17.024  16.389  1.00  0.00     0.173 A 
ATOM     93  F   UNL     1     -12.994 -16.166  17.573  1.00  0.00    -0.203 F 
ATOM     94  C   UNL     1     -11.625 -18.007  18.090  1.00  0.00     0.198 A 
ATOM     95  C   UNL     1      -9.464 -18.223  17.066  1.00  0.00     0.198 A 
ATOM     96  F   UNL     1      -8.702 -16.577  15.566  1.00  0.00    -0.203 F 
ATOM     97  F   UNL     1     -12.565 -18.471  18.926  1.00  0.00    -0.200 F 
ATOM     98  C   UNL     1     -10.441 -18.710  17.922  1.00  0.00     0.200 A 
ATOM     99  F   UNL     1      -8.329 -18.913  16.884  1.00  0.00    -0.200 F 
ATOM    100  F   UNL     1     -10.244 -19.861  18.580  1.00  0.00    -0.200 F 
ENDBRANCH  67  90
ENDBRANCH  41  42
ENDBRANCH  33  36
ENDBRANCH  31  32
ENDBRANCH  30  31
ENDBRANCH  29  30
ENDBRANCH  28  29
ENDBRANCH   1  28
TORSDOF 17
