REMARK SMILES C[C@]1(c2ccccc2C(=O)NCCCCCCNC(=O)c2ccc(-c3c4nc(c(-c5c(F)c(F)c(F)c(F)c5F)c5ccc([nH]5)c(-c5c(F)c(F)c(F)c(F)c5F)c5nc(c(-c6c(F)c(F)c(F)c(F)c6F)c6ccc3[nH]6)C=C5)C=C4)cc2)NN=C(c2ccccc2)S1
REMARK SMILES IDX 14 1 13 2 12 3 11 4 9 5 10 6 8 8 3 9 4 10 5 11 7 12 6 13
REMARK SMILES IDX 2 14 1 15 84 16 93 17 85 18 86 20 87 21 88 22 92 23 89 24
REMARK SMILES IDX 91 25 90 26 15 27 16 28 17 29 18 30 19 31 20 33 21 34 22 35
REMARK SMILES IDX 83 36 23 37 82 38 24 39 25 40 26 41 76 42 27 43 81 44 75 45
REMARK SMILES IDX 77 46 28 47 80 48 74 49 73 50 29 52 61 53 41 54 60 55 42 56
REMARK SMILES IDX 45 57 59 58 78 59 43 60 44 61 58 63 79 64 46 65 30 66 31 67
REMARK SMILES IDX 39 68 32 69 33 70 37 71 40 72 34 73 35 74 38 75 36 76 62 77
REMARK SMILES IDX 63 78 71 79 64 80 65 81 69 82 72 83 66 84 67 85 70 86 68 87
REMARK SMILES IDX 47 88 48 89 56 90 49 91 50 92 54 93 57 94 51 95 52 96 55 97
REMARK SMILES IDX 53 98
REMARK H PARENT 11 7 84 19 18 32 77 51 45 62
REMARK Flexibility Score: inf
ROOT
ATOM      1  C   UNL     1      -3.050   3.128   2.390  1.00  0.00     0.002 C 
ENDROOT
BRANCH   1   2
ATOM      2  C   UNL     1      -1.917   2.277   1.826  1.00  0.00     0.021 C 
BRANCH   2   3
ATOM      3  C   UNL     1      -1.823   0.788   2.217  1.00  0.00     0.116 C 
BRANCH   3   4
ATOM      4  N   UNL     1      -2.015  -0.153   1.100  1.00  0.00    -0.352 N 
ATOM      5  C   UNL     1      -1.333  -1.015   0.261  1.00  0.00     0.251 C 
ATOM      6  O   UNL     1      -2.102  -1.796  -0.326  1.00  0.00    -0.269 OA
ATOM      7  H   UNL     1      -2.971  -0.176   0.868  1.00  0.00     0.163 HD
BRANCH   5   8
ATOM      8  C   UNL     1       0.154  -1.150  -0.104  1.00  0.00     0.046 A 
ATOM      9  C   UNL     1       1.141  -0.137  -0.377  1.00  0.00     0.002 A 
ATOM     10  C   UNL     1       2.430  -0.516  -0.825  1.00  0.00     0.008 A 
ATOM     11  C   UNL     1       2.720  -1.832  -1.163  1.00  0.00     0.000 A 
ATOM     12  C   UNL     1       0.486  -2.466  -0.509  1.00  0.00     0.014 A 
ATOM     13  C   UNL     1       1.733  -2.798  -1.049  1.00  0.00     0.001 A 
BRANCH   9  14
ATOM     14  C   UNL     1       0.846   1.355  -0.273  1.00  0.00     0.129 C 
ATOM     15  C   UNL     1       1.171   1.683   1.194  1.00  0.00     0.054 C 
ATOM     16  N   UNL     1       1.637   2.348  -1.059  1.00  0.00    -0.288 NA
ATOM     17  S   UNL     1      -0.756   1.540  -1.112  1.00  0.00    -0.070 SA
ATOM     18  N   UNL     1       0.912   3.412  -1.627  1.00  0.00    -0.171 NA
ATOM     19  H   UNL     1       2.611   2.263  -1.174  1.00  0.00     0.185 HD
ATOM     20  C   UNL     1      -0.335   3.076  -1.741  1.00  0.00     0.126 C 
BRANCH  20  21
ATOM     21  C   UNL     1      -1.468   3.722  -2.428  1.00  0.00     0.009 A 
ATOM     22  C   UNL     1      -1.456   3.681  -3.822  1.00  0.00     0.011 A 
ATOM     23  C   UNL     1      -2.691   3.886  -1.747  1.00  0.00     0.011 A 
ATOM     24  C   UNL     1      -2.664   3.735  -4.524  1.00  0.00     0.001 A 
ATOM     25  C   UNL     1      -3.895   3.921  -2.452  1.00  0.00     0.001 A 
ATOM     26  C   UNL     1      -3.880   3.829  -3.841  1.00  0.00     0.000 A 
ENDBRANCH  20  21
ENDBRANCH   9  14
ENDBRANCH   5   8
ENDBRANCH   3   4
ENDBRANCH   2   3
ENDBRANCH   1   2
BRANCH   1  27
ATOM     27  C   UNL     1      -2.857   3.563   3.838  1.00  0.00     0.002 C 
BRANCH  27  28
ATOM     28  C   UNL     1      -1.607   4.410   4.122  1.00  0.00     0.021 C 
BRANCH  28  29
ATOM     29  C   UNL     1      -1.454   5.676   3.276  1.00  0.00     0.116 C 
BRANCH  29  30
ATOM     30  N   UNL     1      -2.570   6.592   3.462  1.00  0.00    -0.352 N 
ATOM     31  C   UNL     1      -2.632   7.744   4.198  1.00  0.00     0.251 C 
ATOM     32  H   UNL     1      -3.400   6.348   2.991  1.00  0.00     0.163 HD
ATOM     33  O   UNL     1      -3.728   8.241   4.487  1.00  0.00    -0.269 OA
BRANCH  31  34
ATOM     34  C   UNL     1      -1.393   8.402   4.653  1.00  0.00     0.039 A 
ATOM     35  C   UNL     1      -1.293   8.852   5.972  1.00  0.00     0.014 A 
ATOM     36  C   UNL     1      -0.338   8.604   3.759  1.00  0.00     0.014 A 
ATOM     37  C   UNL     1      -0.111   9.453   6.411  1.00  0.00     0.010 A 
ATOM     38  C   UNL     1       0.864   9.136   4.216  1.00  0.00     0.010 A 
ATOM     39  C   UNL     1       0.988   9.574   5.544  1.00  0.00    -0.014 A 
BRANCH  39  40
ATOM     40  C   UNL     1       2.269  10.181   5.990  1.00  0.00     0.031 A 
ATOM     41  C   UNL     1       2.756  11.452   5.349  1.00  0.00     0.074 A 
ATOM     42  C   UNL     1       3.021   9.559   6.920  1.00  0.00     0.049 A 
ATOM     43  N   UNL     1       3.892  12.084   5.515  1.00  0.00    -0.248 NA
ATOM     44  C   UNL     1       1.857  12.084   4.370  1.00  0.00     0.031 C 
ATOM     45  C   UNL     1       2.671   8.308   7.593  1.00  0.00     0.029 A 
ATOM     46  N   UNL     1       4.244   9.889   7.449  1.00  0.00    -0.354 N 
ATOM     47  C   UNL     1       3.845  13.175   4.657  1.00  0.00     0.074 A 
ATOM     48  C   UNL     1       2.600  13.088   3.926  1.00  0.00     0.031 C 
ATOM     49  C   UNL     1       3.646   7.987   8.459  1.00  0.00     0.029 A 
ATOM     50  C   UNL     1       4.710   8.982   8.370  1.00  0.00     0.049 A 
ATOM     51  H   UNL     1       4.741  10.700   7.193  1.00  0.00     0.167 HD
ATOM     52  C   UNL     1       4.746  14.176   4.512  1.00  0.00     0.037 A 
ATOM     53  C   UNL     1       5.870   8.953   9.054  1.00  0.00     0.037 A 
ATOM     54  C   UNL     1       5.975  14.269   5.254  1.00  0.00     0.049 A 
ATOM     55  C   UNL     1       6.871  10.060   8.844  1.00  0.00     0.074 A 
ATOM     56  C   UNL     1       6.942  15.257   5.202  1.00  0.00     0.029 A 
ATOM     57  N   UNL     1       6.403  13.338   6.189  1.00  0.00    -0.354 N 
ATOM     58  N   UNL     1       6.793  11.113   8.067  1.00  0.00    -0.248 NA
ATOM     59  C   UNL     1       8.121   9.977   9.613  1.00  0.00     0.031 C 
ATOM     60  C   UNL     1       7.977  14.902   6.072  1.00  0.00     0.029 A 
ATOM     61  C   UNL     1       7.628  13.723   6.710  1.00  0.00     0.049 A 
ATOM     62  H   UNL     1       5.910  12.525   6.445  1.00  0.00     0.167 HD
ATOM     63  C   UNL     1       7.957  11.838   8.287  1.00  0.00     0.074 A 
ATOM     64  C   UNL     1       8.721  11.110   9.277  1.00  0.00     0.031 C 
ATOM     65  C   UNL     1       8.358  13.002   7.720  1.00  0.00     0.037 A 
BRANCH  52  66
ATOM     66  C   UNL     1       4.431  15.261   3.522  1.00  0.00     0.064 A 
ATOM     67  C   UNL     1       3.397  16.183   3.751  1.00  0.00     0.173 A 
ATOM     68  C   UNL     1       5.201  15.416   2.360  1.00  0.00     0.173 A 
ATOM     69  F   UNL     1       2.623  16.072   4.841  1.00  0.00    -0.203 F 
ATOM     70  C   UNL     1       3.131  17.203   2.842  1.00  0.00     0.198 A 
ATOM     71  C   UNL     1       4.953  16.458   1.470  1.00  0.00     0.198 A 
ATOM     72  F   UNL     1       6.205  14.567   2.095  1.00  0.00    -0.203 F 
ATOM     73  F   UNL     1       2.110  18.043   3.060  1.00  0.00    -0.200 F 
ATOM     74  C   UNL     1       3.915  17.346   1.707  1.00  0.00     0.200 A 
ATOM     75  F   UNL     1       5.722  16.604   0.381  1.00  0.00    -0.200 F 
ATOM     76  F   UNL     1       3.667  18.337   0.841  1.00  0.00    -0.200 F 
ENDBRANCH  52  66
BRANCH  53  77
ATOM     77  C   UNL     1       6.155   7.851  10.013  1.00  0.00     0.064 A 
ATOM     78  C   UNL     1       6.264   8.105  11.388  1.00  0.00     0.173 A 
ATOM     79  C   UNL     1       6.367   6.535   9.577  1.00  0.00     0.173 A 
ATOM     80  F   UNL     1       6.089   9.351  11.854  1.00  0.00    -0.203 F 
ATOM     81  C   UNL     1       6.612   7.096  12.284  1.00  0.00     0.198 A 
ATOM     82  C   UNL     1       6.681   5.519  10.478  1.00  0.00     0.198 A 
ATOM     83  F   UNL     1       6.269   6.234   8.274  1.00  0.00    -0.203 F 
ATOM     84  F   UNL     1       6.776   7.383  13.582  1.00  0.00    -0.200 F 
ATOM     85  C   UNL     1       6.817   5.803  11.829  1.00  0.00     0.200 A 
ATOM     86  F   UNL     1       6.862   4.267  10.036  1.00  0.00    -0.200 F 
ATOM     87  F   UNL     1       7.159   4.834  12.688  1.00  0.00    -0.200 F 
ENDBRANCH  53  77
BRANCH  65  88
ATOM     88  C   UNL     1       9.647  13.600   8.205  1.00  0.00     0.064 A 
ATOM     89  C   UNL     1      10.891  13.030   7.900  1.00  0.00     0.173 A 
ATOM     90  C   UNL     1       9.635  14.793   8.946  1.00  0.00     0.173 A 
ATOM     91  F   UNL     1      10.957  11.884   7.206  1.00  0.00    -0.203 F 
ATOM     92  C   UNL     1      12.074  13.617   8.342  1.00  0.00     0.198 A 
ATOM     93  C   UNL     1      10.820  15.394   9.357  1.00  0.00     0.198 A 
ATOM     94  F   UNL     1       8.472  15.383   9.258  1.00  0.00    -0.203 F 
ATOM     95  F   UNL     1      13.249  13.027   8.082  1.00  0.00    -0.200 F 
ATOM     96  C   UNL     1      12.039  14.802   9.062  1.00  0.00     0.200 A 
ATOM     97  F   UNL     1      10.784  16.549  10.037  1.00  0.00    -0.200 F 
ATOM     98  F   UNL     1      13.179  15.370   9.476  1.00  0.00    -0.200 F 
ENDBRANCH  65  88
ENDBRANCH  39  40
ENDBRANCH  31  34
ENDBRANCH  29  30
ENDBRANCH  28  29
ENDBRANCH  27  28
ENDBRANCH   1  27
TORSDOF 15
