REMARK SMILES COCC[C@@H](C)NC(=O)N1Cc2nc[nH]c2C[C@@H]1C(=O)NCCCCCCNC(=O)c1ccc(-c2c3nc(c(-c4c(F)c(F)c(F)c(F)c4F)c4ccc([nH]4)c(-c4c(F)c(F)c(F)c(F)c4F)c4nc(c(-c5c(F)c(F)c(F)c(F)c5F)c5ccc2[nH]5)C=C4)C=C3)cc1
REMARK SMILES IDX 23 1 22 2 21 3 19 4 20 5 18 7 10 8 11 9 12 10 17 11 13 12
REMARK SMILES IDX 16 13 14 14 15 15 8 17 7 18 9 20 5 21 6 22 4 23 3 24 2 25
REMARK SMILES IDX 1 26 24 27 25 28 26 29 27 30 28 31 29 32 30 34 31 35 32 36
REMARK SMILES IDX 93 37 33 38 92 39 34 40 35 41 36 42 86 43 37 44 91 45 85 46
REMARK SMILES IDX 87 47 38 48 90 49 84 50 83 51 39 53 71 54 51 55 70 56 52 57
REMARK SMILES IDX 55 58 69 59 88 60 53 61 54 62 68 64 89 65 56 66 40 67 41 68
REMARK SMILES IDX 49 69 42 70 43 71 47 72 50 73 44 74 45 75 48 76 46 77 72 78
REMARK SMILES IDX 73 79 81 80 74 81 75 82 79 83 82 84 76 85 77 86 80 87 78 88
REMARK SMILES IDX 57 89 58 90 66 91 59 92 60 93 64 94 67 95 61 96 62 97 65 98
REMARK SMILES IDX 63 99
REMARK H PARENT 21 6 15 16 7 19 28 33 87 52 55 63
REMARK Flexibility Score: inf
ROOT
ATOM      1  C   UNL     1       2.143  -2.966   5.485  1.00  0.00     0.021 C 
ENDROOT
BRANCH   1   2
ATOM      2  C   UNL     1       1.501  -1.578   5.527  1.00  0.00     0.116 C 
BRANCH   2   3
ATOM      3  N   UNL     1       1.907  -0.793   4.382  1.00  0.00    -0.354 N 
ATOM      4  C   UNL     1       1.335  -0.555   3.175  1.00  0.00     0.243 C 
ATOM      5  O   UNL     1       2.155  -0.329   2.276  1.00  0.00    -0.273 OA
ATOM      6  H   UNL     1       2.772  -0.340   4.503  1.00  0.00     0.163 HD
BRANCH   4   7
ATOM      7  C   UNL     1      -0.205  -0.482   2.910  1.00  0.00     0.182 C 
ATOM      8  N   UNL     1      -0.855   0.865   2.717  1.00  0.00    -0.306 N 
ATOM      9  C   UNL     1      -2.315   0.935   2.426  1.00  0.00     0.180 C 
ATOM     10  C   UNL     1      -3.039  -0.304   2.835  1.00  0.00     0.081 A 
ATOM     11  C   UNL     1      -1.027  -1.421   3.807  1.00  0.00     0.091 C 
ATOM     12  N   UNL     1      -4.391  -0.517   2.756  1.00  0.00    -0.240 NA
ATOM     13  C   UNL     1      -2.437  -1.387   3.414  1.00  0.00     0.042 A 
ATOM     14  C   UNL     1      -4.588  -1.710   3.282  1.00  0.00     0.197 A 
ATOM     15  N   UNL     1      -3.412  -2.300   3.663  1.00  0.00    -0.348 N 
ATOM     16  H   UNL     1      -3.297  -3.202   4.040  1.00  0.00     0.167 HD
BRANCH   8  17
ATOM     17  C   UNL     1      -0.319   2.021   3.219  1.00  0.00     0.318 C 
ATOM     18  N   UNL     1       0.589   2.670   2.434  1.00  0.00    -0.335 N 
ATOM     19  H   UNL     1       0.863   3.559   2.753  1.00  0.00     0.165 HD
ATOM     20  O   UNL     1      -0.731   2.565   4.240  1.00  0.00    -0.249 OA
BRANCH  18  21
ATOM     21  C   UNL     1       1.212   2.230   1.187  1.00  0.00     0.083 C 
ATOM     22  C   UNL     1       2.703   2.567   1.237  1.00  0.00     0.031 C 
BRANCH  21  23
ATOM     23  C   UNL     1       0.518   2.768  -0.070  1.00  0.00     0.053 C 
BRANCH  23  24
ATOM     24  C   UNL     1       1.030   2.135  -1.376  1.00  0.00     0.162 C 
BRANCH  24  25
ATOM     25  O   UNL     1       0.456   0.863  -1.680  1.00  0.00    -0.385 OA
ATOM     26  C   UNL     1       1.015  -0.237  -0.978  1.00  0.00     0.194 C 
ENDBRANCH  24  25
ENDBRANCH  23  24
ENDBRANCH  21  23
ENDBRANCH  18  21
ENDBRANCH   8  17
ENDBRANCH   4   7
ENDBRANCH   2   3
ENDBRANCH   1   2
BRANCH   1  27
ATOM     27  C   UNL     1       3.602  -2.972   5.942  1.00  0.00     0.002 C 
BRANCH  27  28
ATOM     28  C   UNL     1       3.872  -2.228   7.261  1.00  0.00     0.002 C 
BRANCH  28  29
ATOM     29  C   UNL     1       2.938  -2.564   8.438  1.00  0.00     0.021 C 
BRANCH  29  30
ATOM     30  C   UNL     1       3.119  -3.977   8.949  1.00  0.00     0.116 C 
BRANCH  30  31
ATOM     31  N   UNL     1       4.443  -4.181   9.546  1.00  0.00    -0.352 N 
ATOM     32  C   UNL     1       4.970  -5.328  10.120  1.00  0.00     0.251 C 
ATOM     33  H   UNL     1       5.038  -3.398   9.538  1.00  0.00     0.163 HD
ATOM     34  O   UNL     1       5.929  -5.291  10.866  1.00  0.00    -0.269 OA
BRANCH  32  35
ATOM     35  C   UNL     1       4.340  -6.609   9.766  1.00  0.00     0.039 A 
ATOM     36  C   UNL     1       4.134  -7.650  10.677  1.00  0.00     0.014 A 
ATOM     37  C   UNL     1       3.895  -6.709   8.458  1.00  0.00     0.014 A 
ATOM     38  C   UNL     1       3.449  -8.782  10.239  1.00  0.00     0.010 A 
ATOM     39  C   UNL     1       2.950  -7.631   8.158  1.00  0.00     0.010 A 
ATOM     40  C   UNL     1       2.875  -8.754   8.963  1.00  0.00    -0.014 A 
BRANCH  40  41
ATOM     41  C   UNL     1       2.145  -9.856   8.363  1.00  0.00     0.031 A 
ATOM     42  C   UNL     1       0.846 -10.152   9.013  1.00  0.00     0.074 A 
ATOM     43  C   UNL     1       2.494 -10.276   7.122  1.00  0.00     0.049 A 
ATOM     44  N   UNL     1       0.464 -11.255   9.564  1.00  0.00    -0.248 NA
ATOM     45  C   UNL     1      -0.100  -9.036   9.202  1.00  0.00     0.031 C 
ATOM     46  C   UNL     1       3.583  -9.782   6.258  1.00  0.00     0.029 A 
ATOM     47  N   UNL     1       1.852 -11.149   6.301  1.00  0.00    -0.354 N 
ATOM     48  C   UNL     1      -0.846 -11.034   9.982  1.00  0.00     0.074 A 
ATOM     49  C   UNL     1      -1.051  -9.613   9.935  1.00  0.00     0.031 C 
ATOM     50  C   UNL     1       3.382 -10.185   4.984  1.00  0.00     0.029 A 
ATOM     51  C   UNL     1       2.258 -11.096   4.966  1.00  0.00     0.049 A 
ATOM     52  H   UNL     1       1.158 -11.769   6.622  1.00  0.00     0.167 HD
ATOM     53  C   UNL     1      -1.737 -12.061  10.055  1.00  0.00     0.037 A 
ATOM     54  C   UNL     1       1.654 -11.730   3.929  1.00  0.00     0.037 A 
ATOM     55  C   UNL     1      -1.053 -13.332  10.059  1.00  0.00     0.049 A 
ATOM     56  C   UNL     1       0.823 -12.812   4.522  1.00  0.00     0.074 A 
ATOM     57  C   UNL     1      -0.130 -13.931  10.893  1.00  0.00     0.029 A 
ATOM     58  N   UNL     1      -0.984 -14.025   8.874  1.00  0.00    -0.354 N 
ATOM     59  N   UNL     1       1.327 -13.831   5.167  1.00  0.00    -0.248 NA
ATOM     60  C   UNL     1      -0.556 -12.482   4.850  1.00  0.00     0.031 C 
ATOM     61  C   UNL     1       0.779 -14.596  10.016  1.00  0.00     0.029 A 
ATOM     62  C   UNL     1       0.314 -14.436   8.710  1.00  0.00     0.049 A 
ATOM     63  H   UNL     1      -1.731 -14.196   8.256  1.00  0.00     0.167 HD
ATOM     64  C   UNL     1       0.492 -14.008   6.262  1.00  0.00     0.074 A 
ATOM     65  C   UNL     1      -0.678 -13.174   5.987  1.00  0.00     0.031 C 
ATOM     66  C   UNL     1       0.955 -14.563   7.422  1.00  0.00     0.037 A 
BRANCH  53  67
ATOM     67  C   UNL     1      -3.207 -11.944   9.715  1.00  0.00     0.064 A 
ATOM     68  C   UNL     1      -4.033 -13.071   9.905  1.00  0.00     0.173 A 
ATOM     69  C   UNL     1      -3.769 -10.909   8.935  1.00  0.00     0.173 A 
ATOM     70  F   UNL     1      -3.608 -14.116  10.631  1.00  0.00    -0.203 F 
ATOM     71  C   UNL     1      -5.273 -13.194   9.273  1.00  0.00     0.198 A 
ATOM     72  C   UNL     1      -5.030 -11.014   8.350  1.00  0.00     0.198 A 
ATOM     73  F   UNL     1      -3.095  -9.802   8.607  1.00  0.00    -0.203 F 
ATOM     74  F   UNL     1      -5.957 -14.342   9.370  1.00  0.00    -0.200 F 
ATOM     75  C   UNL     1      -5.765 -12.170   8.485  1.00  0.00     0.200 A 
ATOM     76  F   UNL     1      -5.481 -10.013   7.580  1.00  0.00    -0.200 F 
ATOM     77  F   UNL     1      -6.917 -12.314   7.818  1.00  0.00    -0.200 F 
ENDBRANCH  53  67
BRANCH  54  78
ATOM     78  C   UNL     1       1.456 -11.224   2.547  1.00  0.00     0.064 A 
ATOM     79  C   UNL     1       1.112 -12.083   1.490  1.00  0.00     0.173 A 
ATOM     80  C   UNL     1       1.331  -9.843   2.291  1.00  0.00     0.173 A 
ATOM     81  F   UNL     1       1.150 -13.412   1.666  1.00  0.00    -0.203 F 
ATOM     82  C   UNL     1       0.660 -11.591   0.259  1.00  0.00     0.198 A 
ATOM     83  C   UNL     1       0.883  -9.353   1.063  1.00  0.00     0.198 A 
ATOM     84  F   UNL     1       1.548  -8.943   3.261  1.00  0.00    -0.203 F 
ATOM     85  F   UNL     1       0.289 -12.442  -0.709  1.00  0.00    -0.200 F 
ATOM     86  C   UNL     1       0.537 -10.226   0.049  1.00  0.00     0.200 A 
ATOM     87  F   UNL     1       0.726  -8.032   0.893  1.00  0.00    -0.200 F 
ATOM     88  F   UNL     1       0.047  -9.756  -1.106  1.00  0.00    -0.200 F 
ENDBRANCH  54  78
BRANCH  66  89
ATOM     89  C   UNL     1       2.340 -15.156   7.416  1.00  0.00     0.064 A 
ATOM     90  C   UNL     1       3.517 -14.401   7.261  1.00  0.00     0.173 A 
ATOM     91  C   UNL     1       2.489 -16.504   7.758  1.00  0.00     0.173 A 
ATOM     92  F   UNL     1       3.465 -13.086   7.032  1.00  0.00    -0.203 F 
ATOM     93  C   UNL     1       4.779 -14.977   7.407  1.00  0.00     0.198 A 
ATOM     94  C   UNL     1       3.749 -17.071   7.936  1.00  0.00     0.198 A 
ATOM     95  F   UNL     1       1.403 -17.262   7.978  1.00  0.00    -0.203 F 
ATOM     96  F   UNL     1       5.882 -14.229   7.253  1.00  0.00    -0.200 F 
ATOM     97  C   UNL     1       4.893 -16.311   7.754  1.00  0.00     0.200 A 
ATOM     98  F   UNL     1       3.852 -18.350   8.322  1.00  0.00    -0.200 F 
ATOM     99  F   UNL     1       6.102 -16.857   7.942  1.00  0.00    -0.200 F 
ENDBRANCH  66  89
ENDBRANCH  40  41
ENDBRANCH  32  35
ENDBRANCH  30  31
ENDBRANCH  29  30
ENDBRANCH  28  29
ENDBRANCH  27  28
ENDBRANCH   1  27
TORSDOF 18
