REMARK SMILES Cc1cc(C)c(S(=O)(=O)Nc2ccc(N3CC[NH+](C)CC3)c(C(=O)NCCCCCCNC(=O)c3ccc(-c4c5nc(c(-c6c(F)c(F)c(F)c(F)c6F)c6ccc([nH]6)c(-c6c(F)c(F)c(F)c(F)c6F)c6nc(c(-c7c(F)c(F)c(F)c(F)c7F)c7ccc4[nH]7)C=C6)C=C5)cc3)c2)c(C)c1
REMARK SMILES IDX 28 1 27 2 26 3 25 4 23 5 24 6 22 8 11 9 12 10 98 11 13 12
REMARK SMILES IDX 14 13 10 14 7 16 8 17 9 18 6 19 1 20 2 21 3 22 101 23 4 24
REMARK SMILES IDX 99 25 5 26 100 27 15 28 16 29 21 30 17 31 20 32 18 33 19 34
REMARK SMILES IDX 29 36 30 37 31 38 32 39 33 40 34 42 35 43 36 44 97 45 37 46
REMARK SMILES IDX 96 47 38 48 39 49 40 50 90 51 41 52 95 53 89 54 91 55 42 56
REMARK SMILES IDX 94 57 88 58 87 59 43 61 75 62 55 63 74 64 56 65 59 66 73 67
REMARK SMILES IDX 92 68 57 69 58 70 72 72 93 73 60 74 44 75 45 76 53 77 46 78
REMARK SMILES IDX 47 79 51 80 54 81 48 82 49 83 52 84 50 85 76 86 77 87 85 88
REMARK SMILES IDX 78 89 79 90 83 91 86 92 80 93 81 94 84 95 82 96 61 97 62 98
REMARK SMILES IDX 70 99 63 100 64 101 68 102 71 103 65 104 66 105 69 106
REMARK SMILES IDX 67 107
REMARK H PARENT 25 7 10 15 18 35 32 41 91 60 59 71
REMARK Flexibility Score: inf
ROOT
ATOM      1  C   UNL     1       0.736  -0.573   5.189  1.00  0.00     0.002 C 
ENDROOT
BRANCH   1   2
ATOM      2  C   UNL     1       0.180  -1.338   3.980  1.00  0.00     0.021 C 
BRANCH   2   3
ATOM      3  C   UNL     1       1.037  -1.159   2.724  1.00  0.00     0.116 C 
BRANCH   3   4
ATOM      4  N   UNL     1       2.239  -1.955   2.847  1.00  0.00    -0.352 N 
ATOM      5  C   UNL     1       2.551  -3.242   2.487  1.00  0.00     0.253 C 
ATOM      6  O   UNL     1       3.506  -3.726   3.094  1.00  0.00    -0.269 OA
ATOM      7  H   UNL     1       2.983  -1.476   3.277  1.00  0.00     0.163 HD
BRANCH   5   8
ATOM      8  C   UNL     1       1.817  -4.016   1.428  1.00  0.00     0.065 A 
ATOM      9  C   UNL     1      -0.219  -4.380   0.157  1.00  0.00     0.050 A 
ATOM     10  C   UNL     1       0.425  -5.331  -0.626  1.00  0.00     0.029 A 
ATOM     11  C   UNL     1       0.424  -3.876   1.282  1.00  0.00     0.042 A 
ATOM     12  C   UNL     1       1.784  -5.556  -0.447  1.00  0.00     0.029 A 
ATOM     13  C   UNL     1       2.529  -4.820   0.493  1.00  0.00     0.050 A 
BRANCH   9  14
ATOM     14  N   UNL     1      -1.461  -3.903  -0.339  1.00  0.00    -0.280 N 
ATOM     15  H   UNL     1      -1.968  -4.517  -0.918  1.00  0.00     0.180 HD
BRANCH  14  16
ATOM     16  S   UNL     1      -2.156  -2.412  -0.044  1.00  0.00     0.262 S 
ATOM     17  O   UNL     1      -2.400  -2.351   1.387  1.00  0.00    -0.201 OA
ATOM     18  O   UNL     1      -3.247  -2.320  -0.989  1.00  0.00    -0.201 OA
BRANCH  16  19
ATOM     19  C   UNL     1      -1.056  -1.030  -0.422  1.00  0.00     0.093 A 
ATOM     20  C   UNL     1       1.859   2.163  -0.116  1.00  0.00     0.044 C 
ATOM     21  C   UNL     1       0.833   1.080  -0.265  1.00  0.00    -0.051 A 
ATOM     22  C   UNL     1      -0.466   1.265   0.199  1.00  0.00     0.008 A 
ATOM     23  C   UNL     1       1.126  -0.100  -0.949  1.00  0.00     0.008 A 
ATOM     24  C   UNL     1      -1.419   0.230   0.131  1.00  0.00    -0.030 A 
ATOM     25  C   UNL     1       0.181  -1.143  -1.086  1.00  0.00    -0.030 A 
ATOM     26  C   UNL     1      -2.819   0.604   0.556  1.00  0.00     0.046 C 
ATOM     27  C   UNL     1       0.592  -2.253  -2.006  1.00  0.00     0.046 C 
ENDBRANCH  16  19
ENDBRANCH  14  16
ENDBRANCH   9  14
BRANCH  13  28
ATOM     28  N   UNL     1       3.905  -4.799   0.346  1.00  0.00    -0.360 N 
ATOM     29  C   UNL     1       4.798  -5.485   1.288  1.00  0.00     0.178 C 
ATOM     30  C   UNL     1       4.499  -4.589  -0.981  1.00  0.00     0.178 C 
ATOM     31  C   UNL     1       6.107  -4.665   1.417  1.00  0.00     0.283 C 
ATOM     32  C   UNL     1       5.834  -3.825  -0.842  1.00  0.00     0.283 C 
ATOM     33  N   UNL     1       6.780  -4.460   0.104  1.00  0.00    -0.334 N 
ATOM     34  C   UNL     1       7.966  -3.621   0.264  1.00  0.00     0.332 C 
ATOM     35  H   UNL     1       7.072  -5.366  -0.264  1.00  0.00     0.347 HD
ENDBRANCH  13  28
ENDBRANCH   5   8
ENDBRANCH   3   4
ENDBRANCH   2   3
ENDBRANCH   1   2
BRANCH   1  36
ATOM     36  C   UNL     1       0.723   0.952   5.033  1.00  0.00     0.002 C 
BRANCH  36  37
ATOM     37  C   UNL     1      -0.647   1.551   4.704  1.00  0.00     0.021 C 
BRANCH  37  38
ATOM     38  C   UNL     1      -1.739   1.222   5.718  1.00  0.00     0.116 C 
BRANCH  38  39
ATOM     39  N   UNL     1      -1.438   1.762   7.034  1.00  0.00    -0.352 N 
ATOM     40  C   UNL     1      -2.247   2.472   7.882  1.00  0.00     0.251 C 
ATOM     41  H   UNL     1      -0.525   1.594   7.362  1.00  0.00     0.163 HD
ATOM     42  O   UNL     1      -1.782   3.011   8.881  1.00  0.00    -0.269 OA
BRANCH  40  43
ATOM     43  C   UNL     1      -3.687   2.602   7.580  1.00  0.00     0.039 A 
ATOM     44  C   UNL     1      -4.283   3.862   7.676  1.00  0.00     0.014 A 
ATOM     45  C   UNL     1      -4.446   1.483   7.223  1.00  0.00     0.014 A 
ATOM     46  C   UNL     1      -5.636   4.010   7.369  1.00  0.00     0.010 A 
ATOM     47  C   UNL     1      -5.782   1.641   6.867  1.00  0.00     0.010 A 
ATOM     48  C   UNL     1      -6.388   2.904   6.944  1.00  0.00    -0.014 A 
BRANCH  48  49
ATOM     49  C   UNL     1      -7.818   3.047   6.585  1.00  0.00     0.031 A 
ATOM     50  C   UNL     1      -8.876   2.419   7.445  1.00  0.00     0.074 A 
ATOM     51  C   UNL     1      -8.156   3.679   5.446  1.00  0.00     0.049 A 
ATOM     52  N   UNL     1     -10.171   2.376   7.265  1.00  0.00    -0.248 NA
ATOM     53  C   UNL     1      -8.411   1.723   8.654  1.00  0.00     0.031 C 
ATOM     54  C   UNL     1      -7.214   4.276   4.501  1.00  0.00     0.029 A 
ATOM     55  N   UNL     1      -9.386   3.905   4.883  1.00  0.00    -0.354 N 
ATOM     56  C   UNL     1     -10.673   1.631   8.323  1.00  0.00     0.074 A 
ATOM     57  C   UNL     1      -9.540   1.210   9.120  1.00  0.00     0.031 C 
ATOM     58  C   UNL     1      -7.899   4.806   3.476  1.00  0.00     0.029 A 
ATOM     59  C   UNL     1      -9.325   4.566   3.682  1.00  0.00     0.049 A 
ATOM     60  H   UNL     1     -10.231   3.620   5.299  1.00  0.00     0.167 HD
ATOM     61  C   UNL     1     -11.963   1.340   8.612  1.00  0.00     0.037 A 
ATOM     62  C   UNL     1     -10.309   4.932   2.841  1.00  0.00     0.037 A 
ATOM     63  C   UNL     1     -13.089   1.788   7.836  1.00  0.00     0.049 A 
ATOM     64  C   UNL     1     -11.736   4.633   3.201  1.00  0.00     0.074 A 
ATOM     65  C   UNL     1     -14.438   1.620   8.092  1.00  0.00     0.029 A 
ATOM     66  N   UNL     1     -12.992   2.495   6.646  1.00  0.00    -0.354 N 
ATOM     67  N   UNL     1     -12.207   3.996   4.245  1.00  0.00    -0.248 NA
ATOM     68  C   UNL     1     -12.769   5.112   2.273  1.00  0.00     0.031 C 
ATOM     69  C   UNL     1     -15.158   2.198   7.039  1.00  0.00     0.029 A 
ATOM     70  C   UNL     1     -14.257   2.755   6.145  1.00  0.00     0.049 A 
ATOM     71  H   UNL     1     -12.148   2.771   6.220  1.00  0.00     0.167 HD
ATOM     72  C   UNL     1     -13.588   4.008   4.109  1.00  0.00     0.074 A 
ATOM     73  C   UNL     1     -13.881   4.730   2.887  1.00  0.00     0.031 C 
ATOM     74  C   UNL     1     -14.528   3.470   4.924  1.00  0.00     0.037 A 
BRANCH  61  75
ATOM     75  C   UNL     1     -12.220   0.492   9.822  1.00  0.00     0.064 A 
ATOM     76  C   UNL     1     -12.043   0.994  11.120  1.00  0.00     0.173 A 
ATOM     77  C   UNL     1     -12.653  -0.834   9.683  1.00  0.00     0.173 A 
ATOM     78  F   UNL     1     -11.616   2.252  11.306  1.00  0.00    -0.203 F 
ATOM     79  C   UNL     1     -12.257   0.187  12.235  1.00  0.00     0.198 A 
ATOM     80  C   UNL     1     -12.892  -1.630  10.800  1.00  0.00     0.198 A 
ATOM     81  F   UNL     1     -12.842  -1.360   8.463  1.00  0.00    -0.203 F 
ATOM     82  F   UNL     1     -12.030   0.671  13.464  1.00  0.00    -0.200 F 
ATOM     83  C   UNL     1     -12.684  -1.123  12.074  1.00  0.00     0.200 A 
ATOM     84  F   UNL     1     -13.313  -2.893  10.644  1.00  0.00    -0.200 F 
ATOM     85  F   UNL     1     -12.887  -1.899  13.147  1.00  0.00    -0.200 F 
ENDBRANCH  61  75
BRANCH  62  86
ATOM     86  C   UNL     1      -9.966   5.654   1.591  1.00  0.00     0.064 A 
ATOM     87  C   UNL     1     -10.190   7.032   1.475  1.00  0.00     0.173 A 
ATOM     88  C   UNL     1      -9.372   4.990   0.509  1.00  0.00     0.173 A 
ATOM     89  F   UNL     1     -10.772   7.702   2.480  1.00  0.00    -0.203 F 
ATOM     90  C   UNL     1      -9.836   7.720   0.317  1.00  0.00     0.198 A 
ATOM     91  C   UNL     1      -9.000   5.684  -0.640  1.00  0.00     0.198 A 
ATOM     92  F   UNL     1      -9.132   3.673   0.578  1.00  0.00    -0.203 F 
ATOM     93  F   UNL     1     -10.079   9.035   0.221  1.00  0.00    -0.200 F 
ATOM     94  C   UNL     1      -9.234   7.048  -0.736  1.00  0.00     0.200 A 
ATOM     95  F   UNL     1      -8.407   5.034  -1.651  1.00  0.00    -0.200 F 
ATOM     96  F   UNL     1      -8.881   7.714  -1.844  1.00  0.00    -0.200 F 
ENDBRANCH  62  86
BRANCH  74  97
ATOM     97  C   UNL     1     -15.961   3.651   4.526  1.00  0.00     0.064 A 
ATOM     98  C   UNL     1     -16.529   2.902   3.486  1.00  0.00     0.173 A 
ATOM     99  C   UNL     1     -16.784   4.551   5.219  1.00  0.00     0.173 A 
ATOM    100  F   UNL     1     -15.777   2.041   2.785  1.00  0.00    -0.203 F 
ATOM    101  C   UNL     1     -17.869   3.061   3.142  1.00  0.00     0.198 A 
ATOM    102  C   UNL     1     -18.128   4.691   4.886  1.00  0.00     0.198 A 
ATOM    103  F   UNL     1     -16.286   5.287   6.223  1.00  0.00    -0.203 F 
ATOM    104  F   UNL     1     -18.384   2.361   2.122  1.00  0.00    -0.200 F 
ATOM    105  C   UNL     1     -18.668   3.950   3.846  1.00  0.00     0.200 A 
ATOM    106  F   UNL     1     -18.901   5.544   5.572  1.00  0.00    -0.200 F 
ATOM    107  F   UNL     1     -19.959   4.097   3.517  1.00  0.00    -0.200 F 
ENDBRANCH  74  97
ENDBRANCH  48  49
ENDBRANCH  40  43
ENDBRANCH  38  39
ENDBRANCH  37  38
ENDBRANCH  36  37
ENDBRANCH   1  36
TORSDOF 17
