REMARK SMILES O=C(NCCCCCCNC(=O)c1ccc(-c2c3nc(c(-c4c(F)c(F)c(F)c(F)c4F)c4ccc([nH]4)c(-c4c(F)c(F)c(F)c(F)c4F)c4nc(c(-c5c(F)c(F)c(F)c(F)c5F)c5ccc2[nH]5)C=C4)C=C3)cc1)C1=Cc2c(ccc(Cl)c2-c2ccccc2)O[C@H]1C(F)(F)F
REMARK SMILES IDX 7 1 6 2 5 3 4 4 3 5 1 6 2 7 76 9 77 10 92 11 78 12 91 13
REMARK SMILES IDX 79 14 84 15 80 16 82 17 81 18 83 19 93 20 94 21 95 22 96 23
REMARK SMILES IDX 85 24 86 25 90 26 87 27 89 28 88 29 8 30 9 31 10 32 11 33
REMARK SMILES IDX 12 35 13 36 14 37 75 38 15 39 74 40 16 41 17 42 18 43 68 44
REMARK SMILES IDX 19 45 73 46 67 47 69 48 20 49 72 50 66 51 65 52 21 54 53 55
REMARK SMILES IDX 33 56 52 57 34 58 37 59 51 60 70 61 35 62 36 63 50 65 71 66
REMARK SMILES IDX 38 67 22 68 23 69 31 70 24 71 25 72 29 73 32 74 26 75 27 76
REMARK SMILES IDX 30 77 28 78 54 79 55 80 63 81 56 82 57 83 61 84 64 85 58 86
REMARK SMILES IDX 59 87 62 88 60 89 39 90 40 91 48 92 41 93 42 94 46 95 49 96
REMARK SMILES IDX 43 97 44 98 47 99 45 100
REMARK H PARENT 3 8 10 34 69 53 37 64
REMARK Flexibility Score: inf
ROOT
ATOM      1  C   UNL     1       4.251  -0.573  -4.467  1.00  0.00     0.002 C 
ENDROOT
BRANCH   1   2
ATOM      2  C   UNL     1       3.708  -1.914  -3.956  1.00  0.00     0.002 C 
BRANCH   2   3
ATOM      3  C   UNL     1       4.169  -2.379  -2.571  1.00  0.00     0.021 C 
BRANCH   3   4
ATOM      4  C   UNL     1       3.874  -1.435  -1.406  1.00  0.00     0.116 C 
BRANCH   4   5
ATOM      5  N   UNL     1       2.552  -1.589  -0.802  1.00  0.00    -0.352 N 
ATOM      6  O   UNL     1       1.012  -1.365   0.863  1.00  0.00    -0.270 OA
ATOM      7  C   UNL     1       2.131  -1.154   0.444  1.00  0.00     0.251 C 
ATOM      8  H   UNL     1       1.880  -2.058  -1.347  1.00  0.00     0.163 HD
BRANCH   7   9
ATOM      9  C   UNL     1       3.127  -0.394   1.232  1.00  0.00     0.067 C 
ATOM     10  C   UNL     1       3.267   0.885   0.874  1.00  0.00     0.026 C 
ATOM     11  C   UNL     1       4.155  -1.136   2.019  1.00  0.00     0.314 C 
ATOM     12  C   UNL     1       4.658   1.273   0.579  1.00  0.00     0.027 A 
ATOM     13  O   UNL     1       5.514  -0.704   1.751  1.00  0.00    -0.475 OA
ATOM     14  C   UNL     1       5.695   0.412   0.978  1.00  0.00     0.128 A 
ATOM     15  C   UNL     1       4.920   2.322  -0.346  1.00  0.00     0.011 A 
ATOM     16  C   UNL     1       6.988   0.585   0.490  1.00  0.00     0.049 A 
ATOM     17  C   UNL     1       6.229   2.454  -0.849  1.00  0.00     0.049 A 
ATOM     18  C   UNL     1       7.252   1.594  -0.433  1.00  0.00     0.025 A 
ATOM     19  Cl  UNL     1       6.628   3.630  -2.054  1.00  0.00    -0.084 Cl
BRANCH  11  20
ATOM     20  C   UNL     1       3.848  -1.054   3.529  1.00  0.00     0.429 C 
ATOM     21  F   UNL     1       3.090   0.016   3.864  1.00  0.00    -0.167 F 
ATOM     22  F   UNL     1       3.190  -2.162   3.949  1.00  0.00    -0.167 F 
ATOM     23  F   UNL     1       4.983  -0.972   4.267  1.00  0.00    -0.167 F 
ENDBRANCH  11  20
BRANCH  15  24
ATOM     24  C   UNL     1       3.814   3.188  -0.799  1.00  0.00    -0.016 A 
ATOM     25  C   UNL     1       2.998   2.822  -1.884  1.00  0.00     0.009 A 
ATOM     26  C   UNL     1       3.456   4.311  -0.040  1.00  0.00     0.009 A 
ATOM     27  C   UNL     1       1.827   3.530  -2.167  1.00  0.00     0.001 A 
ATOM     28  C   UNL     1       2.290   5.022  -0.327  1.00  0.00     0.001 A 
ATOM     29  C   UNL     1       1.470   4.623  -1.381  1.00  0.00     0.000 A 
ENDBRANCH  15  24
ENDBRANCH   7   9
ENDBRANCH   4   5
ENDBRANCH   3   4
ENDBRANCH   2   3
ENDBRANCH   1   2
BRANCH   1  30
ATOM     30  C   UNL     1       5.756  -0.313  -4.333  1.00  0.00     0.021 C 
BRANCH  30  31
ATOM     31  C   UNL     1       6.696  -1.328  -4.984  1.00  0.00     0.116 C 
BRANCH  31  32
ATOM     32  N   UNL     1       6.537  -1.429  -6.422  1.00  0.00    -0.352 N 
ATOM     33  C   UNL     1       7.471  -1.478  -7.430  1.00  0.00     0.251 C 
ATOM     34  H   UNL     1       5.603  -1.470  -6.729  1.00  0.00     0.163 HD
ATOM     35  O   UNL     1       7.083  -1.494  -8.597  1.00  0.00    -0.269 OA
BRANCH  33  36
ATOM     36  C   UNL     1       8.932  -1.484  -7.159  1.00  0.00     0.039 A 
ATOM     37  C   UNL     1       9.765  -0.775  -8.036  1.00  0.00     0.014 A 
ATOM     38  C   UNL     1       9.508  -2.216  -6.117  1.00  0.00     0.014 A 
ATOM     39  C   UNL     1      11.150  -0.754  -7.841  1.00  0.00     0.010 A 
ATOM     40  C   UNL     1      10.888  -2.155  -5.891  1.00  0.00     0.010 A 
ATOM     41  C   UNL     1      11.723  -1.424  -6.751  1.00  0.00    -0.014 A 
BRANCH  41  42
ATOM     42  C   UNL     1      13.188  -1.373  -6.503  1.00  0.00     0.031 A 
ATOM     43  C   UNL     1      14.033  -2.605  -6.669  1.00  0.00     0.074 A 
ATOM     44  C   UNL     1      13.758  -0.228  -6.082  1.00  0.00     0.049 A 
ATOM     45  N   UNL     1      15.306  -2.777  -6.412  1.00  0.00    -0.248 NA
ATOM     46  C   UNL     1      13.354  -3.807  -7.175  1.00  0.00     0.031 C 
ATOM     47  C   UNL     1      13.054   1.034  -5.855  1.00  0.00     0.029 A 
ATOM     48  N   UNL     1      15.063   0.055  -5.760  1.00  0.00    -0.354 N 
ATOM     49  C   UNL     1      15.574  -4.109  -6.698  1.00  0.00     0.074 A 
ATOM     50  C   UNL     1      14.328  -4.706  -7.131  1.00  0.00     0.031 C 
ATOM     51  C   UNL     1      13.935   1.959  -5.439  1.00  0.00     0.029 A 
ATOM     52  C   UNL     1      15.259   1.349  -5.345  1.00  0.00     0.049 A 
ATOM     53  H   UNL     1      15.789  -0.607  -5.820  1.00  0.00     0.167 HD
ATOM     54  C   UNL     1      16.752  -4.773  -6.615  1.00  0.00     0.037 A 
ATOM     55  C   UNL     1      16.377   1.974  -4.928  1.00  0.00     0.037 A 
ATOM     56  C   UNL     1      18.004  -4.181  -6.224  1.00  0.00     0.049 A 
ATOM     57  C   UNL     1      17.678   1.225  -4.882  1.00  0.00     0.074 A 
ATOM     58  C   UNL     1      19.255  -4.771  -6.150  1.00  0.00     0.029 A 
ATOM     59  N   UNL     1      18.166  -2.856  -5.851  1.00  0.00    -0.354 N 
ATOM     60  N   UNL     1      17.920  -0.029  -5.172  1.00  0.00    -0.248 NA
ATOM     61  C   UNL     1      18.864   1.981  -4.451  1.00  0.00     0.031 C 
ATOM     62  C   UNL     1      20.172  -3.807  -5.717  1.00  0.00     0.029 A 
ATOM     63  C   UNL     1      19.495  -2.611  -5.543  1.00  0.00     0.049 A 
ATOM     64  H   UNL     1      17.445  -2.187  -5.811  1.00  0.00     0.167 HD
ATOM     65  C   UNL     1      19.281  -0.210  -4.974  1.00  0.00     0.074 A 
ATOM     66  C   UNL     1      19.818   1.065  -4.549  1.00  0.00     0.031 C 
ATOM     67  C   UNL     1      20.017  -1.336  -5.129  1.00  0.00     0.037 A 
BRANCH  54  68
ATOM     68  C   UNL     1      16.744  -6.231  -6.956  1.00  0.00     0.064 A 
ATOM     69  C   UNL     1      16.696  -6.670  -8.286  1.00  0.00     0.173 A 
ATOM     70  C   UNL     1      16.824  -7.198  -5.943  1.00  0.00     0.173 A 
ATOM     71  F   UNL     1      16.606  -5.780  -9.287  1.00  0.00    -0.203 F 
ATOM     72  C   UNL     1      16.709  -8.028  -8.591  1.00  0.00     0.198 A 
ATOM     73  C   UNL     1      16.856  -8.555  -6.252  1.00  0.00     0.198 A 
ATOM     74  F   UNL     1      16.875  -6.825  -4.655  1.00  0.00    -0.203 F 
ATOM     75  F   UNL     1      16.629  -8.428  -9.867  1.00  0.00    -0.200 F 
ATOM     76  C   UNL     1      16.794  -8.969  -7.574  1.00  0.00     0.200 A 
ATOM     77  F   UNL     1      16.943  -9.463  -5.270  1.00  0.00    -0.200 F 
ATOM     78  F   UNL     1      16.809 -10.276  -7.870  1.00  0.00    -0.200 F 
ENDBRANCH  54  68
BRANCH  55  79
ATOM     79  C   UNL     1      16.315   3.401  -4.534  1.00  0.00     0.064 A 
ATOM     80  C   UNL     1      16.809   4.401  -5.383  1.00  0.00     0.173 A 
ATOM     81  C   UNL     1      15.759   3.793  -3.309  1.00  0.00     0.173 A 
ATOM     82  F   UNL     1      17.371   4.066  -6.553  1.00  0.00    -0.203 F 
ATOM     83  C   UNL     1      16.758   5.743  -5.015  1.00  0.00     0.198 A 
ATOM     84  C   UNL     1      15.693   5.137  -2.950  1.00  0.00     0.198 A 
ATOM     85  F   UNL     1      15.274   2.870  -2.466  1.00  0.00    -0.203 F 
ATOM     86  F   UNL     1      17.264   6.678  -5.830  1.00  0.00    -0.200 F 
ATOM     87  C   UNL     1      16.196   6.110  -3.801  1.00  0.00     0.200 A 
ATOM     88  F   UNL     1      15.144   5.489  -1.780  1.00  0.00    -0.200 F 
ATOM     89  F   UNL     1      16.145   7.402  -3.449  1.00  0.00    -0.200 F 
ENDBRANCH  55  79
BRANCH  67  90
ATOM     90  C   UNL     1      21.486  -1.236  -4.857  1.00  0.00     0.064 A 
ATOM     91  C   UNL     1      21.986  -1.236  -3.548  1.00  0.00     0.173 A 
ATOM     92  C   UNL     1      22.403  -1.177  -5.916  1.00  0.00     0.173 A 
ATOM     93  F   UNL     1      21.143  -1.276  -2.505  1.00  0.00    -0.203 F 
ATOM     94  C   UNL     1      23.355  -1.168  -3.307  1.00  0.00     0.198 A 
ATOM     95  C   UNL     1      23.773  -1.123  -5.672  1.00  0.00     0.198 A 
ATOM     96  F   UNL     1      21.970  -1.174  -7.186  1.00  0.00    -0.203 F 
ATOM     97  F   UNL     1      23.812  -1.141  -2.047  1.00  0.00    -0.200 F 
ATOM     98  C   UNL     1      24.247  -1.116  -4.368  1.00  0.00     0.200 A 
ATOM     99  F   UNL     1      24.634  -1.076  -6.698  1.00  0.00    -0.200 F 
ATOM    100  F   UNL     1      25.565  -1.051  -4.134  1.00  0.00    -0.200 F 
ENDBRANCH  67  90
ENDBRANCH  41  42
ENDBRANCH  33  36
ENDBRANCH  31  32
ENDBRANCH  30  31
ENDBRANCH   1  30
TORSDOF 15
