REMARK SMILES CCC(CC)C[N@H+]1[C@@H]2CC[C@H]1C[C@H](CC(=O)NCCCCCCNC(=O)c1ccc(-c3c4nc(c(-c5c(F)c(F)c(F)c(F)c5F)c5ccc([nH]5)c(-c5c(F)c(F)c(F)c(F)c5F)c5nc(c(-c6c(F)c(F)c(F)c(F)c6F)c6ccc3[nH]6)C=C5)C=C4)cc1)C2
REMARK SMILES IDX 19 1 18 2 17 3 15 4 16 5 14 7 13 8 7 9 8 10 11 11 9 13 90 14
REMARK SMILES IDX 10 15 12 16 6 17 3 18 2 19 1 20 4 21 5 22 20 23 21 24 22 25
REMARK SMILES IDX 23 26 24 27 25 28 26 30 27 31 28 32 89 33 29 34 88 35 30 36
REMARK SMILES IDX 31 37 32 38 82 39 33 40 87 41 81 42 83 43 34 44 86 45 80 46
REMARK SMILES IDX 79 47 35 49 67 50 47 51 66 52 48 53 51 54 65 55 84 56 49 57
REMARK SMILES IDX 50 58 64 60 85 61 52 62 36 63 37 64 45 65 38 66 39 67 43 68
REMARK SMILES IDX 46 69 40 70 41 71 44 72 42 73 68 74 69 75 77 76 70 77 71 78
REMARK SMILES IDX 75 79 78 80 72 81 73 82 76 83 74 84 53 85 54 86 62 87 55 88
REMARK SMILES IDX 56 89 60 90 63 91 57 92 58 93 61 94 59 95
REMARK H PARENT 17 6 7 12 24 29 83 48 51 59
REMARK Flexibility Score: inf
ROOT
ATOM      1  C   UNL     1      -1.141   1.745  -8.615  1.00  0.00     0.021 C 
ENDROOT
BRANCH   1   2
ATOM      2  C   UNL     1      -1.084   0.214  -8.616  1.00  0.00     0.116 C 
BRANCH   2   3
ATOM      3  N   UNL     1       0.117  -0.254  -9.286  1.00  0.00    -0.356 N 
ATOM      4  C   UNL     1       1.286  -0.740  -8.787  1.00  0.00     0.220 C 
ATOM      5  O   UNL     1       2.202  -0.972  -9.579  1.00  0.00    -0.275 OA
ATOM      6  H   UNL     1       0.079  -0.211 -10.269  1.00  0.00     0.163 HD
BRANCH   4   7
ATOM      7  C   UNL     1       1.466  -1.009  -7.303  1.00  0.00     0.104 C 
BRANCH   7   8
ATOM      8  C   UNL     1       2.103   0.162  -6.524  1.00  0.00     0.010 C 
ATOM      9  N   UNL     1       1.622   1.222  -3.775  1.00  0.00    -0.330 N 
ATOM     10  C   UNL     1       2.941   0.664  -4.126  1.00  0.00     0.184 C 
ATOM     11  C   UNL     1       1.324   2.071  -4.932  1.00  0.00     0.184 C 
ATOM     12  H   UNL     1       1.645   1.732  -2.892  1.00  0.00     0.348 HD
ATOM     13  C   UNL     1       3.698   1.927  -4.559  1.00  0.00     0.071 C 
ATOM     14  C   UNL     1       2.844  -0.363  -5.270  1.00  0.00     0.069 C 
ATOM     15  C   UNL     1       2.616   2.872  -5.072  1.00  0.00     0.071 C 
ATOM     16  C   UNL     1       1.054   1.241  -6.190  1.00  0.00     0.069 C 
BRANCH   9  17
ATOM     17  C   UNL     1       0.577   0.241  -3.450  1.00  0.00     0.266 C 
BRANCH  17  18
ATOM     18  C   UNL     1       0.828  -0.468  -2.098  1.00  0.00     0.044 C 
BRANCH  18  19
ATOM     19  C   UNL     1       0.436   0.464  -0.934  1.00  0.00     0.006 C 
ATOM     20  C   UNL     1       0.903  -0.041   0.422  1.00  0.00     0.004 C 
ENDBRANCH  18  19
BRANCH  18  21
ATOM     21  C   UNL     1       0.142  -1.851  -2.058  1.00  0.00     0.006 C 
ATOM     22  C   UNL     1      -1.373  -1.843  -2.178  1.00  0.00     0.004 C 
ENDBRANCH  18  21
ENDBRANCH  17  18
ENDBRANCH   9  17
ENDBRANCH   7   8
ENDBRANCH   4   7
ENDBRANCH   2   3
ENDBRANCH   1   2
BRANCH   1  23
ATOM     23  C   UNL     1      -1.946   2.358  -9.760  1.00  0.00     0.002 C 
BRANCH  23  24
ATOM     24  C   UNL     1      -3.461   2.174  -9.657  1.00  0.00     0.002 C 
BRANCH  24  25
ATOM     25  C   UNL     1      -4.112   2.708  -8.376  1.00  0.00     0.021 C 
BRANCH  25  26
ATOM     26  C   UNL     1      -3.810   4.167  -8.040  1.00  0.00     0.116 C 
BRANCH  26  27
ATOM     27  N   UNL     1      -4.221   5.074  -9.098  1.00  0.00    -0.352 N 
ATOM     28  C   UNL     1      -5.153   6.081  -9.093  1.00  0.00     0.251 C 
ATOM     29  H   UNL     1      -3.758   4.944  -9.957  1.00  0.00     0.163 HD
ATOM     30  O   UNL     1      -5.502   6.595 -10.150  1.00  0.00    -0.269 OA
BRANCH  28  31
ATOM     31  C   UNL     1      -5.750   6.550  -7.823  1.00  0.00     0.039 A 
ATOM     32  C   UNL     1      -7.122   6.817  -7.788  1.00  0.00     0.014 A 
ATOM     33  C   UNL     1      -4.965   6.783  -6.691  1.00  0.00     0.014 A 
ATOM     34  C   UNL     1      -7.713   7.271  -6.607  1.00  0.00     0.010 A 
ATOM     35  C   UNL     1      -5.565   7.173  -5.494  1.00  0.00     0.010 A 
ATOM     36  C   UNL     1      -6.944   7.429  -5.443  1.00  0.00    -0.014 A 
BRANCH  36  37
ATOM     37  C   UNL     1      -7.575   7.867  -4.172  1.00  0.00     0.031 A 
ATOM     38  C   UNL     1      -7.232   9.200  -3.567  1.00  0.00     0.074 A 
ATOM     39  C   UNL     1      -8.435   7.043  -3.542  1.00  0.00     0.049 A 
ATOM     40  N   UNL     1      -7.679   9.749  -2.465  1.00  0.00    -0.248 NA
ATOM     41  C   UNL     1      -6.238  10.015  -4.282  1.00  0.00     0.031 C 
ATOM     42  C   UNL     1      -8.807   5.704  -3.999  1.00  0.00     0.029 A 
ATOM     43  N   UNL     1      -9.151   7.211  -2.384  1.00  0.00    -0.354 N 
ATOM     44  C   UNL     1      -7.016  10.964  -2.351  1.00  0.00     0.074 A 
ATOM     45  C   UNL     1      -6.097  11.049  -3.466  1.00  0.00     0.031 C 
ATOM     46  C   UNL     1      -9.704   5.182  -3.146  1.00  0.00     0.029 A 
ATOM     47  C   UNL     1      -9.949   6.138  -2.070  1.00  0.00     0.049 A 
ATOM     48  H   UNL     1      -9.098   8.023  -1.829  1.00  0.00     0.167 HD
ATOM     49  C   UNL     1      -7.177  11.932  -1.417  1.00  0.00     0.037 A 
ATOM     50  C   UNL     1     -10.789   5.950  -1.035  1.00  0.00     0.037 A 
ATOM     51  C   UNL     1      -8.108  11.855  -0.321  1.00  0.00     0.049 A 
ATOM     52  C   UNL     1     -10.961   7.046  -0.020  1.00  0.00     0.074 A 
ATOM     53  C   UNL     1      -8.386  12.806   0.646  1.00  0.00     0.029 A 
ATOM     54  N   UNL     1      -8.915  10.760  -0.047  1.00  0.00    -0.354 N 
ATOM     55  N   UNL     1     -10.383   8.222   0.036  1.00  0.00    -0.248 NA
ATOM     56  C   UNL     1     -11.914   6.794   1.070  1.00  0.00     0.031 C 
ATOM     57  C   UNL     1      -9.331  12.270   1.529  1.00  0.00     0.029 A 
ATOM     58  C   UNL     1      -9.678  11.005   1.084  1.00  0.00     0.049 A 
ATOM     59  H   UNL     1      -8.941   9.932  -0.578  1.00  0.00     0.167 HD
ATOM     60  C   UNL     1     -10.918   8.858   1.147  1.00  0.00     0.074 A 
ATOM     61  C   UNL     1     -11.882   7.945   1.726  1.00  0.00     0.031 C 
ATOM     62  C   UNL     1     -10.635  10.086   1.646  1.00  0.00     0.037 A 
BRANCH  49  63
ATOM     63  C   UNL     1      -6.330  13.166  -1.544  1.00  0.00     0.064 A 
ATOM     64  C   UNL     1      -6.539  14.097  -2.574  1.00  0.00     0.173 A 
ATOM     65  C   UNL     1      -5.322  13.441  -0.608  1.00  0.00     0.173 A 
ATOM     66  F   UNL     1      -7.483  13.876  -3.502  1.00  0.00    -0.203 F 
ATOM     67  C   UNL     1      -5.750  15.239  -2.680  1.00  0.00     0.198 A 
ATOM     68  C   UNL     1      -4.555  14.600  -0.700  1.00  0.00     0.198 A 
ATOM     69  F   UNL     1      -5.085  12.588   0.400  1.00  0.00    -0.203 F 
ATOM     70  F   UNL     1      -5.936  16.088  -3.700  1.00  0.00    -0.200 F 
ATOM     71  C   UNL     1      -4.764  15.493  -1.739  1.00  0.00     0.200 A 
ATOM     72  F   UNL     1      -3.610  14.850   0.217  1.00  0.00    -0.200 F 
ATOM     73  F   UNL     1      -4.010  16.597  -1.838  1.00  0.00    -0.200 F 
ENDBRANCH  49  63
BRANCH  50  74
ATOM     74  C   UNL     1     -11.564   4.687  -0.930  1.00  0.00     0.064 A 
ATOM     75  C   UNL     1     -12.950   4.676  -1.140  1.00  0.00     0.173 A 
ATOM     76  C   UNL     1     -10.941   3.471  -0.618  1.00  0.00     0.173 A 
ATOM     77  F   UNL     1     -13.594   5.818  -1.422  1.00  0.00    -0.203 F 
ATOM     78  C   UNL     1     -13.687   3.499  -1.021  1.00  0.00     0.198 A 
ATOM     79  C   UNL     1     -11.675   2.290  -0.526  1.00  0.00     0.198 A 
ATOM     80  F   UNL     1      -9.616   3.427  -0.413  1.00  0.00    -0.203 F 
ATOM     81  F   UNL     1     -15.017   3.525  -1.183  1.00  0.00    -0.200 F 
ATOM     82  C   UNL     1     -13.048   2.306  -0.720  1.00  0.00     0.200 A 
ATOM     83  F   UNL     1     -11.052   1.136  -0.248  1.00  0.00    -0.200 F 
ATOM     84  F   UNL     1     -13.756   1.174  -0.609  1.00  0.00    -0.200 F 
ENDBRANCH  50  74
BRANCH  62  85
ATOM     85  C   UNL     1     -11.400  10.523   2.861  1.00  0.00     0.064 A 
ATOM     86  C   UNL     1     -11.165   9.954   4.122  1.00  0.00     0.173 A 
ATOM     87  C   UNL     1     -12.368  11.533   2.766  1.00  0.00     0.173 A 
ATOM     88  F   UNL     1     -10.260   8.973   4.262  1.00  0.00    -0.203 F 
ATOM     89  C   UNL     1     -11.894  10.359   5.237  1.00  0.00     0.198 A 
ATOM     90  C   UNL     1     -13.075  11.957   3.888  1.00  0.00     0.198 A 
ATOM     91  F   UNL     1     -12.627  12.114   1.585  1.00  0.00    -0.203 F 
ATOM     92  F   UNL     1     -11.692   9.764   6.420  1.00  0.00    -0.200 F 
ATOM     93  C   UNL     1     -12.844  11.363   5.120  1.00  0.00     0.200 A 
ATOM     94  F   UNL     1     -13.984  12.935   3.777  1.00  0.00    -0.200 F 
ATOM     95  F   UNL     1     -13.545  11.751   6.194  1.00  0.00    -0.200 F 
ENDBRANCH  62  85
ENDBRANCH  36  37
ENDBRANCH  28  31
ENDBRANCH  26  27
ENDBRANCH  25  26
ENDBRANCH  24  25
ENDBRANCH  23  24
ENDBRANCH   1  23
TORSDOF 18
