REMARK SMILES CC(C)Cc1ccc(-c2cc(Cl)cc3c2O[C@H](C(F)(F)F)C(C(=O)NCCCCCCNC(=O)c2ccc(-c4c5nc(c(-c6c(F)c(F)c(F)c(F)c6F)c6ccc([nH]6)c(-c6c(F)c(F)c(F)c(F)c6F)c6nc(c(-c7c(F)c(F)c(F)c(F)c7F)c7ccc4[nH]7)C=C6)C=C5)cc2)=C3)cc1
REMARK SMILES IDX 28 1 27 2 26 3 25 4 23 5 24 6 22 8 9 9 10 10 15 11 11 12
REMARK SMILES IDX 14 13 16 14 12 15 13 16 98 17 17 18 8 19 5 20 6 21 100 22
REMARK SMILES IDX 7 23 99 24 4 25 2 26 1 27 3 28 18 29 19 30 20 31 21 32 29 33
REMARK SMILES IDX 30 34 31 35 32 36 33 37 34 39 35 40 36 41 97 42 37 43 96 44
REMARK SMILES IDX 38 45 39 46 40 47 90 48 41 49 95 50 89 51 91 52 42 53 94 54
REMARK SMILES IDX 88 55 87 56 43 58 75 59 55 60 74 61 56 62 59 63 73 64 92 65
REMARK SMILES IDX 57 66 58 67 72 69 93 70 60 71 44 72 45 73 53 74 46 75 47 76
REMARK SMILES IDX 51 77 54 78 48 79 49 80 52 81 50 82 76 83 77 84 85 85 78 86
REMARK SMILES IDX 79 87 83 88 86 89 80 90 81 91 84 92 82 93 61 94 62 95 70 96
REMARK SMILES IDX 63 97 64 98 68 99 71 100 65 101 66 102 69 103 67 104
REMARK H PARENT 25 7 32 38 91 57 59 68
REMARK Flexibility Score: inf
ROOT
ATOM      1  C   UNL     1      -3.200  13.834   2.111  1.00  0.00     0.002 C 
ENDROOT
BRANCH   1   2
ATOM      2  C   UNL     1      -2.696  12.726   3.052  1.00  0.00     0.021 C 
BRANCH   2   3
ATOM      3  C   UNL     1      -3.622  11.506   3.159  1.00  0.00     0.116 C 
BRANCH   3   4
ATOM      4  N   UNL     1      -3.814  10.918   1.850  1.00  0.00    -0.352 N 
ATOM      5  C   UNL     1      -3.409   9.670   1.503  1.00  0.00     0.251 C 
ATOM      6  O   UNL     1      -2.716   9.500   0.508  1.00  0.00    -0.270 OA
ATOM      7  H   UNL     1      -4.268  11.460   1.165  1.00  0.00     0.163 HD
BRANCH   5   8
ATOM      8  C   UNL     1      -3.995   8.552   2.297  1.00  0.00     0.067 C 
ATOM      9  C   UNL     1      -2.678   5.465   0.026  1.00  0.00     0.026 A 
ATOM     10  C   UNL     1      -2.920   5.842  -1.324  1.00  0.00     0.033 A 
ATOM     11  C   UNL     1      -3.320   6.240   1.008  1.00  0.00     0.135 A 
ATOM     12  C   UNL     1      -3.866   6.796  -1.685  1.00  0.00     0.042 A 
ATOM     13  C   UNL     1      -4.367   7.115   0.616  1.00  0.00     0.019 A 
ATOM     14  O   UNL     1      -2.941   6.259   2.347  1.00  0.00    -0.475 OA
ATOM     15  Cl  UNL     1      -4.063   7.222  -3.338  1.00  0.00    -0.084 Cl
ATOM     16  C   UNL     1      -4.656   7.381  -0.719  1.00  0.00     0.032 A 
ATOM     17  C   UNL     1      -5.011   7.934   1.664  1.00  0.00     0.025 C 
ATOM     18  C   UNL     1      -2.983   7.628   2.955  1.00  0.00     0.314 C 
BRANCH   9  19
ATOM     19  C   UNL     1      -1.951   4.175   0.179  1.00  0.00    -0.015 A 
ATOM     20  C   UNL     1      -1.193   1.499  -0.507  1.00  0.00    -0.048 A 
ATOM     21  C   UNL     1      -0.477   2.597  -0.992  1.00  0.00     0.004 A 
ATOM     22  C   UNL     1      -2.239   1.749   0.392  1.00  0.00     0.004 A 
ATOM     23  C   UNL     1      -0.820   3.905  -0.619  1.00  0.00     0.009 A 
ATOM     24  C   UNL     1      -2.607   3.065   0.738  1.00  0.00     0.009 A 
BRANCH  20  25
ATOM     25  C   UNL     1      -0.911   0.086  -0.994  1.00  0.00     0.038 C 
BRANCH  25  26
ATOM     26  C   UNL     1       0.582  -0.296  -1.119  1.00  0.00    -0.013 C 
ATOM     27  C   UNL     1       1.332  -0.084   0.198  1.00  0.00     0.008 C 
ATOM     28  C   UNL     1       0.743  -1.753  -1.565  1.00  0.00     0.008 C 
ENDBRANCH  25  26
ENDBRANCH  20  25
ENDBRANCH   9  19
BRANCH  18  29
ATOM     29  C   UNL     1      -3.300   7.602   4.469  1.00  0.00     0.429 C 
ATOM     30  F   UNL     1      -3.796   6.416   4.883  1.00  0.00    -0.167 F 
ATOM     31  F   UNL     1      -2.196   7.870   5.207  1.00  0.00    -0.167 F 
ATOM     32  F   UNL     1      -4.218   8.545   4.821  1.00  0.00    -0.167 F 
ENDBRANCH  18  29
ENDBRANCH   5   8
ENDBRANCH   3   4
ENDBRANCH   2   3
ENDBRANCH   1   2
BRANCH   1  33
ATOM     33  C   UNL     1      -4.612  14.340   2.412  1.00  0.00     0.002 C 
BRANCH  33  34
ATOM     34  C   UNL     1      -4.792  14.909   3.819  1.00  0.00     0.021 C 
BRANCH  34  35
ATOM     35  C   UNL     1      -3.818  16.025   4.175  1.00  0.00     0.116 C 
BRANCH  35  36
ATOM     36  N   UNL     1      -3.943  17.173   3.292  1.00  0.00    -0.352 N 
ATOM     37  C   UNL     1      -4.036  18.502   3.611  1.00  0.00     0.251 C 
ATOM     38  H   UNL     1      -3.963  16.967   2.329  1.00  0.00     0.163 HD
ATOM     39  O   UNL     1      -4.313  19.330   2.744  1.00  0.00    -0.269 OA
BRANCH  37  40
ATOM     40  C   UNL     1      -3.827  18.939   5.006  1.00  0.00     0.039 A 
ATOM     41  C   UNL     1      -4.699  19.882   5.552  1.00  0.00     0.014 A 
ATOM     42  C   UNL     1      -2.776  18.426   5.771  1.00  0.00     0.014 A 
ATOM     43  C   UNL     1      -4.543  20.277   6.881  1.00  0.00     0.010 A 
ATOM     44  C   UNL     1      -2.674  18.756   7.119  1.00  0.00     0.010 A 
ATOM     45  C   UNL     1      -3.547  19.697   7.684  1.00  0.00    -0.014 A 
BRANCH  45  46
ATOM     46  C   UNL     1      -3.402  20.083   9.110  1.00  0.00     0.031 A 
ATOM     47  C   UNL     1      -2.149  20.763   9.589  1.00  0.00     0.074 A 
ATOM     48  C   UNL     1      -4.388  19.791   9.981  1.00  0.00     0.049 A 
ATOM     49  N   UNL     1      -1.837  21.172  10.794  1.00  0.00    -0.248 NA
ATOM     50  C   UNL     1      -1.095  20.992   8.589  1.00  0.00     0.031 C 
ATOM     51  C   UNL     1      -5.627  19.086   9.648  1.00  0.00     0.029 A 
ATOM     52  N   UNL     1      -4.504  20.052  11.323  1.00  0.00    -0.354 N 
ATOM     53  C   UNL     1      -0.555  21.696  10.695  1.00  0.00     0.074 A 
ATOM     54  C   UNL     1      -0.120  21.495   9.330  1.00  0.00     0.031 C 
ATOM     55  C   UNL     1      -6.392  19.001  10.748  1.00  0.00     0.029 A 
ATOM     56  C   UNL     1      -5.684  19.610  11.869  1.00  0.00     0.049 A 
ATOM     57  H   UNL     1      -3.808  20.512  11.845  1.00  0.00     0.167 HD
ATOM     58  C   UNL     1       0.182  22.314  11.649  1.00  0.00     0.037 A 
ATOM     59  C   UNL     1      -6.143  19.688  13.133  1.00  0.00     0.037 A 
ATOM     60  C   UNL     1      -0.262  22.526  13.002  1.00  0.00     0.049 A 
ATOM     61  C   UNL     1      -5.300  20.375  14.174  1.00  0.00     0.074 A 
ATOM     62  C   UNL     1       0.385  23.190  14.029  1.00  0.00     0.029 A 
ATOM     63  N   UNL     1      -1.467  22.071  13.517  1.00  0.00    -0.354 N 
ATOM     64  N   UNL     1      -4.122  20.937  14.051  1.00  0.00    -0.248 NA
ATOM     65  C   UNL     1      -5.860  20.448  15.531  1.00  0.00     0.031 C 
ATOM     66  C   UNL     1      -0.401  23.086  15.181  1.00  0.00     0.029 A 
ATOM     67  C   UNL     1      -1.570  22.416  14.856  1.00  0.00     0.049 A 
ATOM     68  H   UNL     1      -2.149  21.576  13.008  1.00  0.00     0.167 HD
ATOM     69  C   UNL     1      -3.813  21.456  15.301  1.00  0.00     0.074 A 
ATOM     70  C   UNL     1      -4.940  21.161  16.163  1.00  0.00     0.031 C 
ATOM     71  C   UNL     1      -2.698  22.116  15.702  1.00  0.00     0.037 A 
BRANCH  58  72
ATOM     72  C   UNL     1       1.549  22.807  11.261  1.00  0.00     0.064 A 
ATOM     73  C   UNL     1       1.723  23.872  10.363  1.00  0.00     0.173 A 
ATOM     74  C   UNL     1       2.699  22.230  11.821  1.00  0.00     0.173 A 
ATOM     75  F   UNL     1       0.658  24.453   9.790  1.00  0.00    -0.203 F 
ATOM     76  C   UNL     1       2.996  24.318  10.016  1.00  0.00     0.198 A 
ATOM     77  C   UNL     1       3.969  22.701  11.498  1.00  0.00     0.198 A 
ATOM     78  F   UNL     1       2.592  21.212  12.688  1.00  0.00    -0.203 F 
ATOM     79  F   UNL     1       3.137  25.299   9.114  1.00  0.00    -0.200 F 
ATOM     80  C   UNL     1       4.117  23.738  10.589  1.00  0.00     0.200 A 
ATOM     81  F   UNL     1       5.051  22.150  12.065  1.00  0.00    -0.200 F 
ATOM     82  F   UNL     1       5.341  24.174  10.261  1.00  0.00    -0.200 F 
ENDBRANCH  58  72
BRANCH  59  83
ATOM     83  C   UNL     1      -7.474  19.123  13.479  1.00  0.00     0.064 A 
ATOM     84  C   UNL     1      -8.539  19.958  13.850  1.00  0.00     0.173 A 
ATOM     85  C   UNL     1      -7.707  17.741  13.461  1.00  0.00     0.173 A 
ATOM     86  F   UNL     1      -8.361  21.286  13.900  1.00  0.00    -0.203 F 
ATOM     87  C   UNL     1      -9.775  19.430  14.216  1.00  0.00     0.198 A 
ATOM     88  C   UNL     1      -8.954  17.215  13.796  1.00  0.00     0.198 A 
ATOM     89  F   UNL     1      -6.725  16.898  13.108  1.00  0.00    -0.203 F 
ATOM     90  F   UNL     1     -10.757  20.247  14.620  1.00  0.00    -0.200 F 
ATOM     91  C   UNL     1      -9.983  18.059  14.184  1.00  0.00     0.200 A 
ATOM     92  F   UNL     1      -9.155  15.892  13.746  1.00  0.00    -0.200 F 
ATOM     93  F   UNL     1     -11.172  17.551  14.535  1.00  0.00    -0.200 F 
ENDBRANCH  59  83
BRANCH  71  94
ATOM     94  C   UNL     1      -2.659  22.595  17.126  1.00  0.00     0.064 A 
ATOM     95  C   UNL     1      -2.571  21.704  18.206  1.00  0.00     0.173 A 
ATOM     96  C   UNL     1      -2.696  23.969  17.412  1.00  0.00     0.173 A 
ATOM     97  F   UNL     1      -2.546  20.380  17.989  1.00  0.00    -0.203 F 
ATOM     98  C   UNL     1      -2.564  22.168  19.519  1.00  0.00     0.198 A 
ATOM     99  C   UNL     1      -2.650  24.431  18.724  1.00  0.00     0.198 A 
ATOM    100  F   UNL     1      -2.770  24.866  16.418  1.00  0.00    -0.203 F 
ATOM    101  F   UNL     1      -2.548  21.294  20.535  1.00  0.00    -0.200 F 
ATOM    102  C   UNL     1      -2.597  23.530  19.777  1.00  0.00     0.200 A 
ATOM    103  F   UNL     1      -2.664  25.748  18.971  1.00  0.00    -0.200 F 
ATOM    104  F   UNL     1      -2.589  23.974  21.041  1.00  0.00    -0.200 F 
ENDBRANCH  71  94
ENDBRANCH  45  46
ENDBRANCH  37  40
ENDBRANCH  35  36
ENDBRANCH  34  35
ENDBRANCH  33  34
ENDBRANCH   1  33
TORSDOF 17
