REMARK SMILES O=C(NCCCCCCNC(=O)c1ccc(-n2cc(CSc3nc4ccccc4c(=O)n3-c3ccccc3)nn2)cc1)c1ccc(-c2c3nc(c(-c4c(F)c(F)c(F)c(F)c4F)c4ccc([nH]4)c(-c4c(F)c(F)c(F)c(F)c4F)c4nc(c(-c5c(F)c(F)c(F)c(F)c5F)c5ccc2[nH]5)C=C4)C=C3)cc1
REMARK SMILES IDX 8 1 7 2 6 3 5 4 4 5 3 6 1 7 2 8 43 10 44 11 105 12 45 13
REMARK SMILES IDX 104 14 46 15 47 16 48 17 98 18 49 19 103 20 97 21 99 22
REMARK SMILES IDX 50 23 102 24 96 25 95 26 51 28 83 29 63 30 82 31 64 32 67 33
REMARK SMILES IDX 81 34 100 35 65 36 66 37 80 39 101 40 68 41 52 42 53 43
REMARK SMILES IDX 61 44 54 45 55 46 59 47 62 48 56 49 57 50 60 51 58 52 84 53
REMARK SMILES IDX 85 54 93 55 86 56 87 57 91 58 94 59 88 60 89 61 92 62 90 63
REMARK SMILES IDX 69 64 70 65 78 66 71 67 72 68 76 69 79 70 73 71 74 72 77 73
REMARK SMILES IDX 75 74 9 75 10 76 11 77 12 79 13 80 14 81 42 82 15 83 41 84
REMARK SMILES IDX 16 85 17 86 18 87 40 88 19 89 39 90 20 91 21 92 22 93 23 94
REMARK SMILES IDX 32 95 24 96 30 97 25 98 29 99 31 100 26 101 28 102 27 103
REMARK SMILES IDX 33 104 34 105 38 106 35 107 37 108 36 109
REMARK H PARENT 3 9 99 27 67 38 10 78
REMARK Flexibility Score: inf
ROOT
ATOM      1  C   UNL     1       6.375  -1.515   3.872  1.00  0.00     0.021 C 
ENDROOT
BRANCH   1   2
ATOM      2  C   UNL     1       4.851  -1.378   3.817  1.00  0.00     0.002 C 
BRANCH   2   3
ATOM      3  C   UNL     1       4.315   0.016   3.470  1.00  0.00     0.002 C 
BRANCH   3   4
ATOM      4  C   UNL     1       4.836   0.643   2.170  1.00  0.00     0.021 C 
BRANCH   4   5
ATOM      5  C   UNL     1       4.610  -0.188   0.909  1.00  0.00     0.116 C 
BRANCH   5   6
ATOM      6  N   UNL     1       3.219  -0.466   0.618  1.00  0.00    -0.352 N 
ATOM      7  O   UNL     1       1.177  -0.466  -0.214  1.00  0.00    -0.269 OA
ATOM      8  C   UNL     1       2.210   0.185  -0.035  1.00  0.00     0.251 C 
ATOM      9  H   UNL     1       2.929  -1.336   0.978  1.00  0.00     0.163 HD
BRANCH   8  10
ATOM     10  C   UNL     1       2.232   1.608  -0.477  1.00  0.00     0.039 A 
ATOM     11  C   UNL     1       3.358   2.422  -0.591  1.00  0.00     0.014 A 
ATOM     12  C   UNL     1       0.975   2.162  -0.799  1.00  0.00     0.014 A 
ATOM     13  C   UNL     1       3.220   3.767  -0.949  1.00  0.00     0.010 A 
ATOM     14  C   UNL     1       0.831   3.500  -1.156  1.00  0.00     0.010 A 
ATOM     15  C   UNL     1       1.955   4.314  -1.207  1.00  0.00    -0.014 A 
BRANCH  15  16
ATOM     16  C   UNL     1       1.875   5.676  -1.739  1.00  0.00     0.031 A 
ATOM     17  C   UNL     1       2.479   5.815  -3.095  1.00  0.00     0.074 A 
ATOM     18  C   UNL     1       1.223   6.713  -1.169  1.00  0.00     0.049 A 
ATOM     19  N   UNL     1       3.539   6.479  -3.417  1.00  0.00    -0.248 NA
ATOM     20  C   UNL     1       1.911   5.025  -4.198  1.00  0.00     0.031 C 
ATOM     21  C   UNL     1       0.334   6.691  -0.008  1.00  0.00     0.029 A 
ATOM     22  N   UNL     1       1.163   8.021  -1.571  1.00  0.00    -0.354 N 
ATOM     23  C   UNL     1       3.683   6.336  -4.795  1.00  0.00     0.074 A 
ATOM     24  C   UNL     1       2.745   5.320  -5.197  1.00  0.00     0.031 C 
ATOM     25  C   UNL     1      -0.331   7.869   0.074  1.00  0.00     0.029 A 
ATOM     26  C   UNL     1       0.179   8.778  -0.940  1.00  0.00     0.049 A 
ATOM     27  H   UNL     1       1.768   8.397  -2.251  1.00  0.00     0.167 HD
ATOM     28  C   UNL     1       4.410   7.232  -5.519  1.00  0.00     0.037 A 
ATOM     29  C   UNL     1      -0.208  10.045  -1.249  1.00  0.00     0.037 A 
ATOM     30  C   UNL     1       5.262   8.016  -4.662  1.00  0.00     0.049 A 
ATOM     31  C   UNL     1       0.887  10.672  -2.022  1.00  0.00     0.074 A 
ATOM     32  C   UNL     1       6.315   7.749  -3.811  1.00  0.00     0.029 A 
ATOM     33  N   UNL     1       4.830   9.277  -4.343  1.00  0.00    -0.354 N 
ATOM     34  N   UNL     1       2.039  11.007  -1.517  1.00  0.00    -0.248 NA
ATOM     35  C   UNL     1       0.845  10.566  -3.471  1.00  0.00     0.031 C 
ATOM     36  C   UNL     1       6.159   8.666  -2.729  1.00  0.00     0.029 A 
ATOM     37  C   UNL     1       5.062   9.481  -3.011  1.00  0.00     0.049 A 
ATOM     38  H   UNL     1       4.423   9.923  -4.964  1.00  0.00     0.167 HD
ATOM     39  C   UNL     1       2.951  10.692  -2.508  1.00  0.00     0.074 A 
ATOM     40  C   UNL     1       2.155  10.541  -3.723  1.00  0.00     0.031 C 
ATOM     41  C   UNL     1       4.218  10.305  -2.181  1.00  0.00     0.037 A 
BRANCH  28  42
ATOM     42  C   UNL     1       4.067   7.693  -6.918  1.00  0.00     0.064 A 
ATOM     43  C   UNL     1       4.949   8.575  -7.580  1.00  0.00     0.173 A 
ATOM     44  C   UNL     1       2.782   7.583  -7.488  1.00  0.00     0.173 A 
ATOM     45  F   UNL     1       6.194   8.773  -7.119  1.00  0.00    -0.203 F 
ATOM     46  C   UNL     1       4.539   9.358  -8.663  1.00  0.00     0.198 A 
ATOM     47  C   UNL     1       2.393   8.327  -8.602  1.00  0.00     0.198 A 
ATOM     48  F   UNL     1       1.814   6.848  -6.929  1.00  0.00    -0.203 F 
ATOM     49  F   UNL     1       5.366  10.285  -9.165  1.00  0.00    -0.200 F 
ATOM     50  C   UNL     1       3.258   9.240  -9.167  1.00  0.00     0.200 A 
ATOM     51  F   UNL     1       1.139   8.214  -9.063  1.00  0.00    -0.200 F 
ATOM     52  F   UNL     1       2.839  10.038 -10.157  1.00  0.00    -0.200 F 
ENDBRANCH  28  42
BRANCH  29  53
ATOM     53  C   UNL     1      -1.544  10.691  -1.167  1.00  0.00     0.064 A 
ATOM     54  C   UNL     1      -1.688  12.088  -1.274  1.00  0.00     0.173 A 
ATOM     55  C   UNL     1      -2.722   9.934  -1.306  1.00  0.00     0.173 A 
ATOM     56  F   UNL     1      -0.613  12.887  -1.199  1.00  0.00    -0.203 F 
ATOM     57  C   UNL     1      -2.926  12.685  -1.543  1.00  0.00     0.198 A 
ATOM     58  C   UNL     1      -3.957  10.531  -1.569  1.00  0.00     0.198 A 
ATOM     59  F   UNL     1      -2.679   8.595  -1.293  1.00  0.00    -0.203 F 
ATOM     60  F   UNL     1      -3.007  14.013  -1.711  1.00  0.00    -0.200 F 
ATOM     61  C   UNL     1      -4.057  11.904  -1.704  1.00  0.00     0.200 A 
ATOM     62  F   UNL     1      -5.038   9.762  -1.763  1.00  0.00    -0.200 F 
ATOM     63  F   UNL     1      -5.228  12.467  -2.033  1.00  0.00    -0.200 F 
ENDBRANCH  29  53
BRANCH  41  64
ATOM     64  C   UNL     1       4.691  10.573  -0.780  1.00  0.00     0.064 A 
ATOM     65  C   UNL     1       4.106  10.037   0.380  1.00  0.00     0.173 A 
ATOM     66  C   UNL     1       5.865  11.322  -0.625  1.00  0.00     0.173 A 
ATOM     67  F   UNL     1       3.040   9.229   0.311  1.00  0.00    -0.203 F 
ATOM     68  C   UNL     1       4.651  10.284   1.640  1.00  0.00     0.198 A 
ATOM     69  C   UNL     1       6.430  11.531   0.629  1.00  0.00     0.198 A 
ATOM     70  F   UNL     1       6.495  11.818  -1.702  1.00  0.00    -0.203 F 
ATOM     71  F   UNL     1       4.067   9.778   2.736  1.00  0.00    -0.200 F 
ATOM     72  C   UNL     1       5.816  11.023   1.762  1.00  0.00     0.200 A 
ATOM     73  F   UNL     1       7.585  12.202   0.735  1.00  0.00    -0.200 F 
ATOM     74  F   UNL     1       6.364  11.224   2.968  1.00  0.00    -0.200 F 
ENDBRANCH  41  64
ENDBRANCH  15  16
ENDBRANCH   8  10
ENDBRANCH   5   6
ENDBRANCH   4   5
ENDBRANCH   3   4
ENDBRANCH   2   3
ENDBRANCH   1   2
BRANCH   1  75
ATOM     75  C   UNL     1       7.074  -0.591   4.867  1.00  0.00     0.116 C 
BRANCH  75  76
ATOM     76  N   UNL     1       6.768  -0.924   6.247  1.00  0.00    -0.352 N 
ATOM     77  C   UNL     1       7.606  -1.368   7.243  1.00  0.00     0.251 C 
ATOM     78  H   UNL     1       5.824  -0.818   6.507  1.00  0.00     0.163 HD
ATOM     79  O   UNL     1       7.159  -1.730   8.320  1.00  0.00    -0.269 OA
BRANCH  77  80
ATOM     80  C   UNL     1       9.062  -1.429   6.991  1.00  0.00     0.039 A 
ATOM     81  C   UNL     1       9.723  -2.646   7.171  1.00  0.00     0.016 A 
ATOM     82  C   UNL     1       9.767  -0.290   6.590  1.00  0.00     0.016 A 
ATOM     83  C   UNL     1      11.085  -2.745   6.880  1.00  0.00     0.029 A 
ATOM     84  C   UNL     1      11.133  -0.382   6.314  1.00  0.00     0.029 A 
ATOM     85  C   UNL     1      11.795  -1.613   6.457  1.00  0.00     0.066 A 
BRANCH  85  86
ATOM     86  N   UNL     1      13.190  -1.714   6.240  1.00  0.00    -0.220 N 
ATOM     87  C   UNL     1      14.104  -0.695   6.160  1.00  0.00     0.141 A 
ATOM     88  N   UNL     1      13.833  -2.897   6.100  1.00  0.00    -0.062 NA
ATOM     89  C   UNL     1      15.335  -1.313   6.115  1.00  0.00     0.093 A 
ATOM     90  N   UNL     1      15.138  -2.661   6.013  1.00  0.00    -0.134 NA
BRANCH  89  91
ATOM     91  C   UNL     1      16.673  -0.700   5.993  1.00  0.00     0.138 C 
BRANCH  91  92
ATOM     92  S   UNL     1      17.782  -0.535   7.398  1.00  0.00    -0.081 SA
BRANCH  92  93
ATOM     93  C   UNL     1      16.993  -0.885   8.915  1.00  0.00     0.176 A 
ATOM     94  N   UNL     1      17.760  -1.583   9.701  1.00  0.00    -0.223 NA
ATOM     95  N   UNL     1      15.735  -0.452   9.319  1.00  0.00    -0.255 N 
ATOM     96  C   UNL     1      17.262  -2.001  10.938  1.00  0.00     0.079 A 
ATOM     97  C   UNL     1      15.059  -1.339  10.177  1.00  0.00     0.266 A 
ATOM     98  C   UNL     1      18.118  -2.457  11.942  1.00  0.00     0.029 A 
ATOM     99  C   UNL     1      15.894  -2.060  11.151  1.00  0.00     0.066 A 
ATOM    100  O   UNL     1      13.849  -1.557  10.182  1.00  0.00    -0.268 OA
ATOM    101  C   UNL     1      17.599  -3.038  13.105  1.00  0.00     0.002 A 
ATOM    102  C   UNL     1      15.358  -2.690  12.280  1.00  0.00     0.016 A 
ATOM    103  C   UNL     1      16.220  -3.193  13.255  1.00  0.00     0.001 A 
BRANCH  95 104
ATOM    104  C   UNL     1      15.070   0.794   8.968  1.00  0.00     0.051 A 
ATOM    105  C   UNL     1      13.928   1.210   9.686  1.00  0.00     0.027 A 
ATOM    106  C   UNL     1      15.506   1.688   7.984  1.00  0.00     0.027 A 
ATOM    107  C   UNL     1      13.170   2.328   9.318  1.00  0.00     0.002 A 
ATOM    108  C   UNL     1      14.716   2.767   7.556  1.00  0.00     0.002 A 
ATOM    109  C   UNL     1      13.531   3.071   8.207  1.00  0.00     0.000 A 
ENDBRANCH  95 104
ENDBRANCH  92  93
ENDBRANCH  91  92
ENDBRANCH  89  91
ENDBRANCH  85  86
ENDBRANCH  77  80
ENDBRANCH  75  76
ENDBRANCH   1  75
TORSDOF 18
