REMARK SMILES CC1(C)S[C@H](c2ccc([N+](=O)[O-])cc2)[NH2+][C@@H]1C(=O)NCCCCCCNC(=O)c1ccc(-c2c3nc(c(-c4c(F)c(F)c(F)c(F)c4F)c4ccc([nH]4)c(-c4c(F)c(F)c(F)c(F)c4F)c4nc(c(-c5c(F)c(F)c(F)c(F)c5F)c5ccc2[nH]5)C=C4)C=C3)cc1
REMARK SMILES IDX 22 1 21 2 20 3 19 4 17 5 18 6 16 8 1 9 2 10 3 11 4 12 5 13
REMARK SMILES IDX 15 14 6 17 7 18 14 19 8 20 13 21 9 22 10 23 11 24 12 25
REMARK SMILES IDX 23 26 24 27 25 28 26 29 27 30 28 32 29 33 30 34 91 35 31 36
REMARK SMILES IDX 90 37 32 38 33 39 34 40 84 41 35 42 89 43 83 44 85 45 36 46
REMARK SMILES IDX 88 47 82 48 81 49 37 51 69 52 49 53 68 54 50 55 53 56 67 57
REMARK SMILES IDX 86 58 51 59 52 60 66 62 87 63 54 64 38 65 39 66 47 67 40 68
REMARK SMILES IDX 41 69 45 70 48 71 42 72 43 73 46 74 44 75 70 76 71 77 79 78
REMARK SMILES IDX 72 79 73 80 77 81 80 82 74 83 75 84 78 85 76 86 55 87 56 88
REMARK SMILES IDX 64 89 57 90 58 91 62 92 65 93 59 94 60 95 63 96 61 97
REMARK H PARENT 19 7 15 15 15 16 26 31 85 50 53 61
REMARK Flexibility Score: inf
ROOT
ATOM      1  C   UNL     1      -3.128   4.066  -4.147  1.00  0.00     0.002 C 
ENDROOT
BRANCH   1   2
ATOM      2  C   UNL     1      -2.763   4.357  -2.682  1.00  0.00     0.021 C 
BRANCH   2   3
ATOM      3  C   UNL     1      -2.158   3.215  -1.859  1.00  0.00     0.116 C 
BRANCH   3   4
ATOM      4  N   UNL     1      -1.104   2.493  -2.547  1.00  0.00    -0.351 N 
ATOM      5  C   UNL     1      -0.317   1.463  -2.094  1.00  0.00     0.279 C 
ATOM      6  O   UNL     1       0.355   0.881  -2.944  1.00  0.00    -0.268 OA
ATOM      7  H   UNL     1      -0.928   2.783  -3.471  1.00  0.00     0.163 HD
BRANCH   5   8
ATOM      8  C   UNL     1      -0.261   1.143  -0.577  1.00  0.00     0.289 C 
ATOM      9  C   UNL     1       1.192   0.419   1.374  1.00  0.00     0.030 C 
ATOM     10  C   UNL     1       0.799   0.120  -0.088  1.00  0.00     0.077 C 
ATOM     11  C   UNL     1       2.089  -0.001  -0.905  1.00  0.00     0.030 C 
ATOM     12  S   UNL     1      -0.080  -1.477  -0.119  1.00  0.00    -0.081 SA
ATOM     13  C   UNL     1      -1.731  -0.745  -0.146  1.00  0.00     0.274 C 
ATOM     14  N   UNL     1      -1.605   0.725  -0.057  1.00  0.00    -0.320 N 
ATOM     15  H   UNL     1      -1.700   1.016   0.916  1.00  0.00     0.348 HD
ATOM     16  H   UNL     1      -2.338   1.164  -0.616  1.00  0.00     0.348 HD
BRANCH  13  17
ATOM     17  C   UNL     1      -2.601  -1.271  -1.283  1.00  0.00     0.021 A 
ATOM     18  C   UNL     1      -3.066  -0.450  -2.317  1.00  0.00     0.018 A 
ATOM     19  C   UNL     1      -3.002  -2.621  -1.308  1.00  0.00     0.018 A 
ATOM     20  C   UNL     1      -3.881  -0.927  -3.342  1.00  0.00     0.086 A 
ATOM     21  C   UNL     1      -3.828  -3.119  -2.328  1.00  0.00     0.086 A 
ATOM     22  C   UNL     1      -4.265  -2.263  -3.344  1.00  0.00     0.269 A 
BRANCH  22  23
ATOM     23  N   UNL     1      -5.142  -2.753  -4.412  1.00  0.00     0.062 N 
ATOM     24  O   UNL     1      -5.556  -1.927  -5.240  1.00  0.00    -0.258 OA
ATOM     25  O   UNL     1      -5.428  -3.957  -4.417  1.00  0.00    -0.258 OA
ENDBRANCH  22  23
ENDBRANCH  13  17
ENDBRANCH   5   8
ENDBRANCH   3   4
ENDBRANCH   2   3
ENDBRANCH   1   2
BRANCH   1  26
ATOM     26  C   UNL     1      -3.966   2.820  -4.437  1.00  0.00     0.002 C 
BRANCH  26  27
ATOM     27  C   UNL     1      -5.311   2.711  -3.716  1.00  0.00     0.021 C 
BRANCH  27  28
ATOM     28  C   UNL     1      -6.268   3.876  -3.938  1.00  0.00     0.116 C 
BRANCH  28  29
ATOM     29  N   UNL     1      -6.676   4.032  -5.323  1.00  0.00    -0.352 N 
ATOM     30  C   UNL     1      -7.862   4.492  -5.835  1.00  0.00     0.251 C 
ATOM     31  H   UNL     1      -6.003   3.770  -5.992  1.00  0.00     0.163 HD
ATOM     32  O   UNL     1      -8.052   4.456  -7.053  1.00  0.00    -0.269 OA
BRANCH  30  33
ATOM     33  C   UNL     1      -8.934   5.010  -4.951  1.00  0.00     0.039 A 
ATOM     34  C   UNL     1     -10.264   4.729  -5.283  1.00  0.00     0.014 A 
ATOM     35  C   UNL     1      -8.656   5.806  -3.836  1.00  0.00     0.014 A 
ATOM     36  C   UNL     1     -11.304   5.220  -4.490  1.00  0.00     0.010 A 
ATOM     37  C   UNL     1      -9.690   6.230  -3.001  1.00  0.00     0.010 A 
ATOM     38  C   UNL     1     -11.025   5.963  -3.332  1.00  0.00    -0.014 A 
BRANCH  38  39
ATOM     39  C   UNL     1     -12.126   6.499  -2.489  1.00  0.00     0.031 A 
ATOM     40  C   UNL     1     -12.330   7.986  -2.363  1.00  0.00     0.074 A 
ATOM     41  C   UNL     1     -12.927   5.650  -1.818  1.00  0.00     0.049 A 
ATOM     42  N   UNL     1     -13.232   8.645  -1.680  1.00  0.00    -0.248 NA
ATOM     43  C   UNL     1     -11.376   8.848  -3.078  1.00  0.00     0.031 C 
ATOM     44  C   UNL     1     -12.799   4.193  -1.815  1.00  0.00     0.029 A 
ATOM     45  N   UNL     1     -14.009   5.890  -1.008  1.00  0.00    -0.354 N 
ATOM     46  C   UNL     1     -12.949   9.991  -1.876  1.00  0.00     0.074 A 
ATOM     47  C   UNL     1     -11.754  10.056  -2.688  1.00  0.00     0.031 C 
ATOM     48  C   UNL     1     -13.783   3.666  -1.069  1.00  0.00     0.029 A 
ATOM     49  C   UNL     1     -14.594   4.748  -0.518  1.00  0.00     0.049 A 
ATOM     50  H   UNL     1     -14.336   6.795  -0.799  1.00  0.00     0.167 HD
ATOM     51  C   UNL     1     -13.639  11.074  -1.445  1.00  0.00     0.037 A 
ATOM     52  C   UNL     1     -15.666   4.593   0.281  1.00  0.00     0.037 A 
ATOM     53  C   UNL     1     -14.842  11.005  -0.658  1.00  0.00     0.049 A 
ATOM     54  C   UNL     1     -16.421   5.813   0.738  1.00  0.00     0.074 A 
ATOM     55  C   UNL     1     -15.649  12.040  -0.218  1.00  0.00     0.029 A 
ATOM     56  N   UNL     1     -15.413   9.829  -0.192  1.00  0.00    -0.354 N 
ATOM     57  N   UNL     1     -16.187   7.077   0.484  1.00  0.00    -0.248 NA
ATOM     58  C   UNL     1     -17.599   5.580   1.584  1.00  0.00     0.031 C 
ATOM     59  C   UNL     1     -16.680  11.494   0.555  1.00  0.00     0.029 A 
ATOM     60  C   UNL     1     -16.548  10.114   0.551  1.00  0.00     0.049 A 
ATOM     61  H   UNL     1     -15.063   8.925  -0.362  1.00  0.00     0.167 HD
ATOM     62  C   UNL     1     -17.200   7.788   1.114  1.00  0.00     0.074 A 
ATOM     63  C   UNL     1     -18.064   6.810   1.742  1.00  0.00     0.031 C 
ATOM     64  C   UNL     1     -17.396   9.129   1.171  1.00  0.00     0.037 A 
BRANCH  51  65
ATOM     65  C   UNL     1     -13.108  12.430  -1.819  1.00  0.00     0.064 A 
ATOM     66  C   UNL     1     -13.130  12.890  -3.146  1.00  0.00     0.173 A 
ATOM     67  C   UNL     1     -12.597  13.292  -0.838  1.00  0.00     0.173 A 
ATOM     68  F   UNL     1     -13.598  12.102  -4.126  1.00  0.00    -0.203 F 
ATOM     69  C   UNL     1     -12.630  14.146  -3.479  1.00  0.00     0.198 A 
ATOM     70  C   UNL     1     -12.127  14.561  -1.170  1.00  0.00     0.198 A 
ATOM     71  F   UNL     1     -12.556  12.908   0.447  1.00  0.00    -0.203 F 
ATOM     72  F   UNL     1     -12.610  14.539  -4.760  1.00  0.00    -0.200 F 
ATOM     73  C   UNL     1     -12.135  14.983  -2.491  1.00  0.00     0.200 A 
ATOM     74  F   UNL     1     -11.662  15.374  -0.211  1.00  0.00    -0.200 F 
ATOM     75  F   UNL     1     -11.658  16.193  -2.812  1.00  0.00    -0.200 F 
ENDBRANCH  51  65
BRANCH  52  76
ATOM     76  C   UNL     1     -16.112   3.229   0.671  1.00  0.00     0.064 A 
ATOM     77  C   UNL     1     -17.318   2.700   0.190  1.00  0.00     0.173 A 
ATOM     78  C   UNL     1     -15.351   2.433   1.538  1.00  0.00     0.173 A 
ATOM     79  F   UNL     1     -18.092   3.432  -0.626  1.00  0.00    -0.203 F 
ATOM     80  C   UNL     1     -17.758   1.437   0.581  1.00  0.00     0.198 A 
ATOM     81  C   UNL     1     -15.776   1.157   1.904  1.00  0.00     0.198 A 
ATOM     82  F   UNL     1     -14.187   2.890   2.023  1.00  0.00    -0.203 F 
ATOM     83  F   UNL     1     -18.939   0.978   0.147  1.00  0.00    -0.200 F 
ATOM     84  C   UNL     1     -16.984   0.664   1.433  1.00  0.00     0.200 A 
ATOM     85  F   UNL     1     -15.019   0.408   2.717  1.00  0.00    -0.200 F 
ATOM     86  F   UNL     1     -17.406  -0.551   1.808  1.00  0.00    -0.200 F 
ENDBRANCH  52  76
BRANCH  64  87
ATOM     87  C   UNL     1     -18.607   9.610   1.919  1.00  0.00     0.064 A 
ATOM     88  C   UNL     1     -18.702   9.504   3.315  1.00  0.00     0.173 A 
ATOM     89  C   UNL     1     -19.681  10.195   1.232  1.00  0.00     0.173 A 
ATOM     90  F   UNL     1     -17.708   8.940   4.019  1.00  0.00    -0.203 F 
ATOM     91  C   UNL     1     -19.843   9.930   3.990  1.00  0.00     0.198 A 
ATOM     92  C   UNL     1     -20.806  10.652   1.913  1.00  0.00     0.198 A 
ATOM     93  F   UNL     1     -19.639  10.329  -0.103  1.00  0.00    -0.203 F 
ATOM     94  F   UNL     1     -19.937   9.760   5.316  1.00  0.00    -0.200 F 
ATOM     95  C   UNL     1     -20.891  10.508   3.289  1.00  0.00     0.200 A 
ATOM     96  F   UNL     1     -21.811  11.225   1.237  1.00  0.00    -0.200 F 
ATOM     97  F   UNL     1     -21.989  10.917   3.941  1.00  0.00    -0.200 F 
ENDBRANCH  64  87
ENDBRANCH  38  39
ENDBRANCH  30  33
ENDBRANCH  28  29
ENDBRANCH  27  28
ENDBRANCH  26  27
ENDBRANCH   1  26
TORSDOF 15
