REMARK SMILES COc1ccccc1C(=O)N1[C@@H](C(=O)NCCCCCCNC(=O)c2ccc(-c3c4nc(c(-c5c(F)c(F)c(F)c(F)c5F)c5ccc([nH]5)c(-c5c(F)c(F)c(F)c(F)c5F)c5nc(c(-c6c(F)c(F)c(F)c(F)c6F)c6ccc3[nH]6)C=C5)C=C4)cc2)COC12CC[NH+](Cc1ccccc1)CC2
REMARK SMILES IDX 18 1 17 2 16 3 15 4 13 5 14 6 12 8 11 9 90 10 88 11 89 12
REMARK SMILES IDX 91 13 102 14 92 15 101 16 93 17 9 19 10 20 8 21 3 22 4 23
REMARK SMILES IDX 5 24 7 25 6 26 2 27 1 28 94 29 95 30 96 31 100 32 97 33
REMARK SMILES IDX 99 34 98 35 19 36 20 37 21 38 22 39 23 40 24 42 25 43 26 44
REMARK SMILES IDX 87 45 27 46 86 47 28 48 29 49 30 50 80 51 31 52 85 53 79 54
REMARK SMILES IDX 81 55 32 56 84 57 78 58 77 59 33 61 65 62 45 63 64 64 46 65
REMARK SMILES IDX 49 66 63 67 82 68 47 69 48 70 62 72 83 73 50 74 34 75 35 76
REMARK SMILES IDX 43 77 36 78 37 79 41 80 44 81 38 82 39 83 42 84 40 85 66 86
REMARK SMILES IDX 67 87 75 88 68 89 69 90 73 91 76 92 70 93 71 94 74 95 72 96
REMARK SMILES IDX 51 97 52 98 60 99 53 100 54 101 58 102 61 103 55 104 56 105
REMARK SMILES IDX 59 106 57 107
REMARK H PARENT 15 7 93 18 22 41 81 60 49 71
REMARK Flexibility Score: inf
ROOT
ATOM      1  C   UNL     1      -3.397  -1.118   0.572  1.00  0.00     0.002 C 
ENDROOT
BRANCH   1   2
ATOM      2  C   UNL     1      -2.176  -2.029   0.675  1.00  0.00     0.021 C 
BRANCH   2   3
ATOM      3  C   UNL     1      -0.849  -1.309   0.526  1.00  0.00     0.116 C 
BRANCH   3   4
ATOM      4  N   UNL     1      -0.218  -0.892   1.756  1.00  0.00    -0.354 N 
ATOM      5  C   UNL     1       1.107  -0.644   2.005  1.00  0.00     0.245 C 
ATOM      6  O   UNL     1       1.382  -0.237   3.140  1.00  0.00    -0.273 OA
ATOM      7  H   UNL     1      -0.824  -0.769   2.523  1.00  0.00     0.163 HD
BRANCH   5   8
ATOM      8  C   UNL     1       2.243  -0.961   0.996  1.00  0.00     0.203 C 
ATOM      9  N   UNL     1       2.190  -0.293  -0.300  1.00  0.00    -0.295 N 
ATOM     10  C   UNL     1       2.087  -1.300  -1.372  1.00  0.00     0.155 C 
ATOM     11  C   UNL     1       2.229  -2.435   0.656  1.00  0.00     0.198 C 
ATOM     12  O   UNL     1       1.663  -2.502  -0.675  1.00  0.00    -0.352 OA
ATOM     13  C   UNL     1       1.094  -0.903  -2.471  1.00  0.00     0.120 C 
ATOM     14  C   UNL     1       3.418  -1.742  -1.995  1.00  0.00     0.120 C 
ATOM     15  C   UNL     1       0.964  -1.923  -3.589  1.00  0.00     0.267 C 
ATOM     16  C   UNL     1       3.172  -2.764  -3.129  1.00  0.00     0.267 C 
ATOM     17  N   UNL     1       2.245  -2.311  -4.161  1.00  0.00    -0.331 N 
ATOM     18  H   UNL     1       2.061  -3.137  -4.730  1.00  0.00     0.348 HD
BRANCH   9  19
ATOM     19  C   UNL     1       2.672   1.018  -0.402  1.00  0.00     0.260 C 
ATOM     20  O   UNL     1       3.551   1.438   0.351  1.00  0.00    -0.269 OA
BRANCH  19  21
ATOM     21  C   UNL     1       2.051   2.016  -1.330  1.00  0.00     0.082 A 
ATOM     22  C   UNL     1       0.670   2.149  -1.496  1.00  0.00     0.131 A 
ATOM     23  C   UNL     1       0.114   2.998  -2.461  1.00  0.00     0.047 A 
ATOM     24  C   UNL     1       0.929   3.906  -3.118  1.00  0.00     0.004 A 
ATOM     25  C   UNL     1       2.842   3.014  -1.911  1.00  0.00     0.018 A 
ATOM     26  C   UNL     1       2.279   3.967  -2.780  1.00  0.00     0.001 A 
BRANCH  22  27
ATOM     27  O   UNL     1      -0.226   1.602  -0.619  1.00  0.00    -0.496 OA
ATOM     28  C   UNL     1      -0.133   2.304   0.630  1.00  0.00     0.278 C 
ENDBRANCH  22  27
ENDBRANCH  19  21
ENDBRANCH   9  19
BRANCH  17  29
ATOM     29  C   UNL     1       2.779  -1.474  -5.248  1.00  0.00     0.299 C 
BRANCH  29  30
ATOM     30  C   UNL     1       3.725  -0.341  -4.902  1.00  0.00     0.006 A 
ATOM     31  C   UNL     1       3.331   0.995  -5.026  1.00  0.00     0.009 A 
ATOM     32  C   UNL     1       5.034  -0.603  -4.457  1.00  0.00     0.009 A 
ATOM     33  C   UNL     1       4.199   2.022  -4.646  1.00  0.00     0.001 A 
ATOM     34  C   UNL     1       5.848   0.416  -3.963  1.00  0.00     0.001 A 
ATOM     35  C   UNL     1       5.425   1.734  -4.050  1.00  0.00     0.000 A 
ENDBRANCH  29  30
ENDBRANCH  17  29
ENDBRANCH   5   8
ENDBRANCH   3   4
ENDBRANCH   2   3
ENDBRANCH   1   2
BRANCH   1  36
ATOM     36  C   UNL     1      -3.516  -0.284  -0.714  1.00  0.00     0.002 C 
BRANCH  36  37
ATOM     37  C   UNL     1      -3.412  -1.046  -2.038  1.00  0.00     0.021 C 
BRANCH  37  38
ATOM     38  C   UNL     1      -4.351  -2.238  -2.185  1.00  0.00     0.116 C 
BRANCH  38  39
ATOM     39  N   UNL     1      -5.739  -1.894  -1.924  1.00  0.00    -0.352 N 
ATOM     40  C   UNL     1      -6.870  -2.172  -2.651  1.00  0.00     0.251 C 
ATOM     41  H   UNL     1      -5.892  -1.381  -1.097  1.00  0.00     0.163 HD
ATOM     42  O   UNL     1      -7.942  -1.675  -2.340  1.00  0.00    -0.269 OA
BRANCH  40  43
ATOM     43  C   UNL     1      -6.781  -3.054  -3.833  1.00  0.00     0.039 A 
ATOM     44  C   UNL     1      -7.419  -2.659  -5.011  1.00  0.00     0.014 A 
ATOM     45  C   UNL     1      -6.072  -4.257  -3.782  1.00  0.00     0.014 A 
ATOM     46  C   UNL     1      -7.286  -3.435  -6.162  1.00  0.00     0.010 A 
ATOM     47  C   UNL     1      -5.881  -4.993  -4.947  1.00  0.00     0.010 A 
ATOM     48  C   UNL     1      -6.481  -4.585  -6.149  1.00  0.00    -0.014 A 
BRANCH  48  49
ATOM     49  C   UNL     1      -6.229  -5.361  -7.388  1.00  0.00     0.031 A 
ATOM     50  C   UNL     1      -6.693  -6.784  -7.495  1.00  0.00     0.074 A 
ATOM     51  C   UNL     1      -5.501  -4.808  -8.377  1.00  0.00     0.049 A 
ATOM     52  N   UNL     1      -6.478  -7.655  -8.448  1.00  0.00    -0.248 NA
ATOM     53  C   UNL     1      -7.481  -7.306  -6.368  1.00  0.00     0.031 C 
ATOM     54  C   UNL     1      -4.956  -3.449  -8.364  1.00  0.00     0.029 A 
ATOM     55  N   UNL     1      -5.074  -5.326  -9.574  1.00  0.00    -0.354 N 
ATOM     56  C   UNL     1      -7.085  -8.831  -8.027  1.00  0.00     0.074 A 
ATOM     57  C   UNL     1      -7.637  -8.576  -6.714  1.00  0.00     0.031 C 
ATOM     58  C   UNL     1      -4.272  -3.239  -9.499  1.00  0.00     0.029 A 
ATOM     59  C   UNL     1      -4.289  -4.461 -10.297  1.00  0.00     0.049 A 
ATOM     60  H   UNL     1      -5.308  -6.230  -9.884  1.00  0.00     0.167 HD
ATOM     61  C   UNL     1      -7.183 -10.010  -8.686  1.00  0.00     0.037 A 
ATOM     62  C   UNL     1      -3.634  -4.641 -11.460  1.00  0.00     0.037 A 
ATOM     63  C   UNL     1      -6.646 -10.245 -10.001  1.00  0.00     0.049 A 
ATOM     64  C   UNL     1      -3.741  -5.966 -12.164  1.00  0.00     0.074 A 
ATOM     65  C   UNL     1      -6.771 -11.372 -10.794  1.00  0.00     0.029 A 
ATOM     66  N   UNL     1      -5.866  -9.342 -10.710  1.00  0.00    -0.354 N 
ATOM     67  N   UNL     1      -4.397  -7.042 -11.802  1.00  0.00    -0.248 NA
ATOM     68  C   UNL     1      -3.018  -6.104 -13.436  1.00  0.00     0.031 C 
ATOM     69  C   UNL     1      -6.009 -11.178 -11.950  1.00  0.00     0.029 A 
ATOM     70  C   UNL     1      -5.461  -9.906 -11.909  1.00  0.00     0.049 A 
ATOM     71  H   UNL     1      -5.635  -8.434 -10.405  1.00  0.00     0.167 HD
ATOM     72  C   UNL     1      -4.178  -7.979 -12.803  1.00  0.00     0.074 A 
ATOM     73  C   UNL     1      -3.346  -7.336 -13.800  1.00  0.00     0.031 C 
ATOM     74  C   UNL     1      -4.623  -9.257 -12.886  1.00  0.00     0.037 A 
BRANCH  61  75
ATOM     75  C   UNL     1      -7.883 -11.142  -7.989  1.00  0.00     0.064 A 
ATOM     76  C   UNL     1      -9.262 -11.118  -7.733  1.00  0.00     0.173 A 
ATOM     77  C   UNL     1      -7.165 -12.283  -7.597  1.00  0.00     0.173 A 
ATOM     78  F   UNL     1      -9.995 -10.049  -8.079  1.00  0.00    -0.203 F 
ATOM     79  C   UNL     1      -9.889 -12.175  -7.077  1.00  0.00     0.198 A 
ATOM     80  C   UNL     1      -7.801 -13.353  -6.973  1.00  0.00     0.198 A 
ATOM     81  F   UNL     1      -5.845 -12.364  -7.824  1.00  0.00    -0.203 F 
ATOM     82  F   UNL     1     -11.197 -12.103  -6.792  1.00  0.00    -0.200 F 
ATOM     83  C   UNL     1      -9.160 -13.294  -6.705  1.00  0.00     0.200 A 
ATOM     84  F   UNL     1      -7.098 -14.440  -6.628  1.00  0.00    -0.200 F 
ATOM     85  F   UNL     1      -9.766 -14.312  -6.079  1.00  0.00    -0.200 F 
ENDBRANCH  61  75
BRANCH  62  86
ATOM     86  C   UNL     1      -2.811  -3.536 -12.019  1.00  0.00     0.064 A 
ATOM     87  C   UNL     1      -3.196  -2.867 -13.188  1.00  0.00     0.173 A 
ATOM     88  C   UNL     1      -1.634  -3.113 -11.383  1.00  0.00     0.173 A 
ATOM     89  F   UNL     1      -4.303  -3.247 -13.843  1.00  0.00    -0.203 F 
ATOM     90  C   UNL     1      -2.429  -1.825 -13.707  1.00  0.00     0.198 A 
ATOM     91  C   UNL     1      -0.884  -2.051 -11.885  1.00  0.00     0.198 A 
ATOM     92  F   UNL     1      -1.224  -3.716 -10.257  1.00  0.00    -0.203 F 
ATOM     93  F   UNL     1      -2.800  -1.227 -14.847  1.00  0.00    -0.200 F 
ATOM     94  C   UNL     1      -1.279  -1.413 -13.051  1.00  0.00     0.200 A 
ATOM     95  F   UNL     1       0.215  -1.644 -11.237  1.00  0.00    -0.200 F 
ATOM     96  F   UNL     1      -0.549  -0.402 -13.543  1.00  0.00    -0.200 F 
ENDBRANCH  62  86
BRANCH  74  97
ATOM     97  C   UNL     1      -4.224 -10.051 -14.097  1.00  0.00     0.064 A 
ATOM     98  C   UNL     1      -2.910 -10.508 -14.272  1.00  0.00     0.173 A 
ATOM     99  C   UNL     1      -5.180 -10.416 -15.057  1.00  0.00     0.173 A 
ATOM    100  F   UNL     1      -1.955 -10.172 -13.391  1.00  0.00    -0.203 F 
ATOM    101  C   UNL     1      -2.564 -11.290 -15.371  1.00  0.00     0.198 A 
ATOM    102  C   UNL     1      -4.838 -11.224 -16.137  1.00  0.00     0.198 A 
ATOM    103  F   UNL     1      -6.452 -10.009 -14.934  1.00  0.00    -0.203 F 
ATOM    104  F   UNL     1      -1.294 -11.684 -15.539  1.00  0.00    -0.200 F 
ATOM    105  C   UNL     1      -3.531 -11.656 -16.296  1.00  0.00     0.200 A 
ATOM    106  F   UNL     1      -5.777 -11.591 -17.021  1.00  0.00    -0.200 F 
ATOM    107  F   UNL     1      -3.200 -12.424 -17.344  1.00  0.00    -0.200 F 
ENDBRANCH  74  97
ENDBRANCH  48  49
ENDBRANCH  40  43
ENDBRANCH  38  39
ENDBRANCH  37  38
ENDBRANCH  36  37
ENDBRANCH   1  36
TORSDOF 18
