REMARK SMILES Cc1ccc(C(C)C)c(OCC(=O)Nc2nc(CC(=O)NCCCCCCNC(=O)c3ccc(-c4c5nc(c(-c6c(F)c(F)c(F)c(F)c6F)c6ccc([nH]6)c(-c6c(F)c(F)c(F)c(F)c6F)c6nc(c(-c7c(F)c(F)c(F)c(F)c7F)c7ccc4[nH]7)C=C6)C=C5)cc3)cs2)c1
REMARK SMILES IDX 22 1 21 2 19 3 20 4 18 6 17 7 15 8 16 9 95 10 94 11 14 12
REMARK SMILES IDX 12 13 13 14 11 16 10 17 9 18 1 19 2 20 3 21 96 22 4 23 5 24
REMARK SMILES IDX 6 25 7 26 8 27 23 28 24 29 25 30 26 31 27 32 28 33 29 34
REMARK SMILES IDX 30 36 31 37 32 38 93 39 33 40 92 41 34 42 35 43 36 44 86 45
REMARK SMILES IDX 37 46 91 47 85 48 87 49 38 50 90 51 84 52 83 53 39 55 71 56
REMARK SMILES IDX 51 57 70 58 52 59 55 60 69 61 88 62 53 63 54 64 68 66 89 67
REMARK SMILES IDX 56 68 40 69 41 70 49 71 42 72 43 73 47 74 50 75 44 76 45 77
REMARK SMILES IDX 48 78 46 79 72 80 73 81 81 82 74 83 75 84 79 85 82 86 76 87
REMARK SMILES IDX 77 88 80 89 78 90 57 91 58 92 66 93 59 94 60 95 64 96 67 97
REMARK SMILES IDX 61 98 62 99 65 100 63 101
REMARK H PARENT 21 5 14 15 28 35 87 54 55 65
REMARK Flexibility Score: inf
ROOT
ATOM      1  C   UNL     1      -4.257   0.129   3.678  1.00  0.00     0.116 C 
ENDROOT
BRANCH   1   2
ATOM      2  N   UNL     1      -5.642   0.541   3.792  1.00  0.00    -0.356 N 
ATOM      3  C   UNL     1      -6.331   1.452   3.041  1.00  0.00     0.226 C 
ATOM      4  O   UNL     1      -7.543   1.570   3.240  1.00  0.00    -0.275 OA
ATOM      5  H   UNL     1      -6.157   0.105   4.508  1.00  0.00     0.163 HD
BRANCH   3   6
ATOM      6  C   UNL     1      -5.627   2.280   1.978  1.00  0.00     0.157 C 
BRANCH   6   7
ATOM      7  C   UNL     1      -4.575   3.174   2.550  1.00  0.00     0.063 A 
ATOM      8  C   UNL     1      -2.507   3.928   2.618  1.00  0.00     0.189 A 
ATOM      9  N   UNL     1      -3.356   3.260   1.887  1.00  0.00    -0.224 NA
ATOM     10  S   UNL     1      -3.107   4.582   4.074  1.00  0.00    -0.105 S 
ATOM     11  C   UNL     1      -4.646   3.914   3.717  1.00  0.00     0.093 A 
BRANCH   8  12
ATOM     12  N   UNL     1      -1.181   4.148   2.413  1.00  0.00    -0.299 N 
ATOM     13  C   UNL     1      -0.466   3.847   1.297  1.00  0.00     0.264 C 
ATOM     14  O   UNL     1       0.760   4.014   1.346  1.00  0.00    -0.271 OA
ATOM     15  H   UNL     1      -0.686   4.570   3.152  1.00  0.00     0.172 HD
BRANCH  13  16
ATOM     16  C   UNL     1      -1.144   3.422  -0.017  1.00  0.00     0.329 C 
BRANCH  16  17
ATOM     17  O   UNL     1      -1.714   2.134  -0.122  1.00  0.00    -0.483 OA
BRANCH  17  18
ATOM     18  C   UNL     1      -0.916   1.029  -0.215  1.00  0.00     0.123 A 
ATOM     19  C   UNL     1       2.722  -0.108  -0.057  1.00  0.00     0.044 C 
ATOM     20  C   UNL     1       1.226  -0.135  -0.174  1.00  0.00    -0.047 A 
ATOM     21  C   UNL     1       0.560  -1.354  -0.298  1.00  0.00     0.004 A 
ATOM     22  C   UNL     1       0.482   1.052  -0.147  1.00  0.00     0.050 A 
ATOM     23  C   UNL     1      -0.828  -1.387  -0.409  1.00  0.00     0.008 A 
ATOM     24  C   UNL     1      -1.586  -0.204  -0.365  1.00  0.00    -0.003 A 
BRANCH  24  25
ATOM     25  C   UNL     1      -3.105  -0.274  -0.478  1.00  0.00     0.017 C 
ATOM     26  C   UNL     1      -3.550  -0.628  -1.899  1.00  0.00     0.012 C 
ATOM     27  C   UNL     1      -3.698  -1.267   0.523  1.00  0.00     0.012 C 
ENDBRANCH  24  25
ENDBRANCH  17  18
ENDBRANCH  16  17
ENDBRANCH  13  16
ENDBRANCH   8  12
ENDBRANCH   6   7
ENDBRANCH   3   6
ENDBRANCH   1   2
BRANCH   1  28
ATOM     28  C   UNL     1      -3.497   0.202   5.002  1.00  0.00     0.021 C 
BRANCH  28  29
ATOM     29  C   UNL     1      -3.850  -0.892   6.020  1.00  0.00     0.002 C 
BRANCH  29  30
ATOM     30  C   UNL     1      -3.779  -2.352   5.533  1.00  0.00     0.002 C 
BRANCH  30  31
ATOM     31  C   UNL     1      -2.518  -2.762   4.765  1.00  0.00     0.021 C 
BRANCH  31  32
ATOM     32  C   UNL     1      -1.239  -2.741   5.590  1.00  0.00     0.116 C 
BRANCH  32  33
ATOM     33  N   UNL     1      -0.881  -4.019   6.196  1.00  0.00    -0.352 N 
ATOM     34  C   UNL     1       0.117  -4.298   7.117  1.00  0.00     0.251 C 
ATOM     35  H   UNL     1      -1.423  -4.790   5.912  1.00  0.00     0.163 HD
ATOM     36  O   UNL     1       0.328  -5.444   7.479  1.00  0.00    -0.269 OA
BRANCH  34  37
ATOM     37  C   UNL     1       0.838  -3.171   7.758  1.00  0.00     0.039 A 
ATOM     38  C   UNL     1       0.920  -3.154   9.156  1.00  0.00     0.014 A 
ATOM     39  C   UNL     1       1.220  -2.057   7.018  1.00  0.00     0.014 A 
ATOM     40  C   UNL     1       1.134  -1.944   9.811  1.00  0.00     0.010 A 
ATOM     41  C   UNL     1       1.326  -0.840   7.660  1.00  0.00     0.010 A 
ATOM     42  C   UNL     1       1.210  -0.776   9.053  1.00  0.00    -0.014 A 
BRANCH  42  43
ATOM     43  C   UNL     1       1.074   0.558   9.622  1.00  0.00     0.031 A 
ATOM     44  C   UNL     1       2.256   1.430   9.770  1.00  0.00     0.074 A 
ATOM     45  C   UNL     1      -0.158   1.026   9.922  1.00  0.00     0.049 A 
ATOM     46  N   UNL     1       2.328   2.435  10.575  1.00  0.00    -0.248 NA
ATOM     47  C   UNL     1       3.494   1.191   9.043  1.00  0.00     0.031 C 
ATOM     48  C   UNL     1      -0.530   2.406  10.222  1.00  0.00     0.029 A 
ATOM     49  N   UNL     1      -1.315   0.281  10.211  1.00  0.00    -0.354 N 
ATOM     50  C   UNL     1       3.482   3.130  10.288  1.00  0.00     0.074 A 
ATOM     51  C   UNL     1       4.210   2.263   9.393  1.00  0.00     0.031 C 
ATOM     52  C   UNL     1      -1.675   2.402  10.922  1.00  0.00     0.029 A 
ATOM     53  C   UNL     1      -1.994   1.016  11.211  1.00  0.00     0.049 A 
ATOM     54  H   UNL     1      -1.592  -0.571   9.804  1.00  0.00     0.167 HD
ATOM     55  C   UNL     1       3.607   4.413  10.745  1.00  0.00     0.037 A 
ATOM     56  C   UNL     1      -2.187   0.507  12.462  1.00  0.00     0.037 A 
ATOM     57  C   UNL     1       2.499   4.752  11.642  1.00  0.00     0.049 A 
ATOM     58  C   UNL     1      -1.575   1.334  13.565  1.00  0.00     0.074 A 
ATOM     59  C   UNL     1       1.326   5.468  11.460  1.00  0.00     0.029 A 
ATOM     60  N   UNL     1       2.366   4.082  12.855  1.00  0.00    -0.354 N 
ATOM     61  N   UNL     1      -0.638   2.220  13.371  1.00  0.00    -0.248 NA
ATOM     62  C   UNL     1      -1.944   1.210  14.972  1.00  0.00     0.031 C 
ATOM     63  C   UNL     1       0.461   5.178  12.545  1.00  0.00     0.029 A 
ATOM     64  C   UNL     1       1.115   4.306  13.398  1.00  0.00     0.049 A 
ATOM     65  H   UNL     1       3.065   3.526  13.269  1.00  0.00     0.167 HD
ATOM     66  C   UNL     1      -0.268   2.765  14.573  1.00  0.00     0.074 A 
ATOM     67  C   UNL     1      -1.127   2.113  15.543  1.00  0.00     0.031 C 
ATOM     68  C   UNL     1       0.724   3.701  14.663  1.00  0.00     0.037 A 
BRANCH  55  69
ATOM     69  C   UNL     1       4.549   5.462  10.166  1.00  0.00     0.064 A 
ATOM     70  C   UNL     1       4.270   6.841  10.322  1.00  0.00     0.173 A 
ATOM     71  C   UNL     1       5.688   5.198   9.382  1.00  0.00     0.173 A 
ATOM     72  F   UNL     1       3.296   7.273  11.133  1.00  0.00    -0.203 F 
ATOM     73  C   UNL     1       4.983   7.842   9.650  1.00  0.00     0.198 A 
ATOM     74  C   UNL     1       6.377   6.192   8.677  1.00  0.00     0.198 A 
ATOM     75  F   UNL     1       6.231   3.981   9.315  1.00  0.00    -0.203 F 
ATOM     76  F   UNL     1       4.651   9.129   9.828  1.00  0.00    -0.200 F 
ATOM     77  C   UNL     1       6.015   7.515   8.798  1.00  0.00     0.200 A 
ATOM     78  F   UNL     1       7.402   5.850   7.883  1.00  0.00    -0.200 F 
ATOM     79  F   UNL     1       6.675   8.466   8.125  1.00  0.00    -0.200 F 
ENDBRANCH  55  69
BRANCH  56  80
ATOM     80  C   UNL     1      -2.337  -0.970  12.472  1.00  0.00     0.064 A 
ATOM     81  C   UNL     1      -3.466  -1.522  11.837  1.00  0.00     0.173 A 
ATOM     82  C   UNL     1      -1.248  -1.817  12.710  1.00  0.00     0.173 A 
ATOM     83  F   UNL     1      -4.536  -0.751  11.587  1.00  0.00    -0.203 F 
ATOM     84  C   UNL     1      -3.456  -2.826  11.347  1.00  0.00     0.198 A 
ATOM     85  C   UNL     1      -1.247  -3.128  12.229  1.00  0.00     0.198 A 
ATOM     86  F   UNL     1      -0.137  -1.344  13.293  1.00  0.00    -0.203 F 
ATOM     87  F   UNL     1      -4.501  -3.283  10.643  1.00  0.00    -0.200 F 
ATOM     88  C   UNL     1      -2.333  -3.618  11.516  1.00  0.00     0.200 A 
ATOM     89  F   UNL     1      -0.153  -3.889  12.372  1.00  0.00    -0.200 F 
ATOM     90  F   UNL     1      -2.282  -4.836  10.960  1.00  0.00    -0.200 F 
ENDBRANCH  56  80
BRANCH  68  91
ATOM     91  C   UNL     1       1.352   4.208  15.938  1.00  0.00     0.064 A 
ATOM     92  C   UNL     1       1.467   3.448  17.113  1.00  0.00     0.173 A 
ATOM     93  C   UNL     1       2.003   5.466  15.961  1.00  0.00     0.173 A 
ATOM     94  F   UNL     1       0.999   2.195  17.181  1.00  0.00    -0.203 F 
ATOM     95  C   UNL     1       2.127   3.933  18.247  1.00  0.00     0.198 A 
ATOM     96  C   UNL     1       2.709   5.923  17.073  1.00  0.00     0.198 A 
ATOM     97  F   UNL     1       1.994   6.280  14.895  1.00  0.00    -0.203 F 
ATOM     98  F   UNL     1       2.173   3.185  19.358  1.00  0.00    -0.200 F 
ATOM     99  C   UNL     1       2.757   5.164  18.223  1.00  0.00     0.200 A 
ATOM    100  F   UNL     1       3.358   7.095  17.015  1.00  0.00    -0.200 F 
ATOM    101  F   UNL     1       3.427   5.604  19.296  1.00  0.00    -0.200 F 
ENDBRANCH  68  91
ENDBRANCH  42  43
ENDBRANCH  34  37
ENDBRANCH  32  33
ENDBRANCH  31  32
ENDBRANCH  30  31
ENDBRANCH  29  30
ENDBRANCH  28  29
ENDBRANCH   1  28
TORSDOF 19
