REMARK SMILES CCOC(=O)c1c(NC(=O)[C@@H]2[C@@H](C(=O)NCCCCCCNC(=O)c3ccc(-c4c5nc(c(-c6c(F)c(F)c(F)c(F)c6F)c6ccc([nH]6)c(-c6c(F)c(F)c(F)c(F)c6F)c6nc(c(-c7c(F)c(F)c(F)c(F)c7F)c7ccc4[nH]7)C=C6)C=C5)cc3)[C@@H]3C=C[C@H]2CC3)sc2c1CCC2
REMARK SMILES IDX 17 1 16 2 15 3 13 4 14 5 12 7 11 8 91 9 88 10 90 11 92 12
REMARK SMILES IDX 89 13 93 14 9 15 8 16 10 18 7 19 6 20 96 21 94 22 95 23
REMARK SMILES IDX 97 24 99 25 98 26 4 27 5 28 3 29 2 30 1 31 18 32 19 33 20 34
REMARK SMILES IDX 21 35 22 36 23 37 24 39 25 40 26 41 87 42 27 43 86 44 28 45
REMARK SMILES IDX 29 46 30 47 80 48 31 49 85 50 79 51 81 52 32 53 84 54 78 55
REMARK SMILES IDX 77 56 33 58 65 59 45 60 64 61 46 62 49 63 63 64 82 65 47 66
REMARK SMILES IDX 48 67 62 69 83 70 50 71 34 72 35 73 43 74 36 75 37 76 41 77
REMARK SMILES IDX 44 78 38 79 39 80 42 81 40 82 66 83 67 84 75 85 68 86 69 87
REMARK SMILES IDX 73 88 76 89 70 90 71 91 74 92 72 93 51 94 52 95 60 96 53 97
REMARK SMILES IDX 54 98 58 99 61 100 55 101 56 102 59 103 57 104
REMARK H PARENT 15 6 8 17 22 38 81 57 49 68
REMARK Flexibility Score: inf
ROOT
ATOM      1  C   UNL     1       9.025   1.162   4.475  1.00  0.00     0.021 C 
ENDROOT
BRANCH   1   2
ATOM      2  C   UNL     1       7.562   0.980   4.887  1.00  0.00     0.116 C 
BRANCH   2   3
ATOM      3  N   UNL     1       7.334   1.528   6.209  1.00  0.00    -0.356 N 
ATOM      4  C   UNL     1       6.577   2.552   6.676  1.00  0.00     0.224 C 
ATOM      5  O   UNL     1       6.623   2.721   7.899  1.00  0.00    -0.275 OA
ATOM      6  H   UNL     1       7.832   1.059   6.916  1.00  0.00     0.163 HD
BRANCH   4   7
ATOM      7  C   UNL     1       5.582   3.323   5.800  1.00  0.00     0.098 C 
ATOM      8  C   UNL     1       6.067   3.847   4.427  1.00  0.00     0.099 C 
ATOM      9  C   UNL     1       6.032   5.410   4.416  1.00  0.00     0.025 C 
ATOM     10  C   UNL     1       4.984   4.541   6.620  1.00  0.00     0.025 C 
ATOM     11  C   UNL     1       4.602   5.841   4.613  1.00  0.00    -0.027 C 
ATOM     12  C   UNL     1       6.819   5.947   5.650  1.00  0.00     0.009 C 
ATOM     13  C   UNL     1       4.065   5.408   5.764  1.00  0.00    -0.027 C 
ATOM     14  C   UNL     1       6.118   5.527   6.965  1.00  0.00     0.009 C 
BRANCH   8  15
ATOM     15  C   UNL     1       5.501   3.282   3.075  1.00  0.00     0.229 C 
ATOM     16  N   UNL     1       4.501   2.369   2.858  1.00  0.00    -0.317 N 
ATOM     17  H   UNL     1       4.543   1.945   1.971  1.00  0.00     0.170 HD
ATOM     18  O   UNL     1       6.137   3.592   2.049  1.00  0.00    -0.274 OA
BRANCH  16  19
ATOM     19  C   UNL     1       3.451   1.927   3.630  1.00  0.00     0.110 A 
ATOM     20  C   UNL     1       2.621   0.799   3.573  1.00  0.00     0.098 A 
ATOM     21  C   UNL     1       1.999   0.658   4.856  1.00  0.00    -0.017 A 
ATOM     22  S   UNL     1       2.626   3.039   4.645  1.00  0.00    -0.122 S 
ATOM     23  C   UNL     1       2.226   1.761   5.630  1.00  0.00     0.011 A 
ATOM     24  C   UNL     1       1.164  -0.316   5.609  1.00  0.00     0.038 C 
ATOM     25  C   UNL     1       1.798   1.652   7.030  1.00  0.00     0.047 C 
ATOM     26  C   UNL     1       0.762   0.507   6.893  1.00  0.00     0.010 C 
BRANCH  20  27
ATOM     27  C   UNL     1       2.465  -0.069   2.419  1.00  0.00     0.341 C 
ATOM     28  O   UNL     1       3.357  -0.380   1.670  1.00  0.00    -0.246 OA
BRANCH  27  29
ATOM     29  O   UNL     1       1.133  -0.345   2.246  1.00  0.00    -0.462 OA
BRANCH  29  30
ATOM     30  C   UNL     1       0.724  -0.932   1.004  1.00  0.00     0.230 C 
ATOM     31  C   UNL     1       0.929   0.007  -0.173  1.00  0.00     0.049 C 
ENDBRANCH  29  30
ENDBRANCH  27  29
ENDBRANCH  20  27
ENDBRANCH  16  19
ENDBRANCH   8  15
ENDBRANCH   4   7
ENDBRANCH   2   3
ENDBRANCH   1   2
BRANCH   1  32
ATOM     32  C   UNL     1      10.024   0.364   5.327  1.00  0.00     0.002 C 
BRANCH  32  33
ATOM     33  C   UNL     1       9.777  -1.150   5.423  1.00  0.00     0.002 C 
BRANCH  33  34
ATOM     34  C   UNL     1       9.681  -1.919   4.098  1.00  0.00     0.021 C 
BRANCH  34  35
ATOM     35  C   UNL     1      10.976  -1.960   3.301  1.00  0.00     0.116 C 
BRANCH  35  36
ATOM     36  N   UNL     1      12.047  -2.708   3.973  1.00  0.00    -0.352 N 
ATOM     37  C   UNL     1      13.384  -2.800   3.619  1.00  0.00     0.251 C 
ATOM     38  H   UNL     1      11.781  -3.208   4.778  1.00  0.00     0.163 HD
ATOM     39  O   UNL     1      14.099  -3.704   4.030  1.00  0.00    -0.269 OA
BRANCH  37  40
ATOM     40  C   UNL     1      13.933  -1.760   2.735  1.00  0.00     0.039 A 
ATOM     41  C   UNL     1      14.778  -2.040   1.657  1.00  0.00     0.014 A 
ATOM     42  C   UNL     1      13.496  -0.468   2.978  1.00  0.00     0.014 A 
ATOM     43  C   UNL     1      15.108  -1.006   0.779  1.00  0.00     0.010 A 
ATOM     44  C   UNL     1      13.608   0.463   1.988  1.00  0.00     0.010 A 
ATOM     45  C   UNL     1      14.505   0.247   0.949  1.00  0.00    -0.014 A 
BRANCH  45  46
ATOM     46  C   UNL     1      14.778   1.382   0.075  1.00  0.00     0.031 A 
ATOM     47  C   UNL     1      14.501   1.201  -1.377  1.00  0.00     0.074 A 
ATOM     48  C   UNL     1      15.001   2.612   0.595  1.00  0.00     0.049 A 
ATOM     49  N   UNL     1      15.319   1.344  -2.370  1.00  0.00    -0.248 NA
ATOM     50  C   UNL     1      13.155   0.760  -1.776  1.00  0.00     0.031 C 
ATOM     51  C   UNL     1      14.974   3.035   2.007  1.00  0.00     0.029 A 
ATOM     52  N   UNL     1      15.165   3.792  -0.056  1.00  0.00    -0.354 N 
ATOM     53  C   UNL     1      14.563   1.171  -3.529  1.00  0.00     0.074 A 
ATOM     54  C   UNL     1      13.274   0.686  -3.103  1.00  0.00     0.031 C 
ATOM     55  C   UNL     1      14.850   4.376   2.079  1.00  0.00     0.029 A 
ATOM     56  C   UNL     1      15.010   4.912   0.745  1.00  0.00     0.049 A 
ATOM     57  H   UNL     1      15.376   3.846  -1.016  1.00  0.00     0.167 HD
ATOM     58  C   UNL     1      14.988   1.636  -4.738  1.00  0.00     0.037 A 
ATOM     59  C   UNL     1      14.995   6.201   0.338  1.00  0.00     0.037 A 
ATOM     60  C   UNL     1      16.397   1.930  -4.725  1.00  0.00     0.049 A 
ATOM     61  C   UNL     1      15.638   6.243  -0.996  1.00  0.00     0.074 A 
ATOM     62  C   UNL     1      17.542   1.188  -4.508  1.00  0.00     0.029 A 
ATOM     63  N   UNL     1      16.788   3.240  -4.604  1.00  0.00    -0.354 N 
ATOM     64  N   UNL     1      16.897   5.970  -1.205  1.00  0.00    -0.248 NA
ATOM     65  C   UNL     1      14.775   6.148  -2.162  1.00  0.00     0.031 C 
ATOM     66  C   UNL     1      18.405   2.052  -3.769  1.00  0.00     0.029 A 
ATOM     67  C   UNL     1      17.755   3.280  -3.632  1.00  0.00     0.049 A 
ATOM     68  H   UNL     1      16.440   4.005  -5.117  1.00  0.00     0.167 HD
ATOM     69  C   UNL     1      16.914   5.272  -2.404  1.00  0.00     0.074 A 
ATOM     70  C   UNL     1      15.596   5.498  -2.991  1.00  0.00     0.031 C 
ATOM     71  C   UNL     1      17.887   4.352  -2.673  1.00  0.00     0.037 A 
BRANCH  58  72
ATOM     72  C   UNL     1      14.081   2.139  -5.834  1.00  0.00     0.064 A 
ATOM     73  C   UNL     1      14.615   2.409  -7.111  1.00  0.00     0.173 A 
ATOM     74  C   UNL     1      12.784   2.645  -5.599  1.00  0.00     0.173 A 
ATOM     75  F   UNL     1      15.849   1.995  -7.436  1.00  0.00    -0.203 F 
ATOM     76  C   UNL     1      13.932   3.188  -8.049  1.00  0.00     0.198 A 
ATOM     77  C   UNL     1      12.083   3.375  -6.558  1.00  0.00     0.198 A 
ATOM     78  F   UNL     1      12.194   2.553  -4.401  1.00  0.00    -0.203 F 
ATOM     79  F   UNL     1      14.531   3.523  -9.200  1.00  0.00    -0.200 F 
ATOM     80  C   UNL     1      12.668   3.675  -7.770  1.00  0.00     0.200 A 
ATOM     81  F   UNL     1      10.866   3.854  -6.262  1.00  0.00    -0.200 F 
ATOM     82  F   UNL     1      12.037   4.472  -8.642  1.00  0.00    -0.200 F 
ENDBRANCH  58  72
BRANCH  59  83
ATOM     83  C   UNL     1      14.172   7.301   0.883  1.00  0.00     0.064 A 
ATOM     84  C   UNL     1      14.516   8.640   0.661  1.00  0.00     0.173 A 
ATOM     85  C   UNL     1      12.884   7.056   1.403  1.00  0.00     0.173 A 
ATOM     86  F   UNL     1      15.710   8.949   0.134  1.00  0.00    -0.203 F 
ATOM     87  C   UNL     1      13.614   9.677   0.919  1.00  0.00     0.198 A 
ATOM     88  C   UNL     1      11.987   8.091   1.664  1.00  0.00     0.198 A 
ATOM     89  F   UNL     1      12.442   5.801   1.579  1.00  0.00    -0.203 F 
ATOM     90  F   UNL     1      13.955  10.943   0.641  1.00  0.00    -0.200 F 
ATOM     91  C   UNL     1      12.347   9.401   1.409  1.00  0.00     0.200 A 
ATOM     92  F   UNL     1      10.753   7.807   2.105  1.00  0.00    -0.200 F 
ATOM     93  F   UNL     1      11.462  10.390   1.595  1.00  0.00    -0.200 F 
ENDBRANCH  59  83
BRANCH  71  94
ATOM     94  C   UNL     1      19.069   4.286  -1.744  1.00  0.00     0.064 A 
ATOM     95  C   UNL     1      18.984   3.896  -0.395  1.00  0.00     0.173 A 
ATOM     96  C   UNL     1      20.350   4.475  -2.274  1.00  0.00     0.173 A 
ATOM     97  F   UNL     1      17.809   3.591   0.161  1.00  0.00    -0.203 F 
ATOM     98  C   UNL     1      20.124   3.747   0.394  1.00  0.00     0.198 A 
ATOM     99  C   UNL     1      21.490   4.293  -1.494  1.00  0.00     0.198 A 
ATOM    100  F   UNL     1      20.500   4.788  -3.571  1.00  0.00    -0.203 F 
ATOM    101  F   UNL     1      20.009   3.381   1.680  1.00  0.00    -0.200 F 
ATOM    102  C   UNL     1      21.377   3.940  -0.159  1.00  0.00     0.200 A 
ATOM    103  F   UNL     1      22.703   4.431  -2.046  1.00  0.00    -0.200 F 
ATOM    104  F   UNL     1      22.476   3.756   0.586  1.00  0.00    -0.200 F 
ENDBRANCH  71  94
ENDBRANCH  45  46
ENDBRANCH  37  40
ENDBRANCH  35  36
ENDBRANCH  34  35
ENDBRANCH  33  34
ENDBRANCH  32  33
ENDBRANCH   1  32
TORSDOF 18
