REMARK SMILES COc1cc(OC)cc(C(=O)C[C@H](C)CC(=O)NCCCCCCNC(=O)c2ccc(-c3c4nc(c(-c5c(F)c(F)c(F)c(F)c5F)c5ccc([nH]5)c(-c5c(F)c(F)c(F)c(F)c5F)c5nc(c(-c6c(F)c(F)c(F)c(F)c6F)c6ccc3[nH]6)C=C5)C=C4)cc2)c1
REMARK SMILES IDX 20 1 19 2 18 3 16 4 17 5 15 7 13 8 14 9 12 10 10 11 11 12
REMARK SMILES IDX 9 13 3 14 4 15 91 16 5 17 8 18 2 19 1 20 6 21 7 22 21 23
REMARK SMILES IDX 22 24 23 25 24 26 25 27 26 28 27 30 28 31 29 32 90 33 30 34
REMARK SMILES IDX 89 35 31 36 32 37 33 38 83 39 34 40 88 41 82 42 84 43 35 44
REMARK SMILES IDX 87 45 81 46 80 47 36 49 68 50 48 51 67 52 49 53 52 54 66 55
REMARK SMILES IDX 85 56 50 57 51 58 65 60 86 61 53 62 37 63 38 64 46 65 39 66
REMARK SMILES IDX 40 67 44 68 47 69 41 70 42 71 45 72 43 73 69 74 70 75 78 76
REMARK SMILES IDX 71 77 72 78 76 79 79 80 73 81 74 82 77 83 75 84 54 85 55 86
REMARK SMILES IDX 63 87 56 88 57 89 61 90 64 91 58 92 59 93 62 94 60 95
REMARK H PARENT 18 6 25 29 84 48 52 59
REMARK Flexibility Score: inf
ROOT
ATOM      1  C   UNL     1       7.052  -4.988  -0.986  1.00  0.00     0.021 C 
ENDROOT
BRANCH   1   2
ATOM      2  C   UNL     1       7.275  -3.499  -0.736  1.00  0.00     0.116 C 
BRANCH   2   3
ATOM      3  N   UNL     1       7.600  -2.838  -1.986  1.00  0.00    -0.356 N 
ATOM      4  C   UNL     1       6.826  -2.004  -2.739  1.00  0.00     0.220 C 
ATOM      5  O   UNL     1       7.138  -1.783  -3.906  1.00  0.00    -0.275 OA
ATOM      6  H   UNL     1       8.501  -3.016  -2.340  1.00  0.00     0.163 HD
BRANCH   4   7
ATOM      7  C   UNL     1       5.655  -1.311  -2.081  1.00  0.00     0.103 C 
BRANCH   7   8
ATOM      8  C   UNL     1       4.246  -1.827  -2.406  1.00  0.00     0.003 C 
ATOM      9  C   UNL     1       4.109  -3.340  -2.221  1.00  0.00     0.008 C 
BRANCH   8  10
ATOM     10  C   UNL     1       3.180  -1.137  -1.524  1.00  0.00     0.085 C 
BRANCH  10  11
ATOM     11  C   UNL     1       3.063   0.364  -1.737  1.00  0.00     0.163 C 
ATOM     12  O   UNL     1       2.260   0.815  -2.554  1.00  0.00    -0.294 OA
BRANCH  11  13
ATOM     13  C   UNL     1       3.960   1.310  -0.998  1.00  0.00     0.025 A 
ATOM     14  C   UNL     1       5.743   1.773   0.567  1.00  0.00     0.123 A 
ATOM     15  C   UNL     1       5.808   3.088   0.119  1.00  0.00     0.092 A 
ATOM     16  C   UNL     1       4.774   0.905   0.066  1.00  0.00     0.058 A 
ATOM     17  C   UNL     1       4.933   3.532  -0.871  1.00  0.00     0.123 A 
ATOM     18  C   UNL     1       4.037   2.634  -1.454  1.00  0.00     0.058 A 
BRANCH  14  19
ATOM     19  O   UNL     1       6.633   1.380   1.530  1.00  0.00    -0.497 OA
ATOM     20  C   UNL     1       7.464   0.309   1.075  1.00  0.00     0.278 C 
ENDBRANCH  14  19
BRANCH  17  21
ATOM     21  O   UNL     1       5.067   4.847  -1.222  1.00  0.00    -0.497 OA
ATOM     22  C   UNL     1       3.918   5.443  -1.818  1.00  0.00     0.278 C 
ENDBRANCH  17  21
ENDBRANCH  11  13
ENDBRANCH  10  11
ENDBRANCH   8  10
ENDBRANCH   7   8
ENDBRANCH   4   7
ENDBRANCH   2   3
ENDBRANCH   1   2
BRANCH   1  23
ATOM     23  C   UNL     1       8.355  -5.777  -1.124  1.00  0.00     0.002 C 
BRANCH  23  24
ATOM     24  C   UNL     1       9.165  -5.894   0.171  1.00  0.00     0.002 C 
BRANCH  24  25
ATOM     25  C   UNL     1       8.395  -6.458   1.368  1.00  0.00     0.021 C 
BRANCH  25  26
ATOM     26  C   UNL     1       7.674  -7.777   1.100  1.00  0.00     0.116 C 
BRANCH  26  27
ATOM     27  N   UNL     1       8.591  -8.826   0.693  1.00  0.00    -0.352 N 
ATOM     28  C   UNL     1       8.782 -10.070   1.234  1.00  0.00     0.251 C 
ATOM     29  H   UNL     1       9.157  -8.613  -0.085  1.00  0.00     0.163 HD
ATOM     30  O   UNL     1       9.737 -10.757   0.888  1.00  0.00    -0.269 OA
BRANCH  28  31
ATOM     31  C   UNL     1       7.839 -10.579   2.251  1.00  0.00     0.039 A 
ATOM     32  C   UNL     1       8.352 -11.190   3.397  1.00  0.00     0.014 A 
ATOM     33  C   UNL     1       6.457 -10.477   2.063  1.00  0.00     0.014 A 
ATOM     34  C   UNL     1       7.479 -11.665   4.376  1.00  0.00     0.010 A 
ATOM     35  C   UNL     1       5.590 -10.892   3.069  1.00  0.00     0.010 A 
ATOM     36  C   UNL     1       6.091 -11.501   4.229  1.00  0.00    -0.014 A 
BRANCH  36  37
ATOM     37  C   UNL     1       5.152 -11.987   5.271  1.00  0.00     0.031 A 
ATOM     38  C   UNL     1       4.197 -13.105   4.959  1.00  0.00     0.074 A 
ATOM     39  C   UNL     1       5.122 -11.384   6.475  1.00  0.00     0.049 A 
ATOM     40  N   UNL     1       3.264 -13.631   5.713  1.00  0.00    -0.248 NA
ATOM     41  C   UNL     1       4.279 -13.694   3.612  1.00  0.00     0.031 C 
ATOM     42  C   UNL     1       5.960 -10.252   6.876  1.00  0.00     0.029 A 
ATOM     43  N   UNL     1       4.346 -11.629   7.580  1.00  0.00    -0.354 N 
ATOM     44  C   UNL     1       2.637 -14.589   4.926  1.00  0.00     0.074 A 
ATOM     45  C   UNL     1       3.266 -14.548   3.624  1.00  0.00     0.031 C 
ATOM     46  C   UNL     1       5.660  -9.909   8.140  1.00  0.00     0.029 A 
ATOM     47  C   UNL     1       4.592 -10.776   8.628  1.00  0.00     0.049 A 
ATOM     48  H   UNL     1       3.675 -12.349   7.618  1.00  0.00     0.167 HD
ATOM     49  C   UNL     1       1.639 -15.438   5.267  1.00  0.00     0.037 A 
ATOM     50  C   UNL     1       4.015 -10.700   9.842  1.00  0.00     0.037 A 
ATOM     51  C   UNL     1       1.053 -15.512   6.579  1.00  0.00     0.049 A 
ATOM     52  C   UNL     1       2.939 -11.688  10.206  1.00  0.00     0.074 A 
ATOM     53  C   UNL     1       0.099 -16.399   7.048  1.00  0.00     0.029 A 
ATOM     54  N   UNL     1       1.367 -14.668   7.632  1.00  0.00    -0.354 N 
ATOM     55  N   UNL     1       2.417 -12.648   9.481  1.00  0.00    -0.248 NA
ATOM     56  C   UNL     1       2.382 -11.592  11.562  1.00  0.00     0.031 C 
ATOM     57  C   UNL     1      -0.194 -16.065   8.373  1.00  0.00     0.029 A 
ATOM     58  C   UNL     1       0.612 -15.001   8.745  1.00  0.00     0.049 A 
ATOM     59  H   UNL     1       2.029 -13.939   7.595  1.00  0.00     0.167 HD
ATOM     60  C   UNL     1       1.500 -13.290  10.302  1.00  0.00     0.074 A 
ATOM     61  C   UNL     1       1.546 -12.620  11.585  1.00  0.00     0.031 C 
ATOM     62  C   UNL     1       0.689 -14.338  10.020  1.00  0.00     0.037 A 
BRANCH  49  63
ATOM     63  C   UNL     1       1.117 -16.370   4.215  1.00  0.00     0.064 A 
ATOM     64  C   UNL     1       1.864 -17.470   3.767  1.00  0.00     0.173 A 
ATOM     65  C   UNL     1      -0.180 -16.205   3.704  1.00  0.00     0.173 A 
ATOM     66  F   UNL     1       3.112 -17.665   4.217  1.00  0.00    -0.203 F 
ATOM     67  C   UNL     1       1.337 -18.363   2.837  1.00  0.00     0.198 A 
ATOM     68  C   UNL     1      -0.713 -17.114   2.795  1.00  0.00     0.198 A 
ATOM     69  F   UNL     1      -0.937 -15.172   4.103  1.00  0.00    -0.203 F 
ATOM     70  F   UNL     1       2.080 -19.389   2.401  1.00  0.00    -0.200 F 
ATOM     71  C   UNL     1       0.046 -18.190   2.360  1.00  0.00     0.200 A 
ATOM     72  F   UNL     1      -1.966 -16.954   2.345  1.00  0.00    -0.200 F 
ATOM     73  F   UNL     1      -0.466 -19.061   1.480  1.00  0.00    -0.200 F 
ENDBRANCH  49  63
BRANCH  50  74
ATOM     74  C   UNL     1       4.449  -9.663  10.816  1.00  0.00     0.064 A 
ATOM     75  C   UNL     1       5.126 -10.014  11.992  1.00  0.00     0.173 A 
ATOM     76  C   UNL     1       4.164  -8.306  10.609  1.00  0.00     0.173 A 
ATOM     77  F   UNL     1       5.405 -11.302  12.245  1.00  0.00    -0.203 F 
ATOM     78  C   UNL     1       5.468  -9.053  12.941  1.00  0.00     0.198 A 
ATOM     79  C   UNL     1       4.534  -7.342  11.544  1.00  0.00     0.198 A 
ATOM     80  F   UNL     1       3.525  -7.915   9.496  1.00  0.00    -0.203 F 
ATOM     81  F   UNL     1       6.058  -9.425  14.085  1.00  0.00    -0.200 F 
ATOM     82  C   UNL     1       5.174  -7.717  12.715  1.00  0.00     0.200 A 
ATOM     83  F   UNL     1       4.261  -6.050  11.315  1.00  0.00    -0.200 F 
ATOM     84  F   UNL     1       5.497  -6.794  13.631  1.00  0.00    -0.200 F 
ENDBRANCH  50  74
BRANCH  62  85
ATOM     85  C   UNL     1      -0.175 -14.859  11.130  1.00  0.00     0.064 A 
ATOM     86  C   UNL     1      -1.285 -14.142  11.599  1.00  0.00     0.173 A 
ATOM     87  C   UNL     1       0.095 -16.108  11.709  1.00  0.00     0.173 A 
ATOM     88  F   UNL     1      -1.575 -12.936  11.087  1.00  0.00    -0.203 F 
ATOM     89  C   UNL     1      -2.078 -14.645  12.627  1.00  0.00     0.198 A 
ATOM     90  C   UNL     1      -0.718 -16.621  12.716  1.00  0.00     0.198 A 
ATOM     91  F   UNL     1       1.140 -16.837  11.290  1.00  0.00    -0.203 F 
ATOM     92  F   UNL     1      -3.103 -13.920  13.095  1.00  0.00    -0.200 F 
ATOM     93  C   UNL     1      -1.798 -15.886  13.180  1.00  0.00     0.200 A 
ATOM     94  F   UNL     1      -0.454 -17.827  13.238  1.00  0.00    -0.200 F 
ATOM     95  F   UNL     1      -2.564 -16.369  14.166  1.00  0.00    -0.200 F 
ENDBRANCH  62  85
ENDBRANCH  36  37
ENDBRANCH  28  31
ENDBRANCH  26  27
ENDBRANCH  25  26
ENDBRANCH  24  25
ENDBRANCH  23  24
ENDBRANCH   1  23
TORSDOF 19
