REMARK SMILES C[N@H+]1CCO[C@H](CNc2nnc(SCC(=O)NCCCCCCNC(=O)c3ccc(-c4c5nc(c(-c6c(F)c(F)c(F)c(F)c6F)c6ccc([nH]6)c(-c6c(F)c(F)c(F)c(F)c6F)c6nc(c(-c7c(F)c(F)c(F)c(F)c7F)c7ccc4[nH]7)C=C6)C=C5)cc3)s2)C1
REMARK SMILES IDX 19 1 18 2 17 3 15 4 16 5 14 7 13 8 12 9 9 10 10 11 90 12
REMARK SMILES IDX 11 13 8 14 7 16 6 17 1 18 2 19 3 20 91 21 4 23 5 24 20 25
REMARK SMILES IDX 21 26 22 27 23 28 24 29 25 30 26 32 27 33 28 34 89 35 29 36
REMARK SMILES IDX 88 37 30 38 31 39 32 40 82 41 33 42 87 43 81 44 83 45 34 46
REMARK SMILES IDX 86 47 80 48 79 49 35 51 67 52 47 53 66 54 48 55 51 56 65 57
REMARK SMILES IDX 84 58 49 59 50 60 64 62 85 63 52 64 36 65 37 66 45 67 38 68
REMARK SMILES IDX 39 69 43 70 46 71 40 72 41 73 44 74 42 75 68 76 69 77 77 78
REMARK SMILES IDX 70 79 71 80 75 81 78 82 72 83 73 84 76 85 74 86 53 87 54 88
REMARK SMILES IDX 62 89 55 90 56 91 60 92 63 93 57 94 58 95 61 96 59 97
REMARK H PARENT 17 6 8 15 2 22 24 31 83 50 51 61
REMARK Flexibility Score: inf
ROOT
ATOM      1  C   UNL     1       4.973   9.546   0.689  1.00  0.00     0.021 C 
ENDROOT
BRANCH   1   2
ATOM      2  C   UNL     1       6.359   9.638   0.047  1.00  0.00     0.116 C 
BRANCH   2   3
ATOM      3  N   UNL     1       6.912   8.316  -0.172  1.00  0.00    -0.355 N 
ATOM      4  C   UNL     1       7.120   7.630  -1.329  1.00  0.00     0.230 C 
ATOM      5  O   UNL     1       7.533   6.471  -1.234  1.00  0.00    -0.274 OA
ATOM      6  H   UNL     1       7.180   7.839   0.646  1.00  0.00     0.163 HD
BRANCH   4   7
ATOM      7  C   UNL     1       6.958   8.291  -2.683  1.00  0.00     0.177 C 
BRANCH   7   8
ATOM      8  S   UNL     1       5.284   8.802  -3.097  1.00  0.00    -0.084 SA
BRANCH   8   9
ATOM      9  C   UNL     1       4.316   7.351  -3.147  1.00  0.00     0.176 A 
ATOM     10  C   UNL     1       3.193   5.247  -3.100  1.00  0.00     0.206 A 
ATOM     11  N   UNL     1       2.375   6.254  -3.319  1.00  0.00    -0.119 NA
ATOM     12  S   UNL     1       4.844   5.732  -3.025  1.00  0.00    -0.069 S 
ATOM     13  N   UNL     1       3.017   7.472  -3.315  1.00  0.00    -0.130 NA
BRANCH  10  14
ATOM     14  N   UNL     1       2.751   3.974  -2.964  1.00  0.00    -0.357 N 
ATOM     15  H   UNL     1       2.024   3.653  -3.545  1.00  0.00     0.163 HD
BRANCH  14  16
ATOM     16  C   UNL     1       3.327   3.066  -1.976  1.00  0.00     0.153 C 
BRANCH  16  17
ATOM     17  C   UNL     1       2.219   2.377  -1.147  1.00  0.00     0.192 C 
ATOM     18  C   UNL     1       0.885  -0.235  -0.089  1.00  0.00     0.332 C 
ATOM     19  N   UNL     1       0.436   0.588  -1.212  1.00  0.00    -0.333 N 
ATOM     20  C   UNL     1      -0.508   1.639  -0.774  1.00  0.00     0.290 C 
ATOM     21  C   UNL     1       1.553   1.230  -1.934  1.00  0.00     0.296 C 
ATOM     22  H   UNL     1      -0.035  -0.057  -1.847  1.00  0.00     0.348 HD
ATOM     23  C   UNL     1       0.165   2.805  -0.024  1.00  0.00     0.222 C 
ATOM     24  O   UNL     1       1.242   3.372  -0.774  1.00  0.00    -0.365 OA
ENDBRANCH  16  17
ENDBRANCH  14  16
ENDBRANCH  10  14
ENDBRANCH   8   9
ENDBRANCH   7   8
ENDBRANCH   4   7
ENDBRANCH   2   3
ENDBRANCH   1   2
BRANCH   1  25
ATOM     25  C   UNL     1       4.975   8.950   2.106  1.00  0.00     0.002 C 
BRANCH  25  26
ATOM     26  C   UNL     1       5.849   9.690   3.124  1.00  0.00     0.002 C 
BRANCH  26  27
ATOM     27  C   UNL     1       5.540  11.180   3.280  1.00  0.00     0.021 C 
BRANCH  27  28
ATOM     28  C   UNL     1       4.112  11.491   3.714  1.00  0.00     0.116 C 
BRANCH  28  29
ATOM     29  N   UNL     1       3.820  10.990   5.048  1.00  0.00    -0.352 N 
ATOM     30  C   UNL     1       3.321  11.657   6.138  1.00  0.00     0.251 C 
ATOM     31  H   UNL     1       4.008  10.034   5.190  1.00  0.00     0.163 HD
ATOM     32  O   UNL     1       3.312  11.118   7.243  1.00  0.00    -0.269 OA
BRANCH  30  33
ATOM     33  C   UNL     1       2.813  13.037   5.991  1.00  0.00     0.039 A 
ATOM     34  C   UNL     1       3.167  13.993   6.946  1.00  0.00     0.014 A 
ATOM     35  C   UNL     1       1.987  13.389   4.919  1.00  0.00     0.014 A 
ATOM     36  C   UNL     1       2.746  15.316   6.792  1.00  0.00     0.010 A 
ATOM     37  C   UNL     1       1.632  14.721   4.726  1.00  0.00     0.010 A 
ATOM     38  C   UNL     1       2.006  15.698   5.661  1.00  0.00    -0.014 A 
BRANCH  38  39
ATOM     39  C   UNL     1       1.619  17.115   5.438  1.00  0.00     0.031 A 
ATOM     40  C   UNL     1       0.168  17.509   5.409  1.00  0.00     0.074 A 
ATOM     41  C   UNL     1       2.572  18.036   5.199  1.00  0.00     0.049 A 
ATOM     42  N   UNL     1      -0.369  18.678   5.166  1.00  0.00    -0.248 NA
ATOM     43  C   UNL     1      -0.812  16.441   5.662  1.00  0.00     0.031 C 
ATOM     44  C   UNL     1       4.011  17.771   5.156  1.00  0.00     0.029 A 
ATOM     45  N   UNL     1       2.475  19.380   4.937  1.00  0.00    -0.354 N 
ATOM     46  C   UNL     1      -1.742  18.484   5.225  1.00  0.00     0.074 A 
ATOM     47  C   UNL     1      -1.960  17.075   5.471  1.00  0.00     0.031 C 
ATOM     48  C   UNL     1       4.662  18.918   4.906  1.00  0.00     0.029 A 
ATOM     49  C   UNL     1       3.688  19.990   4.730  1.00  0.00     0.049 A 
ATOM     50  H   UNL     1       1.617  19.861   4.901  1.00  0.00     0.167 HD
ATOM     51  C   UNL     1      -2.732  19.401   5.109  1.00  0.00     0.037 A 
ATOM     52  C   UNL     1       3.981  21.268   4.421  1.00  0.00     0.037 A 
ATOM     53  C   UNL     1      -2.511  20.806   4.882  1.00  0.00     0.049 A 
ATOM     54  C   UNL     1       2.861  22.264   4.278  1.00  0.00     0.074 A 
ATOM     55  C   UNL     1      -3.444  21.825   4.806  1.00  0.00     0.029 A 
ATOM     56  N   UNL     1      -1.267  21.388   4.686  1.00  0.00    -0.354 N 
ATOM     57  N   UNL     1       1.570  22.082   4.408  1.00  0.00    -0.248 NA
ATOM     58  C   UNL     1       3.242  23.645   3.950  1.00  0.00     0.031 C 
ATOM     59  C   UNL     1      -2.770  23.014   4.509  1.00  0.00     0.029 A 
ATOM     60  C   UNL     1      -1.411  22.749   4.462  1.00  0.00     0.049 A 
ATOM     61  H   UNL     1      -0.408  20.907   4.704  1.00  0.00     0.167 HD
ATOM     62  C   UNL     1       0.987  23.327   4.211  1.00  0.00     0.074 A 
ATOM     63  C   UNL     1       2.068  24.259   3.968  1.00  0.00     0.031 C 
ATOM     64  C   UNL     1      -0.325  23.667   4.229  1.00  0.00     0.037 A 
BRANCH  51  65
ATOM     65  C   UNL     1      -4.149  18.915   5.224  1.00  0.00     0.064 A 
ATOM     66  C   UNL     1      -4.671  18.448   6.441  1.00  0.00     0.173 A 
ATOM     67  C   UNL     1      -5.008  18.954   4.116  1.00  0.00     0.173 A 
ATOM     68  F   UNL     1      -3.891  18.380   7.530  1.00  0.00    -0.203 F 
ATOM     69  C   UNL     1      -5.989  18.008   6.534  1.00  0.00     0.198 A 
ATOM     70  C   UNL     1      -6.336  18.546   4.221  1.00  0.00     0.198 A 
ATOM     71  F   UNL     1      -4.565  19.399   2.930  1.00  0.00    -0.203 F 
ATOM     72  F   UNL     1      -6.449  17.517   7.693  1.00  0.00    -0.200 F 
ATOM     73  C   UNL     1      -6.822  18.065   5.427  1.00  0.00     0.200 A 
ATOM     74  F   UNL     1      -7.144  18.617   3.155  1.00  0.00    -0.200 F 
ATOM     75  F   UNL     1      -8.094  17.651   5.521  1.00  0.00    -0.200 F 
ENDBRANCH  51  65
BRANCH  52  76
ATOM     76  C   UNL     1       5.398  21.685   4.244  1.00  0.00     0.064 A 
ATOM     77  C   UNL     1       6.013  22.553   5.157  1.00  0.00     0.173 A 
ATOM     78  C   UNL     1       6.161  21.235   3.156  1.00  0.00     0.173 A 
ATOM     79  F   UNL     1       5.319  23.027   6.202  1.00  0.00    -0.203 F 
ATOM     80  C   UNL     1       7.329  22.974   4.976  1.00  0.00     0.198 A 
ATOM     81  C   UNL     1       7.487  21.631   2.994  1.00  0.00     0.198 A 
ATOM     82  F   UNL     1       5.623  20.399   2.257  1.00  0.00    -0.203 F 
ATOM     83  F   UNL     1       7.875  23.845   5.835  1.00  0.00    -0.200 F 
ATOM     84  C   UNL     1       8.067  22.509   3.898  1.00  0.00     0.200 A 
ATOM     85  F   UNL     1       8.202  21.166   1.960  1.00  0.00    -0.200 F 
ATOM     86  F   UNL     1       9.333  22.911   3.726  1.00  0.00    -0.200 F 
ENDBRANCH  52  76
BRANCH  64  87
ATOM     87  C   UNL     1      -0.666  25.115   4.021  1.00  0.00     0.064 A 
ATOM     88  C   UNL     1      -0.514  25.739   2.774  1.00  0.00     0.173 A 
ATOM     89  C   UNL     1      -1.189  25.878   5.077  1.00  0.00     0.173 A 
ATOM     90  F   UNL     1      -0.004  25.058   1.736  1.00  0.00    -0.203 F 
ATOM     91  C   UNL     1      -0.847  27.080   2.599  1.00  0.00     0.198 A 
ATOM     92  C   UNL     1      -1.553  27.209   4.889  1.00  0.00     0.198 A 
ATOM     93  F   UNL     1      -1.361  25.329   6.289  1.00  0.00    -0.203 F 
ATOM     94  F   UNL     1      -0.644  27.669   1.412  1.00  0.00    -0.200 F 
ATOM     95  C   UNL     1      -1.373  27.811   3.653  1.00  0.00     0.200 A 
ATOM     96  F   UNL     1      -2.076  27.909   5.905  1.00  0.00    -0.200 F 
ATOM     97  F   UNL     1      -1.701  29.099   3.480  1.00  0.00    -0.200 F 
ENDBRANCH  64  87
ENDBRANCH  38  39
ENDBRANCH  30  33
ENDBRANCH  28  29
ENDBRANCH  27  28
ENDBRANCH  26  27
ENDBRANCH  25  26
ENDBRANCH   1  25
TORSDOF 18
