REMARK SMILES COc1ccc(-c2cnc(N)c(C(=O)NCCCCCCNC(=O)c3ccc(-c4c5nc(c(-c6c(F)c(F)c(F)c(F)c6F)c6ccc([nH]6)c(-c6c(F)c(F)c(F)c(F)c6F)c6nc(c(-c7c(F)c(F)c(F)c(F)c7F)c7ccc4[nH]7)C=C6)C=C5)cc3)c2)c(C)c1
REMARK SMILES IDX 18 1 17 2 16 3 15 4 13 5 14 6 12 8 7 9 8 10 88 11 9 12 10 13
REMARK SMILES IDX 6 14 3 15 4 16 91 17 5 18 89 19 90 20 2 21 1 22 11 23 19 26
REMARK SMILES IDX 20 27 21 28 22 29 23 30 24 32 25 33 26 34 87 35 27 36 86 37
REMARK SMILES IDX 28 38 29 39 30 40 80 41 31 42 85 43 79 44 81 45 32 46 84 47
REMARK SMILES IDX 78 48 77 49 33 51 65 52 45 53 64 54 46 55 49 56 63 57 82 58
REMARK SMILES IDX 47 59 48 60 62 62 83 63 50 64 34 65 35 66 43 67 36 68 37 69
REMARK SMILES IDX 41 70 44 71 38 72 39 73 42 74 40 75 66 76 67 77 75 78 68 79
REMARK SMILES IDX 69 80 73 81 76 82 70 83 71 84 74 85 72 86 51 87 52 88 60 89
REMARK SMILES IDX 53 90 54 91 58 92 61 93 55 94 56 95 59 96 57 97
REMARK H PARENT 15 7 11 24 11 25 22 31 81 50 49 61
REMARK Flexibility Score: inf
ROOT
ATOM      1  C   UNL     1       1.127  -0.729 -13.977  1.00  0.00     0.002 C 
ENDROOT
BRANCH   1   2
ATOM      2  C   UNL     1       1.301  -1.814 -12.905  1.00  0.00     0.021 C 
BRANCH   2   3
ATOM      3  C   UNL     1       1.979  -1.434 -11.590  1.00  0.00     0.116 C 
BRANCH   3   4
ATOM      4  N   UNL     1       1.416  -0.290 -10.904  1.00  0.00    -0.352 N 
ATOM      5  C   UNL     1       1.531   0.085  -9.584  1.00  0.00     0.255 C 
ATOM      6  O   UNL     1       1.027   1.157  -9.245  1.00  0.00    -0.269 OA
ATOM      7  H   UNL     1       0.871   0.308 -11.465  1.00  0.00     0.163 HD
BRANCH   5   8
ATOM      8  C   UNL     1       2.158  -0.765  -8.536  1.00  0.00     0.082 A 
ATOM      9  C   UNL     1       2.047  -1.522  -6.212  1.00  0.00     0.001 A 
ATOM     10  C   UNL     1       3.155  -2.309  -6.514  1.00  0.00     0.122 A 
ATOM     11  C   UNL     1       1.532  -0.767  -7.272  1.00  0.00     0.028 A 
ATOM     12  N   UNL     1       3.815  -2.291  -7.694  1.00  0.00    -0.238 NA
ATOM     13  C   UNL     1       3.358  -1.464  -8.657  1.00  0.00     0.136 A 
BRANCH   9  14
ATOM     14  C   UNL     1       1.556  -1.418  -4.826  1.00  0.00    -0.014 A 
ATOM     15  C   UNL     1       0.820  -1.127  -2.101  1.00  0.00     0.119 A 
ATOM     16  C   UNL     1       2.129  -0.888  -2.491  1.00  0.00     0.047 A 
ATOM     17  C   UNL     1      -0.112  -1.536  -3.056  1.00  0.00     0.050 A 
ATOM     18  C   UNL     1       2.485  -1.026  -3.834  1.00  0.00     0.013 A 
ATOM     19  C   UNL     1       0.234  -1.686  -4.418  1.00  0.00    -0.040 A 
ATOM     20  C   UNL     1      -0.864  -2.098  -5.360  1.00  0.00     0.045 C 
BRANCH  15  21
ATOM     21  O   UNL     1       0.357  -1.032  -0.818  1.00  0.00    -0.497 OA
ATOM     22  C   UNL     1       0.990  -0.033  -0.022  1.00  0.00     0.278 C 
ENDBRANCH  15  21
ENDBRANCH   9  14
BRANCH  13  23
ATOM     23  N   UNL     1       4.232  -1.363  -9.721  1.00  0.00    -0.383 N 
ATOM     24  H   UNL     1       5.061  -1.893  -9.729  1.00  0.00     0.158 HD
ATOM     25  H   UNL     1       4.025  -0.761 -10.472  1.00  0.00     0.158 HD
ENDBRANCH  13  23
ENDBRANCH   5   8
ENDBRANCH   3   4
ENDBRANCH   2   3
ENDBRANCH   1   2
BRANCH   1  26
ATOM     26  C   UNL     1       2.290   0.228 -14.276  1.00  0.00     0.002 C 
BRANCH  26  27
ATOM     27  C   UNL     1       3.671  -0.372 -14.524  1.00  0.00     0.021 C 
BRANCH  27  28
ATOM     28  C   UNL     1       3.779  -1.354 -15.679  1.00  0.00     0.116 C 
BRANCH  28  29
ATOM     29  N   UNL     1       4.051  -0.760 -16.980  1.00  0.00    -0.352 N 
ATOM     30  C   UNL     1       4.189  -1.373 -18.219  1.00  0.00     0.251 C 
ATOM     31  H   UNL     1       4.153   0.219 -16.983  1.00  0.00     0.163 HD
ATOM     32  O   UNL     1       4.479  -0.711 -19.201  1.00  0.00    -0.269 OA
BRANCH  30  33
ATOM     33  C   UNL     1       3.845  -2.812 -18.374  1.00  0.00     0.039 A 
ATOM     34  C   UNL     1       3.079  -3.195 -19.485  1.00  0.00     0.014 A 
ATOM     35  C   UNL     1       4.086  -3.726 -17.357  1.00  0.00     0.014 A 
ATOM     36  C   UNL     1       2.344  -4.378 -19.437  1.00  0.00     0.010 A 
ATOM     37  C   UNL     1       3.266  -4.826 -17.247  1.00  0.00     0.010 A 
ATOM     38  C   UNL     1       2.342  -5.113 -18.256  1.00  0.00    -0.014 A 
BRANCH  38  39
ATOM     39  C   UNL     1       1.348  -6.120 -17.907  1.00  0.00     0.031 A 
ATOM     40  C   UNL     1       1.750  -7.532 -17.739  1.00  0.00     0.074 A 
ATOM     41  C   UNL     1       0.127  -5.698 -17.508  1.00  0.00     0.049 A 
ATOM     42  N   UNL     1       0.928  -8.506 -17.543  1.00  0.00    -0.248 NA
ATOM     43  C   UNL     1       3.135  -7.975 -17.846  1.00  0.00     0.031 C 
ATOM     44  C   UNL     1      -0.846  -6.428 -16.698  1.00  0.00     0.029 A 
ATOM     45  N   UNL     1      -0.567  -4.551 -17.933  1.00  0.00    -0.354 N 
ATOM     46  C   UNL     1       1.661  -9.625 -17.216  1.00  0.00     0.074 A 
ATOM     47  C   UNL     1       3.020  -9.268 -17.532  1.00  0.00     0.031 C 
ATOM     48  C   UNL     1      -2.064  -5.903 -16.903  1.00  0.00     0.029 A 
ATOM     49  C   UNL     1      -1.928  -4.940 -17.981  1.00  0.00     0.049 A 
ATOM     50  H   UNL     1      -0.189  -3.669 -18.151  1.00  0.00     0.167 HD
ATOM     51  C   UNL     1       1.017 -10.658 -16.599  1.00  0.00     0.037 A 
ATOM     52  C   UNL     1      -2.607  -5.012 -19.163  1.00  0.00     0.037 A 
ATOM     53  C   UNL     1      -0.436 -10.474 -16.691  1.00  0.00     0.049 A 
ATOM     54  C   UNL     1      -3.172  -6.380 -19.463  1.00  0.00     0.074 A 
ATOM     55  C   UNL     1      -1.405 -10.062 -15.792  1.00  0.00     0.029 A 
ATOM     56  N   UNL     1      -1.033 -10.451 -17.950  1.00  0.00    -0.354 N 
ATOM     57  N   UNL     1      -2.713  -7.487 -18.947  1.00  0.00    -0.248 NA
ATOM     58  C   UNL     1      -4.288  -6.609 -20.375  1.00  0.00     0.031 C 
ATOM     59  C   UNL     1      -2.571  -9.725 -16.530  1.00  0.00     0.029 A 
ATOM     60  C   UNL     1      -2.321  -9.962 -17.871  1.00  0.00     0.049 A 
ATOM     61  H   UNL     1      -0.595 -10.743 -18.782  1.00  0.00     0.167 HD
ATOM     62  C   UNL     1      -3.432  -8.550 -19.430  1.00  0.00     0.074 A 
ATOM     63  C   UNL     1      -4.415  -7.946 -20.310  1.00  0.00     0.031 C 
ATOM     64  C   UNL     1      -3.148  -9.836 -19.064  1.00  0.00     0.037 A 
BRANCH  51  65
ATOM     65  C   UNL     1       1.660 -11.722 -15.716  1.00  0.00     0.064 A 
ATOM     66  C   UNL     1       0.853 -12.542 -14.890  1.00  0.00     0.173 A 
ATOM     67  C   UNL     1       3.044 -11.926 -15.537  1.00  0.00     0.173 A 
ATOM     68  F   UNL     1      -0.485 -12.512 -14.967  1.00  0.00    -0.203 F 
ATOM     69  C   UNL     1       1.383 -13.420 -13.935  1.00  0.00     0.198 A 
ATOM     70  C   UNL     1       3.574 -12.807 -14.587  1.00  0.00     0.198 A 
ATOM     71  F   UNL     1       3.964 -11.294 -16.264  1.00  0.00    -0.203 F 
ATOM     72  F   UNL     1       0.558 -14.136 -13.157  1.00  0.00    -0.200 F 
ATOM     73  C   UNL     1       2.745 -13.544 -13.775  1.00  0.00     0.200 A 
ATOM     74  F   UNL     1       4.905 -12.919 -14.464  1.00  0.00    -0.200 F 
ATOM     75  F   UNL     1       3.257 -14.368 -12.851  1.00  0.00    -0.200 F 
ENDBRANCH  51  65
BRANCH  52  76
ATOM     76  C   UNL     1      -2.108  -4.048 -20.178  1.00  0.00     0.064 A 
ATOM     77  C   UNL     1      -2.235  -2.672 -19.902  1.00  0.00     0.173 A 
ATOM     78  C   UNL     1      -1.181  -4.430 -21.155  1.00  0.00     0.173 A 
ATOM     79  F   UNL     1      -3.110  -2.255 -18.973  1.00  0.00    -0.203 F 
ATOM     80  C   UNL     1      -1.379  -1.736 -20.478  1.00  0.00     0.198 A 
ATOM     81  C   UNL     1      -0.337  -3.485 -21.743  1.00  0.00     0.198 A 
ATOM     82  F   UNL     1      -1.001  -5.725 -21.450  1.00  0.00    -0.203 F 
ATOM     83  F   UNL     1      -1.442  -0.451 -20.101  1.00  0.00    -0.200 F 
ATOM     84  C   UNL     1      -0.409  -2.149 -21.375  1.00  0.00     0.200 A 
ATOM     85  F   UNL     1       0.623  -3.886 -22.590  1.00  0.00    -0.200 F 
ATOM     86  F   UNL     1       0.485  -1.270 -21.850  1.00  0.00    -0.200 F 
ENDBRANCH  52  76
BRANCH  64  87
ATOM     87  C   UNL     1      -3.678 -11.095 -19.717  1.00  0.00     0.064 A 
ATOM     88  C   UNL     1      -4.132 -11.167 -21.045  1.00  0.00     0.173 A 
ATOM     89  C   UNL     1      -3.600 -12.340 -19.041  1.00  0.00     0.173 A 
ATOM     90  F   UNL     1      -4.135 -10.091 -21.843  1.00  0.00    -0.203 F 
ATOM     91  C   UNL     1      -4.541 -12.371 -21.628  1.00  0.00     0.198 A 
ATOM     92  C   UNL     1      -3.948 -13.548 -19.646  1.00  0.00     0.198 A 
ATOM     93  F   UNL     1      -3.150 -12.430 -17.781  1.00  0.00    -0.203 F 
ATOM     94  F   UNL     1      -5.007 -12.374 -22.884  1.00  0.00    -0.200 F 
ATOM     95  C   UNL     1      -4.437 -13.562 -20.934  1.00  0.00     0.200 A 
ATOM     96  F   UNL     1      -3.785 -14.698 -18.977  1.00  0.00    -0.200 F 
ATOM     97  F   UNL     1      -4.782 -14.719 -21.514  1.00  0.00    -0.200 F 
ENDBRANCH  64  87
ENDBRANCH  38  39
ENDBRANCH  30  33
ENDBRANCH  28  29
ENDBRANCH  27  28
ENDBRANCH  26  27
ENDBRANCH   1  26
TORSDOF 16
