REMARK SMILES Cc1cc(N2N=C(C(=O)NCCCCCCNC(=O)c3ccc(-c4c5nc(c(-c6c(F)c(F)c(F)c(F)c6F)c6ccc([nH]6)c(-c6c(F)c(F)c(F)c(F)c6F)c6nc(c(-c7c(F)c(F)c(F)c(F)c7F)c7ccc4[nH]7)C=C6)C=C5)cc3)C[C@H]2c2ccccc2)c([N+](=O)[O-])cc1C
REMARK SMILES IDX 13 1 12 2 11 3 10 4 8 5 9 6 7 8 5 9 6 10 84 11 83 12 4 13
REMARK SMILES IDX 1 14 2 15 3 16 96 17 95 18 97 19 91 20 92 21 93 22 94 23
REMARK SMILES IDX 85 24 86 25 90 26 87 27 89 28 88 29 14 30 15 31 16 32 17 33
REMARK SMILES IDX 18 34 19 36 20 37 21 38 82 39 22 40 81 41 23 42 24 43 25 44
REMARK SMILES IDX 75 45 26 46 80 47 74 48 76 49 27 50 79 51 73 52 72 53 28 55
REMARK SMILES IDX 60 56 40 57 59 58 41 59 44 60 58 61 77 62 42 63 43 64 57 66
REMARK SMILES IDX 78 67 45 68 29 69 30 70 38 71 31 72 32 73 36 74 39 75 33 76
REMARK SMILES IDX 34 77 37 78 35 79 61 80 62 81 70 82 63 83 64 84 68 85 71 86
REMARK SMILES IDX 65 87 66 88 69 89 67 90 46 91 47 92 55 93 48 94 49 95 53 96
REMARK SMILES IDX 56 97 50 98 51 99 54 100 52 101
REMARK H PARENT 10 7 17 35 76 54 44 65
REMARK Flexibility Score: inf
ROOT
ATOM      1  C   UNL     1     -10.211   3.363   0.248  1.00  0.00     0.002 C 
ENDROOT
BRANCH   1   2
ATOM      2  C   UNL     1      -8.977   2.964  -0.559  1.00  0.00     0.021 C 
BRANCH   2   3
ATOM      3  C   UNL     1      -7.653   3.436   0.029  1.00  0.00     0.116 C 
BRANCH   3   4
ATOM      4  N   UNL     1      -7.276   2.663   1.192  1.00  0.00    -0.351 N 
ATOM      5  C   UNL     1      -6.144   1.978   1.556  1.00  0.00     0.267 C 
ATOM      6  O   UNL     1      -6.168   1.375   2.627  1.00  0.00    -0.268 OA
ATOM      7  H   UNL     1      -7.987   2.619   1.871  1.00  0.00     0.163 HD
BRANCH   5   8
ATOM      8  C   UNL     1      -4.857   1.966   0.743  1.00  0.00     0.128 C 
ATOM      9  N   UNL     1      -2.784   1.666   0.318  1.00  0.00    -0.250 N 
ATOM     10  N   UNL     1      -3.768   1.450   1.231  1.00  0.00    -0.171 NA
ATOM     11  C   UNL     1      -3.249   2.324  -0.910  1.00  0.00     0.144 C 
ATOM     12  C   UNL     1      -4.745   2.489  -0.650  1.00  0.00     0.096 C 
BRANCH   9  13
ATOM     13  C   UNL     1      -1.693   0.800   0.269  1.00  0.00     0.138 A 
ATOM     14  C   UNL     1       2.077   1.364   0.240  1.00  0.00     0.045 C 
ATOM     15  C   UNL     1       0.769   0.624   0.228  1.00  0.00    -0.046 A 
ATOM     16  C   UNL     1      -0.413   1.369   0.368  1.00  0.00     0.039 A 
ATOM     17  C   UNL     1       0.684  -0.769   0.069  1.00  0.00    -0.041 A 
ATOM     18  C   UNL     1      -0.585  -1.369   0.017  1.00  0.00     0.091 A 
ATOM     19  C   UNL     1       1.894  -1.656  -0.033  1.00  0.00     0.045 C 
ATOM     20  C   UNL     1      -1.754  -0.588   0.099  1.00  0.00     0.294 A 
BRANCH  20  21
ATOM     21  N   UNL     1      -3.026  -1.272  -0.092  1.00  0.00     0.065 N 
ATOM     22  O   UNL     1      -3.183  -2.352   0.499  1.00  0.00    -0.258 OA
ATOM     23  O   UNL     1      -3.822  -0.801  -0.923  1.00  0.00    -0.258 OA
ENDBRANCH  20  21
ENDBRANCH   9  13
BRANCH  11  24
ATOM     24  C   UNL     1      -2.480   3.613  -1.194  1.00  0.00    -0.023 A 
ATOM     25  C   UNL     1      -2.889   4.884  -0.756  1.00  0.00     0.006 A 
ATOM     26  C   UNL     1      -1.273   3.530  -1.915  1.00  0.00     0.006 A 
ATOM     27  C   UNL     1      -2.139   6.026  -1.054  1.00  0.00     0.000 A 
ATOM     28  C   UNL     1      -0.499   4.664  -2.168  1.00  0.00     0.000 A 
ATOM     29  C   UNL     1      -0.939   5.915  -1.748  1.00  0.00     0.000 A 
ENDBRANCH  11  24
ENDBRANCH   5   8
ENDBRANCH   3   4
ENDBRANCH   2   3
ENDBRANCH   1   2
BRANCH   1  30
ATOM     30  C   UNL     1     -10.368   4.866   0.499  1.00  0.00     0.002 C 
BRANCH  30  31
ATOM     31  C   UNL     1     -10.252   5.756  -0.741  1.00  0.00     0.021 C 
BRANCH  31  32
ATOM     32  C   UNL     1     -11.214   5.406  -1.869  1.00  0.00     0.116 C 
BRANCH  32  33
ATOM     33  N   UNL     1     -12.604   5.571  -1.476  1.00  0.00    -0.352 N 
ATOM     34  C   UNL     1     -13.589   6.308  -2.084  1.00  0.00     0.251 C 
ATOM     35  H   UNL     1     -12.877   5.087  -0.663  1.00  0.00     0.163 HD
ATOM     36  O   UNL     1     -14.666   6.496  -1.528  1.00  0.00    -0.269 OA
BRANCH  34  37
ATOM     37  C   UNL     1     -13.330   6.897  -3.413  1.00  0.00     0.039 A 
ATOM     38  C   UNL     1     -13.619   8.246  -3.628  1.00  0.00     0.014 A 
ATOM     39  C   UNL     1     -12.778   6.118  -4.434  1.00  0.00     0.014 A 
ATOM     40  C   UNL     1     -13.288   8.836  -4.850  1.00  0.00     0.010 A 
ATOM     41  C   UNL     1     -12.385   6.723  -5.622  1.00  0.00     0.010 A 
ATOM     42  C   UNL     1     -12.634   8.088  -5.842  1.00  0.00    -0.014 A 
BRANCH  42  43
ATOM     43  C   UNL     1     -12.196   8.697  -7.123  1.00  0.00     0.031 A 
ATOM     44  C   UNL     1     -12.776   8.202  -8.418  1.00  0.00     0.074 A 
ATOM     45  C   UNL     1     -11.209   9.614  -7.127  1.00  0.00     0.049 A 
ATOM     46  N   UNL     1     -12.416   8.475  -9.646  1.00  0.00    -0.248 NA
ATOM     47  C   UNL     1     -13.890   7.245  -8.317  1.00  0.00     0.031 C 
ATOM     48  C   UNL     1     -10.544  10.148  -5.938  1.00  0.00     0.029 A 
ATOM     49  N   UNL     1     -10.570  10.236  -8.172  1.00  0.00    -0.354 N 
ATOM     50  C   UNL     1     -13.238   7.705 -10.458  1.00  0.00     0.074 A 
ATOM     51  C   UNL     1     -14.088   6.924  -9.587  1.00  0.00     0.031 C 
ATOM     52  C   UNL     1      -9.593  11.017  -6.318  1.00  0.00     0.029 A 
ATOM     53  C   UNL     1      -9.546  11.063  -7.777  1.00  0.00     0.049 A 
ATOM     54  H   UNL     1     -10.822  10.103  -9.114  1.00  0.00     0.167 HD
ATOM     55  C   UNL     1     -13.286   7.667 -11.811  1.00  0.00     0.037 A 
ATOM     56  C   UNL     1      -8.652  11.757  -8.508  1.00  0.00     0.037 A 
ATOM     57  C   UNL     1     -12.461   8.474 -12.670  1.00  0.00     0.049 A 
ATOM     58  C   UNL     1      -8.722  11.688 -10.011  1.00  0.00     0.074 A 
ATOM     59  C   UNL     1     -12.487   8.563 -14.051  1.00  0.00     0.029 A 
ATOM     60  N   UNL     1     -11.460   9.328 -12.231  1.00  0.00    -0.354 N 
ATOM     61  N   UNL     1      -9.547  11.008 -10.770  1.00  0.00    -0.248 NA
ATOM     62  C   UNL     1      -7.739  12.483 -10.761  1.00  0.00     0.031 C 
ATOM     63  C   UNL     1     -11.463   9.426 -14.451  1.00  0.00     0.029 A 
ATOM     64  C   UNL     1     -10.842   9.925 -13.317  1.00  0.00     0.049 A 
ATOM     65  H   UNL     1     -11.225   9.485 -11.288  1.00  0.00     0.167 HD
ATOM     66  C   UNL     1      -9.207  11.320 -12.080  1.00  0.00     0.074 A 
ATOM     67  C   UNL     1      -8.106  12.256 -12.014  1.00  0.00     0.031 C 
ATOM     68  C   UNL     1      -9.760  10.872 -13.233  1.00  0.00     0.037 A 
BRANCH  55  69
ATOM     69  C   UNL     1     -14.257   6.719 -12.453  1.00  0.00     0.064 A 
ATOM     70  C   UNL     1     -15.642   6.931 -12.400  1.00  0.00     0.173 A 
ATOM     71  C   UNL     1     -13.789   5.617 -13.185  1.00  0.00     0.173 A 
ATOM     72  F   UNL     1     -16.141   7.965 -11.705  1.00  0.00    -0.203 F 
ATOM     73  C   UNL     1     -16.524   6.062 -13.037  1.00  0.00     0.198 A 
ATOM     74  C   UNL     1     -14.672   4.769 -13.847  1.00  0.00     0.198 A 
ATOM     75  F   UNL     1     -12.473   5.371 -13.273  1.00  0.00    -0.203 F 
ATOM     76  F   UNL     1     -17.846   6.261 -12.937  1.00  0.00    -0.200 F 
ATOM     77  C   UNL     1     -16.039   4.988 -13.768  1.00  0.00     0.200 A 
ATOM     78  F   UNL     1     -14.200   3.740 -14.566  1.00  0.00    -0.200 F 
ATOM     79  F   UNL     1     -16.889   4.162 -14.393  1.00  0.00    -0.200 F 
ENDBRANCH  55  69
BRANCH  56  80
ATOM     80  C   UNL     1      -7.606  12.572  -7.833  1.00  0.00     0.064 A 
ATOM     81  C   UNL     1      -7.610  13.971  -7.923  1.00  0.00     0.173 A 
ATOM     82  C   UNL     1      -6.569  11.970  -7.105  1.00  0.00     0.173 A 
ATOM     83  F   UNL     1      -8.568  14.594  -8.624  1.00  0.00    -0.203 F 
ATOM     84  C   UNL     1      -6.602  14.734  -7.335  1.00  0.00     0.198 A 
ATOM     85  C   UNL     1      -5.580  12.735  -6.490  1.00  0.00     0.198 A 
ATOM     86  F   UNL     1      -6.520  10.635  -6.982  1.00  0.00    -0.203 F 
ATOM     87  F   UNL     1      -6.600  16.065  -7.486  1.00  0.00    -0.200 F 
ATOM     88  C   UNL     1      -5.591  14.116  -6.616  1.00  0.00     0.200 A 
ATOM     89  F   UNL     1      -4.615  12.134  -5.781  1.00  0.00    -0.200 F 
ATOM     90  F   UNL     1      -4.622  14.850  -6.051  1.00  0.00    -0.200 F 
ENDBRANCH  56  80
BRANCH  68  91
ATOM     91  C   UNL     1      -9.225  11.422 -14.523  1.00  0.00     0.064 A 
ATOM     92  C   UNL     1      -7.968  11.051 -15.020  1.00  0.00     0.173 A 
ATOM     93  C   UNL     1     -10.016  12.276 -15.307  1.00  0.00     0.173 A 
ATOM     94  F   UNL     1      -7.167  10.249 -14.302  1.00  0.00    -0.203 F 
ATOM     95  C   UNL     1      -7.517  11.525 -16.250  1.00  0.00     0.198 A 
ATOM     96  C   UNL     1      -9.576  12.722 -16.550  1.00  0.00     0.198 A 
ATOM     97  F   UNL     1     -11.230  12.656 -14.879  1.00  0.00    -0.203 F 
ATOM     98  F   UNL     1      -6.298  11.186 -16.690  1.00  0.00    -0.200 F 
ATOM     99  C   UNL     1      -8.326  12.350 -17.018  1.00  0.00     0.200 A 
ATOM    100  F   UNL     1     -10.366  13.505 -17.297  1.00  0.00    -0.200 F 
ATOM    101  F   UNL     1      -7.898  12.789 -18.209  1.00  0.00    -0.200 F 
ENDBRANCH  68  91
ENDBRANCH  42  43
ENDBRANCH  34  37
ENDBRANCH  32  33
ENDBRANCH  31  32
ENDBRANCH  30  31
ENDBRANCH   1  30
TORSDOF 16
