REMARK SMILES C[C@H](NC(=O)CCN1C(=O)/C(=C/c2ccc([N+](=O)[O-])cc2)SC1=S)C(=O)NCCCCCCNC(=O)c1ccc(-c2c3nc(c(-c4c(F)c(F)c(F)c(F)c4F)c4ccc([nH]4)c(-c4c(F)c(F)c(F)c(F)c4F)c4nc(c(-c5c(F)c(F)c(F)c(F)c5F)c5ccc2[nH]5)C=C4)C=C3)cc1
REMARK SMILES IDX 28 1 27 2 25 3 26 4 2 6 1 7 3 8 4 9 5 11 6 12 7 13 8 14 9 15
REMARK SMILES IDX 23 16 10 17 11 18 22 19 24 20 12 21 13 22 14 23 21 24 15 25
REMARK SMILES IDX 20 26 16 27 17 28 18 29 19 30 29 31 30 32 31 33 32 34 33 35
REMARK SMILES IDX 34 36 35 37 36 39 37 40 38 41 99 42 39 43 98 44 40 45 41 46
REMARK SMILES IDX 42 47 92 48 43 49 97 50 91 51 93 52 44 53 96 54 90 55 89 56
REMARK SMILES IDX 45 58 77 59 57 60 76 61 58 62 61 63 75 64 94 65 59 66 60 67
REMARK SMILES IDX 74 69 95 70 62 71 46 72 47 73 55 74 48 75 49 76 53 77 56 78
REMARK SMILES IDX 50 79 51 80 54 81 52 82 78 83 79 84 87 85 80 86 81 87 85 88
REMARK SMILES IDX 88 89 82 90 83 91 86 92 84 93 63 94 64 95 72 96 65 97 66 98
REMARK SMILES IDX 70 99 73 100 67 101 68 102 71 103 69 104
REMARK H PARENT 27 5 3 10 34 38 93 57 61 68
REMARK Flexibility Score: inf
ROOT
ATOM      1  C   UNL     1      -1.247   1.729   1.235  1.00  0.00     0.116 C 
ENDROOT
BRANCH   1   2
ATOM      2  N   UNL     1      -1.715   0.414   0.889  1.00  0.00    -0.354 N 
ATOM      3  C   UNL     1      -0.970  -0.660   0.532  1.00  0.00     0.242 C 
ATOM      4  O   UNL     1      -1.538  -1.596  -0.034  1.00  0.00    -0.273 OA
ATOM      5  H   UNL     1      -2.690   0.278   0.916  1.00  0.00     0.163 HD
BRANCH   3   6
ATOM      6  C   UNL     1       0.545  -0.689   0.793  1.00  0.00     0.168 C 
ATOM      7  C   UNL     1       0.989  -0.053   2.107  1.00  0.00     0.041 C 
BRANCH   6   8
ATOM      8  N   UNL     1       1.420  -0.224  -0.259  1.00  0.00    -0.345 N 
ATOM      9  C   UNL     1       2.678  -0.713  -0.482  1.00  0.00     0.222 C 
ATOM     10  H   UNL     1       1.090   0.489  -0.852  1.00  0.00     0.164 HD
ATOM     11  O   UNL     1       3.512   0.028  -1.002  1.00  0.00    -0.275 OA
BRANCH   9  12
ATOM     12  C   UNL     1       2.981  -2.183  -0.194  1.00  0.00     0.122 C 
BRANCH  12  13
ATOM     13  C   UNL     1       3.357  -2.630   1.238  1.00  0.00     0.137 C 
BRANCH  13  14
ATOM     14  N   UNL     1       2.263  -3.097   2.132  1.00  0.00    -0.292 N 
ATOM     15  C   UNL     1       2.171  -2.588   3.424  1.00  0.00     0.266 C 
ATOM     16  C   UNL     1       1.354  -4.099   1.851  1.00  0.00     0.148 C 
ATOM     17  O   UNL     1       3.017  -1.919   4.001  1.00  0.00    -0.268 OA
ATOM     18  C   UNL     1       0.821  -2.879   3.999  1.00  0.00     0.081 C 
ATOM     19  S   UNL     1       0.061  -4.087   3.054  1.00  0.00    -0.054 SA
ATOM     20  S   UNL     1       1.362  -5.190   0.591  1.00  0.00    -0.052 S 
ATOM     21  C   UNL     1       0.301  -2.083   4.952  1.00  0.00     0.029 C 
BRANCH  21  22
ATOM     22  C   UNL     1      -1.100  -1.967   5.413  1.00  0.00    -0.024 A 
ATOM     23  C   UNL     1      -1.623  -0.676   5.631  1.00  0.00     0.015 A 
ATOM     24  C   UNL     1      -1.926  -3.068   5.662  1.00  0.00     0.015 A 
ATOM     25  C   UNL     1      -2.947  -0.488   6.049  1.00  0.00     0.086 A 
ATOM     26  C   UNL     1      -3.256  -2.893   6.071  1.00  0.00     0.086 A 
ATOM     27  C   UNL     1      -3.764  -1.603   6.260  1.00  0.00     0.269 A 
BRANCH  27  28
ATOM     28  N   UNL     1      -5.159  -1.419   6.685  1.00  0.00     0.062 N 
ATOM     29  O   UNL     1      -5.547  -0.261   6.898  1.00  0.00    -0.258 OA
ATOM     30  O   UNL     1      -5.865  -2.430   6.801  1.00  0.00    -0.258 OA
ENDBRANCH  27  28
ENDBRANCH  21  22
ENDBRANCH  13  14
ENDBRANCH  12  13
ENDBRANCH   9  12
ENDBRANCH   6   8
ENDBRANCH   3   6
ENDBRANCH   1   2
BRANCH   1  31
ATOM     31  C   UNL     1      -2.099   2.802   0.597  1.00  0.00     0.021 C 
BRANCH  31  32
ATOM     32  C   UNL     1      -3.544   2.834   1.090  1.00  0.00     0.002 C 
BRANCH  32  33
ATOM     33  C   UNL     1      -3.723   2.889   2.610  1.00  0.00     0.002 C 
BRANCH  33  34
ATOM     34  C   UNL     1      -2.924   3.976   3.330  1.00  0.00     0.021 C 
BRANCH  34  35
ATOM     35  C   UNL     1      -3.015   5.359   2.705  1.00  0.00     0.116 C 
BRANCH  35  36
ATOM     36  N   UNL     1      -4.382   5.826   2.590  1.00  0.00    -0.352 N 
ATOM     37  C   UNL     1      -4.886   7.066   2.889  1.00  0.00     0.251 C 
ATOM     38  H   UNL     1      -5.033   5.169   2.254  1.00  0.00     0.163 HD
ATOM     39  O   UNL     1      -6.090   7.270   2.882  1.00  0.00    -0.269 OA
BRANCH  37  40
ATOM     40  C   UNL     1      -3.946   8.146   3.249  1.00  0.00     0.039 A 
ATOM     41  C   UNL     1      -4.210   8.907   4.388  1.00  0.00     0.014 A 
ATOM     42  C   UNL     1      -2.803   8.387   2.481  1.00  0.00     0.014 A 
ATOM     43  C   UNL     1      -3.305   9.893   4.777  1.00  0.00     0.010 A 
ATOM     44  C   UNL     1      -1.861   9.311   2.918  1.00  0.00     0.010 A 
ATOM     45  C   UNL     1      -2.113  10.086   4.060  1.00  0.00    -0.014 A 
BRANCH  45  46
ATOM     46  C   UNL     1      -1.137  11.126   4.467  1.00  0.00     0.031 A 
ATOM     47  C   UNL     1      -0.850  12.280   3.546  1.00  0.00     0.074 A 
ATOM     48  C   UNL     1      -0.489  11.014   5.643  1.00  0.00     0.049 A 
ATOM     49  N   UNL     1       0.010  13.256   3.684  1.00  0.00    -0.248 NA
ATOM     50  C   UNL     1      -1.614  12.330   2.287  1.00  0.00     0.031 C 
ATOM     51  C   UNL     1      -0.657   9.921   6.601  1.00  0.00     0.029 A 
ATOM     52  N   UNL     1       0.448  11.828   6.228  1.00  0.00    -0.354 N 
ATOM     53  C   UNL     1      -0.108  14.029   2.536  1.00  0.00     0.074 A 
ATOM     54  C   UNL     1      -1.071  13.374   1.679  1.00  0.00     0.031 C 
ATOM     55  C   UNL     1       0.134  10.142   7.663  1.00  0.00     0.029 A 
ATOM     56  C   UNL     1       0.895  11.367   7.443  1.00  0.00     0.049 A 
ATOM     57  H   UNL     1       0.769  12.662   5.817  1.00  0.00     0.167 HD
ATOM     58  C   UNL     1       0.505  15.198   2.239  1.00  0.00     0.037 A 
ATOM     59  C   UNL     1       1.825  11.873   8.275  1.00  0.00     0.037 A 
ATOM     60  C   UNL     1       1.448  15.856   3.104  1.00  0.00     0.049 A 
ATOM     61  C   UNL     1       2.513  13.162   7.904  1.00  0.00     0.074 A 
ATOM     62  C   UNL     1       2.107  17.057   2.907  1.00  0.00     0.029 A 
ATOM     63  N   UNL     1       1.862  15.369   4.334  1.00  0.00    -0.354 N 
ATOM     64  N   UNL     1       2.352  13.911   6.840  1.00  0.00    -0.248 NA
ATOM     65  C   UNL     1       3.504  13.682   8.856  1.00  0.00     0.031 C 
ATOM     66  C   UNL     1       2.955  17.273   3.996  1.00  0.00     0.029 A 
ATOM     67  C   UNL     1       2.778  16.239   4.902  1.00  0.00     0.049 A 
ATOM     68  H   UNL     1       1.551  14.529   4.744  1.00  0.00     0.167 HD
ATOM     69  C   UNL     1       3.188  15.006   7.013  1.00  0.00     0.074 A 
ATOM     70  C   UNL     1       3.842  14.832   8.292  1.00  0.00     0.031 C 
ATOM     71  C   UNL     1       3.398  16.061   6.189  1.00  0.00     0.037 A 
BRANCH  58  72
ATOM     72  C   UNL     1       0.163  15.854   0.933  1.00  0.00     0.064 A 
ATOM     73  C   UNL     1      -1.098  16.428   0.710  1.00  0.00     0.173 A 
ATOM     74  C   UNL     1       1.123  15.966  -0.084  1.00  0.00     0.173 A 
ATOM     75  F   UNL     1      -2.057  16.336   1.644  1.00  0.00    -0.203 F 
ATOM     76  C   UNL     1      -1.392  17.072  -0.489  1.00  0.00     0.198 A 
ATOM     77  C   UNL     1       0.836  16.639  -1.269  1.00  0.00     0.198 A 
ATOM     78  F   UNL     1       2.345  15.439   0.078  1.00  0.00    -0.203 F 
ATOM     79  F   UNL     1      -2.617  17.575  -0.695  1.00  0.00    -0.200 F 
ATOM     80  C   UNL     1      -0.422  17.187  -1.473  1.00  0.00     0.200 A 
ATOM     81  F   UNL     1       1.780  16.762  -2.213  1.00  0.00    -0.200 F 
ATOM     82  F   UNL     1      -0.700  17.822  -2.619  1.00  0.00    -0.200 F 
ENDBRANCH  58  72
BRANCH  59  83
ATOM     83  C   UNL     1       2.166  11.171   9.542  1.00  0.00     0.064 A 
ATOM     84  C   UNL     1       1.896  11.752  10.790  1.00  0.00     0.173 A 
ATOM     85  C   UNL     1       2.812   9.925   9.533  1.00  0.00     0.173 A 
ATOM     86  F   UNL     1       1.295  12.950  10.854  1.00  0.00    -0.203 F 
ATOM     87  C   UNL     1       2.298  11.139  11.974  1.00  0.00     0.198 A 
ATOM     88  C   UNL     1       3.180   9.295  10.720  1.00  0.00     0.198 A 
ATOM     89  F   UNL     1       3.086   9.318   8.369  1.00  0.00    -0.203 F 
ATOM     90  F   UNL     1       2.092  11.753  13.147  1.00  0.00    -0.200 F 
ATOM     91  C   UNL     1       2.938   9.909  11.938  1.00  0.00     0.200 A 
ATOM     92  F   UNL     1       3.781   8.098  10.681  1.00  0.00    -0.200 F 
ATOM     93  F   UNL     1       3.332   9.323  13.077  1.00  0.00    -0.200 F 
ENDBRANCH  59  83
BRANCH  71  94
ATOM     94  C   UNL     1       4.326  17.140   6.669  1.00  0.00     0.064 A 
ATOM     95  C   UNL     1       5.709  16.935   6.778  1.00  0.00     0.173 A 
ATOM     96  C   UNL     1       3.824  18.412   6.987  1.00  0.00     0.173 A 
ATOM     97  F   UNL     1       6.238  15.734   6.499  1.00  0.00    -0.203 F 
ATOM     98  C   UNL     1       6.550  17.953   7.219  1.00  0.00     0.198 A 
ATOM     99  C   UNL     1       4.672  19.438   7.391  1.00  0.00     0.198 A 
ATOM    100  F   UNL     1       2.509  18.664   6.890  1.00  0.00    -0.203 F 
ATOM    101  F   UNL     1       7.861  17.717   7.369  1.00  0.00    -0.200 F 
ATOM    102  C   UNL     1       6.033  19.205   7.516  1.00  0.00     0.200 A 
ATOM    103  F   UNL     1       4.172  20.651   7.661  1.00  0.00    -0.200 F 
ATOM    104  F   UNL     1       6.846  20.186   7.932  1.00  0.00    -0.200 F 
ENDBRANCH  71  94
ENDBRANCH  45  46
ENDBRANCH  37  40
ENDBRANCH  35  36
ENDBRANCH  34  35
ENDBRANCH  33  34
ENDBRANCH  32  33
ENDBRANCH  31  32
ENDBRANCH   1  31
TORSDOF 19
