REMARK SMILES CCn1ncc(NC(=O)[C@@H]2CCCC[C@@H]2C(=O)NCCCCCCNC(=O)c2ccc(-c3c4nc(c(-c5c(F)c(F)c(F)c(F)c5F)c5ccc([nH]5)c(-c5c(F)c(F)c(F)c(F)c5F)c5nc(c(-c6c(F)c(F)c(F)c(F)c6F)c6ccc3[nH]6)C=C5)C=C4)cc2)c1C(=O)Nc1cnn(C)c1C
REMARK SMILES IDX 20 1 19 2 18 3 16 4 17 5 15 7 10 8 11 9 12 10 14 11 13 12
REMARK SMILES IDX 8 13 7 14 9 16 6 17 3 18 4 19 91 20 5 21 2 22 1 23 92 24
REMARK SMILES IDX 93 25 94 26 95 28 96 29 100 30 97 31 98 32 101 33 99 34
REMARK SMILES IDX 21 35 22 36 23 37 24 38 25 39 26 40 27 42 28 43 29 44 90 45
REMARK SMILES IDX 30 46 89 47 31 48 32 49 33 50 83 51 34 52 88 53 82 54 84 55
REMARK SMILES IDX 35 56 87 57 81 58 80 59 36 61 68 62 48 63 67 64 49 65 52 66
REMARK SMILES IDX 66 67 85 68 50 69 51 70 65 72 86 73 53 74 37 75 38 76 46 77
REMARK SMILES IDX 39 78 40 79 44 80 47 81 41 82 42 83 45 84 43 85 69 86 70 87
REMARK SMILES IDX 78 88 71 89 72 90 76 91 79 92 73 93 74 94 77 95 75 96 54 97
REMARK SMILES IDX 55 98 63 99 56 100 57 101 61 102 64 103 58 104 59 105 62 106
REMARK SMILES IDX 60 107
REMARK H PARENT 18 6 7 15 94 27 25 41 84 60 52 71
REMARK Flexibility Score: inf
ROOT
ATOM      1  C   UNL     1       2.862  -8.590  -0.969  1.00  0.00     0.021 C 
ENDROOT
BRANCH   1   2
ATOM      2  C   UNL     1       2.564  -7.735   0.255  1.00  0.00     0.116 C 
BRANCH   2   3
ATOM      3  N   UNL     1       3.062  -6.399   0.030  1.00  0.00    -0.356 N 
ATOM      4  C   UNL     1       2.346  -5.365  -0.488  1.00  0.00     0.223 C 
ATOM      5  O   UNL     1       2.946  -4.414  -0.980  1.00  0.00    -0.275 OA
ATOM      6  H   UNL     1       4.000  -6.221   0.272  1.00  0.00     0.163 HD
BRANCH   4   7
ATOM      7  C   UNL     1       0.836  -5.421  -0.286  1.00  0.00     0.091 C 
ATOM      8  C   UNL     1       0.103  -4.332  -1.075  1.00  0.00     0.091 C 
ATOM      9  C   UNL     1       0.416  -2.998  -0.485  1.00  0.00     0.014 C 
ATOM     10  C   UNL     1       0.309  -2.840   1.009  1.00  0.00     0.001 C 
ATOM     11  C   UNL     1       0.568  -5.282   1.238  1.00  0.00     0.014 C 
ATOM     12  C   UNL     1       1.012  -3.926   1.771  1.00  0.00     0.001 C 
BRANCH   8  13
ATOM     13  C   UNL     1       0.296  -4.421  -2.593  1.00  0.00     0.228 C 
ATOM     14  N   UNL     1       0.251  -3.386  -3.492  1.00  0.00    -0.322 N 
ATOM     15  H   UNL     1      -0.047  -3.665  -4.388  1.00  0.00     0.170 HD
ATOM     16  O   UNL     1       0.432  -5.551  -3.093  1.00  0.00    -0.274 OA
BRANCH  14  17
ATOM     17  C   UNL     1       0.536  -2.018  -3.410  1.00  0.00     0.092 A 
ATOM     18  N   UNL     1       1.091   0.006  -2.849  1.00  0.00    -0.258 N 
ATOM     19  N   UNL     1       1.786  -0.196  -3.986  1.00  0.00    -0.178 NA
ATOM     20  C   UNL     1       0.065  -0.909  -2.671  1.00  0.00     0.150 A 
ATOM     21  C   UNL     1       1.479  -1.446  -4.303  1.00  0.00     0.162 A 
BRANCH  18  22
ATOM     22  C   UNL     1       1.623   1.021  -1.964  1.00  0.00     0.142 C 
ATOM     23  C   UNL     1       2.429   0.433  -0.815  1.00  0.00     0.029 C 
ENDBRANCH  18  22
BRANCH  20  24
ATOM     24  C   UNL     1      -1.203  -0.740  -1.933  1.00  0.00     0.276 C 
ATOM     25  O   UNL     1      -2.251  -1.240  -2.347  1.00  0.00    -0.267 OA
ATOM     26  N   UNL     1      -1.165  -0.370  -0.590  1.00  0.00    -0.318 N 
ATOM     27  H   UNL     1      -1.288  -1.098   0.061  1.00  0.00     0.170 HD
BRANCH  26  28
ATOM     28  C   UNL     1      -0.978   0.885  -0.060  1.00  0.00     0.082 A 
ATOM     29  C   UNL     1      -1.312   2.135  -0.612  1.00  0.00     0.161 A 
ATOM     30  C   UNL     1      -0.436   1.172   1.183  1.00  0.00     0.059 A 
ATOM     31  N   UNL     1      -0.841   3.143   0.122  1.00  0.00    -0.179 NA
ATOM     32  N   UNL     1      -0.218   2.530   1.147  1.00  0.00    -0.271 N 
ATOM     33  C   UNL     1       0.039   0.339   2.320  1.00  0.00     0.068 C 
ATOM     34  C   UNL     1       0.729   3.290   1.932  1.00  0.00     0.174 C 
ENDBRANCH  26  28
ENDBRANCH  20  24
ENDBRANCH  14  17
ENDBRANCH   8  13
ENDBRANCH   4   7
ENDBRANCH   2   3
ENDBRANCH   1   2
BRANCH   1  35
ATOM     35  C   UNL     1       4.363  -8.709  -1.252  1.00  0.00     0.002 C 
BRANCH  35  36
ATOM     36  C   UNL     1       5.235  -9.033  -0.026  1.00  0.00     0.002 C 
BRANCH  36  37
ATOM     37  C   UNL     1       4.769 -10.200   0.858  1.00  0.00     0.021 C 
BRANCH  37  38
ATOM     38  C   UNL     1       4.735 -11.524   0.130  1.00  0.00     0.116 C 
BRANCH  38  39
ATOM     39  N   UNL     1       6.072 -11.984  -0.241  1.00  0.00    -0.352 N 
ATOM     40  C   UNL     1       6.405 -13.105  -0.981  1.00  0.00     0.251 C 
ATOM     41  H   UNL     1       6.824 -11.431   0.072  1.00  0.00     0.163 HD
ATOM     42  O   UNL     1       7.510 -13.611  -0.923  1.00  0.00    -0.269 OA
BRANCH  40  43
ATOM     43  C   UNL     1       5.365 -13.657  -1.863  1.00  0.00     0.039 A 
ATOM     44  C   UNL     1       5.123 -15.025  -1.981  1.00  0.00     0.014 A 
ATOM     45  C   UNL     1       4.566 -12.728  -2.518  1.00  0.00     0.014 A 
ATOM     46  C   UNL     1       4.024 -15.433  -2.733  1.00  0.00     0.010 A 
ATOM     47  C   UNL     1       3.352 -13.117  -2.995  1.00  0.00     0.010 A 
ATOM     48  C   UNL     1       3.138 -14.461  -3.230  1.00  0.00    -0.014 A 
BRANCH  48  49
ATOM     49  C   UNL     1       1.952 -14.805  -3.995  1.00  0.00     0.031 A 
ATOM     50  C   UNL     1       1.060 -15.799  -3.350  1.00  0.00     0.074 A 
ATOM     51  C   UNL     1       1.604 -14.140  -5.121  1.00  0.00     0.049 A 
ATOM     52  N   UNL     1       0.833 -17.010  -3.733  1.00  0.00    -0.248 NA
ATOM     53  C   UNL     1       0.458 -15.461  -2.051  1.00  0.00     0.031 C 
ATOM     54  C   UNL     1       2.203 -12.942  -5.732  1.00  0.00     0.029 A 
ATOM     55  N   UNL     1       0.551 -14.382  -5.942  1.00  0.00    -0.354 N 
ATOM     56  C   UNL     1      -0.072 -17.546  -2.823  1.00  0.00     0.074 A 
ATOM     57  C   UNL     1      -0.151 -16.606  -1.734  1.00  0.00     0.031 C 
ATOM     58  C   UNL     1       1.374 -12.441  -6.675  1.00  0.00     0.029 A 
ATOM     59  C   UNL     1       0.294 -13.384  -6.874  1.00  0.00     0.049 A 
ATOM     60  H   UNL     1       0.011 -15.203  -5.883  1.00  0.00     0.167 HD
ATOM     61  C   UNL     1      -0.827 -18.632  -3.147  1.00  0.00     0.037 A 
ATOM     62  C   UNL     1      -0.747 -13.350  -7.741  1.00  0.00     0.037 A 
ATOM     63  C   UNL     1      -0.292 -19.301  -4.307  1.00  0.00     0.049 A 
ATOM     64  C   UNL     1      -1.245 -14.744  -7.865  1.00  0.00     0.074 A 
ATOM     65  C   UNL     1       0.893 -19.959  -4.575  1.00  0.00     0.029 A 
ATOM     66  N   UNL     1      -0.834 -18.997  -5.533  1.00  0.00    -0.354 N 
ATOM     67  N   UNL     1      -0.550 -15.708  -8.407  1.00  0.00    -0.248 NA
ATOM     68  C   UNL     1      -2.286 -15.164  -6.939  1.00  0.00     0.031 C 
ATOM     69  C   UNL     1       1.238 -19.564  -5.902  1.00  0.00     0.029 A 
ATOM     70  C   UNL     1       0.207 -18.760  -6.394  1.00  0.00     0.049 A 
ATOM     71  H   UNL     1      -1.793 -18.958  -5.752  1.00  0.00     0.167 HD
ATOM     72  C   UNL     1      -0.774 -16.808  -7.591  1.00  0.00     0.074 A 
ATOM     73  C   UNL     1      -1.898 -16.427  -6.737  1.00  0.00     0.031 C 
ATOM     74  C   UNL     1       0.151 -17.807  -7.479  1.00  0.00     0.037 A 
BRANCH  61  75
ATOM     75  C   UNL     1      -2.221 -18.902  -2.643  1.00  0.00     0.064 A 
ATOM     76  C   UNL     1      -2.838 -20.130  -2.960  1.00  0.00     0.173 A 
ATOM     77  C   UNL     1      -3.076 -17.905  -2.129  1.00  0.00     0.173 A 
ATOM     78  F   UNL     1      -2.122 -21.148  -3.460  1.00  0.00    -0.203 F 
ATOM     79  C   UNL     1      -4.220 -20.309  -2.857  1.00  0.00     0.198 A 
ATOM     80  C   UNL     1      -4.448 -18.106  -1.980  1.00  0.00     0.198 A 
ATOM     81  F   UNL     1      -2.647 -16.668  -1.857  1.00  0.00    -0.203 F 
ATOM     82  F   UNL     1      -4.777 -21.448  -3.290  1.00  0.00    -0.200 F 
ATOM     83  C   UNL     1      -5.025 -19.294  -2.376  1.00  0.00     0.200 A 
ATOM     84  F   UNL     1      -5.213 -17.104  -1.525  1.00  0.00    -0.200 F 
ATOM     85  F   UNL     1      -6.355 -19.439  -2.338  1.00  0.00    -0.200 F 
ENDBRANCH  61  75
BRANCH  62  86
ATOM     86  C   UNL     1      -1.546 -12.172  -8.152  1.00  0.00     0.064 A 
ATOM     87  C   UNL     1      -2.369 -12.212  -9.287  1.00  0.00     0.173 A 
ATOM     88  C   UNL     1      -1.740 -11.088  -7.272  1.00  0.00     0.173 A 
ATOM     89  F   UNL     1      -2.278 -13.236 -10.147  1.00  0.00    -0.203 F 
ATOM     90  C   UNL     1      -3.349 -11.239  -9.517  1.00  0.00     0.198 A 
ATOM     91  C   UNL     1      -2.718 -10.118  -7.502  1.00  0.00     0.198 A 
ATOM     92  F   UNL     1      -1.054 -11.007  -6.123  1.00  0.00    -0.203 F 
ATOM     93  F   UNL     1      -4.159 -11.342 -10.580  1.00  0.00    -0.200 F 
ATOM     94  C   UNL     1      -3.530 -10.200  -8.618  1.00  0.00     0.200 A 
ATOM     95  F   UNL     1      -2.913  -9.143  -6.602  1.00  0.00    -0.200 F 
ATOM     96  F   UNL     1      -4.513  -9.307  -8.802  1.00  0.00    -0.200 F 
ENDBRANCH  62  86
BRANCH  74  97
ATOM     97  C   UNL     1       1.326 -17.792  -8.419  1.00  0.00     0.064 A 
ATOM     98  C   UNL     1       2.324 -16.801  -8.420  1.00  0.00     0.173 A 
ATOM     99  C   UNL     1       1.541 -18.917  -9.225  1.00  0.00     0.173 A 
ATOM    100  F   UNL     1       2.242 -15.739  -7.612  1.00  0.00    -0.203 F 
ATOM    101  C   UNL     1       3.468 -16.922  -9.211  1.00  0.00     0.198 A 
ATOM    102  C   UNL     1       2.699 -19.052  -9.987  1.00  0.00     0.198 A 
ATOM    103  F   UNL     1       0.650 -19.921  -9.224  1.00  0.00    -0.203 F 
ATOM    104  F   UNL     1       4.406 -15.962  -9.190  1.00  0.00    -0.200 F 
ATOM    105  C   UNL     1       3.658 -18.053  -9.986  1.00  0.00     0.200 A 
ATOM    106  F   UNL     1       2.900 -20.171 -10.696  1.00  0.00    -0.200 F 
ATOM    107  F   UNL     1       4.778 -18.194 -10.708  1.00  0.00    -0.200 F 
ENDBRANCH  74  97
ENDBRANCH  48  49
ENDBRANCH  40  43
ENDBRANCH  38  39
ENDBRANCH  37  38
ENDBRANCH  36  37
ENDBRANCH  35  36
ENDBRANCH   1  35
TORSDOF 18
