REMARK SMILES Cc1cc2nc(SCC(=O)NCCCCCCNC(=O)c3ccc(-c4c5nc(c(-c6c(F)c(F)c(F)c(F)c6F)c6ccc([nH]6)c(-c6c(F)c(F)c(F)c(F)c6F)c6nc(c(-c7c(F)c(F)c(F)c(F)c7F)c7ccc4[nH]7)C=C6)C=C5)cc3)[nH]c(=O)c2[nH]1
REMARK SMILES IDX 14 1 13 2 12 3 11 4 9 5 10 6 8 8 7 9 6 10 1 11 2 12 3 13
REMARK SMILES IDX 88 14 4 15 87 16 5 18 85 19 84 20 86 21 15 23 16 24 17 25
REMARK SMILES IDX 18 26 19 27 20 29 21 30 22 31 83 32 23 33 82 34 24 35 25 36
REMARK SMILES IDX 26 37 76 38 27 39 81 40 75 41 77 42 28 43 80 44 74 45 73 46
REMARK SMILES IDX 29 48 61 49 41 50 60 51 42 52 45 53 59 54 78 55 43 56 44 57
REMARK SMILES IDX 58 59 79 60 46 61 30 62 31 63 39 64 32 65 33 66 37 67 40 68
REMARK SMILES IDX 34 69 35 70 38 71 36 72 62 73 63 74 71 75 64 76 65 77 69 78
REMARK SMILES IDX 72 79 66 80 67 81 70 82 68 83 47 84 48 85 56 86 49 87 50 88
REMARK SMILES IDX 54 89 57 90 51 91 52 92 55 93 53 94
REMARK H PARENT 11 7 88 17 84 22 18 28 77 47 45 58
REMARK Flexibility Score: inf
ROOT
ATOM      1  C   UNL     1      -7.055   2.563   3.448  1.00  0.00     0.002 C 
ENDROOT
BRANCH   1   2
ATOM      2  C   UNL     1      -5.963   3.115   4.375  1.00  0.00     0.021 C 
BRANCH   2   3
ATOM      3  C   UNL     1      -6.148   2.736   5.847  1.00  0.00     0.116 C 
BRANCH   3   4
ATOM      4  N   UNL     1      -6.005   1.302   6.019  1.00  0.00    -0.355 N 
ATOM      5  C   UNL     1      -4.980   0.613   6.586  1.00  0.00     0.230 C 
ATOM      6  O   UNL     1      -4.892  -0.602   6.390  1.00  0.00    -0.274 OA
ATOM      7  H   UNL     1      -6.750   0.756   5.680  1.00  0.00     0.163 HD
BRANCH   5   8
ATOM      8  C   UNL     1      -3.969   1.305   7.466  1.00  0.00     0.178 C 
BRANCH   8   9
ATOM      9  S   UNL     1      -2.751   2.268   6.576  1.00  0.00    -0.078 SA
BRANCH   9  10
ATOM     10  C   UNL     1      -2.050   1.257   5.339  1.00  0.00     0.169 A 
ATOM     11  C   UNL     1       1.008   0.052   0.420  1.00  0.00     0.064 C 
ATOM     12  C   UNL     1       0.284   0.259   1.698  1.00  0.00     0.014 A 
ATOM     13  C   UNL     1       0.015   1.428   2.396  1.00  0.00     0.052 A 
ATOM     14  N   UNL     1      -0.272  -0.791   2.406  1.00  0.00    -0.353 N 
ATOM     15  C   UNL     1      -0.765   1.058   3.497  1.00  0.00     0.097 A 
ATOM     16  C   UNL     1      -0.942  -0.292   3.487  1.00  0.00     0.131 A 
ATOM     17  H   UNL     1      -0.197  -1.744   2.168  1.00  0.00     0.166 HD
ATOM     18  N   UNL     1      -1.327   1.887   4.461  1.00  0.00    -0.222 NA
ATOM     19  C   UNL     1      -1.725  -0.975   4.462  1.00  0.00     0.275 A 
ATOM     20  N   UNL     1      -2.272  -0.101   5.379  1.00  0.00    -0.300 N 
ATOM     21  O   UNL     1      -1.905  -2.178   4.496  1.00  0.00    -0.267 OA
ATOM     22  H   UNL     1      -2.846  -0.464   6.091  1.00  0.00     0.172 HD
ENDBRANCH   9  10
ENDBRANCH   8   9
ENDBRANCH   5   8
ENDBRANCH   3   4
ENDBRANCH   2   3
ENDBRANCH   1   2
BRANCH   1  23
ATOM     23  C   UNL     1      -8.500   2.899   3.852  1.00  0.00     0.002 C 
BRANCH  23  24
ATOM     24  C   UNL     1      -8.815   4.389   4.046  1.00  0.00     0.021 C 
BRANCH  24  25
ATOM     25  C   UNL     1      -8.707   5.188   2.763  1.00  0.00     0.116 C 
BRANCH  25  26
ATOM     26  N   UNL     1      -9.741   4.826   1.789  1.00  0.00    -0.352 N 
ATOM     27  C   UNL     1     -10.025   5.433   0.582  1.00  0.00     0.251 C 
ATOM     28  H   UNL     1     -10.303   4.053   2.026  1.00  0.00     0.163 HD
ATOM     29  O   UNL     1     -11.103   5.271   0.024  1.00  0.00    -0.269 OA
BRANCH  27  30
ATOM     30  C   UNL     1      -8.977   6.253  -0.046  1.00  0.00     0.039 A 
ATOM     31  C   UNL     1      -9.262   7.399  -0.794  1.00  0.00     0.014 A 
ATOM     32  C   UNL     1      -7.665   5.820   0.120  1.00  0.00     0.014 A 
ATOM     33  C   UNL     1      -8.200   8.082  -1.379  1.00  0.00     0.010 A 
ATOM     34  C   UNL     1      -6.628   6.630  -0.218  1.00  0.00     0.010 A 
ATOM     35  C   UNL     1      -6.893   7.661  -1.098  1.00  0.00    -0.014 A 
BRANCH  35  36
ATOM     36  C   UNL     1      -5.723   8.256  -1.705  1.00  0.00     0.031 A 
ATOM     37  C   UNL     1      -5.441   9.631  -1.244  1.00  0.00     0.074 A 
ATOM     38  C   UNL     1      -4.849   7.511  -2.418  1.00  0.00     0.049 A 
ATOM     39  N   UNL     1      -5.536  10.718  -1.929  1.00  0.00    -0.248 NA
ATOM     40  C   UNL     1      -5.179   9.844   0.189  1.00  0.00     0.031 C 
ATOM     41  C   UNL     1      -4.835   6.060  -2.659  1.00  0.00     0.029 A 
ATOM     42  N   UNL     1      -3.711   7.919  -3.035  1.00  0.00    -0.354 N 
ATOM     43  C   UNL     1      -5.165  11.743  -1.068  1.00  0.00     0.074 A 
ATOM     44  C   UNL     1      -5.145  11.176   0.255  1.00  0.00     0.031 C 
ATOM     45  C   UNL     1      -3.644   5.695  -3.189  1.00  0.00     0.029 A 
ATOM     46  C   UNL     1      -2.880   6.893  -3.474  1.00  0.00     0.049 A 
ATOM     47  H   UNL     1      -3.490   8.870  -3.162  1.00  0.00     0.167 HD
ATOM     48  C   UNL     1      -4.678  12.918  -1.552  1.00  0.00     0.037 A 
ATOM     49  C   UNL     1      -1.638   7.058  -3.999  1.00  0.00     0.037 A 
ATOM     50  C   UNL     1      -4.944  13.043  -2.964  1.00  0.00     0.049 A 
ATOM     51  C   UNL     1      -1.559   8.471  -4.464  1.00  0.00     0.074 A 
ATOM     52  C   UNL     1      -6.095  13.132  -3.723  1.00  0.00     0.029 A 
ATOM     53  N   UNL     1      -3.952  12.664  -3.836  1.00  0.00    -0.354 N 
ATOM     54  N   UNL     1      -2.283   8.948  -5.440  1.00  0.00    -0.248 NA
ATOM     55  C   UNL     1      -1.060   9.454  -3.513  1.00  0.00     0.031 C 
ATOM     56  C   UNL     1      -5.838  12.334  -4.878  1.00  0.00     0.029 A 
ATOM     57  C   UNL     1      -4.523  11.869  -4.800  1.00  0.00     0.049 A 
ATOM     58  H   UNL     1      -3.002  12.916  -3.780  1.00  0.00     0.167 HD
ATOM     59  C   UNL     1      -2.678  10.207  -5.008  1.00  0.00     0.074 A 
ATOM     60  C   UNL     1      -1.852  10.481  -3.832  1.00  0.00     0.031 C 
ATOM     61  C   UNL     1      -3.835  10.779  -5.454  1.00  0.00     0.037 A 
BRANCH  48  62
ATOM     62  C   UNL     1      -3.674  13.785  -0.843  1.00  0.00     0.064 A 
ATOM     63  C   UNL     1      -3.389  15.065  -1.354  1.00  0.00     0.173 A 
ATOM     64  C   UNL     1      -2.784  13.312   0.146  1.00  0.00     0.173 A 
ATOM     65  F   UNL     1      -4.158  15.604  -2.313  1.00  0.00    -0.203 F 
ATOM     66  C   UNL     1      -2.262  15.787  -0.953  1.00  0.00     0.198 A 
ATOM     67  C   UNL     1      -1.692  14.058   0.585  1.00  0.00     0.198 A 
ATOM     68  F   UNL     1      -2.864  12.073   0.645  1.00  0.00    -0.203 F 
ATOM     69  F   UNL     1      -1.968  16.948  -1.552  1.00  0.00    -0.200 F 
ATOM     70  C   UNL     1      -1.413  15.281   0.014  1.00  0.00     0.200 A 
ATOM     71  F   UNL     1      -0.870  13.541   1.509  1.00  0.00    -0.200 F 
ATOM     72  F   UNL     1      -0.303  15.945   0.362  1.00  0.00    -0.200 F 
ENDBRANCH  48  62
BRANCH  49  73
ATOM     73  C   UNL     1      -0.419   6.250  -3.729  1.00  0.00     0.064 A 
ATOM     74  C   UNL     1       0.738   6.406  -4.513  1.00  0.00     0.173 A 
ATOM     75  C   UNL     1      -0.259   5.550  -2.517  1.00  0.00     0.173 A 
ATOM     76  F   UNL     1       0.684   7.095  -5.662  1.00  0.00    -0.203 F 
ATOM     77  C   UNL     1       1.984   5.927  -4.091  1.00  0.00     0.198 A 
ATOM     78  C   UNL     1       0.984   5.071  -2.097  1.00  0.00     0.198 A 
ATOM     79  F   UNL     1      -1.286   5.407  -1.667  1.00  0.00    -0.203 F 
ATOM     80  F   UNL     1       3.077   6.155  -4.834  1.00  0.00    -0.200 F 
ATOM     81  C   UNL     1       2.109   5.274  -2.876  1.00  0.00     0.200 A 
ATOM     82  F   UNL     1       1.098   4.473  -0.903  1.00  0.00    -0.200 F 
ATOM     83  F   UNL     1       3.312   4.878  -2.437  1.00  0.00    -0.200 F 
ENDBRANCH  49  73
BRANCH  61  84
ATOM     84  C   UNL     1      -4.567  10.097  -6.582  1.00  0.00     0.064 A 
ATOM     85  C   UNL     1      -5.160   8.824  -6.484  1.00  0.00     0.173 A 
ATOM     86  C   UNL     1      -4.820  10.829  -7.748  1.00  0.00     0.173 A 
ATOM     87  F   UNL     1      -5.047   8.095  -5.369  1.00  0.00    -0.203 F 
ATOM     88  C   UNL     1      -5.941   8.302  -7.516  1.00  0.00     0.198 A 
ATOM     89  C   UNL     1      -5.628  10.321  -8.763  1.00  0.00     0.198 A 
ATOM     90  F   UNL     1      -4.328  12.070  -7.879  1.00  0.00    -0.203 F 
ATOM     91  F   UNL     1      -6.493   7.085  -7.394  1.00  0.00    -0.200 F 
ATOM     92  C   UNL     1      -6.182   9.056  -8.651  1.00  0.00     0.200 A 
ATOM     93  F   UNL     1      -5.898  11.075  -9.837  1.00  0.00    -0.200 F 
ATOM     94  F   UNL     1      -6.970   8.576  -9.624  1.00  0.00    -0.200 F 
ENDBRANCH  61  84
ENDBRANCH  35  36
ENDBRANCH  27  30
ENDBRANCH  25  26
ENDBRANCH  24  25
ENDBRANCH  23  24
ENDBRANCH   1  23
TORSDOF 15
