REMARK SMILES C[NH2+][C@]1(C(=O)NCCCCCCNC(=O)c2ccc(-c3c4nc(c(-c5c(F)c(F)c(F)c(F)c5F)c5ccc([nH]5)c(-c5c(F)c(F)c(F)c(F)c5F)c5nc(c(-c6c(F)c(F)c(F)c(F)c6F)c6ccc3[nH]6)C=C5)C=C4)cc2)CCC[C@@H]1CCn1nc(C)c(Cl)c1C
REMARK SMILES IDX 9 1 8 2 7 3 6 4 4 5 5 6 3 8 79 9 82 10 80 11 81 12 2 13 1 14
REMARK SMILES IDX 83 17 84 18 85 19 86 20 91 21 87 22 89 23 92 24 88 25 90 26
REMARK SMILES IDX 10 27 11 28 12 29 13 30 14 31 15 33 16 34 17 35 78 36 18 37
REMARK SMILES IDX 77 38 19 39 20 40 21 41 71 42 22 43 76 44 70 45 72 46 23 47
REMARK SMILES IDX 75 48 69 49 68 50 24 52 56 53 36 54 55 55 37 56 40 57 54 58
REMARK SMILES IDX 73 59 38 60 39 61 53 63 74 64 41 65 25 66 26 67 34 68 27 69
REMARK SMILES IDX 28 70 32 71 35 72 29 73 30 74 33 75 31 76 57 77 58 78 66 79
REMARK SMILES IDX 59 80 60 81 64 82 67 83 61 84 62 85 65 86 63 87 42 88 43 89
REMARK SMILES IDX 51 90 44 91 45 92 49 93 52 94 46 95 47 96 50 97 48 98
REMARK H PARENT 6 7 2 15 2 16 13 32 72 51 40 62
REMARK Flexibility Score: inf
ROOT
ATOM      1  C   UNL     1       2.685   2.881  -4.035  1.00  0.00     0.002 C 
ENDROOT
BRANCH   1   2
ATOM      2  C   UNL     1       1.177   2.850  -3.765  1.00  0.00     0.021 C 
BRANCH   2   3
ATOM      3  C   UNL     1       0.682   1.490  -3.289  1.00  0.00     0.116 C 
BRANCH   3   4
ATOM      4  N   UNL     1       1.155   1.216  -1.948  1.00  0.00    -0.351 N 
ATOM      5  C   UNL     1       0.531   1.121  -0.746  1.00  0.00     0.281 C 
ATOM      6  O   UNL     1       1.269   0.880   0.218  1.00  0.00    -0.268 OA
ATOM      7  H   UNL     1       2.127   1.068  -1.897  1.00  0.00     0.163 HD
BRANCH   5   8
ATOM      8  C   UNL     1      -1.025   1.173  -0.580  1.00  0.00     0.178 C 
ATOM      9  C   UNL     1      -1.770   2.347  -1.242  1.00  0.00     0.079 C 
ATOM     10  C   UNL     1      -1.620  -0.050  -1.346  1.00  0.00     0.062 C 
ATOM     11  C   UNL     1      -3.169   1.821  -1.574  1.00  0.00     0.008 C 
ATOM     12  C   UNL     1      -3.099   0.293  -1.534  1.00  0.00     0.011 C 
BRANCH   8  13
ATOM     13  N   UNL     1      -1.396   1.076   0.868  1.00  0.00    -0.336 N 
ATOM     14  C   UNL     1      -1.014   2.242   1.669  1.00  0.00     0.331 C 
ATOM     15  H   UNL     1      -2.408   0.963   0.931  1.00  0.00     0.346 HD
ATOM     16  H   UNL     1      -0.883   0.281   1.248  1.00  0.00     0.346 HD
ENDBRANCH   8  13
BRANCH  10  17
ATOM     17  C   UNL     1      -1.355  -1.432  -0.718  1.00  0.00     0.034 C 
BRANCH  17  18
ATOM     18  C   UNL     1      -1.439  -2.600  -1.711  1.00  0.00     0.145 C 
BRANCH  18  19
ATOM     19  N   UNL     1      -0.383  -2.604  -2.716  1.00  0.00    -0.268 N 
ATOM     20  N   UNL     1       0.811  -3.141  -2.383  1.00  0.00    -0.176 NA
ATOM     21  C   UNL     1      -0.427  -2.157  -4.016  1.00  0.00     0.054 A 
ATOM     22  C   UNL     1       1.555  -3.026  -3.491  1.00  0.00     0.078 A 
ATOM     23  C   UNL     1       0.833  -2.395  -4.527  1.00  0.00     0.084 A 
ATOM     24  C   UNL     1      -1.605  -1.540  -4.674  1.00  0.00     0.068 C 
ATOM     25  C   UNL     1       2.943  -3.552  -3.509  1.00  0.00     0.070 C 
ATOM     26  Cl  UNL     1       1.402  -2.019  -6.082  1.00  0.00    -0.080 Cl
ENDBRANCH  18  19
ENDBRANCH  17  18
ENDBRANCH  10  17
ENDBRANCH   5   8
ENDBRANCH   3   4
ENDBRANCH   2   3
ENDBRANCH   1   2
BRANCH   1  27
ATOM     27  C   UNL     1       3.177   1.831  -5.038  1.00  0.00     0.002 C 
BRANCH  27  28
ATOM     28  C   UNL     1       2.436   1.828  -6.377  1.00  0.00     0.021 C 
BRANCH  28  29
ATOM     29  C   UNL     1       2.476   3.161  -7.114  1.00  0.00     0.116 C 
BRANCH  29  30
ATOM     30  N   UNL     1       3.834   3.545  -7.462  1.00  0.00    -0.352 N 
ATOM     31  C   UNL     1       4.354   3.868  -8.687  1.00  0.00     0.251 C 
ATOM     32  H   UNL     1       4.471   3.576  -6.712  1.00  0.00     0.163 HD
ATOM     33  O   UNL     1       5.570   3.954  -8.845  1.00  0.00    -0.269 OA
BRANCH  31  34
ATOM     34  C   UNL     1       3.446   4.100  -9.827  1.00  0.00     0.039 A 
ATOM     35  C   UNL     1       3.757   3.535 -11.066  1.00  0.00     0.014 A 
ATOM     36  C   UNL     1       2.293   4.876  -9.674  1.00  0.00     0.014 A 
ATOM     37  C   UNL     1       2.883   3.707 -12.140  1.00  0.00     0.010 A 
ATOM     38  C   UNL     1       1.386   4.981 -10.723  1.00  0.00     0.010 A 
ATOM     39  C   UNL     1       1.675   4.404 -11.968  1.00  0.00    -0.014 A 
BRANCH  39  40
ATOM     40  C   UNL     1       0.705   4.542 -13.083  1.00  0.00     0.031 A 
ATOM     41  C   UNL     1       0.377   5.901 -13.635  1.00  0.00     0.074 A 
ATOM     42  C   UNL     1       0.077   3.449 -13.556  1.00  0.00     0.049 A 
ATOM     43  N   UNL     1      -0.485   6.232 -14.563  1.00  0.00    -0.248 NA
ATOM     44  C   UNL     1       1.094   7.044 -13.047  1.00  0.00     0.031 C 
ATOM     45  C   UNL     1       0.277   2.083 -13.070  1.00  0.00     0.029 A 
ATOM     46  N   UNL     1      -0.865   3.315 -14.545  1.00  0.00    -0.354 N 
ATOM     47  C   UNL     1      -0.421   7.616 -14.661  1.00  0.00     0.074 A 
ATOM     48  C   UNL     1       0.518   8.069 -13.658  1.00  0.00     0.031 C 
ATOM     49  C   UNL     1      -0.499   1.246 -13.778  1.00  0.00     0.029 A 
ATOM     50  C   UNL     1      -1.281   2.020 -14.737  1.00  0.00     0.049 A 
ATOM     51  H   UNL     1      -1.209   4.074 -15.068  1.00  0.00     0.167 HD
ATOM     52  C   UNL     1      -1.070   8.432 -15.525  1.00  0.00     0.037 A 
ATOM     53  C   UNL     1      -2.199   1.516 -15.584  1.00  0.00     0.037 A 
ATOM     54  C   UNL     1      -1.990   7.973 -16.532  1.00  0.00     0.049 A 
ATOM     55  C   UNL     1      -2.919   2.447 -16.522  1.00  0.00     0.074 A 
ATOM     56  C   UNL     1      -2.656   8.713 -17.494  1.00  0.00     0.029 A 
ATOM     57  N   UNL     1      -2.381   6.653 -16.703  1.00  0.00    -0.354 N 
ATOM     58  N   UNL     1      -2.798   3.746 -16.655  1.00  0.00    -0.248 NA
ATOM     59  C   UNL     1      -3.899   1.841 -17.433  1.00  0.00     0.031 C 
ATOM     60  C   UNL     1      -3.492   7.849 -18.209  1.00  0.00     0.029 A 
ATOM     61  C   UNL     1      -3.300   6.561 -17.736  1.00  0.00     0.049 A 
ATOM     62  H   UNL     1      -2.053   5.893 -16.169  1.00  0.00     0.167 HD
ATOM     63  C   UNL     1      -3.660   4.107 -17.682  1.00  0.00     0.074 A 
ATOM     64  C   UNL     1      -4.286   2.887 -18.148  1.00  0.00     0.031 C 
ATOM     65  C   UNL     1      -3.910   5.338 -18.193  1.00  0.00     0.037 A 
BRANCH  52  66
ATOM     66  C   UNL     1      -0.809   9.908 -15.418  1.00  0.00     0.064 A 
ATOM     67  C   UNL     1       0.434  10.465 -15.755  1.00  0.00     0.173 A 
ATOM     68  C   UNL     1      -1.827  10.783 -15.007  1.00  0.00     0.173 A 
ATOM     69  F   UNL     1       1.446   9.674 -16.144  1.00  0.00    -0.203 F 
ATOM     70  C   UNL     1       0.659  11.836 -15.654  1.00  0.00     0.198 A 
ATOM     71  C   UNL     1      -1.609  12.157 -14.940  1.00  0.00     0.198 A 
ATOM     72  F   UNL     1      -3.037  10.307 -14.678  1.00  0.00    -0.203 F 
ATOM     73  F   UNL     1       1.871  12.337 -15.930  1.00  0.00    -0.200 F 
ATOM     74  C   UNL     1      -0.365  12.681 -15.255  1.00  0.00     0.200 A 
ATOM     75  F   UNL     1      -2.605  12.974 -14.569  1.00  0.00    -0.200 F 
ATOM     76  F   UNL     1      -0.150  14.001 -15.167  1.00  0.00    -0.200 F 
ENDBRANCH  52  66
BRANCH  53  77
ATOM     77  C   UNL     1      -2.475   0.055 -15.597  1.00  0.00     0.064 A 
ATOM     78  C   UNL     1      -2.124  -0.736 -16.700  1.00  0.00     0.173 A 
ATOM     79  C   UNL     1      -3.103  -0.579 -14.515  1.00  0.00     0.173 A 
ATOM     80  F   UNL     1      -1.539  -0.172 -17.768  1.00  0.00    -0.203 F 
ATOM     81  C   UNL     1      -2.412  -2.099 -16.731  1.00  0.00     0.198 A 
ATOM     82  C   UNL     1      -3.362  -1.948 -14.534  1.00  0.00     0.198 A 
ATOM     83  F   UNL     1      -3.455   0.130 -13.432  1.00  0.00    -0.203 F 
ATOM     84  F   UNL     1      -2.112  -2.820 -17.820  1.00  0.00    -0.200 F 
ATOM     85  C   UNL     1      -3.025  -2.705 -15.646  1.00  0.00     0.200 A 
ATOM     86  F   UNL     1      -3.939  -2.533 -13.475  1.00  0.00    -0.200 F 
ATOM     87  F   UNL     1      -3.300  -4.016 -15.674  1.00  0.00    -0.200 F 
ENDBRANCH  53  77
BRANCH  65  88
ATOM     88  C   UNL     1      -4.873   5.424 -19.343  1.00  0.00     0.064 A 
ATOM     89  C   UNL     1      -6.248   5.202 -19.174  1.00  0.00     0.173 A 
ATOM     90  C   UNL     1      -4.417   5.773 -20.624  1.00  0.00     0.173 A 
ATOM     91  F   UNL     1      -6.733   4.852 -17.974  1.00  0.00    -0.203 F 
ATOM     92  C   UNL     1      -7.126   5.298 -20.251  1.00  0.00     0.198 A 
ATOM     93  C   UNL     1      -5.302   5.902 -21.690  1.00  0.00     0.198 A 
ATOM     94  F   UNL     1      -3.113   6.003 -20.839  1.00  0.00    -0.203 F 
ATOM     95  F   UNL     1      -8.427   5.029 -20.078  1.00  0.00    -0.200 F 
ATOM     96  C   UNL     1      -6.654   5.656 -21.505  1.00  0.00     0.200 A 
ATOM     97  F   UNL     1      -4.846   6.264 -22.897  1.00  0.00    -0.200 F 
ATOM     98  F   UNL     1      -7.502   5.756 -22.538  1.00  0.00    -0.200 F 
ENDBRANCH  65  88
ENDBRANCH  39  40
ENDBRANCH  31  34
ENDBRANCH  29  30
ENDBRANCH  28  29
ENDBRANCH  27  28
ENDBRANCH   1  27
TORSDOF 17
