REMARK SMILES N#Cc1ccc(Cl)cc1NC(=O)Cn1nc(C(=O)NCCCCCCNC(=O)c2ccc(-c3c4nc(c(-c5c(F)c(F)c(F)c(F)c5F)c5ccc([nH]5)c(-c5c(F)c(F)c(F)c(F)c5F)c5nc(c(-c6c(F)c(F)c(F)c(F)c6F)c6ccc3[nH]6)C=C5)C=C4)cc2)c2ccccc2c1=O
REMARK SMILES IDX 21 1 20 2 19 3 17 4 18 5 16 7 14 8 15 9 98 10 97 11 99 12
REMARK SMILES IDX 92 13 96 14 93 15 95 16 94 17 13 18 11 19 10 20 12 22 9 23
REMARK SMILES IDX 3 24 4 25 5 26 8 27 6 28 7 29 2 30 1 31 22 32 23 33 24 34
REMARK SMILES IDX 25 35 26 36 27 37 28 39 29 40 30 41 91 42 31 43 90 44 32 45
REMARK SMILES IDX 33 46 34 47 84 48 35 49 89 50 83 51 85 52 36 53 88 54 82 55
REMARK SMILES IDX 81 56 37 58 69 59 49 60 68 61 50 62 53 63 67 64 86 65 51 66
REMARK SMILES IDX 52 67 66 69 87 70 54 71 38 72 39 73 47 74 40 75 41 76 45 77
REMARK SMILES IDX 48 78 42 79 43 80 46 81 44 82 70 83 71 84 79 85 72 86 73 87
REMARK SMILES IDX 77 88 80 89 74 90 75 91 78 92 76 93 55 94 56 95 64 96 57 97
REMARK SMILES IDX 58 98 62 99 65 100 59 101 60 102 63 103 61 104
REMARK H PARENT 19 6 10 21 26 38 85 57 53 68
REMARK Flexibility Score: inf
ROOT
ATOM      1  C   UNL     1       9.721  -1.730  -0.799  1.00  0.00     0.021 C 
ENDROOT
BRANCH   1   2
ATOM      2  C   UNL     1       8.478  -1.452  -1.637  1.00  0.00     0.116 C 
BRANCH   2   3
ATOM      3  N   UNL     1       8.502  -0.745  -2.907  1.00  0.00    -0.351 N 
ATOM      4  C   UNL     1       7.412  -0.643  -3.797  1.00  0.00     0.272 C 
ATOM      5  O   UNL     1       7.391   0.162  -4.718  1.00  0.00    -0.267 OA
ATOM      6  H   UNL     1       9.344  -0.304  -3.166  1.00  0.00     0.163 HD
BRANCH   4   7
ATOM      7  C   UNL     1       6.272  -1.673  -3.683  1.00  0.00     0.156 A 
ATOM      8  N   UNL     1       5.911  -3.338  -2.213  1.00  0.00    -0.219 N 
ATOM      9  N   UNL     1       5.854  -1.977  -2.497  1.00  0.00    -0.163 NA
ATOM     10  C   UNL     1       6.705  -4.196  -3.042  1.00  0.00     0.275 A 
ATOM     11  C   UNL     1       6.695  -3.834  -4.489  1.00  0.00     0.051 A 
ATOM     12  O   UNL     1       7.317  -5.184  -2.657  1.00  0.00    -0.267 OA
ATOM     13  C   UNL     1       6.090  -2.628  -4.766  1.00  0.00     0.020 A 
ATOM     14  C   UNL     1       6.866  -4.771  -5.500  1.00  0.00     0.014 A 
ATOM     15  C   UNL     1       5.204  -2.530  -5.829  1.00  0.00     0.011 A 
ATOM     16  C   UNL     1       6.119  -4.614  -6.669  1.00  0.00     0.001 A 
ATOM     17  C   UNL     1       5.198  -3.560  -6.773  1.00  0.00     0.001 A 
BRANCH   8  18
ATOM     18  C   UNL     1       5.690  -3.661  -0.808  1.00  0.00     0.248 C 
BRANCH  18  19
ATOM     19  C   UNL     1       4.274  -3.400  -0.311  1.00  0.00     0.246 C 
ATOM     20  N   UNL     1       3.687  -2.200  -0.033  1.00  0.00    -0.323 N 
ATOM     21  H   UNL     1       2.764  -2.338   0.283  1.00  0.00     0.170 HD
ATOM     22  O   UNL     1       3.534  -4.382  -0.130  1.00  0.00    -0.273 OA
BRANCH  20  23
ATOM     23  C   UNL     1       3.993  -0.811  -0.058  1.00  0.00     0.060 A 
ATOM     24  C   UNL     1       2.936   0.121   0.084  1.00  0.00     0.076 A 
ATOM     25  C   UNL     1       3.162   1.509   0.035  1.00  0.00     0.023 A 
ATOM     26  C   UNL     1       4.426   2.001  -0.236  1.00  0.00     0.022 A 
ATOM     27  C   UNL     1       5.267  -0.280  -0.241  1.00  0.00     0.048 A 
ATOM     28  C   UNL     1       5.464   1.105  -0.420  1.00  0.00     0.043 A 
ATOM     29  Cl  UNL     1       6.939   1.781  -0.998  1.00  0.00    -0.084 Cl
BRANCH  24  30
ATOM     30  C   UNL     1       1.571  -0.300   0.219  1.00  0.00     0.101 C 
ATOM     31  N   UNL     1       0.473  -0.651   0.310  1.00  0.00    -0.192 NA
ENDBRANCH  24  30
ENDBRANCH  20  23
ENDBRANCH  18  19
ENDBRANCH   8  18
ENDBRANCH   4   7
ENDBRANCH   2   3
ENDBRANCH   1   2
BRANCH   1  32
ATOM     32  C   UNL     1      10.226  -0.615   0.122  1.00  0.00     0.002 C 
BRANCH  32  33
ATOM     33  C   UNL     1       9.224   0.046   1.077  1.00  0.00     0.002 C 
BRANCH  33  34
ATOM     34  C   UNL     1       8.550  -0.804   2.146  1.00  0.00     0.021 C 
BRANCH  34  35
ATOM     35  C   UNL     1       9.483  -1.361   3.208  1.00  0.00     0.116 C 
BRANCH  35  36
ATOM     36  N   UNL     1      10.275  -0.338   3.883  1.00  0.00    -0.352 N 
ATOM     37  C   UNL     1      10.528  -0.148   5.223  1.00  0.00     0.251 C 
ATOM     38  H   UNL     1      10.695   0.322   3.285  1.00  0.00     0.163 HD
ATOM     39  O   UNL     1      11.121   0.856   5.604  1.00  0.00    -0.269 OA
BRANCH  37  40
ATOM     40  C   UNL     1      10.044  -1.139   6.206  1.00  0.00     0.039 A 
ATOM     41  C   UNL     1      10.089  -2.498   5.908  1.00  0.00     0.014 A 
ATOM     42  C   UNL     1       9.481  -0.706   7.410  1.00  0.00     0.014 A 
ATOM     43  C   UNL     1       9.351  -3.387   6.671  1.00  0.00     0.010 A 
ATOM     44  C   UNL     1       8.861  -1.631   8.256  1.00  0.00     0.010 A 
ATOM     45  C   UNL     1       8.724  -2.969   7.856  1.00  0.00    -0.014 A 
BRANCH  45  46
ATOM     46  C   UNL     1       7.914  -3.954   8.623  1.00  0.00     0.031 A 
ATOM     47  C   UNL     1       6.443  -3.728   8.858  1.00  0.00     0.074 A 
ATOM     48  C   UNL     1       8.492  -5.105   9.022  1.00  0.00     0.049 A 
ATOM     49  N   UNL     1       5.576  -4.505   9.461  1.00  0.00    -0.248 NA
ATOM     50  C   UNL     1       5.865  -2.469   8.362  1.00  0.00     0.031 C 
ATOM     51  C   UNL     1       9.905  -5.444   8.835  1.00  0.00     0.029 A 
ATOM     52  N   UNL     1       7.963  -6.219   9.622  1.00  0.00    -0.354 N 
ATOM     53  C   UNL     1       4.367  -3.822   9.432  1.00  0.00     0.074 A 
ATOM     54  C   UNL     1       4.615  -2.549   8.795  1.00  0.00     0.031 C 
ATOM     55  C   UNL     1      10.113  -6.706   9.234  1.00  0.00     0.029 A 
ATOM     56  C   UNL     1       8.873  -7.235   9.790  1.00  0.00     0.049 A 
ATOM     57  H   UNL     1       7.023  -6.285   9.906  1.00  0.00     0.167 HD
ATOM     58  C   UNL     1       3.155  -4.231   9.877  1.00  0.00     0.037 A 
ATOM     59  C   UNL     1       8.734  -8.453  10.346  1.00  0.00     0.037 A 
ATOM     60  C   UNL     1       2.907  -5.515  10.479  1.00  0.00     0.049 A 
ATOM     61  C   UNL     1       7.393  -8.853  10.890  1.00  0.00     0.074 A 
ATOM     62  C   UNL     1       1.708  -6.033  10.937  1.00  0.00     0.029 A 
ATOM     63  N   UNL     1       3.874  -6.484  10.704  1.00  0.00    -0.354 N 
ATOM     64  N   UNL     1       6.254  -8.206  10.836  1.00  0.00    -0.248 NA
ATOM     65  C   UNL     1       7.318 -10.144  11.586  1.00  0.00     0.031 C 
ATOM     66  C   UNL     1       1.960  -7.290  11.492  1.00  0.00     0.029 A 
ATOM     67  C   UNL     1       3.305  -7.581  11.330  1.00  0.00     0.049 A 
ATOM     68  H   UNL     1       4.823  -6.404  10.456  1.00  0.00     0.167 HD
ATOM     69  C   UNL     1       5.328  -9.010  11.484  1.00  0.00     0.074 A 
ATOM     70  C   UNL     1       6.030 -10.209  11.893  1.00  0.00     0.031 C 
ATOM     71  C   UNL     1       4.018  -8.768  11.730  1.00  0.00     0.037 A 
BRANCH  58  72
ATOM     72  C   UNL     1       1.993  -3.288   9.734  1.00  0.00     0.064 A 
ATOM     73  C   UNL     1       1.436  -2.989   8.482  1.00  0.00     0.173 A 
ATOM     74  C   UNL     1       1.382  -2.735  10.871  1.00  0.00     0.173 A 
ATOM     75  F   UNL     1       1.988  -3.480   7.362  1.00  0.00    -0.203 F 
ATOM     76  C   UNL     1       0.323  -2.157   8.371  1.00  0.00     0.198 A 
ATOM     77  C   UNL     1       0.250  -1.931  10.759  1.00  0.00     0.198 A 
ATOM     78  F   UNL     1       1.868  -2.993  12.094  1.00  0.00    -0.203 F 
ATOM     79  F   UNL     1      -0.166  -1.853   7.161  1.00  0.00    -0.200 F 
ATOM     80  C   UNL     1      -0.275  -1.639   9.510  1.00  0.00     0.200 A 
ATOM     81  F   UNL     1      -0.336  -1.444  11.862  1.00  0.00    -0.200 F 
ATOM     82  F   UNL     1      -1.356  -0.854   9.402  1.00  0.00    -0.200 F 
ENDBRANCH  58  72
BRANCH  59  83
ATOM     83  C   UNL     1       9.904  -9.368  10.420  1.00  0.00     0.064 A 
ATOM     84  C   UNL     1       9.932 -10.565   9.694  1.00  0.00     0.173 A 
ATOM     85  C   UNL     1      11.031  -9.051  11.197  1.00  0.00     0.173 A 
ATOM     86  F   UNL     1       8.873 -10.923   8.953  1.00  0.00    -0.203 F 
ATOM     87  C   UNL     1      11.036 -11.414   9.747  1.00  0.00     0.198 A 
ATOM     88  C   UNL     1      12.148  -9.882  11.220  1.00  0.00     0.198 A 
ATOM     89  F   UNL     1      11.059  -7.915  11.909  1.00  0.00    -0.203 F 
ATOM     90  F   UNL     1      11.021 -12.571   9.071  1.00  0.00    -0.200 F 
ATOM     91  C   UNL     1      12.147 -11.066  10.501  1.00  0.00     0.200 A 
ATOM     92  F   UNL     1      13.227  -9.530  11.932  1.00  0.00    -0.200 F 
ATOM     93  F   UNL     1      13.216 -11.874  10.536  1.00  0.00    -0.200 F 
ENDBRANCH  59  83
BRANCH  71  94
ATOM     94  C   UNL     1       3.248  -9.812  12.484  1.00  0.00     0.064 A 
ATOM     95  C   UNL     1       3.455 -10.018  13.855  1.00  0.00     0.173 A 
ATOM     96  C   UNL     1       2.230 -10.545  11.854  1.00  0.00     0.173 A 
ATOM     97  F   UNL     1       4.427  -9.353  14.498  1.00  0.00    -0.203 F 
ATOM     98  C   UNL     1       2.676 -10.924  14.568  1.00  0.00     0.198 A 
ATOM     99  C   UNL     1       1.430 -11.425  12.578  1.00  0.00     0.198 A 
ATOM    100  F   UNL     1       1.986 -10.379  10.546  1.00  0.00    -0.203 F 
ATOM    101  F   UNL     1       2.911 -11.126  15.872  1.00  0.00    -0.200 F 
ATOM    102  C   UNL     1       1.655 -11.616  13.933  1.00  0.00     0.200 A 
ATOM    103  F   UNL     1       0.432 -12.078  11.966  1.00  0.00    -0.200 F 
ATOM    104  F   UNL     1       0.888 -12.467  14.627  1.00  0.00    -0.200 F 
ENDBRANCH  71  94
ENDBRANCH  45  46
ENDBRANCH  37  40
ENDBRANCH  35  36
ENDBRANCH  34  35
ENDBRANCH  33  34
ENDBRANCH  32  33
ENDBRANCH   1  32
TORSDOF 17
