REMARK SMILES Cc1ccc(-c2csc(NC(=O)[C@H]3[C@@H](C(=O)NCCCCCCNC(=O)c4ccc(-c5c6nc(c(-c7c(F)c(F)c(F)c(F)c7F)c7ccc([nH]7)c(-c7c(F)c(F)c(F)c(F)c7F)c7nc(c(-c8c(F)c(F)c(F)c(F)c8F)c8ccc5[nH]8)C=C7)C=C6)cc4)[C@H]4C=C[C@@H]3C4)c2C(=O)NC2CC2)cc1
REMARK SMILES IDX 19 1 18 2 17 3 15 4 16 5 14 7 13 8 93 9 90 10 92 11 94 12
REMARK SMILES IDX 91 13 11 14 10 15 12 17 9 18 6 19 7 20 95 21 8 22 5 23 1 24
REMARK SMILES IDX 2 25 3 26 103 27 4 28 102 29 96 30 97 31 98 32 99 34 100 35
REMARK SMILES IDX 101 36 20 37 21 38 22 39 23 40 24 41 25 42 26 44 27 45 28 46
REMARK SMILES IDX 89 47 29 48 88 49 30 50 31 51 32 52 82 53 33 54 87 55 81 56
REMARK SMILES IDX 83 57 34 58 86 59 80 60 79 61 35 63 67 64 47 65 66 66 48 67
REMARK SMILES IDX 51 68 65 69 84 70 49 71 50 72 64 74 85 75 52 76 36 77 37 78
REMARK SMILES IDX 45 79 38 80 39 81 43 82 46 83 40 84 41 85 44 86 42 87 68 88
REMARK SMILES IDX 69 89 77 90 70 91 71 92 75 93 78 94 72 95 73 96 76 97 74 98
REMARK SMILES IDX 53 99 54 100 62 101 55 102 56 103 60 104 63 105 57 106
REMARK SMILES IDX 58 107 61 108 59 109
REMARK H PARENT 17 6 10 16 98 33 24 43 83 62 51 73
REMARK Flexibility Score: inf
ROOT
ATOM      1  C   UNL     1      -3.263   0.472   0.083  1.00  0.00     0.021 C 
ENDROOT
BRANCH   1   2
ATOM      2  C   UNL     1      -4.401   1.486  -0.040  1.00  0.00     0.116 C 
BRANCH   2   3
ATOM      3  N   UNL     1      -5.201   1.260  -1.224  1.00  0.00    -0.356 N 
ATOM      4  C   UNL     1      -6.549   1.148  -1.387  1.00  0.00     0.224 C 
ATOM      5  O   UNL     1      -6.956   0.956  -2.534  1.00  0.00    -0.275 OA
ATOM      6  H   UNL     1      -4.682   1.172  -2.056  1.00  0.00     0.163 HD
BRANCH   4   7
ATOM      7  C   UNL     1      -7.483   1.365  -0.195  1.00  0.00     0.098 C 
ATOM      8  C   UNL     1      -8.654   0.329   0.042  1.00  0.00     0.099 C 
ATOM      9  C   UNL     1      -9.901   1.248  -0.083  1.00  0.00     0.025 C 
ATOM     10  C   UNL     1      -8.242   2.718  -0.351  1.00  0.00     0.025 C 
ATOM     11  C   UNL     1     -10.026   1.804  -1.475  1.00  0.00    -0.027 C 
ATOM     12  C   UNL     1      -9.392   2.513   0.631  1.00  0.00     0.017 C 
ATOM     13  C   UNL     1      -9.055   2.715  -1.625  1.00  0.00    -0.027 C 
BRANCH   8  14
ATOM     14  C   UNL     1      -8.542  -0.954  -0.785  1.00  0.00     0.229 C 
ATOM     15  N   UNL     1      -9.635  -1.649  -1.211  1.00  0.00    -0.317 N 
ATOM     16  H   UNL     1      -9.510  -2.150  -2.049  1.00  0.00     0.170 HD
ATOM     17  O   UNL     1      -7.432  -1.436  -1.039  1.00  0.00    -0.274 OA
BRANCH  15  18
ATOM     18  C   UNL     1     -10.891  -1.757  -0.647  1.00  0.00     0.108 A 
ATOM     19  C   UNL     1     -13.181  -1.968  -0.321  1.00  0.00     0.007 A 
ATOM     20  C   UNL     1     -12.713  -1.716   0.959  1.00  0.00     0.076 A 
ATOM     21  C   UNL     1     -12.093  -2.074  -1.285  1.00  0.00     0.082 A 
ATOM     22  S   UNL     1     -11.021  -1.712   1.048  1.00  0.00    -0.125 S 
BRANCH  19  23
ATOM     23  C   UNL     1     -14.625  -2.106  -0.474  1.00  0.00    -0.017 A 
ATOM     24  C   UNL     1     -18.733  -3.084  -1.275  1.00  0.00     0.044 C 
ATOM     25  C   UNL     1     -17.350  -2.647  -0.892  1.00  0.00    -0.051 A 
ATOM     26  C   UNL     1     -16.611  -3.428  -0.001  1.00  0.00     0.004 A 
ATOM     27  C   UNL     1     -16.738  -1.542  -1.505  1.00  0.00     0.004 A 
ATOM     28  C   UNL     1     -15.270  -3.141   0.226  1.00  0.00     0.009 A 
ATOM     29  C   UNL     1     -15.377  -1.270  -1.300  1.00  0.00     0.009 A 
ENDBRANCH  19  23
BRANCH  21  30
ATOM     30  C   UNL     1     -12.098  -2.201  -2.746  1.00  0.00     0.255 C 
ATOM     31  O   UNL     1     -11.515  -1.349  -3.428  1.00  0.00    -0.269 OA
ATOM     32  N   UNL     1     -12.596  -3.253  -3.477  1.00  0.00    -0.349 N 
ATOM     33  H   UNL     1     -12.445  -3.108  -4.439  1.00  0.00     0.164 HD
BRANCH  32  34
ATOM     34  C   UNL     1     -13.263  -4.488  -3.257  1.00  0.00     0.082 C 
ATOM     35  C   UNL     1     -13.814  -5.063  -2.002  1.00  0.00     0.027 C 
ATOM     36  C   UNL     1     -14.743  -4.436  -3.005  1.00  0.00     0.027 C 
ENDBRANCH  32  34
ENDBRANCH  21  30
ENDBRANCH  15  18
ENDBRANCH   8  14
ENDBRANCH   4   7
ENDBRANCH   2   3
ENDBRANCH   1   2
BRANCH   1  37
ATOM     37  C   UNL     1      -2.206   0.513  -1.029  1.00  0.00     0.002 C 
BRANCH  37  38
ATOM     38  C   UNL     1      -1.583   1.882  -1.345  1.00  0.00     0.002 C 
BRANCH  38  39
ATOM     39  C   UNL     1      -1.097   2.704  -0.150  1.00  0.00     0.021 C 
BRANCH  39  40
ATOM     40  C   UNL     1       0.041   2.068   0.633  1.00  0.00     0.116 C 
BRANCH  40  41
ATOM     41  N   UNL     1       1.368   2.554   0.281  1.00  0.00    -0.352 N 
ATOM     42  C   UNL     1       2.600   2.090   0.721  1.00  0.00     0.251 C 
ATOM     43  H   UNL     1       1.395   3.308  -0.351  1.00  0.00     0.163 HD
ATOM     44  O   UNL     1       3.636   2.622   0.366  1.00  0.00    -0.269 OA
BRANCH  42  45
ATOM     45  C   UNL     1       2.633   0.850   1.534  1.00  0.00     0.039 A 
ATOM     46  C   UNL     1       3.426  -0.206   1.077  1.00  0.00     0.014 A 
ATOM     47  C   UNL     1       1.723   0.655   2.571  1.00  0.00     0.014 A 
ATOM     48  C   UNL     1       3.125  -1.504   1.483  1.00  0.00     0.010 A 
ATOM     49  C   UNL     1       1.363  -0.635   2.907  1.00  0.00     0.010 A 
ATOM     50  C   UNL     1       2.020  -1.715   2.312  1.00  0.00    -0.014 A 
BRANCH  50  51
ATOM     51  C   UNL     1       1.440  -3.034   2.518  1.00  0.00     0.031 A 
ATOM     52  C   UNL     1       1.742  -3.795   3.744  1.00  0.00     0.074 A 
ATOM     53  C   UNL     1       0.641  -3.587   1.577  1.00  0.00     0.049 A 
ATOM     54  N   UNL     1       1.897  -5.077   3.766  1.00  0.00    -0.248 NA
ATOM     55  C   UNL     1       1.918  -3.161   5.046  1.00  0.00     0.031 C 
ATOM     56  C   UNL     1      -0.115  -4.831   1.695  1.00  0.00     0.029 A 
ATOM     57  N   UNL     1       0.514  -3.224   0.226  1.00  0.00    -0.354 N 
ATOM     58  C   UNL     1       1.932  -5.459   5.083  1.00  0.00     0.074 A 
ATOM     59  C   UNL     1       2.019  -4.231   5.842  1.00  0.00     0.031 C 
ATOM     60  C   UNL     1      -0.361  -5.302   0.463  1.00  0.00     0.029 A 
ATOM     61  C   UNL     1       0.317  -4.432  -0.480  1.00  0.00     0.049 A 
ATOM     62  H   UNL     1       0.554  -2.315  -0.151  1.00  0.00     0.167 HD
ATOM     63  C   UNL     1       1.735  -6.762   5.424  1.00  0.00     0.037 A 
ATOM     64  C   UNL     1       1.172  -4.844  -1.457  1.00  0.00     0.037 A 
ATOM     65  C   UNL     1       1.468  -7.597   4.262  1.00  0.00     0.049 A 
ATOM     66  C   UNL     1       1.810  -6.183  -1.188  1.00  0.00     0.074 A 
ATOM     67  C   UNL     1       0.283  -8.026   3.686  1.00  0.00     0.029 A 
ATOM     68  N   UNL     1       2.466  -7.823   3.321  1.00  0.00    -0.354 N 
ATOM     69  N   UNL     1       1.859  -6.735  -0.008  1.00  0.00    -0.248 NA
ATOM     70  C   UNL     1       2.470  -6.991  -2.209  1.00  0.00     0.031 C 
ATOM     71  C   UNL     1       0.564  -8.483   2.380  1.00  0.00     0.029 A 
ATOM     72  C   UNL     1       1.924  -8.350   2.164  1.00  0.00     0.049 A 
ATOM     73  H   UNL     1       3.423  -7.634   3.458  1.00  0.00     0.167 HD
ATOM     74  C   UNL     1       2.540  -7.923  -0.085  1.00  0.00     0.074 A 
ATOM     75  C   UNL     1       2.888  -8.046  -1.488  1.00  0.00     0.031 C 
ATOM     76  C   UNL     1       2.754  -8.697   1.021  1.00  0.00     0.037 A 
BRANCH  63  77
ATOM     77  C   UNL     1       1.475  -7.166   6.848  1.00  0.00     0.064 A 
ATOM     78  C   UNL     1       0.435  -8.054   7.188  1.00  0.00     0.173 A 
ATOM     79  C   UNL     1       2.205  -6.642   7.930  1.00  0.00     0.173 A 
ATOM     80  F   UNL     1      -0.296  -8.669   6.251  1.00  0.00    -0.203 F 
ATOM     81  C   UNL     1       0.088  -8.318   8.514  1.00  0.00     0.198 A 
ATOM     82  C   UNL     1       1.829  -6.871   9.257  1.00  0.00     0.198 A 
ATOM     83  F   UNL     1       3.294  -5.887   7.718  1.00  0.00    -0.203 F 
ATOM     84  F   UNL     1      -0.925  -9.154   8.782  1.00  0.00    -0.200 F 
ATOM     85  C   UNL     1       0.763  -7.700   9.548  1.00  0.00     0.200 A 
ATOM     86  F   UNL     1       2.493  -6.264  10.251  1.00  0.00    -0.200 F 
ATOM     87  F   UNL     1       0.390  -7.907  10.818  1.00  0.00    -0.200 F 
ENDBRANCH  63  77
BRANCH  64  88
ATOM     88  C   UNL     1       1.787  -3.722  -2.206  1.00  0.00     0.064 A 
ATOM     89  C   UNL     1       0.945  -2.929  -3.008  1.00  0.00     0.173 A 
ATOM     90  C   UNL     1       3.031  -3.191  -1.848  1.00  0.00     0.173 A 
ATOM     91  F   UNL     1      -0.256  -3.398  -3.384  1.00  0.00    -0.203 F 
ATOM     92  C   UNL     1       1.276  -1.615  -3.328  1.00  0.00     0.198 A 
ATOM     93  C   UNL     1       3.367  -1.878  -2.186  1.00  0.00     0.198 A 
ATOM     94  F   UNL     1       3.871  -3.895  -1.077  1.00  0.00    -0.203 F 
ATOM     95  F   UNL     1       0.401  -0.847  -3.993  1.00  0.00    -0.200 F 
ATOM     96  C   UNL     1       2.474  -1.080  -2.888  1.00  0.00     0.200 A 
ATOM     97  F   UNL     1       4.528  -1.358  -1.762  1.00  0.00    -0.200 F 
ATOM     98  F   UNL     1       2.753   0.212  -3.112  1.00  0.00    -0.200 F 
ENDBRANCH  64  88
BRANCH  76  99
ATOM     99  C   UNL     1       3.647  -9.912   1.122  1.00  0.00     0.064 A 
ATOM    100  C   UNL     1       4.771 -10.135   0.311  1.00  0.00     0.173 A 
ATOM    101  C   UNL     1       3.462 -10.849   2.172  1.00  0.00     0.173 A 
ATOM    102  F   UNL     1       5.127  -9.266  -0.642  1.00  0.00    -0.203 F 
ATOM    103  C   UNL     1       5.609 -11.240   0.496  1.00  0.00     0.198 A 
ATOM    104  C   UNL     1       4.333 -11.915   2.389  1.00  0.00     0.198 A 
ATOM    105  F   UNL     1       2.443 -10.744   3.038  1.00  0.00    -0.203 F 
ATOM    106  F   UNL     1       6.646 -11.430  -0.331  1.00  0.00    -0.200 F 
ATOM    107  C   UNL     1       5.398 -12.121   1.541  1.00  0.00     0.200 A 
ATOM    108  F   UNL     1       4.141 -12.727   3.439  1.00  0.00    -0.200 F 
ATOM    109  F   UNL     1       6.232 -13.150   1.742  1.00  0.00    -0.200 F 
ENDBRANCH  76  99
ENDBRANCH  50  51
ENDBRANCH  42  45
ENDBRANCH  40  41
ENDBRANCH  39  40
ENDBRANCH  38  39
ENDBRANCH  37  38
ENDBRANCH   1  37
TORSDOF 18
