REMARK SMILES CCCC1(CCC)SC[C@@H]2C(=O)N(Cc3ccc(C(=O)NCCCCCCNC(=O)c4ccc(-c5c6nc(c(-c7c(F)c(F)c(F)c(F)c7F)c7ccc([nH]7)c(-c7c(F)c(F)c(F)c(F)c7F)c7nc(c(-c8c(F)c(F)c(F)c(F)c8F)c8ccc5[nH]8)C=C7)C=C6)cc4)cc3)CC(=O)N21
REMARK SMILES IDX 23 1 22 2 21 3 19 4 20 5 18 7 15 8 16 9 95 10 17 11 94 12
REMARK SMILES IDX 14 13 13 14 4 15 8 16 99 17 9 18 10 19 97 20 11 21 96 22
REMARK SMILES IDX 98 23 12 24 3 25 2 26 1 27 5 28 6 29 7 30 24 31 25 32 26 33
REMARK SMILES IDX 27 34 28 35 29 36 30 38 31 39 32 40 93 41 33 42 92 43 34 44
REMARK SMILES IDX 35 45 36 46 86 47 37 48 91 49 85 50 87 51 38 52 90 53 84 54
REMARK SMILES IDX 83 55 39 57 71 58 51 59 70 60 52 61 55 62 69 63 88 64 53 65
REMARK SMILES IDX 54 66 68 68 89 69 56 70 40 71 41 72 49 73 42 74 43 75 47 76
REMARK SMILES IDX 50 77 44 78 45 79 48 80 46 81 72 82 73 83 81 84 74 85 75 86
REMARK SMILES IDX 79 87 82 88 76 89 77 90 80 91 78 92 57 93 58 94 66 95 59 96
REMARK SMILES IDX 60 97 64 98 67 99 61 100 62 101 65 102 63 103
REMARK H PARENT 21 6 28 37 87 56 55 67
REMARK Flexibility Score: inf
ROOT
ATOM      1  C   UNL     1       0.818  12.100  -2.118  1.00  0.00     0.021 C 
ENDROOT
BRANCH   1   2
ATOM      2  C   UNL     1       0.359  10.873  -2.909  1.00  0.00     0.116 C 
BRANCH   2   3
ATOM      3  N   UNL     1       1.041  10.796  -4.190  1.00  0.00    -0.352 N 
ATOM      4  C   UNL     1       1.986   9.913  -4.650  1.00  0.00     0.251 C 
ATOM      5  O   UNL     1       2.343   9.976  -5.824  1.00  0.00    -0.269 OA
ATOM      6  H   UNL     1       0.782  11.493  -4.835  1.00  0.00     0.163 HD
BRANCH   4   7
ATOM      7  C   UNL     1       2.544   8.851  -3.779  1.00  0.00     0.039 A 
ATOM      8  C   UNL     1       3.539   6.748  -2.198  1.00  0.00    -0.029 A 
ATOM      9  C   UNL     1       3.207   6.526  -3.540  1.00  0.00     0.006 A 
ATOM     10  C   UNL     1       3.409   8.042  -1.673  1.00  0.00     0.006 A 
ATOM     11  C   UNL     1       2.715   7.573  -4.326  1.00  0.00     0.014 A 
ATOM     12  C   UNL     1       2.939   9.091  -2.463  1.00  0.00     0.014 A 
BRANCH   8  13
ATOM     13  C   UNL     1       4.042   5.631  -1.317  1.00  0.00     0.155 C 
BRANCH  13  14
ATOM     14  N   UNL     1       2.986   4.828  -0.713  1.00  0.00    -0.327 N 
ATOM     15  C   UNL     1       0.403   2.032   1.379  1.00  0.00     0.090 C 
ATOM     16  S   UNL     1      -0.310   3.280   2.692  1.00  0.00    -0.131 SA
ATOM     17  N   UNL     1       1.165   2.964   0.503  1.00  0.00    -0.314 N 
ATOM     18  C   UNL     1       0.421   4.745   1.945  1.00  0.00     0.107 C 
ATOM     19  C   UNL     1       1.605   4.183   1.193  1.00  0.00     0.186 C 
ATOM     20  C   UNL     1       1.849   2.584  -0.639  1.00  0.00     0.244 C 
ATOM     21  C   UNL     1       2.301   5.293   0.398  1.00  0.00     0.247 C 
ATOM     22  C   UNL     1       2.407   3.738  -1.479  1.00  0.00     0.220 C 
ATOM     23  O   UNL     1       1.848   1.447  -1.099  1.00  0.00    -0.273 OA
ATOM     24  O   UNL     1       2.460   6.418   0.869  1.00  0.00    -0.272 OA
BRANCH  15  25
ATOM     25  C   UNL     1       1.337   1.137   2.253  1.00  0.00     0.040 C 
BRANCH  25  26
ATOM     26  C   UNL     1       1.449  -0.368   2.031  1.00  0.00    -0.000 C 
ATOM     27  C   UNL     1       2.273  -0.797   0.833  1.00  0.00     0.004 C 
ENDBRANCH  25  26
ENDBRANCH  15  25
BRANCH  15  28
ATOM     28  C   UNL     1      -0.934   1.454   0.824  1.00  0.00     0.040 C 
BRANCH  28  29
ATOM     29  C   UNL     1      -1.026   0.509  -0.385  1.00  0.00    -0.000 C 
ATOM     30  C   UNL     1      -1.306  -0.952  -0.055  1.00  0.00     0.004 C 
ENDBRANCH  28  29
ENDBRANCH  15  28
ENDBRANCH  13  14
ENDBRANCH   8  13
ENDBRANCH   4   7
ENDBRANCH   2   3
ENDBRANCH   1   2
BRANCH   1  31
ATOM     31  C   UNL     1       0.244  13.425  -2.636  1.00  0.00     0.002 C 
BRANCH  31  32
ATOM     32  C   UNL     1      -1.274  13.577  -2.494  1.00  0.00     0.002 C 
BRANCH  32  33
ATOM     33  C   UNL     1      -1.823  13.410  -1.074  1.00  0.00     0.021 C 
BRANCH  33  34
ATOM     34  C   UNL     1      -1.252  14.380  -0.042  1.00  0.00     0.116 C 
BRANCH  34  35
ATOM     35  N   UNL     1      -1.599  15.760  -0.335  1.00  0.00    -0.352 N 
ATOM     36  C   UNL     1      -2.162  16.713   0.475  1.00  0.00     0.251 C 
ATOM     37  H   UNL     1      -1.401  16.055  -1.253  1.00  0.00     0.163 HD
ATOM     38  O   UNL     1      -2.552  17.773  -0.004  1.00  0.00    -0.269 OA
BRANCH  36  39
ATOM     39  C   UNL     1      -2.315  16.470   1.927  1.00  0.00     0.039 A 
ATOM     40  C   UNL     1      -3.511  16.846   2.546  1.00  0.00     0.014 A 
ATOM     41  C   UNL     1      -1.274  15.927   2.686  1.00  0.00     0.014 A 
ATOM     42  C   UNL     1      -3.680  16.639   3.917  1.00  0.00     0.010 A 
ATOM     43  C   UNL     1      -1.463  15.673   4.044  1.00  0.00     0.010 A 
ATOM     44  C   UNL     1      -2.664  16.035   4.673  1.00  0.00    -0.014 A 
BRANCH  44  45
ATOM     45  C   UNL     1      -2.838  15.792   6.127  1.00  0.00     0.031 A 
ATOM     46  C   UNL     1      -2.016  16.558   7.125  1.00  0.00     0.074 A 
ATOM     47  C   UNL     1      -3.699  14.847   6.546  1.00  0.00     0.049 A 
ATOM     48  N   UNL     1      -1.989  16.454   8.430  1.00  0.00    -0.248 NA
ATOM     49  C   UNL     1      -1.081  17.556   6.583  1.00  0.00     0.031 C 
ATOM     50  C   UNL     1      -4.518  14.004   5.675  1.00  0.00     0.029 A 
ATOM     51  N   UNL     1      -4.020  14.428   7.814  1.00  0.00    -0.354 N 
ATOM     52  C   UNL     1      -1.026  17.357   8.862  1.00  0.00     0.074 A 
ATOM     53  C   UNL     1      -0.463  17.972   7.679  1.00  0.00     0.031 C 
ATOM     54  C   UNL     1      -5.259  13.179   6.433  1.00  0.00     0.029 A 
ATOM     55  C   UNL     1      -4.950  13.419   7.840  1.00  0.00     0.049 A 
ATOM     56  H   UNL     1      -3.621  14.815   8.626  1.00  0.00     0.167 HD
ATOM     57  C   UNL     1      -0.659  17.658  10.130  1.00  0.00     0.037 A 
ATOM     58  C   UNL     1      -5.492  12.762   8.882  1.00  0.00     0.037 A 
ATOM     59  C   UNL     1      -1.244  17.072  11.307  1.00  0.00     0.049 A 
ATOM     60  C   UNL     1      -5.091  13.139  10.281  1.00  0.00     0.074 A 
ATOM     61  C   UNL     1      -0.984  17.359  12.636  1.00  0.00     0.029 A 
ATOM     62  N   UNL     1      -2.212  16.079  11.294  1.00  0.00    -0.354 N 
ATOM     63  N   UNL     1      -4.226  14.039  10.679  1.00  0.00    -0.248 NA
ATOM     64  C   UNL     1      -5.751  12.415  11.377  1.00  0.00     0.031 C 
ATOM     65  C   UNL     1      -1.774  16.519  13.428  1.00  0.00     0.029 A 
ATOM     66  C   UNL     1      -2.551  15.733  12.592  1.00  0.00     0.049 A 
ATOM     67  H   UNL     1      -2.600  15.679  10.483  1.00  0.00     0.167 HD
ATOM     68  C   UNL     1      -4.253  14.007  12.066  1.00  0.00     0.074 A 
ATOM     69  C   UNL     1      -5.230  13.007  12.443  1.00  0.00     0.031 C 
ATOM     70  C   UNL     1      -3.531  14.740  12.948  1.00  0.00     0.037 A 
BRANCH  57  71
ATOM     71  C   UNL     1       0.429  18.675  10.311  1.00  0.00     0.064 A 
ATOM     72  C   UNL     1       0.204  20.039  10.069  1.00  0.00     0.173 A 
ATOM     73  C   UNL     1       1.699  18.287  10.761  1.00  0.00     0.173 A 
ATOM     74  F   UNL     1      -0.990  20.458   9.626  1.00  0.00    -0.203 F 
ATOM     75  C   UNL     1       1.221  20.974  10.247  1.00  0.00     0.198 A 
ATOM     76  C   UNL     1       2.706  19.228  10.962  1.00  0.00     0.198 A 
ATOM     77  F   UNL     1       1.963  16.996  11.011  1.00  0.00    -0.203 F 
ATOM     78  F   UNL     1       0.997  22.265   9.969  1.00  0.00    -0.200 F 
ATOM     79  C   UNL     1       2.468  20.569  10.699  1.00  0.00     0.200 A 
ATOM     80  F   UNL     1       3.908  18.837  11.408  1.00  0.00    -0.200 F 
ATOM     81  F   UNL     1       3.444  21.471  10.874  1.00  0.00    -0.200 F 
ENDBRANCH  57  71
BRANCH  58  82
ATOM     82  C   UNL     1      -6.504  11.703   8.640  1.00  0.00     0.064 A 
ATOM     83  C   UNL     1      -7.857  11.925   8.930  1.00  0.00     0.173 A 
ATOM     84  C   UNL     1      -6.142  10.457   8.111  1.00  0.00     0.173 A 
ATOM     85  F   UNL     1      -8.245  13.095   9.457  1.00  0.00    -0.203 F 
ATOM     86  C   UNL     1      -8.810  10.932   8.713  1.00  0.00     0.198 A 
ATOM     87  C   UNL     1      -7.099   9.473   7.874  1.00  0.00     0.198 A 
ATOM     88  F   UNL     1      -4.860  10.200   7.814  1.00  0.00    -0.203 F 
ATOM     89  F   UNL     1     -10.092  11.157   9.033  1.00  0.00    -0.200 F 
ATOM     90  C   UNL     1      -8.431   9.709   8.181  1.00  0.00     0.200 A 
ATOM     91  F   UNL     1      -6.732   8.296   7.348  1.00  0.00    -0.200 F 
ATOM     92  F   UNL     1      -9.349   8.756   7.968  1.00  0.00    -0.200 F 
ENDBRANCH  58  82
BRANCH  70  93
ATOM     93  C   UNL     1      -3.792  14.507  14.406  1.00  0.00     0.064 A 
ATOM     94  C   UNL     1      -3.325  13.357  15.058  1.00  0.00     0.173 A 
ATOM     95  C   UNL     1      -4.487  15.460  15.165  1.00  0.00     0.173 A 
ATOM     96  F   UNL     1      -2.669  12.410  14.370  1.00  0.00    -0.203 F 
ATOM     97  C   UNL     1      -3.564  13.159  16.415  1.00  0.00     0.198 A 
ATOM     98  C   UNL     1      -4.704  15.269  16.526  1.00  0.00     0.198 A 
ATOM     99  F   UNL     1      -4.950  16.578  14.586  1.00  0.00    -0.203 F 
ATOM    100  F   UNL     1      -3.145  12.034  17.010  1.00  0.00    -0.200 F 
ATOM    101  C   UNL     1      -4.248  14.117  17.149  1.00  0.00     0.200 A 
ATOM    102  F   UNL     1      -5.358  16.200  17.236  1.00  0.00    -0.200 F 
ATOM    103  F   UNL     1      -4.475  13.926  18.456  1.00  0.00    -0.200 F 
ENDBRANCH  70  93
ENDBRANCH  44  45
ENDBRANCH  36  39
ENDBRANCH  34  35
ENDBRANCH  33  34
ENDBRANCH  32  33
ENDBRANCH  31  32
ENDBRANCH   1  31
TORSDOF 19
