REMARK SMILES O=C(NCCCCCCNC(=O)c1cc([N+](=O)[O-])c(NCCC2=CCCCC2)c([N+](=O)[O-])c1)c1ccc(-c2c3nc(c(-c4c(F)c(F)c(F)c(F)c4F)c4ccc([nH]4)c(-c4c(F)c(F)c(F)c(F)c4F)c4nc(c(-c5c(F)c(F)c(F)c(F)c5F)c5ccc2[nH]5)C=C4)C=C3)cc1
REMARK SMILES IDX 7 1 6 2 5 3 4 4 3 5 1 6 2 7 34 9 35 10 96 11 36 12 95 13
REMARK SMILES IDX 37 14 38 15 39 16 89 17 40 18 94 19 88 20 90 21 41 22 93 23
REMARK SMILES IDX 87 24 86 25 42 27 74 28 54 29 73 30 55 31 58 32 72 33 91 34
REMARK SMILES IDX 56 35 57 36 71 38 92 39 59 40 43 41 44 42 52 43 45 44 46 45
REMARK SMILES IDX 50 46 53 47 47 48 48 49 51 50 49 51 75 52 76 53 84 54 77 55
REMARK SMILES IDX 78 56 82 57 85 58 79 59 80 60 83 61 81 62 60 63 61 64 69 65
REMARK SMILES IDX 62 66 63 67 67 68 70 69 64 70 65 71 68 72 66 73 8 74 9 75
REMARK SMILES IDX 10 76 11 77 12 79 13 80 14 81 33 82 15 83 29 84 19 85 16 86
REMARK SMILES IDX 17 87 18 88 30 89 31 90 32 91 20 92 21 94 22 95 23 96 24 97
REMARK SMILES IDX 28 98 25 99 27 100 26 101
REMARK H PARENT 3 8 90 26 58 37 10 78 20 93
REMARK Flexibility Score: inf
ROOT
ATOM      1  C   UNL     1       4.684   0.607  -4.267  1.00  0.00     0.002 C 
ENDROOT
BRANCH   1   2
ATOM      2  C   UNL     1       4.142  -0.742  -3.788  1.00  0.00     0.002 C 
BRANCH   2   3
ATOM      3  C   UNL     1       4.622  -1.195  -2.409  1.00  0.00     0.021 C 
BRANCH   3   4
ATOM      4  C   UNL     1       4.384  -0.200  -1.282  1.00  0.00     0.116 C 
BRANCH   4   5
ATOM      5  N   UNL     1       2.973   0.049  -1.037  1.00  0.00    -0.352 N 
ATOM      6  O   UNL     1       1.053   0.090   0.150  1.00  0.00    -0.269 OA
ATOM      7  C   UNL     1       2.275  -0.009   0.145  1.00  0.00     0.251 C 
ATOM      8  H   UNL     1       2.443   0.293  -1.830  1.00  0.00     0.163 HD
BRANCH   7   9
ATOM      9  C   UNL     1       3.002  -0.216   1.416  1.00  0.00     0.039 A 
ATOM     10  C   UNL     1       4.166   0.504   1.698  1.00  0.00     0.014 A 
ATOM     11  C   UNL     1       2.506  -1.139   2.342  1.00  0.00     0.014 A 
ATOM     12  C   UNL     1       4.904   0.206   2.837  1.00  0.00     0.010 A 
ATOM     13  C   UNL     1       3.206  -1.376   3.529  1.00  0.00     0.010 A 
ATOM     14  C   UNL     1       4.424  -0.724   3.774  1.00  0.00    -0.014 A 
BRANCH  14  15
ATOM     15  C   UNL     1       5.182  -0.944   5.031  1.00  0.00     0.031 A 
ATOM     16  C   UNL     1       5.824  -2.267   5.335  1.00  0.00     0.074 A 
ATOM     17  C   UNL     1       5.311   0.085   5.891  1.00  0.00     0.049 A 
ATOM     18  N   UNL     1       6.535  -2.619   6.377  1.00  0.00    -0.248 NA
ATOM     19  C   UNL     1       5.643  -3.340   4.344  1.00  0.00     0.031 C 
ATOM     20  C   UNL     1       4.719   1.413   5.706  1.00  0.00     0.029 A 
ATOM     21  N   UNL     1       5.989   0.187   7.078  1.00  0.00    -0.354 N 
ATOM     22  C   UNL     1       6.878  -3.949   6.175  1.00  0.00     0.074 A 
ATOM     23  C   UNL     1       6.272  -4.354   4.924  1.00  0.00     0.031 C 
ATOM     24  C   UNL     1       5.094   2.207   6.718  1.00  0.00     0.029 A 
ATOM     25  C   UNL     1       5.901   1.431   7.653  1.00  0.00     0.049 A 
ATOM     26  H   UNL     1       6.491  -0.559   7.479  1.00  0.00     0.167 HD
ATOM     27  C   UNL     1       7.640  -4.752   6.957  1.00  0.00     0.037 A 
ATOM     28  C   UNL     1       6.399   1.892   8.814  1.00  0.00     0.037 A 
ATOM     29  C   UNL     1       8.244  -4.340   8.200  1.00  0.00     0.049 A 
ATOM     30  C   UNL     1       7.211   0.968   9.675  1.00  0.00     0.074 A 
ATOM     31  C   UNL     1       9.044  -5.076   9.057  1.00  0.00     0.029 A 
ATOM     32  N   UNL     1       8.111  -3.079   8.764  1.00  0.00    -0.354 N 
ATOM     33  N   UNL     1       7.552  -0.278   9.457  1.00  0.00    -0.248 NA
ATOM     34  C   UNL     1       7.707   1.516  10.944  1.00  0.00     0.031 C 
ATOM     35  C   UNL     1       9.361  -4.274  10.159  1.00  0.00     0.029 A 
ATOM     36  C   UNL     1       8.799  -3.022   9.966  1.00  0.00     0.049 A 
ATOM     37  H   UNL     1       7.602  -2.335   8.368  1.00  0.00     0.167 HD
ATOM     38  C   UNL     1       8.315  -0.660  10.551  1.00  0.00     0.074 A 
ATOM     39  C   UNL     1       8.408   0.496  11.419  1.00  0.00     0.031 C 
ATOM     40  C   UNL     1       8.883  -1.862  10.815  1.00  0.00     0.037 A 
BRANCH  27  41
ATOM     41  C   UNL     1       7.860  -6.166   6.501  1.00  0.00     0.064 A 
ATOM     42  C   UNL     1       8.692  -6.465   5.411  1.00  0.00     0.173 A 
ATOM     43  C   UNL     1       7.279  -7.239   7.194  1.00  0.00     0.173 A 
ATOM     44  F   UNL     1       9.264  -5.476   4.708  1.00  0.00    -0.203 F 
ATOM     45  C   UNL     1       8.916  -7.783   5.020  1.00  0.00     0.198 A 
ATOM     46  C   UNL     1       7.526  -8.556   6.817  1.00  0.00     0.198 A 
ATOM     47  F   UNL     1       6.481  -7.010   8.249  1.00  0.00    -0.203 F 
ATOM     48  F   UNL     1       9.684  -8.042   3.953  1.00  0.00    -0.200 F 
ATOM     49  C   UNL     1       8.340  -8.827   5.728  1.00  0.00     0.200 A 
ATOM     50  F   UNL     1       6.979  -9.565   7.510  1.00  0.00    -0.200 F 
ATOM     51  F   UNL     1       8.565 -10.095   5.356  1.00  0.00    -0.200 F 
ENDBRANCH  27  41
BRANCH  28  52
ATOM     52  C   UNL     1       6.134   3.294   9.227  1.00  0.00     0.064 A 
ATOM     53  C   UNL     1       7.166   4.240   9.278  1.00  0.00     0.173 A 
ATOM     54  C   UNL     1       4.842   3.717   9.573  1.00  0.00     0.173 A 
ATOM     55  F   UNL     1       8.421   3.878   8.973  1.00  0.00    -0.203 F 
ATOM     56  C   UNL     1       6.920   5.551   9.679  1.00  0.00     0.198 A 
ATOM     57  C   UNL     1       4.591   5.036   9.943  1.00  0.00     0.198 A 
ATOM     58  F   UNL     1       3.818   2.852   9.534  1.00  0.00    -0.203 F 
ATOM     59  F   UNL     1       7.933   6.425   9.762  1.00  0.00    -0.200 F 
ATOM     60  C   UNL     1       5.632   5.950  10.004  1.00  0.00     0.200 A 
ATOM     61  F   UNL     1       3.342   5.421  10.238  1.00  0.00    -0.200 F 
ATOM     62  F   UNL     1       5.395   7.213  10.382  1.00  0.00    -0.200 F 
ENDBRANCH  28  52
BRANCH  40  63
ATOM     63  C   UNL     1       9.678  -1.972  12.083  1.00  0.00     0.064 A 
ATOM     64  C   UNL     1       9.056  -1.997  13.340  1.00  0.00     0.173 A 
ATOM     65  C   UNL     1      11.077  -2.071  12.037  1.00  0.00     0.173 A 
ATOM     66  F   UNL     1       7.723  -1.887  13.436  1.00  0.00    -0.203 F 
ATOM     67  C   UNL     1       9.809  -2.086  14.508  1.00  0.00     0.198 A 
ATOM     68  C   UNL     1      11.824  -2.189  13.205  1.00  0.00     0.198 A 
ATOM     69  F   UNL     1      11.718  -2.055  10.859  1.00  0.00    -0.203 F 
ATOM     70  F   UNL     1       9.199  -2.054  15.700  1.00  0.00    -0.200 F 
ATOM     71  C   UNL     1      11.191  -2.188  14.439  1.00  0.00     0.200 A 
ATOM     72  F   UNL     1      13.158  -2.298  13.137  1.00  0.00    -0.200 F 
ATOM     73  F   UNL     1      11.914  -2.275  15.564  1.00  0.00    -0.200 F 
ENDBRANCH  40  63
ENDBRANCH  14  15
ENDBRANCH   7   9
ENDBRANCH   4   5
ENDBRANCH   3   4
ENDBRANCH   2   3
ENDBRANCH   1   2
BRANCH   1  74
ATOM     74  C   UNL     1       6.209   0.750  -4.265  1.00  0.00     0.021 C 
BRANCH  74  75
ATOM     75  C   UNL     1       6.973  -0.332  -5.024  1.00  0.00     0.116 C 
BRANCH  75  76
ATOM     76  N   UNL     1       6.598  -0.406  -6.428  1.00  0.00    -0.352 N 
ATOM     77  C   UNL     1       7.380  -0.407  -7.554  1.00  0.00     0.251 C 
ATOM     78  H   UNL     1       5.629  -0.464  -6.596  1.00  0.00     0.163 HD
ATOM     79  O   UNL     1       6.874  -0.337  -8.667  1.00  0.00    -0.269 OA
BRANCH  77  80
ATOM     80  C   UNL     1       8.850  -0.461  -7.434  1.00  0.00     0.053 A 
ATOM     81  C   UNL     1       9.624   0.390  -8.211  1.00  0.00     0.102 A 
ATOM     82  C   UNL     1       9.475  -1.372  -6.593  1.00  0.00     0.102 A 
ATOM     83  C   UNL     1      11.021   0.412  -8.037  1.00  0.00     0.300 A 
ATOM     84  C   UNL     1      10.867  -1.298  -6.389  1.00  0.00     0.300 A 
ATOM     85  C   UNL     1      11.700  -0.356  -7.064  1.00  0.00     0.192 A 
BRANCH  83  86
ATOM     86  N   UNL     1      11.727   1.252  -8.982  1.00  0.00     0.065 N 
ATOM     87  O   UNL     1      11.506   2.469  -8.927  1.00  0.00    -0.258 OA
ATOM     88  O   UNL     1      12.462   0.685  -9.801  1.00  0.00    -0.258 OA
ENDBRANCH  83  86
BRANCH  84  89
ATOM     89  N   UNL     1      11.417  -2.251  -5.407  1.00  0.00     0.065 N 
ATOM     90  O   UNL     1      12.615  -2.554  -5.492  1.00  0.00    -0.258 OA
ATOM     91  O   UNL     1      10.638  -2.705  -4.556  1.00  0.00    -0.258 OA
ENDBRANCH  84  89
BRANCH  85  92
ATOM     92  N   UNL     1      13.007  -0.175  -6.643  1.00  0.00    -0.374 N 
ATOM     93  H   UNL     1      13.264  -0.733  -5.874  1.00  0.00     0.161 HD
BRANCH  92  94
ATOM     94  C   UNL     1      14.072   0.695  -7.134  1.00  0.00     0.118 C 
BRANCH  94  95
ATOM     95  C   UNL     1      14.984   1.174  -5.986  1.00  0.00     0.052 C 
BRANCH  95  96
ATOM     96  C   UNL     1      15.725   0.175  -5.115  1.00  0.00    -0.072 C 
ATOM     97  C   UNL     1      15.803  -1.151  -5.333  1.00  0.00    -0.028 C 
ATOM     98  C   UNL     1      16.398   0.805  -3.910  1.00  0.00     0.031 C 
ATOM     99  C   UNL     1      16.429  -2.125  -4.373  1.00  0.00     0.027 C 
ATOM    100  C   UNL     1      17.355  -0.131  -3.169  1.00  0.00     0.005 C 
ATOM    101  C   UNL     1      16.737  -1.513  -3.008  1.00  0.00     0.004 C 
ENDBRANCH  95  96
ENDBRANCH  94  95
ENDBRANCH  92  94
ENDBRANCH  85  92
ENDBRANCH  77  80
ENDBRANCH  75  76
ENDBRANCH  74  75
ENDBRANCH   1  74
TORSDOF 19
