REMARK SMILES O=C(NCCCCCCNC(=O)[C@H]1CN(S(=O)(=O)c2ccc(Cl)nc2)c2ccccc21)c1ccc(-c2c3nc(c(-c4c(F)c(F)c(F)c(F)c4F)c4ccc([nH]4)c(-c4c(F)c(F)c(F)c(F)c4F)c4nc(c(-c5c(F)c(F)c(F)c(F)c5F)c5ccc2[nH]5)C=C4)C=C3)cc1
REMARK SMILES IDX 6 1 5 2 4 3 3 4 1 5 2 6 32 8 33 9 94 10 34 11 93 12 35 13
REMARK SMILES IDX 36 14 37 15 87 16 38 17 92 18 86 19 88 20 39 21 91 22 85 23
REMARK SMILES IDX 84 24 40 26 72 27 52 28 71 29 53 30 56 31 70 32 89 33 54 34
REMARK SMILES IDX 55 35 69 37 90 38 57 39 41 40 42 41 50 42 43 43 44 44 48 45
REMARK SMILES IDX 51 46 45 47 46 48 49 49 47 50 73 51 74 52 82 53 75 54 76 55
REMARK SMILES IDX 80 56 83 57 77 58 78 59 81 60 79 61 58 62 59 63 67 64 60 65
REMARK SMILES IDX 61 66 65 67 68 68 62 69 63 70 66 71 64 72 7 73 8 74 9 75
REMARK SMILES IDX 10 76 11 77 12 79 13 80 14 81 31 82 15 83 26 84 30 85 27 86
REMARK SMILES IDX 29 87 28 88 16 89 17 90 18 91 19 92 20 93 25 94 21 95 24 96
REMARK SMILES IDX 22 97 23 98
REMARK H PARENT 3 7 88 25 56 36 10 78
REMARK Flexibility Score: inf
ROOT
ATOM      1  C   UNL     1       3.856  -2.323   2.903  1.00  0.00     0.002 C 
ENDROOT
BRANCH   1   2
ATOM      2  C   UNL     1       4.438  -1.041   2.297  1.00  0.00     0.021 C 
BRANCH   2   3
ATOM      3  C   UNL     1       4.312  -0.944   0.779  1.00  0.00     0.116 C 
BRANCH   3   4
ATOM      4  N   UNL     1       2.922  -0.960   0.355  1.00  0.00    -0.352 N 
ATOM      5  O   UNL     1       0.972  -0.090  -0.356  1.00  0.00    -0.269 OA
ATOM      6  C   UNL     1       2.194   0.003  -0.292  1.00  0.00     0.251 C 
ATOM      7  H   UNL     1       2.431  -1.787   0.563  1.00  0.00     0.163 HD
BRANCH   6   8
ATOM      8  C   UNL     1       2.874   1.161  -0.908  1.00  0.00     0.039 A 
ATOM      9  C   UNL     1       4.029   0.991  -1.677  1.00  0.00     0.014 A 
ATOM     10  C   UNL     1       2.309   2.430  -0.756  1.00  0.00     0.014 A 
ATOM     11  C   UNL     1       4.675   2.102  -2.214  1.00  0.00     0.010 A 
ATOM     12  C   UNL     1       2.922   3.535  -1.347  1.00  0.00     0.010 A 
ATOM     13  C   UNL     1       4.120   3.381  -2.064  1.00  0.00    -0.014 A 
BRANCH  13  14
ATOM     14  C   UNL     1       4.761   4.556  -2.702  1.00  0.00     0.031 A 
ATOM     15  C   UNL     1       5.359   5.646  -1.864  1.00  0.00     0.074 A 
ATOM     16  C   UNL     1       4.764   4.650  -4.044  1.00  0.00     0.049 A 
ATOM     17  N   UNL     1       5.877   6.788  -2.239  1.00  0.00    -0.248 NA
ATOM     18  C   UNL     1       5.367   5.430  -0.410  1.00  0.00     0.031 C 
ATOM     19  C   UNL     1       4.208   3.651  -4.958  1.00  0.00     0.029 A 
ATOM     20  N   UNL     1       5.237   5.635  -4.872  1.00  0.00    -0.354 N 
ATOM     21  C   UNL     1       6.250   7.436  -1.070  1.00  0.00     0.074 A 
ATOM     22  C   UNL     1       5.880   6.570   0.030  1.00  0.00     0.031 C 
ATOM     23  C   UNL     1       4.377   4.071  -6.221  1.00  0.00     0.029 A 
ATOM     24  C   UNL     1       5.001   5.390  -6.201  1.00  0.00     0.049 A 
ATOM     25  H   UNL     1       5.701   6.440  -4.545  1.00  0.00     0.167 HD
ATOM     26  C   UNL     1       6.851   8.643  -0.932  1.00  0.00     0.037 A 
ATOM     27  C   UNL     1       5.232   6.156  -7.283  1.00  0.00     0.037 A 
ATOM     28  C   UNL     1       7.223   9.492  -2.035  1.00  0.00     0.049 A 
ATOM     29  C   UNL     1       5.871   7.503  -7.104  1.00  0.00     0.074 A 
ATOM     30  C   UNL     1       7.871  10.715  -2.004  1.00  0.00     0.029 A 
ATOM     31  N   UNL     1       6.971   9.208  -3.370  1.00  0.00    -0.354 N 
ATOM     32  N   UNL     1       6.251   8.095  -5.998  1.00  0.00    -0.248 NA
ATOM     33  C   UNL     1       6.113   8.289  -8.320  1.00  0.00     0.031 C 
ATOM     34  C   UNL     1       7.967  11.193  -3.315  1.00  0.00     0.029 A 
ATOM     35  C   UNL     1       7.429  10.243  -4.170  1.00  0.00     0.049 A 
ATOM     36  H   UNL     1       6.532   8.391  -3.701  1.00  0.00     0.167 HD
ATOM     37  C   UNL     1       6.800   9.308  -6.383  1.00  0.00     0.074 A 
ATOM     38  C   UNL     1       6.708   9.368  -7.828  1.00  0.00     0.031 C 
ATOM     39  C   UNL     1       7.337  10.282  -5.608  1.00  0.00     0.037 A 
BRANCH  26  40
ATOM     40  C   UNL     1       7.117   9.129   0.464  1.00  0.00     0.064 A 
ATOM     41  C   UNL     1       8.093   8.538   1.280  1.00  0.00     0.173 A 
ATOM     42  C   UNL     1       6.397  10.215   0.985  1.00  0.00     0.173 A 
ATOM     43  F   UNL     1       8.802   7.490   0.835  1.00  0.00    -0.203 F 
ATOM     44  C   UNL     1       8.314   8.994   2.578  1.00  0.00     0.198 A 
ATOM     45  C   UNL     1       6.641  10.687   2.272  1.00  0.00     0.198 A 
ATOM     46  F   UNL     1       5.456  10.821   0.245  1.00  0.00    -0.203 F 
ATOM     47  F   UNL     1       9.213   8.379   3.358  1.00  0.00    -0.200 F 
ATOM     48  C   UNL     1       7.592  10.071   3.071  1.00  0.00     0.200 A 
ATOM     49  F   UNL     1       5.950  11.735   2.743  1.00  0.00    -0.200 F 
ATOM     50  F   UNL     1       7.806  10.507   4.319  1.00  0.00    -0.200 F 
ENDBRANCH  26  40
BRANCH  27  51
ATOM     51  C   UNL     1       4.847   5.651  -8.624  1.00  0.00     0.064 A 
ATOM     52  C   UNL     1       5.818   5.242  -9.547  1.00  0.00     0.173 A 
ATOM     53  C   UNL     1       3.499   5.518  -8.990  1.00  0.00     0.173 A 
ATOM     54  F   UNL     1       7.120   5.367  -9.248  1.00  0.00    -0.203 F 
ATOM     55  C   UNL     1       5.456   4.721 -10.787  1.00  0.00     0.198 A 
ATOM     56  C   UNL     1       3.138   4.973 -10.220  1.00  0.00     0.198 A 
ATOM     57  F   UNL     1       2.532   5.890  -8.138  1.00  0.00    -0.203 F 
ATOM     58  F   UNL     1       6.404   4.360 -11.662  1.00  0.00    -0.200 F 
ATOM     59  C   UNL     1       4.117   4.578 -11.119  1.00  0.00     0.200 A 
ATOM     60  F   UNL     1       1.843   4.822 -10.529  1.00  0.00    -0.200 F 
ATOM     61  F   UNL     1       3.769   4.061 -12.305  1.00  0.00    -0.200 F 
ENDBRANCH  27  51
BRANCH  39  62
ATOM     62  C   UNL     1       7.909  11.480  -6.306  1.00  0.00     0.064 A 
ATOM     63  C   UNL     1       7.088  12.464  -6.875  1.00  0.00     0.173 A 
ATOM     64  C   UNL     1       9.299  11.673  -6.352  1.00  0.00     0.173 A 
ATOM     65  F   UNL     1       5.755  12.316  -6.870  1.00  0.00    -0.203 F 
ATOM     66  C   UNL     1       7.639  13.592  -7.477  1.00  0.00     0.198 A 
ATOM     67  C   UNL     1       9.844  12.814  -6.931  1.00  0.00     0.198 A 
ATOM     68  F   UNL     1      10.126  10.761  -5.817  1.00  0.00    -0.203 F 
ATOM     69  F   UNL     1       6.839  14.504  -8.045  1.00  0.00    -0.200 F 
ATOM     70  C   UNL     1       9.015  13.770  -7.497  1.00  0.00     0.200 A 
ATOM     71  F   UNL     1      11.173  12.990  -6.938  1.00  0.00    -0.200 F 
ATOM     72  F   UNL     1       9.542  14.864  -8.065  1.00  0.00    -0.200 F 
ENDBRANCH  39  62
ENDBRANCH  13  14
ENDBRANCH   6   8
ENDBRANCH   3   4
ENDBRANCH   2   3
ENDBRANCH   1   2
BRANCH   1  73
ATOM     73  C   UNL     1       4.459  -3.634   2.380  1.00  0.00     0.002 C 
BRANCH  73  74
ATOM     74  C   UNL     1       5.987  -3.707   2.406  1.00  0.00     0.021 C 
BRANCH  74  75
ATOM     75  C   UNL     1       6.588  -3.455   3.784  1.00  0.00     0.116 C 
BRANCH  75  76
ATOM     76  N   UNL     1       6.601  -4.640   4.618  1.00  0.00    -0.356 N 
ATOM     77  C   UNL     1       7.623  -5.393   5.107  1.00  0.00     0.229 C 
ATOM     78  H   UNL     1       5.707  -4.959   4.878  1.00  0.00     0.163 HD
ATOM     79  O   UNL     1       7.312  -6.307   5.880  1.00  0.00    -0.274 OA
BRANCH  77  80
ATOM     80  C   UNL     1       9.079  -5.237   4.694  1.00  0.00     0.131 C 
ATOM     81  C   UNL     1       9.296  -5.767   3.272  1.00  0.00     0.154 C 
ATOM     82  C   UNL     1       9.638  -3.849   4.624  1.00  0.00    -0.009 A 
ATOM     83  N   UNL     1       9.621  -4.567   2.405  1.00  0.00    -0.265 N 
ATOM     84  C   UNL     1       9.965  -3.502   3.308  1.00  0.00     0.056 A 
ATOM     85  C   UNL     1       9.720  -2.932   5.667  1.00  0.00     0.007 A 
ATOM     86  C   UNL     1      10.254  -2.180   3.007  1.00  0.00     0.027 A 
ATOM     87  C   UNL     1      10.073  -1.617   5.367  1.00  0.00     0.000 A 
ATOM     88  C   UNL     1      10.322  -1.241   4.043  1.00  0.00     0.002 A 
BRANCH  83  89
ATOM     89  S   UNL     1      10.611  -4.985   1.086  1.00  0.00     0.265 S 
ATOM     90  O   UNL     1      11.936  -5.285   1.596  1.00  0.00    -0.201 OA
ATOM     91  O   UNL     1       9.889  -5.966   0.305  1.00  0.00    -0.201 OA
BRANCH  89  92
ATOM     92  C   UNL     1      10.732  -3.542   0.096  1.00  0.00     0.106 A 
ATOM     93  C   UNL     1      11.898  -2.773   0.082  1.00  0.00     0.027 A 
ATOM     94  C   UNL     1       9.664  -3.167  -0.699  1.00  0.00     0.135 A 
ATOM     95  C   UNL     1      11.925  -1.611  -0.683  1.00  0.00     0.042 A 
ATOM     96  N   UNL     1       9.665  -2.038  -1.449  1.00  0.00    -0.243 NA
ATOM     97  C   UNL     1      10.794  -1.292  -1.418  1.00  0.00     0.129 A 
ATOM     98  Cl  UNL     1      10.730   0.144  -2.350  1.00  0.00    -0.062 Cl
ENDBRANCH  89  92
ENDBRANCH  83  89
ENDBRANCH  77  80
ENDBRANCH  75  76
ENDBRANCH  74  75
ENDBRANCH  73  74
ENDBRANCH   1  73
TORSDOF 15
