REMARK SMILES CCc1ccc(C(=O)NC[C@@H](CC(C)C)C(=O)NCCCCCCNC(=O)c2ccc(-c3c4nc(c(-c5c(F)c(F)c(F)c(F)c5F)c5ccc([nH]5)c(-c5c(F)c(F)c(F)c(F)c5F)c5nc(c(-c6c(F)c(F)c(F)c(F)c6F)c6ccc3[nH]6)C=C5)C=C4)cc2)s1
REMARK SMILES IDX 20 1 19 2 18 3 16 4 17 5 11 7 10 8 9 9 7 10 8 11 6 13 3 14
REMARK SMILES IDX 4 15 91 16 5 17 2 18 1 19 12 20 13 21 14 22 15 23 21 24
REMARK SMILES IDX 22 25 23 26 24 27 25 28 26 29 27 31 28 32 29 33 90 34 30 35
REMARK SMILES IDX 89 36 31 37 32 38 33 39 83 40 34 41 88 42 82 43 84 44 35 45
REMARK SMILES IDX 87 46 81 47 80 48 36 50 68 51 48 52 67 53 49 54 52 55 66 56
REMARK SMILES IDX 85 57 50 58 51 59 65 61 86 62 53 63 37 64 38 65 46 66 39 67
REMARK SMILES IDX 40 68 44 69 47 70 41 71 42 72 45 73 43 74 69 75 70 76 78 77
REMARK SMILES IDX 71 78 72 79 76 80 79 81 73 82 74 83 77 84 75 85 54 86 55 87
REMARK SMILES IDX 63 88 56 89 57 90 61 91 64 92 58 93 59 94 62 95 60 96
REMARK H PARENT 18 6 9 12 25 30 84 49 52 60
REMARK Flexibility Score: inf
ROOT
ATOM      1  C   UNL     1       3.681   5.744   4.975  1.00  0.00     0.021 C 
ENDROOT
BRANCH   1   2
ATOM      2  C   UNL     1       2.993   5.072   6.153  1.00  0.00     0.116 C 
BRANCH   2   3
ATOM      3  N   UNL     1       1.568   4.912   5.965  1.00  0.00    -0.356 N 
ATOM      4  C   UNL     1       0.686   4.040   6.521  1.00  0.00     0.224 C 
ATOM      5  O   UNL     1      -0.513   4.260   6.321  1.00  0.00    -0.275 OA
ATOM      6  H   UNL     1       1.168   5.543   5.323  1.00  0.00     0.163 HD
BRANCH   4   7
ATOM      7  C   UNL     1       1.106   2.843   7.371  1.00  0.00     0.098 C 
BRANCH   7   8
ATOM      8  C   UNL     1       2.285   2.050   6.789  1.00  0.00     0.129 C 
BRANCH   8   9
ATOM      9  N   UNL     1       2.132   0.612   6.913  1.00  0.00    -0.351 N 
ATOM     10  C   UNL     1       1.929  -0.368   5.966  1.00  0.00     0.261 C 
ATOM     11  O   UNL     1       2.128  -1.517   6.373  1.00  0.00    -0.268 OA
ATOM     12  H   UNL     1       2.181   0.278   7.838  1.00  0.00     0.163 HD
BRANCH  10  13
ATOM     13  C   UNL     1       1.504  -0.061   4.602  1.00  0.00     0.092 A 
ATOM     14  C   UNL     1       0.892  -0.395   2.199  1.00  0.00     0.005 A 
ATOM     15  C   UNL     1       0.589   0.871   2.650  1.00  0.00     0.016 A 
ATOM     16  S   UNL     1       1.651  -1.316   3.424  1.00  0.00    -0.135 S 
ATOM     17  C   UNL     1       0.920   1.053   4.029  1.00  0.00     0.026 A 
BRANCH  14  18
ATOM     18  C   UNL     1       0.586  -1.019   0.866  1.00  0.00     0.043 C 
ATOM     19  C   UNL     1       1.084  -0.190  -0.308  1.00  0.00     0.010 C 
ENDBRANCH  14  18
ENDBRANCH  10  13
ENDBRANCH   8   9
ENDBRANCH   7   8
BRANCH   7  20
ATOM     20  C   UNL     1       1.217   3.150   8.888  1.00  0.00     0.018 C 
BRANCH  20  21
ATOM     21  C   UNL     1       2.249   4.208   9.333  1.00  0.00    -0.017 C 
ATOM     22  C   UNL     1       1.649   5.620   9.366  1.00  0.00     0.007 C 
ATOM     23  C   UNL     1       2.805   3.895  10.727  1.00  0.00     0.007 C 
ENDBRANCH  20  21
ENDBRANCH   7  20
ENDBRANCH   4   7
ENDBRANCH   2   3
ENDBRANCH   1   2
BRANCH   1  24
ATOM     24  C   UNL     1       3.413   7.246   4.861  1.00  0.00     0.002 C 
BRANCH  24  25
ATOM     25  C   UNL     1       3.656   8.070   6.131  1.00  0.00     0.002 C 
BRANCH  25  26
ATOM     26  C   UNL     1       5.009   7.866   6.819  1.00  0.00     0.021 C 
BRANCH  26  27
ATOM     27  C   UNL     1       6.229   8.025   5.922  1.00  0.00     0.116 C 
BRANCH  27  28
ATOM     28  N   UNL     1       6.279   9.319   5.267  1.00  0.00    -0.352 N 
ATOM     29  C   UNL     1       7.333  10.185   5.131  1.00  0.00     0.251 C 
ATOM     30  H   UNL     1       5.433   9.619   4.862  1.00  0.00     0.163 HD
ATOM     31  O   UNL     1       7.153  11.306   4.663  1.00  0.00    -0.269 OA
BRANCH  29  32
ATOM     32  C   UNL     1       8.682   9.782   5.577  1.00  0.00     0.039 A 
ATOM     33  C   UNL     1       9.444  10.697   6.307  1.00  0.00     0.014 A 
ATOM     34  C   UNL     1       9.198   8.517   5.281  1.00  0.00     0.014 A 
ATOM     35  C   UNL     1      10.700  10.325   6.786  1.00  0.00     0.010 A 
ATOM     36  C   UNL     1      10.416   8.120   5.826  1.00  0.00     0.010 A 
ATOM     37  C   UNL     1      11.182   9.022   6.580  1.00  0.00    -0.014 A 
BRANCH  37  38
ATOM     38  C   UNL     1      12.484   8.592   7.150  1.00  0.00     0.031 A 
ATOM     39  C   UNL     1      13.616   8.197   6.243  1.00  0.00     0.074 A 
ATOM     40  C   UNL     1      12.629   8.513   8.487  1.00  0.00     0.049 A 
ATOM     41  N   UNL     1      14.810   7.756   6.553  1.00  0.00    -0.248 NA
ATOM     42  C   UNL     1      13.368   8.284   4.796  1.00  0.00     0.031 C 
ATOM     43  C   UNL     1      11.589   8.826   9.469  1.00  0.00     0.029 A 
ATOM     44  N   UNL     1      13.705   8.139   9.252  1.00  0.00    -0.354 N 
ATOM     45  C   UNL     1      15.447   7.508   5.344  1.00  0.00     0.074 A 
ATOM     46  C   UNL     1      14.490   7.789   4.296  1.00  0.00     0.031 C 
ATOM     47  C   UNL     1      12.086   8.659  10.704  1.00  0.00     0.029 A 
ATOM     48  C   UNL     1      13.463   8.186  10.604  1.00  0.00     0.049 A 
ATOM     49  H   UNL     1      14.569   7.865   8.869  1.00  0.00     0.167 HD
ATOM     50  C   UNL     1      16.723   7.107   5.128  1.00  0.00     0.037 A 
ATOM     51  C   UNL     1      14.259   7.872  11.644  1.00  0.00     0.037 A 
ATOM     52  C   UNL     1      17.675   6.844   6.176  1.00  0.00     0.049 A 
ATOM     53  C   UNL     1      15.665   7.407  11.374  1.00  0.00     0.074 A 
ATOM     54  C   UNL     1      19.007   6.485   6.060  1.00  0.00     0.029 A 
ATOM     55  N   UNL     1      17.395   6.905   7.533  1.00  0.00    -0.354 N 
ATOM     56  N   UNL     1      16.279   7.247  10.227  1.00  0.00    -0.248 NA
ATOM     57  C   UNL     1      16.491   7.086  12.546  1.00  0.00     0.031 C 
ATOM     58  C   UNL     1      19.515   6.271   7.345  1.00  0.00     0.029 A 
ATOM     59  C   UNL     1      18.520   6.562   8.265  1.00  0.00     0.049 A 
ATOM     60  H   UNL     1      16.524   7.156   7.919  1.00  0.00     0.167 HD
ATOM     61  C   UNL     1      17.570   6.839  10.539  1.00  0.00     0.074 A 
ATOM     62  C   UNL     1      17.654   6.795  11.984  1.00  0.00     0.031 C 
ATOM     63  C   UNL     1      18.592   6.529   9.704  1.00  0.00     0.037 A 
BRANCH  50  64
ATOM     64  C   UNL     1      17.166   6.927   3.704  1.00  0.00     0.064 A 
ATOM     65  C   UNL     1      17.317   8.019   2.835  1.00  0.00     0.173 A 
ATOM     66  C   UNL     1      17.485   5.652   3.213  1.00  0.00     0.173 A 
ATOM     67  F   UNL     1      17.016   9.259   3.249  1.00  0.00    -0.203 F 
ATOM     68  C   UNL     1      17.742   7.837   1.521  1.00  0.00     0.198 A 
ATOM     69  C   UNL     1      17.942   5.478   1.909  1.00  0.00     0.198 A 
ATOM     70  F   UNL     1      17.364   4.573   4.001  1.00  0.00    -0.203 F 
ATOM     71  F   UNL     1      17.829   8.889   0.695  1.00  0.00    -0.200 F 
ATOM     72  C   UNL     1      18.063   6.569   1.062  1.00  0.00     0.200 A 
ATOM     73  F   UNL     1      18.267   4.253   1.472  1.00  0.00    -0.200 F 
ATOM     74  F   UNL     1      18.482   6.397  -0.199  1.00  0.00    -0.200 F 
ENDBRANCH  50  64
BRANCH  51  75
ATOM     75  C   UNL     1      13.753   8.002  13.037  1.00  0.00     0.064 A 
ATOM     76  C   UNL     1      14.284   8.961  13.912  1.00  0.00     0.173 A 
ATOM     77  C   UNL     1      12.743   7.162  13.528  1.00  0.00     0.173 A 
ATOM     78  F   UNL     1      15.264   9.776  13.496  1.00  0.00    -0.203 F 
ATOM     79  C   UNL     1      13.845   9.054  15.231  1.00  0.00     0.198 A 
ATOM     80  C   UNL     1      12.281   7.279  14.837  1.00  0.00     0.198 A 
ATOM     81  F   UNL     1      12.195   6.232  12.732  1.00  0.00    -0.203 F 
ATOM     82  F   UNL     1      14.410   9.942  16.061  1.00  0.00    -0.200 F 
ATOM     83  C   UNL     1      12.841   8.217  15.691  1.00  0.00     0.200 A 
ATOM     84  F   UNL     1      11.298   6.479  15.272  1.00  0.00    -0.200 F 
ATOM     85  F   UNL     1      12.418   8.308  16.959  1.00  0.00    -0.200 F 
ENDBRANCH  51  75
BRANCH  63  86
ATOM     86  C   UNL     1      19.904   6.152  10.332  1.00  0.00     0.064 A 
ATOM     87  C   UNL     1      20.074   4.944  11.024  1.00  0.00     0.173 A 
ATOM     88  C   UNL     1      21.017   6.999  10.209  1.00  0.00     0.173 A 
ATOM     89  F   UNL     1      19.039   4.105  11.182  1.00  0.00    -0.203 F 
ATOM     90  C   UNL     1      21.299   4.613  11.597  1.00  0.00     0.198 A 
ATOM     91  C   UNL     1      22.250   6.649  10.752  1.00  0.00     0.198 A 
ATOM     92  F   UNL     1      20.912   8.163   9.551  1.00  0.00    -0.203 F 
ATOM     93  F   UNL     1      21.422   3.480  12.302  1.00  0.00    -0.200 F 
ATOM     94  C   UNL     1      22.387   5.461  11.454  1.00  0.00     0.200 A 
ATOM     95  F   UNL     1      23.304   7.461  10.597  1.00  0.00    -0.200 F 
ATOM     96  F   UNL     1      23.568   5.137  11.999  1.00  0.00    -0.200 F 
ENDBRANCH  63  86
ENDBRANCH  37  38
ENDBRANCH  29  32
ENDBRANCH  27  28
ENDBRANCH  26  27
ENDBRANCH  25  26
ENDBRANCH  24  25
ENDBRANCH   1  24
TORSDOF 19
