REMARK SMILES NS(=O)(=O)c1ccc(-n2nc(C(=O)NCCCCCCNC(=O)c3ccc(-c4c5nc(c(-c6c(F)c(F)c(F)c(F)c6F)c6ccc([nH]6)c(-c6c(F)c(F)c(F)c(F)c6F)c6nc(c(-c7c(F)c(F)c(F)c(F)c7F)c7ccc4[nH]7)C=C6)C=C5)cc3)cc2-c2cc3ccccc3s2)cc1
REMARK SMILES IDX 17 1 16 2 15 3 14 4 12 5 13 6 11 8 9 9 10 10 88 11 87 12
REMARK SMILES IDX 8 13 5 14 6 15 99 16 7 17 98 18 2 19 3 20 4 21 1 22 89 25
REMARK SMILES IDX 90 26 97 27 91 28 96 29 92 30 95 31 93 32 94 33 18 34 19 35
REMARK SMILES IDX 20 36 21 37 22 38 23 40 24 41 25 42 86 43 26 44 85 45 27 46
REMARK SMILES IDX 28 47 29 48 79 49 30 50 84 51 78 52 80 53 31 54 83 55 77 56
REMARK SMILES IDX 76 57 32 59 64 60 44 61 63 62 45 63 48 64 62 65 81 66 46 67
REMARK SMILES IDX 47 68 61 70 82 71 49 72 33 73 34 74 42 75 35 76 36 77 40 78
REMARK SMILES IDX 43 79 37 80 38 81 41 82 39 83 65 84 66 85 74 86 67 87 68 88
REMARK SMILES IDX 72 89 75 90 69 91 70 92 73 93 71 94 50 95 51 96 59 97 52 98
REMARK SMILES IDX 53 99 57 100 60 101 54 102 55 103 58 104 56 105
REMARK H PARENT 14 7 1 23 1 24 21 39 80 58 48 69
REMARK Flexibility Score: inf
ROOT
ATOM      1  C   UNL     1       2.071   8.958 -10.387  1.00  0.00     0.002 C 
ENDROOT
BRANCH   1   2
ATOM      2  C   UNL     1       1.604   7.618  -9.799  1.00  0.00     0.021 C 
BRANCH   2   3
ATOM      3  C   UNL     1       2.739   6.767  -9.223  1.00  0.00     0.116 C 
BRANCH   3   4
ATOM      4  N   UNL     1       3.108   7.208  -7.887  1.00  0.00    -0.351 N 
ATOM      5  C   UNL     1       2.978   6.636  -6.635  1.00  0.00     0.271 C 
ATOM      6  O   UNL     1       3.510   7.244  -5.704  1.00  0.00    -0.267 OA
ATOM      7  H   UNL     1       3.539   8.094  -7.872  1.00  0.00     0.163 HD
BRANCH   5   8
ATOM      8  C   UNL     1       2.296   5.340  -6.448  1.00  0.00     0.151 A 
ATOM      9  N   UNL     1       2.010   3.351  -5.682  1.00  0.00    -0.231 N 
ATOM     10  N   UNL     1       2.523   4.567  -5.365  1.00  0.00    -0.162 NA
ATOM     11  C   UNL     1       1.457   3.357  -6.940  1.00  0.00     0.085 A 
ATOM     12  C   UNL     1       1.355   4.695  -7.275  1.00  0.00     0.066 A 
BRANCH   9  13
ATOM     13  C   UNL     1       1.772   2.388  -4.681  1.00  0.00     0.065 A 
ATOM     14  C   UNL     1       1.035   0.525  -2.773  1.00  0.00     0.082 A 
ATOM     15  C   UNL     1       1.784   0.116  -3.884  1.00  0.00     0.024 A 
ATOM     16  C   UNL     1       0.663   1.862  -2.603  1.00  0.00     0.024 A 
ATOM     17  C   UNL     1       2.134   1.050  -4.860  1.00  0.00     0.030 A 
ATOM     18  C   UNL     1       1.058   2.803  -3.547  1.00  0.00     0.030 A 
BRANCH  14  19
ATOM     19  S   UNL     1       0.550  -0.659  -1.556  1.00  0.00     0.238 S 
ATOM     20  O   UNL     1       1.240  -1.899  -1.788  1.00  0.00    -0.207 OA
ATOM     21  O   UNL     1      -0.888  -0.581  -1.392  1.00  0.00    -0.207 OA
BRANCH  19  22
ATOM     22  N   UNL     1       1.221  -0.022  -0.155  1.00  0.00    -0.225 NA
ATOM     23  H   UNL     1       1.004  -0.631   0.634  1.00  0.00     0.137 HD
ATOM     24  H   UNL     1       0.834   0.906   0.016  1.00  0.00     0.137 HD
ENDBRANCH  19  22
ENDBRANCH  14  19
ENDBRANCH   9  13
BRANCH  11  25
ATOM     25  C   UNL     1       1.187   2.259  -7.829  1.00  0.00     0.054 A 
ATOM     26  C   UNL     1       0.089   2.164  -8.677  1.00  0.00     0.031 A 
ATOM     27  S   UNL     1       2.531   1.692  -8.784  1.00  0.00    -0.134 S 
ATOM     28  C   UNL     1       0.515   2.768  -9.930  1.00  0.00    -0.007 A 
ATOM     29  C   UNL     1       1.908   2.674 -10.074  1.00  0.00     0.035 A 
ATOM     30  C   UNL     1      -0.206   3.520 -10.883  1.00  0.00     0.009 A 
ATOM     31  C   UNL     1       2.606   3.332 -11.095  1.00  0.00     0.019 A 
ATOM     32  C   UNL     1       0.488   4.233 -11.866  1.00  0.00     0.001 A 
ATOM     33  C   UNL     1       1.875   4.145 -11.963  1.00  0.00     0.001 A 
ENDBRANCH  11  25
ENDBRANCH   5   8
ENDBRANCH   3   4
ENDBRANCH   2   3
ENDBRANCH   1   2
BRANCH   1  34
ATOM     34  C   UNL     1       3.071   8.873 -11.556  1.00  0.00     0.002 C 
BRANCH  34  35
ATOM     35  C   UNL     1       2.648   8.020 -12.759  1.00  0.00     0.021 C 
BRANCH  35  36
ATOM     36  C   UNL     1       1.465   8.581 -13.528  1.00  0.00     0.116 C 
BRANCH  36  37
ATOM     37  N   UNL     1       1.792   9.794 -14.281  1.00  0.00    -0.352 N 
ATOM     38  C   UNL     1       0.970  10.494 -15.148  1.00  0.00     0.251 C 
ATOM     39  H   UNL     1       2.700  10.153 -14.157  1.00  0.00     0.163 HD
ATOM     40  O   UNL     1       1.422  11.251 -15.996  1.00  0.00    -0.269 OA
BRANCH  38  41
ATOM     41  C   UNL     1      -0.484  10.321 -15.001  1.00  0.00     0.039 A 
ATOM     42  C   UNL     1      -1.346  10.192 -16.094  1.00  0.00     0.014 A 
ATOM     43  C   UNL     1      -0.963  10.236 -13.697  1.00  0.00     0.014 A 
ATOM     44  C   UNL     1      -2.688   9.908 -15.850  1.00  0.00     0.010 A 
ATOM     45  C   UNL     1      -2.214   9.745 -13.472  1.00  0.00     0.010 A 
ATOM     46  C   UNL     1      -3.107   9.672 -14.530  1.00  0.00    -0.014 A 
BRANCH  46  47
ATOM     47  C   UNL     1      -4.452   9.212 -14.211  1.00  0.00     0.031 A 
ATOM     48  C   UNL     1      -4.822   7.953 -14.907  1.00  0.00     0.074 A 
ATOM     49  C   UNL     1      -5.165   9.748 -13.193  1.00  0.00     0.049 A 
ATOM     50  N   UNL     1      -5.735   7.795 -15.805  1.00  0.00    -0.248 NA
ATOM     51  C   UNL     1      -3.969   6.766 -14.715  1.00  0.00     0.031 C 
ATOM     52  C   UNL     1      -4.755  10.806 -12.258  1.00  0.00     0.029 A 
ATOM     53  N   UNL     1      -6.387   9.392 -12.707  1.00  0.00    -0.354 N 
ATOM     54  C   UNL     1      -5.730   6.438 -16.117  1.00  0.00     0.074 A 
ATOM     55  C   UNL     1      -4.501   5.910 -15.590  1.00  0.00     0.031 C 
ATOM     56  C   UNL     1      -5.596  10.842 -11.201  1.00  0.00     0.029 A 
ATOM     57  C   UNL     1      -6.699   9.940 -11.461  1.00  0.00     0.049 A 
ATOM     58  H   UNL     1      -7.001   8.797 -13.195  1.00  0.00     0.167 HD
ATOM     59  C   UNL     1      -6.882   5.826 -16.508  1.00  0.00     0.037 A 
ATOM     60  C   UNL     1      -7.787   9.665 -10.697  1.00  0.00     0.037 A 
ATOM     61  C   UNL     1      -7.850   6.809 -16.938  1.00  0.00     0.049 A 
ATOM     62  C   UNL     1      -8.806   9.074 -11.596  1.00  0.00     0.074 A 
ATOM     63  C   UNL     1      -7.901   7.761 -17.936  1.00  0.00     0.029 A 
ATOM     64  N   UNL     1      -8.814   7.167 -16.029  1.00  0.00    -0.354 N 
ATOM     65  N   UNL     1      -9.382   9.738 -12.560  1.00  0.00    -0.248 NA
ATOM     66  C   UNL     1      -8.812   7.629 -11.738  1.00  0.00     0.031 C 
ATOM     67  C   UNL     1      -8.567   8.880 -17.349  1.00  0.00     0.029 A 
ATOM     68  C   UNL     1      -8.966   8.527 -16.059  1.00  0.00     0.049 A 
ATOM     69  H   UNL     1      -9.314   6.548 -15.450  1.00  0.00     0.167 HD
ATOM     70  C   UNL     1      -9.416   8.849 -13.625  1.00  0.00     0.074 A 
ATOM     71  C   UNL     1      -9.130   7.542 -13.033  1.00  0.00     0.031 C 
ATOM     72  C   UNL     1      -9.371   9.307 -14.911  1.00  0.00     0.037 A 
BRANCH  59  73
ATOM     73  C   UNL     1      -7.298   4.435 -16.069  1.00  0.00     0.064 A 
ATOM     74  C   UNL     1      -8.521   3.917 -16.549  1.00  0.00     0.173 A 
ATOM     75  C   UNL     1      -6.740   3.736 -14.976  1.00  0.00     0.173 A 
ATOM     76  F   UNL     1      -9.150   4.498 -17.582  1.00  0.00    -0.203 F 
ATOM     77  C   UNL     1      -9.179   2.859 -15.915  1.00  0.00     0.198 A 
ATOM     78  C   UNL     1      -7.376   2.650 -14.377  1.00  0.00     0.198 A 
ATOM     79  F   UNL     1      -5.618   4.127 -14.364  1.00  0.00    -0.203 F 
ATOM     80  F   UNL     1     -10.404   2.500 -16.321  1.00  0.00    -0.200 F 
ATOM     81  C   UNL     1      -8.612   2.235 -14.821  1.00  0.00     0.200 A 
ATOM     82  F   UNL     1      -6.815   2.070 -13.306  1.00  0.00    -0.200 F 
ATOM     83  F   UNL     1      -9.271   1.271 -14.166  1.00  0.00    -0.200 F 
ENDBRANCH  59  73
BRANCH  60  84
ATOM     84  C   UNL     1      -7.878   9.571  -9.218  1.00  0.00     0.064 A 
ATOM     85  C   UNL     1      -9.117   9.588  -8.553  1.00  0.00     0.173 A 
ATOM     86  C   UNL     1      -6.766   9.174  -8.450  1.00  0.00     0.173 A 
ATOM     87  F   UNL     1     -10.237   9.895  -9.223  1.00  0.00    -0.203 F 
ATOM     88  C   UNL     1      -9.235   9.219  -7.206  1.00  0.00     0.198 A 
ATOM     89  C   UNL     1      -6.884   8.808  -7.107  1.00  0.00     0.198 A 
ATOM     90  F   UNL     1      -5.558   9.037  -9.016  1.00  0.00    -0.203 F 
ATOM     91  F   UNL     1     -10.441   9.194  -6.621  1.00  0.00    -0.200 F 
ATOM     92  C   UNL     1      -8.120   8.821  -6.487  1.00  0.00     0.200 A 
ATOM     93  F   UNL     1      -5.804   8.379  -6.439  1.00  0.00    -0.200 F 
ATOM     94  F   UNL     1      -8.240   8.411  -5.217  1.00  0.00    -0.200 F 
ENDBRANCH  60  84
BRANCH  72  95
ATOM     95  C   UNL     1      -9.571  10.785 -15.130  1.00  0.00     0.064 A 
ATOM     96  C   UNL     1      -8.692  11.785 -14.675  1.00  0.00     0.173 A 
ATOM     97  C   UNL     1     -10.630  11.193 -15.950  1.00  0.00     0.173 A 
ATOM     98  F   UNL     1      -7.603  11.475 -13.964  1.00  0.00    -0.203 F 
ATOM     99  C   UNL     1      -8.891  13.129 -14.992  1.00  0.00     0.198 A 
ATOM    100  C   UNL     1     -10.807  12.530 -16.296  1.00  0.00     0.198 A 
ATOM    101  F   UNL     1     -11.472  10.280 -16.459  1.00  0.00    -0.203 F 
ATOM    102  F   UNL     1      -8.043  14.062 -14.534  1.00  0.00    -0.200 F 
ATOM    103  C   UNL     1      -9.945  13.499 -15.809  1.00  0.00     0.200 A 
ATOM    104  F   UNL     1     -11.800  12.875 -17.127  1.00  0.00    -0.200 F 
ATOM    105  F   UNL     1     -10.116  14.784 -16.149  1.00  0.00    -0.200 F 
ENDBRANCH  72  95
ENDBRANCH  46  47
ENDBRANCH  38  41
ENDBRANCH  36  37
ENDBRANCH  35  36
ENDBRANCH  34  35
ENDBRANCH   1  34
TORSDOF 17
