REMARK SMILES O=C(NCCCCCCNC(=O)[C@H]1[C@H]2CC[C@H](C2)[C@@H]1C(=O)N[C@H]1CCCc2ccccc21)c1ccc(-c2c3nc(c(-c4c(F)c(F)c(F)c(F)c4F)c4ccc([nH]4)c(-c4c(F)c(F)c(F)c(F)c4F)c4nc(c(-c5c(F)c(F)c(F)c(F)c5F)c5ccc2[nH]5)C=C4)C=C3)cc1
REMARK SMILES IDX 6 1 5 2 4 3 3 4 1 5 2 6 33 8 34 9 95 10 35 11 94 12 36 13
REMARK SMILES IDX 37 14 38 15 88 16 39 17 93 18 87 19 89 20 40 21 92 22 86 23
REMARK SMILES IDX 85 24 41 26 73 27 53 28 72 29 54 30 57 31 71 32 90 33 55 34
REMARK SMILES IDX 56 35 70 37 91 38 58 39 42 40 43 41 51 42 44 43 45 44 49 45
REMARK SMILES IDX 52 46 46 47 47 48 50 49 48 50 74 51 75 52 83 53 76 54 77 55
REMARK SMILES IDX 81 56 84 57 78 58 79 59 82 60 80 61 59 62 60 63 68 64 61 65
REMARK SMILES IDX 62 66 66 67 69 68 63 69 64 70 67 71 65 72 7 73 8 74 9 75
REMARK SMILES IDX 10 76 11 77 12 79 13 80 14 81 19 82 15 83 18 84 17 85 16 86
REMARK SMILES IDX 20 87 21 88 22 89 23 91 24 92 32 93 25 94 27 95 31 96 26 97
REMARK SMILES IDX 28 98 30 99 29 100
REMARK H PARENT 3 7 89 25 57 36 10 78 22 90
REMARK Flexibility Score: inf
ROOT
ATOM      1  C   UNL     1       0.628   7.518  -2.797  1.00  0.00     0.002 C 
ENDROOT
BRANCH   1   2
ATOM      2  C   UNL     1       1.563   8.508  -2.105  1.00  0.00     0.021 C 
BRANCH   2   3
ATOM      3  C   UNL     1       1.660   9.869  -2.780  1.00  0.00     0.116 C 
BRANCH   3   4
ATOM      4  N   UNL     1       0.407  10.606  -2.738  1.00  0.00    -0.352 N 
ATOM      5  O   UNL     1      -1.020  12.217  -2.048  1.00  0.00    -0.269 OA
ATOM      6  C   UNL     1       0.129  11.811  -2.135  1.00  0.00     0.251 C 
ATOM      7  H   UNL     1      -0.348  10.183  -3.206  1.00  0.00     0.163 HD
BRANCH   6   8
ATOM      8  C   UNL     1       1.242  12.606  -1.573  1.00  0.00     0.039 A 
ATOM      9  C   UNL     1       2.414  12.787  -2.309  1.00  0.00     0.014 A 
ATOM     10  C   UNL     1       1.117  13.165  -0.299  1.00  0.00     0.014 A 
ATOM     11  C   UNL     1       3.514  13.386  -1.713  1.00  0.00     0.010 A 
ATOM     12  C   UNL     1       2.189  13.869   0.257  1.00  0.00     0.010 A 
ATOM     13  C   UNL     1       3.405  13.966  -0.437  1.00  0.00    -0.014 A 
BRANCH  13  14
ATOM     14  C   UNL     1       4.552  14.754   0.081  1.00  0.00     0.031 A 
ATOM     15  C   UNL     1       5.295  14.351   1.322  1.00  0.00     0.074 A 
ATOM     16  C   UNL     1       4.946  15.831  -0.629  1.00  0.00     0.049 A 
ATOM     17  N   UNL     1       6.345  14.912   1.869  1.00  0.00    -0.248 NA
ATOM     18  C   UNL     1       4.801  13.173   2.050  1.00  0.00     0.031 C 
ATOM     19  C   UNL     1       4.281  16.327  -1.838  1.00  0.00     0.029 A 
ATOM     20  N   UNL     1       6.005  16.684  -0.462  1.00  0.00    -0.354 N 
ATOM     21  C   UNL     1       6.633  14.165   3.003  1.00  0.00     0.074 A 
ATOM     22  C   UNL     1       5.628  13.126   3.087  1.00  0.00     0.031 C 
ATOM     23  C   UNL     1       4.979  17.356  -2.336  1.00  0.00     0.029 A 
ATOM     24  C   UNL     1       6.091  17.644  -1.440  1.00  0.00     0.049 A 
ATOM     25  H   UNL     1       6.642  16.615   0.286  1.00  0.00     0.167 HD
ATOM     26  C   UNL     1       7.651  14.328   3.883  1.00  0.00     0.037 A 
ATOM     27  C   UNL     1       6.956  18.664  -1.590  1.00  0.00     0.037 A 
ATOM     28  C   UNL     1       8.647  15.367   3.789  1.00  0.00     0.049 A 
ATOM     29  C   UNL     1       8.050  18.834  -0.576  1.00  0.00     0.074 A 
ATOM     30  C   UNL     1       9.727  15.606   4.622  1.00  0.00     0.029 A 
ATOM     31  N   UNL     1       8.683  16.345   2.804  1.00  0.00    -0.354 N 
ATOM     32  N   UNL     1       8.332  18.096   0.469  1.00  0.00    -0.248 NA
ATOM     33  C   UNL     1       8.947  19.980  -0.765  1.00  0.00     0.031 C 
ATOM     34  C   UNL     1      10.385  16.755   4.172  1.00  0.00     0.029 A 
ATOM     35  C   UNL     1       9.754  17.200   3.023  1.00  0.00     0.049 A 
ATOM     36  H   UNL     1       8.043  16.420   2.060  1.00  0.00     0.167 HD
ATOM     37  C   UNL     1       9.445  18.679   1.056  1.00  0.00     0.074 A 
ATOM     38  C   UNL     1       9.809  19.809   0.225  1.00  0.00     0.031 C 
ATOM     39  C   UNL     1      10.100  18.321   2.187  1.00  0.00     0.037 A 
BRANCH  26  40
ATOM     40  C   UNL     1       7.748  13.369   5.036  1.00  0.00     0.064 A 
ATOM     41  C   UNL     1       8.141  12.035   4.850  1.00  0.00     0.173 A 
ATOM     42  C   UNL     1       7.527  13.808   6.351  1.00  0.00     0.173 A 
ATOM     43  F   UNL     1       8.357  11.560   3.614  1.00  0.00    -0.203 F 
ATOM     44  C   UNL     1       8.298  11.175   5.935  1.00  0.00     0.198 A 
ATOM     45  C   UNL     1       7.712  12.954   7.435  1.00  0.00     0.198 A 
ATOM     46  F   UNL     1       7.157  15.076   6.586  1.00  0.00    -0.203 F 
ATOM     47  F   UNL     1       8.645   9.897   5.730  1.00  0.00    -0.200 F 
ATOM     48  C   UNL     1       8.093  11.637   7.227  1.00  0.00     0.200 A 
ATOM     49  F   UNL     1       7.530  13.408   8.683  1.00  0.00    -0.200 F 
ATOM     50  F   UNL     1       8.263  10.814   8.270  1.00  0.00    -0.200 F 
ENDBRANCH  26  40
BRANCH  27  51
ATOM     51  C   UNL     1       6.801  19.613  -2.723  1.00  0.00     0.064 A 
ATOM     52  C   UNL     1       7.776  19.715  -3.725  1.00  0.00     0.173 A 
ATOM     53  C   UNL     1       5.682  20.454  -2.816  1.00  0.00     0.173 A 
ATOM     54  F   UNL     1       8.873  18.944  -3.673  1.00  0.00    -0.203 F 
ATOM     55  C   UNL     1       7.654  20.645  -4.755  1.00  0.00     0.198 A 
ATOM     56  C   UNL     1       5.541  21.355  -3.868  1.00  0.00     0.198 A 
ATOM     57  F   UNL     1       4.714  20.391  -1.889  1.00  0.00    -0.203 F 
ATOM     58  F   UNL     1       8.632  20.766  -5.663  1.00  0.00    -0.200 F 
ATOM     59  C   UNL     1       6.535  21.460  -4.829  1.00  0.00     0.200 A 
ATOM     60  F   UNL     1       4.447  22.123  -3.947  1.00  0.00    -0.200 F 
ATOM     61  F   UNL     1       6.418  22.354  -5.820  1.00  0.00    -0.200 F 
ENDBRANCH  27  51
BRANCH  39  62
ATOM     62  C   UNL     1      11.294  19.150   2.567  1.00  0.00     0.064 A 
ATOM     63  C   UNL     1      11.159  20.476   3.009  1.00  0.00     0.173 A 
ATOM     64  C   UNL     1      12.588  18.615   2.483  1.00  0.00     0.173 A 
ATOM     65  F   UNL     1       9.944  21.040   3.089  1.00  0.00    -0.203 F 
ATOM     66  C   UNL     1      12.278  21.247   3.309  1.00  0.00     0.198 A 
ATOM     67  C   UNL     1      13.702  19.378   2.821  1.00  0.00     0.198 A 
ATOM     68  F   UNL     1      12.772  17.351   2.074  1.00  0.00    -0.203 F 
ATOM     69  F   UNL     1      12.129  22.532   3.659  1.00  0.00    -0.200 F 
ATOM     70  C   UNL     1      13.547  20.696   3.220  1.00  0.00     0.200 A 
ATOM     71  F   UNL     1      14.927  18.839   2.747  1.00  0.00    -0.200 F 
ATOM     72  F   UNL     1      14.624  21.441   3.506  1.00  0.00    -0.200 F 
ENDBRANCH  39  62
ENDBRANCH  13  14
ENDBRANCH   6   8
ENDBRANCH   3   4
ENDBRANCH   2   3
ENDBRANCH   1   2
BRANCH   1  73
ATOM     73  C   UNL     1       0.885   7.314  -4.293  1.00  0.00     0.002 C 
BRANCH  73  74
ATOM     74  C   UNL     1       2.337   7.008  -4.677  1.00  0.00     0.021 C 
BRANCH  74  75
ATOM     75  C   UNL     1       2.884   5.700  -4.110  1.00  0.00     0.116 C 
BRANCH  75  76
ATOM     76  N   UNL     1       2.342   4.569  -4.837  1.00  0.00    -0.356 N 
ATOM     77  C   UNL     1       2.991   3.595  -5.537  1.00  0.00     0.224 C 
ATOM     78  H   UNL     1       1.360   4.492  -4.824  1.00  0.00     0.163 HD
ATOM     79  O   UNL     1       2.313   2.818  -6.205  1.00  0.00    -0.275 OA
BRANCH  77  80
ATOM     80  C   UNL     1       4.505   3.483  -5.411  1.00  0.00     0.094 C 
ATOM     81  C   UNL     1       4.886   2.861  -4.033  1.00  0.00     0.002 C 
ATOM     82  C   UNL     1       5.168   2.512  -6.406  1.00  0.00     0.094 C 
ATOM     83  C   UNL     1       4.330   1.428  -3.875  1.00  0.00     0.005 C 
ATOM     84  C   UNL     1       6.360   2.543  -4.235  1.00  0.00     0.009 C 
ATOM     85  C   UNL     1       6.106   1.682  -5.483  1.00  0.00     0.002 C 
ATOM     86  C   UNL     1       5.215   0.599  -4.831  1.00  0.00     0.005 C 
BRANCH  82  87
ATOM     87  C   UNL     1       5.754   3.047  -7.726  1.00  0.00     0.224 C 
ATOM     88  O   UNL     1       5.303   2.623  -8.798  1.00  0.00    -0.275 OA
ATOM     89  N   UNL     1       6.757   3.952  -7.847  1.00  0.00    -0.349 N 
ATOM     90  H   UNL     1       7.098   4.071  -8.763  1.00  0.00     0.164 HD
BRANCH  89  91
ATOM     91  C   UNL     1       7.403   4.763  -6.852  1.00  0.00     0.112 C 
ATOM     92  C   UNL     1       8.921   4.830  -7.010  1.00  0.00     0.030 C 
ATOM     93  C   UNL     1       6.817   6.148  -6.679  1.00  0.00    -0.022 A 
ATOM     94  C   UNL     1       9.500   5.437  -5.730  1.00  0.00     0.007 C 
ATOM     95  C   UNL     1       7.499   7.061  -5.850  1.00  0.00    -0.043 A 
ATOM     96  C   UNL     1       5.566   6.507  -7.207  1.00  0.00     0.006 A 
ATOM     97  C   UNL     1       8.938   6.832  -5.437  1.00  0.00     0.036 C 
ATOM     98  C   UNL     1       6.868   8.255  -5.474  1.00  0.00     0.004 A 
ATOM     99  C   UNL     1       4.971   7.717  -6.862  1.00  0.00     0.000 A 
ATOM    100  C   UNL     1       5.602   8.572  -5.965  1.00  0.00     0.000 A 
ENDBRANCH  89  91
ENDBRANCH  82  87
ENDBRANCH  77  80
ENDBRANCH  75  76
ENDBRANCH  74  75
ENDBRANCH  73  74
ENDBRANCH   1  73
TORSDOF 15
