REMARK SMILES C[C@H](NC(=O)OCc1ccccc1)C(=O)NCC(=O)N1CCC[C@H]1C(=O)NCCCCCCNC(=O)c1ccc(-c2c3nc(c(-c4c(F)c(F)c(F)c(F)c4F)c4ccc([nH]4)c(-c4c(F)c(F)c(F)c(F)c4F)c4nc(c(-c5c(F)c(F)c(F)c(F)c5F)c5ccc2[nH]5)C=C4)C=C3)cc1
REMARK SMILES IDX 25 1 26 2 27 3 24 5 20 6 21 7 22 8 23 9 18 10 19 11 17 12
REMARK SMILES IDX 16 13 14 14 15 15 2 17 1 18 3 19 4 20 5 22 6 23 7 24 8 25
REMARK SMILES IDX 9 26 13 27 10 28 12 29 11 30 28 31 29 32 30 33 31 34 32 35
REMARK SMILES IDX 33 36 34 37 35 38 36 40 37 41 38 42 99 43 39 44 98 45 40 46
REMARK SMILES IDX 41 47 42 48 92 49 43 50 97 51 91 52 93 53 44 54 96 55 90 56
REMARK SMILES IDX 89 57 45 59 77 60 57 61 76 62 58 63 61 64 75 65 94 66 59 67
REMARK SMILES IDX 60 68 74 70 95 71 62 72 46 73 47 74 55 75 48 76 49 77 53 78
REMARK SMILES IDX 56 79 50 80 51 81 54 82 52 83 78 84 79 85 87 86 80 87 81 88
REMARK SMILES IDX 85 89 88 90 82 91 83 92 86 93 84 94 63 95 64 96 72 97 65 98
REMARK SMILES IDX 66 99 70 100 73 101 67 102 68 103 71 104 69 105
REMARK H PARENT 27 4 16 16 3 21 34 39 93 58 61 69
REMARK Flexibility Score: inf
ROOT
ATOM      1  C   UNL     1      -1.609  -1.939   4.460  1.00  0.00     0.242 C 
ATOM      2  O   UNL     1      -2.104  -1.193   5.310  1.00  0.00    -0.273 OA
ATOM      3  N   UNL     1      -1.898  -3.274   4.579  1.00  0.00    -0.354 N 
ATOM      4  H   UNL     1      -2.273  -3.580   5.436  1.00  0.00     0.163 HD
ENDROOT
BRANCH   1   5
ATOM      5  C   UNL     1      -0.684  -1.411   3.304  1.00  0.00     0.174 C 
ATOM      6  N   UNL     1      -1.290  -1.131   1.971  1.00  0.00    -0.329 N 
ATOM      7  C   UNL     1      -1.590   0.284   1.885  1.00  0.00     0.120 C 
ATOM      8  C   UNL     1      -0.436   0.938   2.617  1.00  0.00     0.024 C 
ATOM      9  C   UNL     1      -0.100  -0.038   3.736  1.00  0.00     0.037 C 
BRANCH   6  10
ATOM     10  C   UNL     1      -1.221  -2.050   0.947  1.00  0.00     0.242 C 
ATOM     11  O   UNL     1      -0.950  -3.238   1.167  1.00  0.00    -0.273 OA
BRANCH  10  12
ATOM     12  C   UNL     1      -1.460  -1.735  -0.542  1.00  0.00     0.216 C 
BRANCH  12  13
ATOM     13  N   UNL     1      -1.615  -0.423  -1.115  1.00  0.00    -0.345 N 
ATOM     14  C   UNL     1      -0.694   0.391  -1.699  1.00  0.00     0.242 C 
ATOM     15  O   UNL     1      -1.128   1.397  -2.268  1.00  0.00    -0.273 OA
ATOM     16  H   UNL     1      -2.529  -0.058  -1.079  1.00  0.00     0.164 HD
BRANCH  14  17
ATOM     17  C   UNL     1       0.819   0.073  -1.729  1.00  0.00     0.171 C 
ATOM     18  C   UNL     1       1.191  -0.927  -2.812  1.00  0.00     0.042 C 
BRANCH  17  19
ATOM     19  N   UNL     1       1.361  -0.144  -0.392  1.00  0.00    -0.310 N 
ATOM     20  C   UNL     1       1.784  -1.251   0.271  1.00  0.00     0.408 C 
ATOM     21  H   UNL     1       1.435   0.682   0.139  1.00  0.00     0.167 HD
ATOM     22  O   UNL     1       2.039  -1.188   1.463  1.00  0.00    -0.225 OA
BRANCH  20  23
ATOM     23  O   UNL     1       1.881  -2.355  -0.503  1.00  0.00    -0.445 OA
BRANCH  23  24
ATOM     24  C   UNL     1       2.394  -3.523   0.163  1.00  0.00     0.270 C 
BRANCH  24  25
ATOM     25  C   UNL     1       3.843  -3.364   0.563  1.00  0.00    -0.011 A 
ATOM     26  C   UNL     1       4.276  -3.801   1.823  1.00  0.00     0.007 A 
ATOM     27  C   UNL     1       4.762  -2.739  -0.293  1.00  0.00     0.007 A 
ATOM     28  C   UNL     1       5.588  -3.570   2.238  1.00  0.00     0.000 A 
ATOM     29  C   UNL     1       6.071  -2.502   0.127  1.00  0.00     0.000 A 
ATOM     30  C   UNL     1       6.481  -2.910   1.395  1.00  0.00     0.000 A 
ENDBRANCH  24  25
ENDBRANCH  23  24
ENDBRANCH  20  23
ENDBRANCH  17  19
ENDBRANCH  14  17
ENDBRANCH  12  13
ENDBRANCH  10  12
ENDBRANCH   6  10
ENDBRANCH   1   5
BRANCH   3  31
ATOM     31  C   UNL     1      -1.698  -4.262   3.557  1.00  0.00     0.116 C 
BRANCH  31  32
ATOM     32  C   UNL     1      -1.702  -5.716   3.995  1.00  0.00     0.021 C 
BRANCH  32  33
ATOM     33  C   UNL     1      -2.997  -6.242   4.602  1.00  0.00     0.002 C 
BRANCH  33  34
ATOM     34  C   UNL     1      -4.268  -6.048   3.772  1.00  0.00     0.002 C 
BRANCH  34  35
ATOM     35  C   UNL     1      -4.236  -6.582   2.337  1.00  0.00     0.021 C 
BRANCH  35  36
ATOM     36  C   UNL     1      -3.768  -8.025   2.172  1.00  0.00     0.116 C 
BRANCH  36  37
ATOM     37  N   UNL     1      -4.535  -8.963   2.977  1.00  0.00    -0.352 N 
ATOM     38  C   UNL     1      -5.212 -10.098   2.608  1.00  0.00     0.251 C 
ATOM     39  H   UNL     1      -4.573  -8.750   3.937  1.00  0.00     0.163 HD
ATOM     40  O   UNL     1      -5.928 -10.680   3.417  1.00  0.00    -0.269 OA
BRANCH  38  41
ATOM     41  C   UNL     1      -5.108 -10.605   1.225  1.00  0.00     0.039 A 
ATOM     42  C   UNL     1      -6.280 -10.969   0.556  1.00  0.00     0.014 A 
ATOM     43  C   UNL     1      -3.870 -10.716   0.587  1.00  0.00     0.014 A 
ATOM     44  C   UNL     1      -6.220 -11.357  -0.783  1.00  0.00     0.010 A 
ATOM     45  C   UNL     1      -3.818 -11.039  -0.767  1.00  0.00     0.010 A 
ATOM     46  C   UNL     1      -4.995 -11.344  -1.469  1.00  0.00    -0.014 A 
BRANCH  46  47
ATOM     47  C   UNL     1      -4.932 -11.579  -2.934  1.00  0.00     0.031 A 
ATOM     48  C   UNL     1      -4.188 -12.758  -3.487  1.00  0.00     0.074 A 
ATOM     49  C   UNL     1      -5.473 -10.669  -3.767  1.00  0.00     0.049 A 
ATOM     50  N   UNL     1      -3.936 -13.066  -4.735  1.00  0.00    -0.248 NA
ATOM     51  C   UNL     1      -3.632 -13.706  -2.510  1.00  0.00     0.031 C 
ATOM     52  C   UNL     1      -6.186  -9.461  -3.347  1.00  0.00     0.029 A 
ATOM     53  N   UNL     1      -5.490 -10.604  -5.138  1.00  0.00    -0.354 N 
ATOM     54  C   UNL     1      -3.184 -14.232  -4.692  1.00  0.00     0.074 A 
ATOM     55  C   UNL     1      -2.983 -14.554  -3.295  1.00  0.00     0.031 C 
ATOM     56  C   UNL     1      -6.576  -8.780  -4.434  1.00  0.00     0.029 A 
ATOM     57  C   UNL     1      -6.097  -9.473  -5.626  1.00  0.00     0.049 A 
ATOM     58  H   UNL     1      -5.104 -11.301  -5.716  1.00  0.00     0.167 HD
ATOM     59  C   UNL     1      -2.718 -14.972  -5.727  1.00  0.00     0.037 A 
ATOM     60  C   UNL     1      -6.228  -9.026  -6.890  1.00  0.00     0.037 A 
ATOM     61  C   UNL     1      -2.932 -14.647  -7.115  1.00  0.00     0.049 A 
ATOM     62  C   UNL     1      -5.666  -9.845  -8.019  1.00  0.00     0.074 A 
ATOM     63  C   UNL     1      -2.568 -15.374  -8.235  1.00  0.00     0.029 A 
ATOM     64  N   UNL     1      -3.549 -13.492  -7.572  1.00  0.00    -0.354 N 
ATOM     65  N   UNL     1      -5.032 -10.991  -7.972  1.00  0.00    -0.248 NA
ATOM     66  C   UNL     1      -5.834  -9.308  -9.377  1.00  0.00     0.031 C 
ATOM     67  C   UNL     1      -2.899 -14.624  -9.369  1.00  0.00     0.029 A 
ATOM     68  C   UNL     1      -3.529 -13.460  -8.958  1.00  0.00     0.049 A 
ATOM     69  H   UNL     1      -3.943 -12.796  -6.997  1.00  0.00     0.167 HD
ATOM     70  C   UNL     1      -4.736 -11.319  -9.288  1.00  0.00     0.074 A 
ATOM     71  C   UNL     1      -5.284 -10.263 -10.114  1.00  0.00     0.031 C 
ATOM     72  C   UNL     1      -4.065 -12.395  -9.768  1.00  0.00     0.037 A 
BRANCH  59  73
ATOM     73  C   UNL     1      -1.911 -16.197  -5.402  1.00  0.00     0.064 A 
ATOM     74  C   UNL     1      -2.487 -17.328  -4.804  1.00  0.00     0.173 A 
ATOM     75  C   UNL     1      -0.548 -16.255  -5.733  1.00  0.00     0.173 A 
ATOM     76  F   UNL     1      -3.784 -17.324  -4.461  1.00  0.00    -0.203 F 
ATOM     77  C   UNL     1      -1.722 -18.457  -4.519  1.00  0.00     0.198 A 
ATOM     78  C   UNL     1       0.205 -17.398  -5.478  1.00  0.00     0.198 A 
ATOM     79  F   UNL     1       0.054 -15.206  -6.315  1.00  0.00    -0.203 F 
ATOM     80  F   UNL     1      -2.283 -19.504  -3.899  1.00  0.00    -0.200 F 
ATOM     81  C   UNL     1      -0.380 -18.494  -4.863  1.00  0.00     0.200 A 
ATOM     82  F   UNL     1       1.499 -17.438  -5.827  1.00  0.00    -0.200 F 
ATOM     83  F   UNL     1       0.353 -19.584  -4.595  1.00  0.00    -0.200 F 
ENDBRANCH  59  73
BRANCH  60  84
ATOM     84  C   UNL     1      -6.908  -7.729  -7.147  1.00  0.00     0.064 A 
ATOM     85  C   UNL     1      -8.145  -7.677  -7.802  1.00  0.00     0.173 A 
ATOM     86  C   UNL     1      -6.338  -6.514  -6.734  1.00  0.00     0.173 A 
ATOM     87  F   UNL     1      -8.720  -8.809  -8.236  1.00  0.00    -0.203 F 
ATOM     88  C   UNL     1      -8.780  -6.461  -8.049  1.00  0.00     0.198 A 
ATOM     89  C   UNL     1      -6.989  -5.302  -6.951  1.00  0.00     0.198 A 
ATOM     90  F   UNL     1      -5.157  -6.507  -6.099  1.00  0.00    -0.203 F 
ATOM     91  F   UNL     1      -9.941  -6.438  -8.716  1.00  0.00    -0.200 F 
ATOM     92  C   UNL     1      -8.206  -5.275  -7.615  1.00  0.00     0.200 A 
ATOM     93  F   UNL     1      -6.439  -4.161  -6.514  1.00  0.00    -0.200 F 
ATOM     94  F   UNL     1      -8.821  -4.107  -7.843  1.00  0.00    -0.200 F 
ENDBRANCH  60  84
BRANCH  72  95
ATOM     95  C   UNL     1      -3.881 -12.486 -11.256  1.00  0.00     0.064 A 
ATOM     96  C   UNL     1      -3.010 -11.625 -11.941  1.00  0.00     0.173 A 
ATOM     97  C   UNL     1      -4.542 -13.476 -11.999  1.00  0.00     0.173 A 
ATOM     98  F   UNL     1      -2.368 -10.649 -11.280  1.00  0.00    -0.203 F 
ATOM     99  C   UNL     1      -2.822 -11.740 -13.316  1.00  0.00     0.198 A 
ATOM    100  C   UNL     1      -4.326 -13.610 -13.368  1.00  0.00     0.198 A 
ATOM    101  F   UNL     1      -5.382 -14.329 -11.393  1.00  0.00    -0.203 F 
ATOM    102  F   UNL     1      -2.020 -10.878 -13.955  1.00  0.00    -0.200 F 
ATOM    103  C   UNL     1      -3.472 -12.739 -14.026  1.00  0.00     0.200 A 
ATOM    104  F   UNL     1      -4.941 -14.586 -14.049  1.00  0.00    -0.200 F 
ATOM    105  F   UNL     1      -3.278 -12.857 -15.347  1.00  0.00    -0.200 F 
ENDBRANCH  72  95
ENDBRANCH  46  47
ENDBRANCH  38  41
ENDBRANCH  36  37
ENDBRANCH  35  36
ENDBRANCH  34  35
ENDBRANCH  33  34
ENDBRANCH  32  33
ENDBRANCH  31  32
ENDBRANCH   3  31
TORSDOF 21
