REMARK SMILES Cc1cscc1CNC(=O)CC(C)(C)C(=O)NCCCCCCNC(=O)c1ccc(-c2c3nc(c(-c4c(F)c(F)c(F)c(F)c4F)c4ccc([nH]4)c(-c4c(F)c(F)c(F)c(F)c4F)c4nc(c(-c5c(F)c(F)c(F)c(F)c5F)c5ccc2[nH]5)C=C4)C=C3)cc1
REMARK SMILES IDX 19 1 18 2 17 3 15 4 16 5 12 7 13 8 14 9 11 10 9 11 8 12
REMARK SMILES IDX 10 14 7 15 6 16 1 17 2 18 3 19 4 20 5 21 20 22 21 23 22 24
REMARK SMILES IDX 23 25 24 26 25 27 26 29 27 30 28 31 89 32 29 33 88 34 30 35
REMARK SMILES IDX 31 36 32 37 82 38 33 39 87 40 81 41 83 42 34 43 86 44 80 45
REMARK SMILES IDX 79 46 35 48 67 49 47 50 66 51 48 52 51 53 65 54 84 55 49 56
REMARK SMILES IDX 50 57 64 59 85 60 52 61 36 62 37 63 45 64 38 65 39 66 43 67
REMARK SMILES IDX 46 68 40 69 41 70 44 71 42 72 68 73 69 74 77 75 70 76 71 77
REMARK SMILES IDX 75 78 78 79 72 80 73 81 76 82 74 83 53 84 54 85 62 86 55 87
REMARK SMILES IDX 56 88 60 89 63 90 57 91 58 92 61 93 59 94
REMARK H PARENT 17 6 8 13 24 28 83 47 51 58
REMARK Flexibility Score: inf
ROOT
ATOM      1  C   UNL     1      -4.432   3.466   3.041  1.00  0.00     0.021 C 
ENDROOT
BRANCH   1   2
ATOM      2  C   UNL     1      -3.144   2.969   2.391  1.00  0.00     0.116 C 
BRANCH   2   3
ATOM      3  N   UNL     1      -2.919   3.591   1.107  1.00  0.00    -0.356 N 
ATOM      4  C   UNL     1      -1.868   4.263   0.577  1.00  0.00     0.226 C 
ATOM      5  O   UNL     1      -2.080   4.741  -0.539  1.00  0.00    -0.274 OA
ATOM      6  H   UNL     1      -3.684   3.510   0.492  1.00  0.00     0.163 HD
BRANCH   4   7
ATOM      7  C   UNL     1      -0.542   4.504   1.332  1.00  0.00     0.052 C 
ATOM      8  C   UNL     1      -0.001   3.250   2.041  1.00  0.00     0.022 C 
ATOM      9  C   UNL     1      -0.805   5.584   2.405  1.00  0.00     0.022 C 
BRANCH   7  10
ATOM     10  C   UNL     1       0.556   5.060   0.364  1.00  0.00     0.116 C 
BRANCH  10  11
ATOM     11  C   UNL     1       0.589   4.602  -1.091  1.00  0.00     0.221 C 
ATOM     12  N   UNL     1       0.982   3.355  -1.451  1.00  0.00    -0.352 N 
ATOM     13  H   UNL     1       0.755   3.108  -2.377  1.00  0.00     0.163 HD
ATOM     14  O   UNL     1       0.327   5.389  -2.005  1.00  0.00    -0.275 OA
BRANCH  12  15
ATOM     15  C   UNL     1       1.673   2.329  -0.713  1.00  0.00     0.152 C 
BRANCH  15  16
ATOM     16  C   UNL     1       0.855   1.068  -0.637  1.00  0.00    -0.015 A 
ATOM     17  C   UNL     1       2.839  -0.498   0.023  1.00  0.00     0.045 C 
ATOM     18  C   UNL     1       1.399  -0.227  -0.274  1.00  0.00    -0.035 A 
ATOM     19  C   UNL     1       0.413  -1.196  -0.226  1.00  0.00     0.068 A 
ATOM     20  S   UNL     1      -1.131  -0.594  -0.621  1.00  0.00    -0.152 S 
ATOM     21  C   UNL     1      -0.508   0.973  -0.874  1.00  0.00     0.070 A 
ENDBRANCH  15  16
ENDBRANCH  12  15
ENDBRANCH  10  11
ENDBRANCH   7  10
ENDBRANCH   4   7
ENDBRANCH   2   3
ENDBRANCH   1   2
BRANCH   1  22
ATOM     22  C   UNL     1      -5.724   3.078   2.316  1.00  0.00     0.002 C 
BRANCH  22  23
ATOM     23  C   UNL     1      -5.909   1.584   2.038  1.00  0.00     0.002 C 
BRANCH  23  24
ATOM     24  C   UNL     1      -5.725   0.655   3.240  1.00  0.00     0.021 C 
BRANCH  24  25
ATOM     25  C   UNL     1      -6.563   0.997   4.466  1.00  0.00     0.116 C 
BRANCH  25  26
ATOM     26  N   UNL     1      -7.989   0.963   4.198  1.00  0.00    -0.352 N 
ATOM     27  C   UNL     1      -8.996   0.381   4.919  1.00  0.00     0.251 C 
ATOM     28  H   UNL     1      -8.274   1.428   3.378  1.00  0.00     0.163 HD
ATOM     29  O   UNL     1     -10.137   0.336   4.452  1.00  0.00    -0.269 OA
BRANCH  27  30
ATOM     30  C   UNL     1      -8.728  -0.219   6.244  1.00  0.00     0.039 A 
ATOM     31  C   UNL     1      -9.339  -1.435   6.560  1.00  0.00     0.014 A 
ATOM     32  C   UNL     1      -7.912   0.417   7.185  1.00  0.00     0.014 A 
ATOM     33  C   UNL     1      -9.105  -2.030   7.800  1.00  0.00     0.010 A 
ATOM     34  C   UNL     1      -7.617  -0.215   8.392  1.00  0.00     0.010 A 
ATOM     35  C   UNL     1      -8.224  -1.435   8.719  1.00  0.00    -0.014 A 
BRANCH  35  36
ATOM     36  C   UNL     1      -7.955  -2.080  10.030  1.00  0.00     0.031 A 
ATOM     37  C   UNL     1      -8.394  -1.420  11.307  1.00  0.00     0.074 A 
ATOM     38  C   UNL     1      -7.302  -3.256  10.069  1.00  0.00     0.049 A 
ATOM     39  N   UNL     1      -8.284  -1.847  12.541  1.00  0.00    -0.248 NA
ATOM     40  C   UNL     1      -9.017  -0.093  11.186  1.00  0.00     0.031 C 
ATOM     41  C   UNL     1      -6.785  -3.973   8.903  1.00  0.00     0.029 A 
ATOM     42  N   UNL     1      -6.971  -4.062  11.129  1.00  0.00    -0.354 N 
ATOM     43  C   UNL     1      -8.822  -0.844  13.337  1.00  0.00     0.074 A 
ATOM     44  C   UNL     1      -9.191   0.242  12.455  1.00  0.00     0.031 C 
ATOM     45  C   UNL     1      -6.248  -5.136   9.305  1.00  0.00     0.029 A 
ATOM     46  C   UNL     1      -6.354  -5.231  10.758  1.00  0.00     0.049 A 
ATOM     47  H   UNL     1      -7.158  -3.825  12.066  1.00  0.00     0.167 HD
ATOM     48  C   UNL     1      -9.020  -0.840  14.678  1.00  0.00     0.037 A 
ATOM     49  C   UNL     1      -5.936  -6.270  11.506  1.00  0.00     0.037 A 
ATOM     50  C   UNL     1      -8.658  -1.926  15.552  1.00  0.00     0.049 A 
ATOM     51  C   UNL     1      -6.150  -6.235  12.994  1.00  0.00     0.074 A 
ATOM     52  C   UNL     1      -8.847  -2.038  16.918  1.00  0.00     0.029 A 
ATOM     53  N   UNL     1      -8.023  -3.090  15.140  1.00  0.00    -0.354 N 
ATOM     54  N   UNL     1      -6.723  -5.314  13.729  1.00  0.00    -0.248 NA
ATOM     55  C   UNL     1      -5.665  -7.395  13.755  1.00  0.00     0.031 C 
ATOM     56  C   UNL     1      -8.286  -3.249  17.340  1.00  0.00     0.029 A 
ATOM     57  C   UNL     1      -7.796  -3.917  16.229  1.00  0.00     0.049 A 
ATOM     58  H   UNL     1      -7.772  -3.297  14.211  1.00  0.00     0.167 HD
ATOM     59  C   UNL     1      -6.703  -5.796  15.031  1.00  0.00     0.074 A 
ATOM     60  C   UNL     1      -6.068  -7.097  14.982  1.00  0.00     0.031 C 
ATOM     61  C   UNL     1      -7.171  -5.214  16.163  1.00  0.00     0.037 A 
BRANCH  48  62
ATOM     62  C   UNL     1      -9.657   0.384  15.274  1.00  0.00     0.064 A 
ATOM     63  C   UNL     1     -10.995   0.720  15.010  1.00  0.00     0.173 A 
ATOM     64  C   UNL     1      -8.927   1.232  16.120  1.00  0.00     0.173 A 
ATOM     65  F   UNL     1     -11.736  -0.050  14.198  1.00  0.00    -0.203 F 
ATOM     66  C   UNL     1     -11.562   1.880  15.532  1.00  0.00     0.198 A 
ATOM     67  C   UNL     1      -9.508   2.373  16.670  1.00  0.00     0.198 A 
ATOM     68  F   UNL     1      -7.647   0.957  16.414  1.00  0.00    -0.203 F 
ATOM     69  F   UNL     1     -12.819   2.213  15.209  1.00  0.00    -0.200 F 
ATOM     70  C   UNL     1     -10.820   2.702  16.365  1.00  0.00     0.200 A 
ATOM     71  F   UNL     1      -8.793   3.160  17.486  1.00  0.00    -0.200 F 
ATOM     72  F   UNL     1     -11.365   3.820  16.865  1.00  0.00    -0.200 F 
ENDBRANCH  48  62
BRANCH  49  73
ATOM     73  C   UNL     1      -5.335  -7.459  10.848  1.00  0.00     0.064 A 
ATOM     74  C   UNL     1      -6.029  -8.677  10.803  1.00  0.00     0.173 A 
ATOM     75  C   UNL     1      -4.070  -7.406  10.247  1.00  0.00     0.173 A 
ATOM     76  F   UNL     1      -7.235  -8.782  11.381  1.00  0.00    -0.203 F 
ATOM     77  C   UNL     1      -5.473  -9.800  10.195  1.00  0.00     0.198 A 
ATOM     78  C   UNL     1      -3.527  -8.523   9.616  1.00  0.00     0.198 A 
ATOM     79  F   UNL     1      -3.369  -6.263  10.259  1.00  0.00    -0.203 F 
ATOM     80  F   UNL     1      -6.141 -10.962  10.201  1.00  0.00    -0.200 F 
ATOM     81  C   UNL     1      -4.226  -9.720   9.597  1.00  0.00     0.200 A 
ATOM     82  F   UNL     1      -2.327  -8.438   9.026  1.00  0.00    -0.200 F 
ATOM     83  F   UNL     1      -3.694 -10.799   9.006  1.00  0.00    -0.200 F 
ENDBRANCH  49  73
BRANCH  61  84
ATOM     84  C   UNL     1      -7.056  -6.004  17.436  1.00  0.00     0.064 A 
ATOM     85  C   UNL     1      -5.819  -6.234  18.055  1.00  0.00     0.173 A 
ATOM     86  C   UNL     1      -8.206  -6.518  18.055  1.00  0.00     0.173 A 
ATOM     87  F   UNL     1      -4.688  -5.777  17.496  1.00  0.00    -0.203 F 
ATOM     88  C   UNL     1      -5.734  -6.980  19.229  1.00  0.00     0.198 A 
ATOM     89  C   UNL     1      -8.120  -7.235  19.245  1.00  0.00     0.198 A 
ATOM     90  F   UNL     1      -9.415  -6.320  17.508  1.00  0.00    -0.203 F 
ATOM     91  F   UNL     1      -4.536  -7.236  19.771  1.00  0.00    -0.200 F 
ATOM     92  C   UNL     1      -6.884  -7.474  19.826  1.00  0.00     0.200 A 
ATOM     93  F   UNL     1      -9.235  -7.699  19.828  1.00  0.00    -0.200 F 
ATOM     94  F   UNL     1      -6.800  -8.189  20.956  1.00  0.00    -0.200 F 
ENDBRANCH  61  84
ENDBRANCH  35  36
ENDBRANCH  27  30
ENDBRANCH  25  26
ENDBRANCH  24  25
ENDBRANCH  23  24
ENDBRANCH  22  23
ENDBRANCH   1  22
TORSDOF 17
