REMARK SMILES O=C(NCCCCCCNC(=O)[C@H]1CCCC[C@@H]1C(=O)Nc1ccc(Br)c(Cl)c1)c1ccc(-c2c3nc(c(-c4c(F)c(F)c(F)c(F)c4F)c4ccc([nH]4)c(-c4c(F)c(F)c(F)c(F)c4F)c4nc(c(-c5c(F)c(F)c(F)c(F)c5F)c5ccc2[nH]5)C=C4)C=C3)cc1
REMARK SMILES IDX 6 1 5 2 4 3 3 4 1 5 2 6 30 8 31 9 92 10 32 11 91 12 33 13
REMARK SMILES IDX 34 14 35 15 85 16 36 17 90 18 84 19 86 20 37 21 89 22 83 23
REMARK SMILES IDX 82 24 38 26 70 27 50 28 69 29 51 30 54 31 68 32 87 33 52 34
REMARK SMILES IDX 53 35 67 37 88 38 55 39 39 40 40 41 48 42 41 43 42 44 46 45
REMARK SMILES IDX 49 46 43 47 44 48 47 49 45 50 71 51 72 52 80 53 73 54 74 55
REMARK SMILES IDX 78 56 81 57 75 58 76 59 79 60 77 61 56 62 57 63 65 64 58 65
REMARK SMILES IDX 59 66 63 67 66 68 60 69 61 70 64 71 62 72 7 73 8 74 9 75
REMARK SMILES IDX 10 76 11 77 12 79 13 80 14 81 18 82 15 83 17 84 16 85 19 86
REMARK SMILES IDX 20 87 21 88 22 90 23 91 29 92 24 93 27 94 25 95 28 96 26 97
REMARK H PARENT 3 7 86 25 54 36 10 78 21 89
REMARK Flexibility Score: inf
ROOT
ATOM      1  C   UNL     1      13.725   6.718  -8.610  1.00  0.00     0.002 C 
ENDROOT
BRANCH   1   2
ATOM      2  C   UNL     1      14.055   7.675  -7.461  1.00  0.00     0.021 C 
BRANCH   2   3
ATOM      3  C   UNL     1      15.322   7.334  -6.684  1.00  0.00     0.116 C 
BRANCH   3   4
ATOM      4  N   UNL     1      16.508   7.401  -7.518  1.00  0.00    -0.352 N 
ATOM      5  O   UNL     1      18.448   8.228  -8.299  1.00  0.00    -0.269 OA
ATOM      6  C   UNL     1      17.644   8.155  -7.375  1.00  0.00     0.251 C 
ATOM      7  H   UNL     1      16.495   6.815  -8.309  1.00  0.00     0.163 HD
BRANCH   6   8
ATOM      8  C   UNL     1      17.913   8.884  -6.114  1.00  0.00     0.039 A 
ATOM      9  C   UNL     1      18.494  10.153  -6.187  1.00  0.00     0.014 A 
ATOM     10  C   UNL     1      17.670   8.299  -4.868  1.00  0.00     0.014 A 
ATOM     11  C   UNL     1      18.816  10.840  -5.014  1.00  0.00     0.010 A 
ATOM     12  C   UNL     1      17.919   9.016  -3.699  1.00  0.00     0.010 A 
ATOM     13  C   UNL     1      18.525  10.279  -3.760  1.00  0.00    -0.014 A 
BRANCH  13  14
ATOM     14  C   UNL     1      18.928  10.969  -2.508  1.00  0.00     0.031 A 
ATOM     15  C   UNL     1      19.976  10.350  -1.620  1.00  0.00     0.074 A 
ATOM     16  C   UNL     1      18.353  12.137  -2.164  1.00  0.00     0.049 A 
ATOM     17  N   UNL     1      20.452  10.779  -0.478  1.00  0.00    -0.248 NA
ATOM     18  C   UNL     1      20.549   9.066  -2.059  1.00  0.00     0.031 C 
ATOM     19  C   UNL     1      17.304  12.817  -2.925  1.00  0.00     0.029 A 
ATOM     20  N   UNL     1      18.575  12.964  -1.091  1.00  0.00    -0.354 N 
ATOM     21  C   UNL     1      21.362   9.815  -0.063  1.00  0.00     0.074 A 
ATOM     22  C   UNL     1      21.333   8.750  -1.039  1.00  0.00     0.031 C 
ATOM     23  C   UNL     1      17.002  13.975  -2.316  1.00  0.00     0.029 A 
ATOM     24  C   UNL     1      17.812  14.106  -1.108  1.00  0.00     0.049 A 
ATOM     25  H   UNL     1      19.221  12.758  -0.377  1.00  0.00     0.167 HD
ATOM     26  C   UNL     1      22.176   9.835   1.017  1.00  0.00     0.037 A 
ATOM     27  C   UNL     1      17.778  15.144  -0.249  1.00  0.00     0.037 A 
ATOM     28  C   UNL     1      22.246  10.921   1.954  1.00  0.00     0.049 A 
ATOM     29  C   UNL     1      18.699  15.143   0.942  1.00  0.00     0.074 A 
ATOM     30  C   UNL     1      23.081  11.061   3.048  1.00  0.00     0.029 A 
ATOM     31  N   UNL     1      21.459  12.061   1.898  1.00  0.00    -0.354 N 
ATOM     32  N   UNL     1      19.592  14.250   1.293  1.00  0.00    -0.248 NA
ATOM     33  C   UNL     1      18.612  16.293   1.855  1.00  0.00     0.031 C 
ATOM     34  C   UNL     1      22.778  12.272   3.674  1.00  0.00     0.029 A 
ATOM     35  C   UNL     1      21.782  12.904   2.947  1.00  0.00     0.049 A 
ATOM     36  H   UNL     1      20.774  12.244   1.214  1.00  0.00     0.167 HD
ATOM     37  C   UNL     1      20.190  14.740   2.446  1.00  0.00     0.074 A 
ATOM     38  C   UNL     1      19.566  16.014   2.734  1.00  0.00     0.031 C 
ATOM     39  C   UNL     1      21.166  14.181   3.200  1.00  0.00     0.037 A 
BRANCH  26  40
ATOM     40  C   UNL     1      23.090   8.665   1.233  1.00  0.00     0.064 A 
ATOM     41  C   UNL     1      24.213   8.459   0.420  1.00  0.00     0.173 A 
ATOM     42  C   UNL     1      22.891   7.794   2.314  1.00  0.00     0.173 A 
ATOM     43  F   UNL     1      24.441   9.259  -0.633  1.00  0.00    -0.203 F 
ATOM     44  C   UNL     1      25.099   7.415   0.674  1.00  0.00     0.198 A 
ATOM     45  C   UNL     1      23.793   6.768   2.581  1.00  0.00     0.198 A 
ATOM     46  F   UNL     1      21.835   7.953   3.126  1.00  0.00    -0.203 F 
ATOM     47  F   UNL     1      26.151   7.221  -0.134  1.00  0.00    -0.200 F 
ATOM     48  C   UNL     1      24.895   6.578   1.760  1.00  0.00     0.200 A 
ATOM     49  F   UNL     1      23.602   5.968   3.640  1.00  0.00    -0.200 F 
ATOM     50  F   UNL     1      25.760   5.587   2.016  1.00  0.00    -0.200 F 
ENDBRANCH  26  40
BRANCH  27  51
ATOM     51  C   UNL     1      16.872  16.293  -0.511  1.00  0.00     0.064 A 
ATOM     52  C   UNL     1      17.387  17.539  -0.893  1.00  0.00     0.173 A 
ATOM     53  C   UNL     1      15.479  16.169  -0.398  1.00  0.00     0.173 A 
ATOM     54  F   UNL     1      18.712  17.712  -0.997  1.00  0.00    -0.203 F 
ATOM     55  C   UNL     1      16.545  18.622  -1.140  1.00  0.00     0.198 A 
ATOM     56  C   UNL     1      14.637  17.246  -0.669  1.00  0.00     0.198 A 
ATOM     57  F   UNL     1      14.936  14.997  -0.039  1.00  0.00    -0.203 F 
ATOM     58  F   UNL     1      17.066  19.812  -1.469  1.00  0.00    -0.200 F 
ATOM     59  C   UNL     1      15.170  18.473  -1.034  1.00  0.00     0.200 A 
ATOM     60  F   UNL     1      13.309  17.094  -0.578  1.00  0.00    -0.200 F 
ATOM     61  F   UNL     1      14.361  19.512  -1.278  1.00  0.00    -0.200 F 
ENDBRANCH  27  51
BRANCH  39  62
ATOM     62  C   UNL     1      21.653  14.939   4.397  1.00  0.00     0.064 A 
ATOM     63  C   UNL     1      20.905  14.983   5.581  1.00  0.00     0.173 A 
ATOM     64  C   UNL     1      22.933  15.514   4.399  1.00  0.00     0.173 A 
ATOM     65  F   UNL     1      19.673  14.454   5.622  1.00  0.00    -0.203 F 
ATOM     66  C   UNL     1      21.425  15.574   6.729  1.00  0.00     0.198 A 
ATOM     67  C   UNL     1      23.458  16.082   5.555  1.00  0.00     0.198 A 
ATOM     68  F   UNL     1      23.688  15.485   3.291  1.00  0.00    -0.203 F 
ATOM     69  F   UNL     1      20.691  15.615   7.850  1.00  0.00    -0.200 F 
ATOM     70  C   UNL     1      22.705  16.110   6.719  1.00  0.00     0.200 A 
ATOM     71  F   UNL     1      24.701  16.584   5.548  1.00  0.00    -0.200 F 
ATOM     72  F   UNL     1      23.215  16.651   7.834  1.00  0.00    -0.200 F 
ENDBRANCH  39  62
ENDBRANCH  13  14
ENDBRANCH   6   8
ENDBRANCH   3   4
ENDBRANCH   2   3
ENDBRANCH   1   2
BRANCH   1  73
ATOM     73  C   UNL     1      13.559   5.241  -8.223  1.00  0.00     0.002 C 
BRANCH  73  74
ATOM     74  C   UNL     1      12.618   4.967  -7.045  1.00  0.00     0.021 C 
BRANCH  74  75
ATOM     75  C   UNL     1      11.180   5.426  -7.274  1.00  0.00     0.116 C 
BRANCH  75  76
ATOM     76  N   UNL     1      10.349   4.390  -7.857  1.00  0.00    -0.356 N 
ATOM     77  C   UNL     1       9.402   3.535  -7.415  1.00  0.00     0.223 C 
ATOM     78  H   UNL     1      10.518   4.282  -8.821  1.00  0.00     0.163 HD
ATOM     79  O   UNL     1       8.848   2.876  -8.308  1.00  0.00    -0.275 OA
BRANCH  77  80
ATOM     80  C   UNL     1       8.978   3.271  -5.961  1.00  0.00     0.091 C 
ATOM     81  C   UNL     1       9.432   1.873  -5.516  1.00  0.00     0.014 C 
ATOM     82  C   UNL     1       9.169   4.366  -4.910  1.00  0.00     0.091 C 
ATOM     83  C   UNL     1      10.812   1.867  -4.891  1.00  0.00     0.001 C 
ATOM     84  C   UNL     1      10.466   4.229  -4.076  1.00  0.00     0.014 C 
ATOM     85  C   UNL     1      10.853   2.803  -3.695  1.00  0.00     0.001 C 
BRANCH  82  86
ATOM     86  C   UNL     1       7.967   4.458  -3.960  1.00  0.00     0.228 C 
ATOM     87  O   UNL     1       7.855   3.708  -2.989  1.00  0.00    -0.274 OA
ATOM     88  N   UNL     1       7.074   5.492  -4.096  1.00  0.00    -0.326 N 
ATOM     89  H   UNL     1       6.549   5.688  -3.287  1.00  0.00     0.169 HD
BRANCH  88  90
ATOM     90  C   UNL     1       6.780   6.317  -5.194  1.00  0.00     0.042 A 
ATOM     91  C   UNL     1       6.742   5.845  -6.506  1.00  0.00     0.027 A 
ATOM     92  C   UNL     1       6.426   7.645  -4.945  1.00  0.00     0.047 A 
ATOM     93  C   UNL     1       6.412   6.696  -7.565  1.00  0.00     0.019 A 
ATOM     94  C   UNL     1       6.117   8.511  -6.004  1.00  0.00     0.057 A 
ATOM     95  C   UNL     1       6.113   8.036  -7.319  1.00  0.00     0.036 A 
ATOM     96  Cl  UNL     1       5.764  10.156  -5.611  1.00  0.00    -0.083 Cl
ATOM     97  Br  UNL     1       5.696   9.127  -8.814  1.00  0.00    -0.049 Br
ENDBRANCH  88  90
ENDBRANCH  82  86
ENDBRANCH  77  80
ENDBRANCH  75  76
ENDBRANCH  74  75
ENDBRANCH  73  74
ENDBRANCH   1  73
TORSDOF 15
