REMARK SMILES Cc1c(C(=O)NCCCCCCNC(=O)c2ccc(-c3c4nc(c(-c5c(F)c(F)c(F)c(F)c5F)c5ccc([nH]5)c(-c5c(F)c(F)c(F)c(F)c5F)c5nc(c(-c6c(F)c(F)c(F)c(F)c6F)c6ccc3[nH]6)C=C5)C=C4)cc2)sc2c1=C(CSc1nncn1-c1ccccc1)CC(=O)N=2
REMARK SMILES IDX 8 1 7 2 6 3 4 4 5 5 3 7 1 8 2 9 81 10 79 11 80 12 82 13
REMARK SMILES IDX 99 14 96 15 97 16 98 17 83 18 84 19 85 20 86 21 89 22 87 23
REMARK SMILES IDX 88 24 90 25 91 26 95 27 92 28 94 29 93 30 9 31 10 32 11 33
REMARK SMILES IDX 12 34 13 35 14 36 15 38 16 39 17 40 78 41 18 42 77 43 19 44
REMARK SMILES IDX 20 45 21 46 71 47 22 48 76 49 70 50 72 51 23 52 75 53 69 54
REMARK SMILES IDX 68 55 24 57 56 58 36 59 55 60 37 61 40 62 54 63 73 64 38 65
REMARK SMILES IDX 39 66 53 68 74 69 41 70 25 71 26 72 34 73 27 74 28 75 32 76
REMARK SMILES IDX 35 77 29 78 30 79 33 80 31 81 57 82 58 83 66 84 59 85 60 86
REMARK SMILES IDX 64 87 67 88 61 89 62 90 65 91 63 92 42 93 43 94 51 95 44 96
REMARK SMILES IDX 45 97 49 98 52 99 46 100 47 101 50 102 48 103
REMARK H PARENT 6 6 13 37 72 56 40 67
REMARK Flexibility Score: inf
ROOT
ATOM      1  C   UNL     1       3.172  -2.265  -1.239  1.00  0.00     0.021 C 
ENDROOT
BRANCH   1   2
ATOM      2  C   UNL     1       1.750  -2.497  -0.718  1.00  0.00     0.116 C 
BRANCH   2   3
ATOM      3  N   UNL     1       1.765  -3.140   0.572  1.00  0.00    -0.351 N 
ATOM      4  C   UNL     1       1.190  -2.915   1.775  1.00  0.00     0.261 C 
ATOM      5  O   UNL     1       1.364  -3.839   2.580  1.00  0.00    -0.268 OA
ATOM      6  H   UNL     1       2.336  -3.942   0.579  1.00  0.00     0.163 HD
BRANCH   4   7
ATOM      7  C   UNL     1       0.364  -1.710   2.173  1.00  0.00     0.098 A 
ATOM      8  C   UNL     1       0.915   0.336   0.686  1.00  0.00     0.047 C 
ATOM      9  C   UNL     1       0.194  -0.432   1.744  1.00  0.00    -0.018 A 
ATOM     10  C   UNL     1      -0.727   0.323   2.605  1.00  0.00     0.016 A 
ATOM     11  S   UNL     1      -0.461  -1.961   3.757  1.00  0.00    -0.110 S 
ATOM     12  C   UNL     1      -0.725  -0.257   3.969  1.00  0.00     0.128 A 
ATOM     13  C   UNL     1      -1.043   1.635   2.588  1.00  0.00    -0.040 C 
ATOM     14  N   UNL     1      -0.811   0.334   5.106  1.00  0.00    -0.202 NA
ATOM     15  C   UNL     1      -0.478   2.411   3.771  1.00  0.00     0.135 C 
ATOM     16  C   UNL     1      -0.893   1.712   5.071  1.00  0.00     0.251 C 
ATOM     17  O   UNL     1      -1.236   2.380   6.042  1.00  0.00    -0.272 OA
BRANCH  13  18
ATOM     18  C   UNL     1      -2.501   2.055   2.374  1.00  0.00     0.110 C 
BRANCH  18  19
ATOM     19  S   UNL     1      -3.302   1.261   0.971  1.00  0.00    -0.081 SA
BRANCH  19  20
ATOM     20  C   UNL     1      -2.667   2.183  -0.349  1.00  0.00     0.195 A 
ATOM     21  N   UNL     1      -2.516   3.489  -0.313  1.00  0.00    -0.123 NA
ATOM     22  N   UNL     1      -2.110   1.665  -1.506  1.00  0.00    -0.277 N 
ATOM     23  N   UNL     1      -1.850   3.869  -1.445  1.00  0.00    -0.138 NA
ATOM     24  C   UNL     1      -1.614   2.784  -2.142  1.00  0.00     0.231 A 
BRANCH  22  25
ATOM     25  C   UNL     1      -1.955   0.319  -1.947  1.00  0.00     0.049 A 
ATOM     26  C   UNL     1      -2.797  -0.709  -1.503  1.00  0.00     0.027 A 
ATOM     27  C   UNL     1      -0.905  -0.004  -2.815  1.00  0.00     0.027 A 
ATOM     28  C   UNL     1      -2.535  -2.042  -1.827  1.00  0.00     0.002 A 
ATOM     29  C   UNL     1      -0.679  -1.334  -3.166  1.00  0.00     0.002 A 
ATOM     30  C   UNL     1      -1.462  -2.357  -2.646  1.00  0.00     0.000 A 
ENDBRANCH  22  25
ENDBRANCH  19  20
ENDBRANCH  18  19
ENDBRANCH  13  18
ENDBRANCH   4   7
ENDBRANCH   2   3
ENDBRANCH   1   2
BRANCH   1  31
ATOM     31  C   UNL     1       3.660  -3.348  -2.214  1.00  0.00     0.002 C 
BRANCH  31  32
ATOM     32  C   UNL     1       2.817  -3.531  -3.488  1.00  0.00     0.002 C 
BRANCH  32  33
ATOM     33  C   UNL     1       2.577  -2.269  -4.324  1.00  0.00     0.021 C 
BRANCH  33  34
ATOM     34  C   UNL     1       3.806  -1.736  -5.025  1.00  0.00     0.116 C 
BRANCH  34  35
ATOM     35  N   UNL     1       4.290  -2.624  -6.077  1.00  0.00    -0.352 N 
ATOM     36  C   UNL     1       5.366  -2.421  -6.926  1.00  0.00     0.251 C 
ATOM     37  H   UNL     1       3.795  -3.466  -6.197  1.00  0.00     0.163 HD
ATOM     38  O   UNL     1       5.484  -3.033  -7.968  1.00  0.00    -0.269 OA
BRANCH  36  39
ATOM     39  C   UNL     1       6.370  -1.420  -6.521  1.00  0.00     0.039 A 
ATOM     40  C   UNL     1       6.888  -0.492  -7.427  1.00  0.00     0.014 A 
ATOM     41  C   UNL     1       6.720  -1.381  -5.176  1.00  0.00     0.014 A 
ATOM     42  C   UNL     1       7.696   0.534  -6.944  1.00  0.00     0.010 A 
ATOM     43  C   UNL     1       7.336  -0.267  -4.680  1.00  0.00     0.010 A 
ATOM     44  C   UNL     1       7.895   0.653  -5.560  1.00  0.00    -0.014 A 
BRANCH  44  45
ATOM     45  C   UNL     1       8.585   1.805  -4.984  1.00  0.00     0.031 A 
ATOM     46  C   UNL     1       7.994   3.120  -5.364  1.00  0.00     0.074 A 
ATOM     47  C   UNL     1       9.495   1.653  -3.993  1.00  0.00     0.049 A 
ATOM     48  N   UNL     1       8.561   4.095  -5.993  1.00  0.00    -0.248 NA
ATOM     49  C   UNL     1       6.550   3.328  -5.141  1.00  0.00     0.031 C 
ATOM     50  C   UNL     1       9.901   0.395  -3.344  1.00  0.00     0.029 A 
ATOM     51  N   UNL     1      10.152   2.587  -3.250  1.00  0.00    -0.354 N 
ATOM     52  C   UNL     1       7.615   5.120  -6.048  1.00  0.00     0.074 A 
ATOM     53  C   UNL     1       6.356   4.525  -5.699  1.00  0.00     0.031 C 
ATOM     54  C   UNL     1      10.504   0.660  -2.166  1.00  0.00     0.029 A 
ATOM     55  C   UNL     1      10.701   2.091  -2.069  1.00  0.00     0.049 A 
ATOM     56  H   UNL     1      10.232   3.529  -3.524  1.00  0.00     0.167 HD
ATOM     57  C   UNL     1       8.016   6.423  -6.071  1.00  0.00     0.037 A 
ATOM     58  C   UNL     1      11.263   2.809  -1.067  1.00  0.00     0.037 A 
ATOM     59  C   UNL     1       9.411   6.504  -6.426  1.00  0.00     0.049 A 
ATOM     60  C   UNL     1      11.621   4.128  -1.631  1.00  0.00     0.074 A 
ATOM     61  C   UNL     1      10.173   6.280  -7.552  1.00  0.00     0.029 A 
ATOM     62  N   UNL     1      10.261   6.493  -5.353  1.00  0.00    -0.354 N 
ATOM     63  N   UNL     1      12.541   4.298  -2.539  1.00  0.00    -0.248 NA
ATOM     64  C   UNL     1      10.696   5.239  -1.460  1.00  0.00     0.031 C 
ATOM     65  C   UNL     1      11.455   5.870  -7.075  1.00  0.00     0.029 A 
ATOM     66  C   UNL     1      11.451   5.911  -5.681  1.00  0.00     0.049 A 
ATOM     67  H   UNL     1      10.042   6.855  -4.464  1.00  0.00     0.167 HD
ATOM     68  C   UNL     1      12.053   5.317  -3.336  1.00  0.00     0.074 A 
ATOM     69  C   UNL     1      11.024   5.967  -2.531  1.00  0.00     0.031 C 
ATOM     70  C   UNL     1      12.309   5.322  -4.676  1.00  0.00     0.037 A 
BRANCH  57  71
ATOM     71  C   UNL     1       7.363   7.545  -5.269  1.00  0.00     0.064 A 
ATOM     72  C   UNL     1       7.941   8.835  -5.328  1.00  0.00     0.173 A 
ATOM     73  C   UNL     1       6.454   7.350  -4.205  1.00  0.00     0.173 A 
ATOM     74  F   UNL     1       8.816   9.149  -6.296  1.00  0.00    -0.203 F 
ATOM     75  C   UNL     1       7.721   9.797  -4.336  1.00  0.00     0.198 A 
ATOM     76  C   UNL     1       6.204   8.330  -3.243  1.00  0.00     0.198 A 
ATOM     77  F   UNL     1       5.849   6.181  -3.977  1.00  0.00    -0.203 F 
ATOM     78  F   UNL     1       8.405  10.949  -4.362  1.00  0.00    -0.200 F 
ATOM     79  C   UNL     1       6.864   9.537  -3.285  1.00  0.00     0.200 A 
ATOM     80  F   UNL     1       5.380   8.050  -2.222  1.00  0.00    -0.200 F 
ATOM     81  F   UNL     1       6.709  10.424  -2.293  1.00  0.00    -0.200 F 
ENDBRANCH  57  71
BRANCH  58  82
ATOM     82  C   UNL     1      11.284   2.533   0.389  1.00  0.00     0.064 A 
ATOM     83  C   UNL     1      12.191   3.189   1.238  1.00  0.00     0.173 A 
ATOM     84  C   UNL     1      10.228   1.844   1.015  1.00  0.00     0.173 A 
ATOM     85  F   UNL     1      13.205   3.898   0.720  1.00  0.00    -0.203 F 
ATOM     86  C   UNL     1      12.027   3.191   2.627  1.00  0.00     0.198 A 
ATOM     87  C   UNL     1      10.068   1.843   2.402  1.00  0.00     0.198 A 
ATOM     88  F   UNL     1       9.274   1.244   0.288  1.00  0.00    -0.203 F 
ATOM     89  F   UNL     1      12.872   3.890   3.399  1.00  0.00    -0.200 F 
ATOM     90  C   UNL     1      10.957   2.530   3.207  1.00  0.00     0.200 A 
ATOM     91  F   UNL     1       9.007   1.231   2.947  1.00  0.00    -0.200 F 
ATOM     92  F   UNL     1      10.758   2.592   4.530  1.00  0.00    -0.200 F 
ENDBRANCH  58  82
BRANCH  70  93
ATOM     93  C   UNL     1      13.475   4.510  -5.156  1.00  0.00     0.064 A 
ATOM     94  C   UNL     1      13.547   3.108  -5.109  1.00  0.00     0.173 A 
ATOM     95  C   UNL     1      14.528   5.191  -5.779  1.00  0.00     0.173 A 
ATOM     96  F   UNL     1      12.543   2.381  -4.606  1.00  0.00    -0.203 F 
ATOM     97  C   UNL     1      14.647   2.426  -5.627  1.00  0.00     0.198 A 
ATOM     98  C   UNL     1      15.605   4.508  -6.330  1.00  0.00     0.198 A 
ATOM     99  F   UNL     1      14.488   6.529  -5.891  1.00  0.00    -0.203 F 
ATOM    100  F   UNL     1      14.704   1.088  -5.554  1.00  0.00    -0.200 F 
ATOM    101  C   UNL     1      15.671   3.127  -6.244  1.00  0.00     0.200 A 
ATOM    102  F   UNL     1      16.569   5.188  -6.965  1.00  0.00    -0.200 F 
ATOM    103  F   UNL     1      16.711   2.470  -6.776  1.00  0.00    -0.200 F 
ENDBRANCH  70  93
ENDBRANCH  44  45
ENDBRANCH  36  39
ENDBRANCH  34  35
ENDBRANCH  33  34
ENDBRANCH  32  33
ENDBRANCH  31  32
ENDBRANCH   1  31
TORSDOF 17
