REMARK SMILES Cc1cccc(CC(=O)N2CCCC[C@@H]2C(=O)NCCCCCCNC(=O)c2ccc(-c3c4nc(c(-c5c(F)c(F)c(F)c(F)c5F)c5ccc([nH]5)c(-c5c(F)c(F)c(F)c(F)c5F)c5nc(c(-c6c(F)c(F)c(F)c(F)c6F)c6ccc3[nH]6)C=C5)C=C4)cc2)c1
REMARK SMILES IDX 21 1 20 2 19 3 18 4 16 5 17 6 15 8 10 9 11 10 12 11 14 12
REMARK SMILES IDX 13 13 8 14 9 15 7 16 6 17 1 18 2 19 3 20 91 21 4 22 5 23
REMARK SMILES IDX 22 24 23 25 24 26 25 27 26 28 27 30 28 31 29 32 90 33 30 34
REMARK SMILES IDX 89 35 31 36 32 37 33 38 83 39 34 40 88 41 82 42 84 43 35 44
REMARK SMILES IDX 87 45 81 46 80 47 36 49 68 50 48 51 67 52 49 53 52 54 66 55
REMARK SMILES IDX 85 56 50 57 51 58 65 60 86 61 53 62 37 63 38 64 46 65 39 66
REMARK SMILES IDX 40 67 44 68 47 69 41 70 42 71 45 72 43 73 69 74 70 75 78 76
REMARK SMILES IDX 71 77 72 78 76 79 79 80 73 81 74 82 77 83 75 84 54 85 55 86
REMARK SMILES IDX 63 87 56 88 57 89 61 90 64 91 58 92 59 93 62 94 60 95
REMARK H PARENT 18 7 25 29 84 48 52 59
REMARK Flexibility Score: inf
ROOT
ATOM      1  C   UNL     1      -3.632  -2.735  -0.967  1.00  0.00     0.002 C 
ENDROOT
BRANCH   1   2
ATOM      2  C   UNL     1      -3.750  -1.869  -2.229  1.00  0.00     0.021 C 
BRANCH   2   3
ATOM      3  C   UNL     1      -3.074  -0.500  -2.151  1.00  0.00     0.116 C 
BRANCH   3   4
ATOM      4  N   UNL     1      -1.629  -0.606  -2.152  1.00  0.00    -0.354 N 
ATOM      5  C   UNL     1      -0.689   0.294  -2.558  1.00  0.00     0.242 C 
ATOM      6  O   UNL     1       0.484  -0.097  -2.616  1.00  0.00    -0.273 OA
ATOM      7  H   UNL     1      -1.272  -1.457  -1.807  1.00  0.00     0.163 HD
BRANCH   5   8
ATOM      8  C   UNL     1      -1.067   1.664  -3.174  1.00  0.00     0.174 C 
ATOM      9  N   UNL     1      -2.242   2.379  -2.617  1.00  0.00    -0.330 N 
ATOM     10  C   UNL     1      -2.864   3.378  -3.485  1.00  0.00     0.120 C 
ATOM     11  C   UNL     1      -3.178   2.859  -4.873  1.00  0.00     0.022 C 
ATOM     12  C   UNL     1      -1.253   1.295  -4.674  1.00  0.00     0.035 C 
ATOM     13  C   UNL     1      -1.907   2.360  -5.535  1.00  0.00     0.004 C 
BRANCH   9  14
ATOM     14  C   UNL     1      -2.486   2.602  -1.260  1.00  0.00     0.227 C 
ATOM     15  O   UNL     1      -3.646   2.779  -0.865  1.00  0.00    -0.275 OA
BRANCH  14  16
ATOM     16  C   UNL     1      -1.331   2.805  -0.291  1.00  0.00     0.135 C 
BRANCH  16  17
ATOM     17  C   UNL     1      -0.687   1.570   0.273  1.00  0.00    -0.038 A 
ATOM     18  C   UNL     1       2.771  -0.014   0.237  1.00  0.00     0.044 C 
ATOM     19  C   UNL     1       1.321   0.210   0.544  1.00  0.00    -0.051 A 
ATOM     20  C   UNL     1       0.556  -0.786   1.154  1.00  0.00     0.003 A 
ATOM     21  C   UNL     1       0.694   1.387   0.118  1.00  0.00     0.007 A 
ATOM     22  C   UNL     1      -0.804  -0.583   1.383  1.00  0.00     0.001 A 
ATOM     23  C   UNL     1      -1.422   0.595   0.956  1.00  0.00     0.004 A 
ENDBRANCH  16  17
ENDBRANCH  14  16
ENDBRANCH   9  14
ENDBRANCH   5   8
ENDBRANCH   3   4
ENDBRANCH   2   3
ENDBRANCH   1   2
BRANCH   1  24
ATOM     24  C   UNL     1      -4.191  -2.147   0.340  1.00  0.00     0.002 C 
BRANCH  24  25
ATOM     25  C   UNL     1      -5.578  -1.506   0.279  1.00  0.00     0.021 C 
BRANCH  25  26
ATOM     26  C   UNL     1      -6.692  -2.475  -0.078  1.00  0.00     0.116 C 
BRANCH  26  27
ATOM     27  N   UNL     1      -7.372  -3.080   1.060  1.00  0.00    -0.352 N 
ATOM     28  C   UNL     1      -8.288  -4.124   1.085  1.00  0.00     0.251 C 
ATOM     29  H   UNL     1      -7.149  -2.694   1.937  1.00  0.00     0.163 HD
ATOM     30  O   UNL     1      -8.840  -4.437   2.122  1.00  0.00    -0.269 OA
BRANCH  28  31
ATOM     31  C   UNL     1      -8.478  -4.949  -0.137  1.00  0.00     0.039 A 
ATOM     32  C   UNL     1      -8.439  -6.342   0.004  1.00  0.00     0.014 A 
ATOM     33  C   UNL     1      -8.447  -4.373  -1.402  1.00  0.00     0.014 A 
ATOM     34  C   UNL     1      -8.096  -7.128  -1.093  1.00  0.00     0.010 A 
ATOM     35  C   UNL     1      -7.982  -5.129  -2.457  1.00  0.00     0.010 A 
ATOM     36  C   UNL     1      -7.745  -6.495  -2.283  1.00  0.00    -0.014 A 
BRANCH  36  37
ATOM     37  C   UNL     1      -7.038  -7.155  -3.371  1.00  0.00     0.031 A 
ATOM     38  C   UNL     1      -7.745  -7.467  -4.629  1.00  0.00     0.074 A 
ATOM     39  C   UNL     1      -5.705  -7.354  -3.263  1.00  0.00     0.049 A 
ATOM     40  N   UNL     1      -7.353  -8.351  -5.481  1.00  0.00    -0.248 NA
ATOM     41  C   UNL     1      -8.987  -6.809  -5.017  1.00  0.00     0.031 C 
ATOM     42  C   UNL     1      -4.773  -7.718  -4.327  1.00  0.00     0.029 A 
ATOM     43  N   UNL     1      -4.939  -7.446  -2.087  1.00  0.00    -0.354 N 
ATOM     44  C   UNL     1      -8.107  -8.199  -6.622  1.00  0.00     0.074 A 
ATOM     45  C   UNL     1      -9.143  -7.259  -6.265  1.00  0.00     0.031 C 
ATOM     46  C   UNL     1      -3.687  -8.283  -3.777  1.00  0.00     0.029 A 
ATOM     47  C   UNL     1      -3.952  -8.423  -2.357  1.00  0.00     0.049 A 
ATOM     48  H   UNL     1      -5.064  -6.938  -1.252  1.00  0.00     0.167 HD
ATOM     49  C   UNL     1      -7.687  -8.790  -7.778  1.00  0.00     0.037 A 
ATOM     50  C   UNL     1      -3.916  -9.601  -1.668  1.00  0.00     0.037 A 
ATOM     51  C   UNL     1      -6.486  -9.587  -7.551  1.00  0.00     0.049 A 
ATOM     52  C   UNL     1      -4.088 -10.822  -2.542  1.00  0.00     0.074 A 
ATOM     53  C   UNL     1      -5.138  -9.315  -7.720  1.00  0.00     0.029 A 
ATOM     54  N   UNL     1      -6.562 -10.724  -6.755  1.00  0.00    -0.354 N 
ATOM     55  N   UNL     1      -4.588 -10.783  -3.747  1.00  0.00    -0.248 NA
ATOM     56  C   UNL     1      -3.735 -12.179  -2.132  1.00  0.00     0.031 C 
ATOM     57  C   UNL     1      -4.401 -10.259  -6.964  1.00  0.00     0.029 A 
ATOM     58  C   UNL     1      -5.300 -11.122  -6.361  1.00  0.00     0.049 A 
ATOM     59  H   UNL     1      -7.398 -11.181  -6.506  1.00  0.00     0.167 HD
ATOM     60  C   UNL     1      -4.629 -12.048  -4.270  1.00  0.00     0.074 A 
ATOM     61  C   UNL     1      -4.077 -12.888  -3.224  1.00  0.00     0.031 C 
ATOM     62  C   UNL     1      -5.117 -12.294  -5.521  1.00  0.00     0.037 A 
BRANCH  49  63
ATOM     63  C   UNL     1      -8.193  -8.398  -9.148  1.00  0.00     0.064 A 
ATOM     64  C   UNL     1      -7.337  -8.420 -10.271  1.00  0.00     0.173 A 
ATOM     65  C   UNL     1      -9.495  -7.935  -9.409  1.00  0.00     0.173 A 
ATOM     66  F   UNL     1      -6.103  -8.935 -10.202  1.00  0.00    -0.203 F 
ATOM     67  C   UNL     1      -7.714  -7.903 -11.513  1.00  0.00     0.198 A 
ATOM     68  C   UNL     1      -9.855  -7.365 -10.635  1.00  0.00     0.198 A 
ATOM     69  F   UNL     1     -10.471  -8.066  -8.501  1.00  0.00    -0.203 F 
ATOM     70  F   UNL     1      -6.852  -7.941 -12.539  1.00  0.00    -0.200 F 
ATOM     71  C   UNL     1      -8.960  -7.337 -11.684  1.00  0.00     0.200 A 
ATOM     72  F   UNL     1     -11.080  -6.841 -10.790  1.00  0.00    -0.200 F 
ATOM     73  F   UNL     1      -9.303  -6.793 -12.858  1.00  0.00    -0.200 F 
ENDBRANCH  49  63
BRANCH  50  74
ATOM     74  C   UNL     1      -4.380  -9.457  -0.263  1.00  0.00     0.064 A 
ATOM     75  C   UNL     1      -3.631  -8.620   0.590  1.00  0.00     0.173 A 
ATOM     76  C   UNL     1      -5.694  -9.754   0.115  1.00  0.00     0.173 A 
ATOM     77  F   UNL     1      -2.364  -8.306   0.274  1.00  0.00    -0.203 F 
ATOM     78  C   UNL     1      -4.214  -7.997   1.691  1.00  0.00     0.198 A 
ATOM     79  C   UNL     1      -6.269  -9.143   1.233  1.00  0.00     0.198 A 
ATOM     80  F   UNL     1      -6.462 -10.532  -0.660  1.00  0.00    -0.203 F 
ATOM     81  F   UNL     1      -3.511  -7.106   2.405  1.00  0.00    -0.200 F 
ATOM     82  C   UNL     1      -5.543  -8.236   1.994  1.00  0.00     0.200 A 
ATOM     83  F   UNL     1      -7.562  -9.357   1.517  1.00  0.00    -0.200 F 
ATOM     84  F   UNL     1      -6.136  -7.563   2.990  1.00  0.00    -0.200 F 
ENDBRANCH  50  74
BRANCH  62  85
ATOM     85  C   UNL     1      -5.397 -13.647  -6.123  1.00  0.00     0.064 A 
ATOM     86  C   UNL     1      -5.812 -14.761  -5.378  1.00  0.00     0.173 A 
ATOM     87  C   UNL     1      -5.417 -13.808  -7.531  1.00  0.00     0.173 A 
ATOM     88  F   UNL     1      -5.928 -14.702  -4.045  1.00  0.00    -0.203 F 
ATOM     89  C   UNL     1      -6.183 -15.960  -5.994  1.00  0.00     0.198 A 
ATOM     90  C   UNL     1      -5.842 -14.985  -8.142  1.00  0.00     0.198 A 
ATOM     91  F   UNL     1      -5.051 -12.815  -8.355  1.00  0.00    -0.203 F 
ATOM     92  F   UNL     1      -6.544 -17.008  -5.240  1.00  0.00    -0.200 F 
ATOM     93  C   UNL     1      -6.214 -16.066  -7.373  1.00  0.00     0.200 A 
ATOM     94  F   UNL     1      -5.911 -15.053  -9.479  1.00  0.00    -0.200 F 
ATOM     95  F   UNL     1      -6.622 -17.200  -7.958  1.00  0.00    -0.200 F 
ENDBRANCH  62  85
ENDBRANCH  36  37
ENDBRANCH  28  31
ENDBRANCH  26  27
ENDBRANCH  25  26
ENDBRANCH  24  25
ENDBRANCH   1  24
TORSDOF 16
