REMARK SMILES CC1(C)C(CNC(=O)[C@H]2C[C@H]2C(=O)NCCCCCCNC(=O)c2ccc(-c3c4nc(c(-c5c(F)c(F)c(F)c(F)c5F)c5ccc([nH]5)c(-c5c(F)c(F)c(F)c(F)c5F)c5nc(c(-c6c(F)c(F)c(F)c(F)c6F)c6ccc3[nH]6)C=C5)C=C4)cc2)C1(C)C
REMARK SMILES IDX 17 1 16 2 15 3 14 4 12 5 13 6 11 8 9 9 10 10 7 11 6 12 8 14
REMARK SMILES IDX 5 15 4 16 1 17 2 18 3 19 87 20 88 21 89 22 18 23 19 24 20 25
REMARK SMILES IDX 21 26 22 27 23 29 24 30 25 31 86 32 26 33 85 34 27 35 28 36
REMARK SMILES IDX 29 37 79 38 30 39 84 40 78 41 80 42 31 43 83 44 77 45 76 46
REMARK SMILES IDX 32 48 64 49 44 50 63 51 45 52 48 53 62 54 81 55 46 56 47 57
REMARK SMILES IDX 61 59 82 60 49 61 33 62 34 63 42 64 35 65 36 66 40 67 43 68
REMARK SMILES IDX 37 69 38 70 41 71 39 72 65 73 66 74 74 75 67 76 68 77 72 78
REMARK SMILES IDX 75 79 69 80 70 81 73 82 71 83 50 84 51 85 59 86 52 87 53 88
REMARK SMILES IDX 57 89 60 90 54 91 55 92 58 93 56 94
REMARK H PARENT 14 7 6 13 21 28 80 47 48 58
REMARK Flexibility Score: inf
ROOT
ATOM      1  C   UNL     1      -5.173   8.185   4.510  1.00  0.00     0.002 C 
ENDROOT
BRANCH   1   2
ATOM      2  C   UNL     1      -4.150   7.051   4.370  1.00  0.00     0.021 C 
BRANCH   2   3
ATOM      3  C   UNL     1      -4.191   6.326   3.024  1.00  0.00     0.116 C 
BRANCH   3   4
ATOM      4  N   UNL     1      -3.638   7.153   1.974  1.00  0.00    -0.356 N 
ATOM      5  C   UNL     1      -2.543   7.061   1.165  1.00  0.00     0.223 C 
ATOM      6  O   UNL     1      -2.285   8.048   0.475  1.00  0.00    -0.275 OA
ATOM      7  H   UNL     1      -4.171   7.964   1.806  1.00  0.00     0.163 HD
BRANCH   5   8
ATOM      8  C   UNL     1      -1.711   5.849   0.950  1.00  0.00     0.091 C 
ATOM      9  C   UNL     1      -1.104   4.916   1.974  1.00  0.00     0.091 C 
ATOM     10  C   UNL     1      -2.230   4.449   1.078  1.00  0.00     0.028 C 
BRANCH   9  11
ATOM     11  C   UNL     1      -1.192   5.183   3.423  1.00  0.00     0.223 C 
ATOM     12  N   UNL     1      -1.579   4.183   4.271  1.00  0.00    -0.356 N 
ATOM     13  H   UNL     1      -1.565   4.412   5.228  1.00  0.00     0.163 HD
ATOM     14  O   UNL     1      -0.853   6.273   3.870  1.00  0.00    -0.275 OA
BRANCH  12  15
ATOM     15  C   UNL     1      -2.004   2.837   3.962  1.00  0.00     0.120 C 
BRANCH  15  16
ATOM     16  C   UNL     1      -0.902   1.872   4.251  1.00  0.00     0.021 C 
ATOM     17  C   UNL     1       0.713   0.940   6.063  1.00  0.00     0.012 C 
ATOM     18  C   UNL     1      -0.711   1.135   5.576  1.00  0.00    -0.025 C 
ATOM     19  C   UNL     1      -1.671   1.341   6.726  1.00  0.00     0.012 C 
ATOM     20  C   UNL     1      -1.166   0.372   4.311  1.00  0.00    -0.025 C 
ATOM     21  C   UNL     1      -0.184  -0.520   3.578  1.00  0.00     0.012 C 
ATOM     22  C   UNL     1      -2.582  -0.154   4.199  1.00  0.00     0.012 C 
ENDBRANCH  15  16
ENDBRANCH  12  15
ENDBRANCH   9  11
ENDBRANCH   5   8
ENDBRANCH   3   4
ENDBRANCH   2   3
ENDBRANCH   1   2
BRANCH   1  23
ATOM     23  C   UNL     1      -6.641   7.765   4.376  1.00  0.00     0.002 C 
BRANCH  23  24
ATOM     24  C   UNL     1      -7.076   6.603   5.272  1.00  0.00     0.021 C 
BRANCH  24  25
ATOM     25  C   UNL     1      -6.841   6.815   6.765  1.00  0.00     0.116 C 
BRANCH  25  26
ATOM     26  N   UNL     1      -7.628   7.912   7.301  1.00  0.00    -0.352 N 
ATOM     27  C   UNL     1      -8.450   7.941   8.399  1.00  0.00     0.251 C 
ATOM     28  H   UNL     1      -7.561   8.759   6.804  1.00  0.00     0.163 HD
ATOM     29  O   UNL     1      -9.163   8.917   8.613  1.00  0.00    -0.269 OA
BRANCH  27  30
ATOM     30  C   UNL     1      -8.503   6.783   9.319  1.00  0.00     0.039 A 
ATOM     31  C   UNL     1      -9.751   6.331   9.758  1.00  0.00     0.014 A 
ATOM     32  C   UNL     1      -7.335   6.156   9.761  1.00  0.00     0.014 A 
ATOM     33  C   UNL     1      -9.830   5.214  10.593  1.00  0.00     0.010 A 
ATOM     34  C   UNL     1      -7.418   5.004  10.540  1.00  0.00     0.010 A 
ATOM     35  C   UNL     1      -8.666   4.524  10.966  1.00  0.00    -0.014 A 
BRANCH  35  36
ATOM     36  C   UNL     1      -8.738   3.295  11.795  1.00  0.00     0.031 A 
ATOM     37  C   UNL     1      -8.153   3.276  13.178  1.00  0.00     0.074 A 
ATOM     38  C   UNL     1      -9.266   2.172  11.272  1.00  0.00     0.049 A 
ATOM     39  N   UNL     1      -8.068   2.283  14.028  1.00  0.00    -0.248 NA
ATOM     40  C   UNL     1      -7.558   4.531  13.659  1.00  0.00     0.031 C 
ATOM     41  C   UNL     1      -9.809   2.045   9.919  1.00  0.00     0.029 A 
ATOM     42  N   UNL     1      -9.417   0.919  11.811  1.00  0.00    -0.354 N 
ATOM     43  C   UNL     1      -7.393   2.787  15.131  1.00  0.00     0.074 A 
ATOM     44  C   UNL     1      -7.050   4.160  14.825  1.00  0.00     0.031 C 
ATOM     45  C   UNL     1     -10.245   0.789   9.738  1.00  0.00     0.029 A 
ATOM     46  C   UNL     1      -9.987   0.015  10.950  1.00  0.00     0.049 A 
ATOM     47  H   UNL     1      -9.142   0.690  12.729  1.00  0.00     0.167 HD
ATOM     48  C   UNL     1      -7.103   2.168  16.301  1.00  0.00     0.037 A 
ATOM     49  C   UNL     1     -10.266  -1.292  11.114  1.00  0.00     0.037 A 
ATOM     50  C   UNL     1      -7.476   0.814  16.615  1.00  0.00     0.049 A 
ATOM     51  C   UNL     1      -9.963  -1.950  12.431  1.00  0.00     0.074 A 
ATOM     52  C   UNL     1      -7.313   0.127  17.806  1.00  0.00     0.029 A 
ATOM     53  N   UNL     1      -8.082  -0.064  15.728  1.00  0.00    -0.354 N 
ATOM     54  N   UNL     1      -9.402  -1.440  13.500  1.00  0.00    -0.248 NA
ATOM     55  C   UNL     1     -10.339  -3.364  12.566  1.00  0.00     0.031 C 
ATOM     56  C   UNL     1      -7.779  -1.181  17.624  1.00  0.00     0.029 A 
ATOM     57  C   UNL     1      -8.273  -1.296  16.335  1.00  0.00     0.049 A 
ATOM     58  H   UNL     1      -8.338   0.155  14.803  1.00  0.00     0.167 HD
ATOM     59  C   UNL     1      -9.371  -2.461  14.439  1.00  0.00     0.074 A 
ATOM     60  C   UNL     1      -9.986  -3.616  13.820  1.00  0.00     0.031 C 
ATOM     61  C   UNL     1      -8.876  -2.441  15.701  1.00  0.00     0.037 A 
BRANCH  48  62
ATOM     62  C   UNL     1      -6.340   2.955  17.326  1.00  0.00     0.064 A 
ATOM     63  C   UNL     1      -6.919   4.035  18.010  1.00  0.00     0.173 A 
ATOM     64  C   UNL     1      -5.015   2.616  17.639  1.00  0.00     0.173 A 
ATOM     65  F   UNL     1      -8.180   4.407  17.740  1.00  0.00    -0.203 F 
ATOM     66  C   UNL     1      -6.188   4.771  18.939  1.00  0.00     0.198 A 
ATOM     67  C   UNL     1      -4.296   3.335  18.591  1.00  0.00     0.198 A 
ATOM     68  F   UNL     1      -4.415   1.588  17.021  1.00  0.00    -0.203 F 
ATOM     69  F   UNL     1      -6.744   5.835  19.536  1.00  0.00    -0.200 F 
ATOM     70  C   UNL     1      -4.879   4.418  19.232  1.00  0.00     0.200 A 
ATOM     71  F   UNL     1      -3.036   2.986  18.882  1.00  0.00    -0.200 F 
ATOM     72  F   UNL     1      -4.176   5.128  20.126  1.00  0.00    -0.200 F 
ENDBRANCH  48  62
BRANCH  49  73
ATOM     73  C   UNL     1     -10.895  -2.049  10.003  1.00  0.00     0.064 A 
ATOM     74  C   UNL     1     -12.242  -2.429  10.063  1.00  0.00     0.173 A 
ATOM     75  C   UNL     1     -10.171  -2.378   8.848  1.00  0.00     0.173 A 
ATOM     76  F   UNL     1     -12.967  -2.152  11.156  1.00  0.00    -0.203 F 
ATOM     77  C   UNL     1     -12.842  -3.117   9.011  1.00  0.00     0.198 A 
ATOM     78  C   UNL     1     -10.779  -3.045   7.786  1.00  0.00     0.198 A 
ATOM     79  F   UNL     1      -8.881  -2.030   8.741  1.00  0.00    -0.203 F 
ATOM     80  F   UNL     1     -14.124  -3.493   9.104  1.00  0.00    -0.200 F 
ATOM     81  C   UNL     1     -12.112  -3.417   7.870  1.00  0.00     0.200 A 
ATOM     82  F   UNL     1     -10.074  -3.321   6.680  1.00  0.00    -0.200 F 
ATOM     83  F   UNL     1     -12.693  -4.067   6.852  1.00  0.00    -0.200 F 
ENDBRANCH  49  73
BRANCH  61  84
ATOM     84  C   UNL     1      -8.985  -3.707  16.500  1.00  0.00     0.064 A 
ATOM     85  C   UNL     1      -8.177  -4.819  16.222  1.00  0.00     0.173 A 
ATOM     86  C   UNL     1      -9.882  -3.797  17.574  1.00  0.00     0.173 A 
ATOM     87  F   UNL     1      -7.315  -4.788  15.194  1.00  0.00    -0.203 F 
ATOM     88  C   UNL     1      -8.279  -5.984  16.979  1.00  0.00     0.198 A 
ATOM     89  C   UNL     1      -9.962  -4.954  18.345  1.00  0.00     0.198 A 
ATOM     90  F   UNL     1     -10.674  -2.760  17.883  1.00  0.00    -0.203 F 
ATOM     91  F   UNL     1      -7.528  -7.050  16.669  1.00  0.00    -0.200 F 
ATOM     92  C   UNL     1      -9.166  -6.048  18.043  1.00  0.00     0.200 A 
ATOM     93  F   UNL     1     -10.812  -5.010  19.380  1.00  0.00    -0.200 F 
ATOM     94  F   UNL     1      -9.258  -7.168  18.773  1.00  0.00    -0.200 F 
ENDBRANCH  61  84
ENDBRANCH  35  36
ENDBRANCH  27  30
ENDBRANCH  25  26
ENDBRANCH  24  25
ENDBRANCH  23  24
ENDBRANCH   1  23
TORSDOF 16
