REMARK SMILES COc1cc(-c2ccc(F)c(C(F)(F)F)c2)ccc1C(=O)NCCCCCCNC(=O)c1ccc(-c2c3nc(c(-c4c(F)c(F)c(F)c(F)c4F)c4ccc([nH]4)c(-c4c(F)c(F)c(F)c(F)c4F)c4nc(c(-c5c(F)c(F)c(F)c(F)c5F)c5ccc2[nH]5)C=C4)C=C3)cc1
REMARK SMILES IDX 25 1 24 2 23 3 22 4 20 5 21 6 19 8 3 9 4 10 5 11 18 12 17 13
REMARK SMILES IDX 2 14 1 15 6 16 7 17 16 18 8 19 11 20 9 21 10 22 12 23 13 24
REMARK SMILES IDX 14 25 15 26 26 27 27 28 28 29 29 30 30 31 31 33 32 34 33 35
REMARK SMILES IDX 94 36 34 37 93 38 35 39 36 40 37 41 87 42 38 43 92 44 86 45
REMARK SMILES IDX 88 46 39 47 91 48 85 49 84 50 40 52 72 53 52 54 71 55 53 56
REMARK SMILES IDX 56 57 70 58 89 59 54 60 55 61 69 63 90 64 57 65 41 66 42 67
REMARK SMILES IDX 50 68 43 69 44 70 48 71 51 72 45 73 46 74 49 75 47 76 73 77
REMARK SMILES IDX 74 78 82 79 75 80 76 81 80 82 83 83 77 84 78 85 81 86 79 87
REMARK SMILES IDX 58 88 59 89 67 90 60 91 61 92 65 93 68 94 62 95 63 96 66 97
REMARK SMILES IDX 64 98
REMARK H PARENT 22 7 29 32 88 51 56 62
REMARK Flexibility Score: inf
ROOT
ATOM      1  C   UNL     1       3.129   1.155   3.030  1.00  0.00     0.002 C 
ENDROOT
BRANCH   1   2
ATOM      2  C   UNL     1       2.445  -0.213   2.939  1.00  0.00     0.021 C 
BRANCH   2   3
ATOM      3  C   UNL     1       1.999  -0.644   1.548  1.00  0.00     0.116 C 
BRANCH   3   4
ATOM      4  N   UNL     1       3.064  -0.773   0.577  1.00  0.00    -0.352 N 
ATOM      5  C   UNL     1       3.074  -1.452  -0.620  1.00  0.00     0.255 C 
ATOM      6  O   UNL     1       4.080  -1.376  -1.326  1.00  0.00    -0.269 OA
ATOM      7  H   UNL     1       3.901  -0.307   0.804  1.00  0.00     0.163 HD
BRANCH   5   8
ATOM      8  C   UNL     1       1.961  -2.345  -1.051  1.00  0.00     0.081 A 
ATOM      9  C   UNL     1       0.592  -2.093  -0.917  1.00  0.00     0.132 A 
ATOM     10  C   UNL     1      -0.336  -3.111  -1.169  1.00  0.00     0.056 A 
ATOM     11  C   UNL     1       0.057  -4.371  -1.646  1.00  0.00    -0.015 A 
ATOM     12  C   UNL     1       2.355  -3.568  -1.624  1.00  0.00     0.018 A 
ATOM     13  C   UNL     1       1.416  -4.564  -1.924  1.00  0.00     0.010 A 
BRANCH   9  14
ATOM     14  O   UNL     1       0.040  -0.933  -0.449  1.00  0.00    -0.496 OA
ATOM     15  C   UNL     1       0.200   0.155  -1.357  1.00  0.00     0.278 C 
ENDBRANCH   9  14
BRANCH  11  16
ATOM     16  C   UNL     1      -0.927  -5.462  -1.757  1.00  0.00    -0.017 A 
ATOM     17  C   UNL     1      -2.181  -5.262  -2.357  1.00  0.00     0.012 A 
ATOM     18  C   UNL     1      -0.670  -6.715  -1.166  1.00  0.00     0.025 A 
ATOM     19  C   UNL     1      -3.153  -6.264  -2.341  1.00  0.00     0.040 A 
ATOM     20  C   UNL     1      -1.643  -7.729  -1.141  1.00  0.00     0.092 A 
ATOM     21  C   UNL     1      -2.879  -7.482  -1.728  1.00  0.00     0.135 A 
ATOM     22  F   UNL     1      -3.835  -8.418  -1.696  1.00  0.00    -0.206 F 
BRANCH  20  23
ATOM     23  C   UNL     1      -1.399  -9.046  -0.470  1.00  0.00     0.419 C 
ATOM     24  F   UNL     1      -2.240  -9.272   0.576  1.00  0.00    -0.166 F 
ATOM     25  F   UNL     1      -1.538 -10.107  -1.311  1.00  0.00    -0.166 F 
ATOM     26  F   UNL     1      -0.140  -9.154   0.047  1.00  0.00    -0.166 F 
ENDBRANCH  20  23
ENDBRANCH  11  16
ENDBRANCH   5   8
ENDBRANCH   3   4
ENDBRANCH   2   3
ENDBRANCH   1   2
BRANCH   1  27
ATOM     27  C   UNL     1       2.431   2.332   2.340  1.00  0.00     0.002 C 
BRANCH  27  28
ATOM     28  C   UNL     1       0.971   2.588   2.720  1.00  0.00     0.021 C 
BRANCH  28  29
ATOM     29  C   UNL     1       0.676   2.684   4.212  1.00  0.00     0.116 C 
BRANCH  29  30
ATOM     30  N   UNL     1       1.451   3.713   4.883  1.00  0.00    -0.352 N 
ATOM     31  C   UNL     1       1.044   4.688   5.760  1.00  0.00     0.251 C 
ATOM     32  H   UNL     1       2.414   3.711   4.678  1.00  0.00     0.163 HD
ATOM     33  O   UNL     1       1.833   5.549   6.131  1.00  0.00    -0.269 OA
BRANCH  31  34
ATOM     34  C   UNL     1      -0.357   4.723   6.238  1.00  0.00     0.039 A 
ATOM     35  C   UNL     1      -1.014   5.956   6.293  1.00  0.00     0.014 A 
ATOM     36  C   UNL     1      -1.019   3.560   6.637  1.00  0.00     0.014 A 
ATOM     37  C   UNL     1      -2.352   6.013   6.688  1.00  0.00     0.010 A 
ATOM     38  C   UNL     1      -2.374   3.607   6.953  1.00  0.00     0.010 A 
ATOM     39  C   UNL     1      -3.054   4.834   6.986  1.00  0.00    -0.014 A 
BRANCH  39  40
ATOM     40  C   UNL     1      -4.498   4.867   7.330  1.00  0.00     0.031 A 
ATOM     41  C   UNL     1      -4.967   4.423   8.687  1.00  0.00     0.074 A 
ATOM     42  C   UNL     1      -5.395   5.239   6.397  1.00  0.00     0.049 A 
ATOM     43  N   UNL     1      -6.186   4.334   9.156  1.00  0.00    -0.248 NA
ATOM     44  C   UNL     1      -3.927   3.994   9.634  1.00  0.00     0.031 C 
ATOM     45  C   UNL     1      -5.070   5.651   5.031  1.00  0.00     0.029 A 
ATOM     46  N   UNL     1      -6.764   5.327   6.454  1.00  0.00    -0.354 N 
ATOM     47  C   UNL     1      -6.060   3.829  10.444  1.00  0.00     0.074 A 
ATOM     48  C   UNL     1      -4.652   3.572  10.659  1.00  0.00     0.031 C 
ATOM     49  C   UNL     1      -6.202   5.979   4.390  1.00  0.00     0.029 A 
ATOM     50  C   UNL     1      -7.336   5.759   5.282  1.00  0.00     0.049 A 
ATOM     51  H   UNL     1      -7.286   5.102   7.258  1.00  0.00     0.167 HD
ATOM     52  C   UNL     1      -7.026   3.622  11.371  1.00  0.00     0.037 A 
ATOM     53  C   UNL     1      -8.630   5.951   4.963  1.00  0.00     0.037 A 
ATOM     54  C   UNL     1      -8.425   3.889  11.152  1.00  0.00     0.049 A 
ATOM     55  C   UNL     1      -9.689   5.686   5.998  1.00  0.00     0.074 A 
ATOM     56  C   UNL     1      -9.476   3.769  12.043  1.00  0.00     0.029 A 
ATOM     57  N   UNL     1      -8.968   4.319   9.950  1.00  0.00    -0.354 N 
ATOM     58  N   UNL     1      -9.553   5.280   7.237  1.00  0.00    -0.248 NA
ATOM     59  C   UNL     1     -11.082   5.911   5.590  1.00  0.00     0.031 C 
ATOM     60  C   UNL     1     -10.662   4.063  11.363  1.00  0.00     0.029 A 
ATOM     61  C   UNL     1     -10.345   4.435  10.066  1.00  0.00     0.049 A 
ATOM     62  H   UNL     1      -8.452   4.513   9.134  1.00  0.00     0.167 HD
ATOM     63  C   UNL     1     -10.836   5.230   7.766  1.00  0.00     0.074 A 
ATOM     64  C   UNL     1     -11.736   5.660   6.715  1.00  0.00     0.031 C 
ATOM     65  C   UNL     1     -11.231   4.864   9.011  1.00  0.00     0.037 A 
BRANCH  52  66
ATOM     66  C   UNL     1      -6.599   3.062  12.700  1.00  0.00     0.064 A 
ATOM     67  C   UNL     1      -5.795   3.795  13.589  1.00  0.00     0.173 A 
ATOM     68  C   UNL     1      -7.002   1.777  13.094  1.00  0.00     0.173 A 
ATOM     69  F   UNL     1      -5.373   5.025  13.261  1.00  0.00    -0.203 F 
ATOM     70  C   UNL     1      -5.371   3.243  14.796  1.00  0.00     0.198 A 
ATOM     71  C   UNL     1      -6.608   1.244  14.319  1.00  0.00     0.198 A 
ATOM     72  F   UNL     1      -7.778   1.034  12.291  1.00  0.00    -0.203 F 
ATOM     73  F   UNL     1      -4.545   3.935  15.592  1.00  0.00    -0.200 F 
ATOM     74  C   UNL     1      -5.782   1.971  15.162  1.00  0.00     0.200 A 
ATOM     75  F   UNL     1      -7.020   0.020  14.679  1.00  0.00    -0.200 F 
ATOM     76  F   UNL     1      -5.372   1.441  16.323  1.00  0.00    -0.200 F 
ENDBRANCH  52  66
BRANCH  53  77
ATOM     77  C   UNL     1      -8.988   6.457   3.612  1.00  0.00     0.064 A 
ATOM     78  C   UNL     1      -9.497   7.752   3.443  1.00  0.00     0.173 A 
ATOM     79  C   UNL     1      -8.814   5.669   2.464  1.00  0.00     0.173 A 
ATOM     80  F   UNL     1      -9.700   8.536   4.512  1.00  0.00    -0.203 F 
ATOM     81  C   UNL     1      -9.829   8.236   2.179  1.00  0.00     0.198 A 
ATOM     82  C   UNL     1      -9.118   6.165   1.198  1.00  0.00     0.198 A 
ATOM     83  F   UNL     1      -8.325   4.425   2.571  1.00  0.00    -0.203 F 
ATOM     84  F   UNL     1     -10.349   9.464   2.050  1.00  0.00    -0.200 F 
ATOM     85  C   UNL     1      -9.632   7.446   1.057  1.00  0.00     0.200 A 
ATOM     86  F   UNL     1      -8.910   5.404   0.115  1.00  0.00    -0.200 F 
ATOM     87  F   UNL     1      -9.940   7.916  -0.159  1.00  0.00    -0.200 F 
ENDBRANCH  53  77
BRANCH  65  88
ATOM     88  C   UNL     1     -12.700   4.946   9.321  1.00  0.00     0.064 A 
ATOM     89  C   UNL     1     -13.628   4.064   8.748  1.00  0.00     0.173 A 
ATOM     90  C   UNL     1     -13.178   5.899  10.234  1.00  0.00     0.173 A 
ATOM     91  F   UNL     1     -13.226   3.145   7.858  1.00  0.00    -0.203 F 
ATOM     92  C   UNL     1     -14.984   4.152   9.056  1.00  0.00     0.198 A 
ATOM     93  C   UNL     1     -14.529   5.960  10.567  1.00  0.00     0.198 A 
ATOM     94  F   UNL     1     -12.333   6.763  10.816  1.00  0.00    -0.203 F 
ATOM     95  F   UNL     1     -15.860   3.334   8.456  1.00  0.00    -0.200 F 
ATOM     96  C   UNL     1     -15.431   5.093   9.971  1.00  0.00     0.200 A 
ATOM     97  F   UNL     1     -14.956   6.860  11.464  1.00  0.00    -0.200 F 
ATOM     98  F   UNL     1     -16.735   5.170  10.273  1.00  0.00    -0.200 F 
ENDBRANCH  65  88
ENDBRANCH  39  40
ENDBRANCH  31  34
ENDBRANCH  29  30
ENDBRANCH  28  29
ENDBRANCH  27  28
ENDBRANCH   1  27
TORSDOF 16
