REMARK SMILES CSc1cccc(N2C[C@@H](C(=O)NCCCCCCNC(=O)c3ccc(-c4c5nc(c(-c6c(F)c(F)c(F)c(F)c6F)c6ccc([nH]6)c(-c6c(F)c(F)c(F)c(F)c6F)c6nc(c(-c7c(F)c(F)c(F)c(F)c7F)c7ccc4[nH]7)C=C6)C=C5)cc3)CC2=O)c1
REMARK SMILES IDX 16 1 15 2 14 3 13 4 11 5 12 6 10 8 8 9 9 10 87 11 86 12
REMARK SMILES IDX 88 13 7 14 3 15 4 16 89 17 5 18 6 19 2 20 1 21 17 22 18 23
REMARK SMILES IDX 19 24 20 25 21 26 22 28 23 29 24 30 85 31 25 32 84 33 26 34
REMARK SMILES IDX 27 35 28 36 78 37 29 38 83 39 77 40 79 41 30 42 82 43 76 44
REMARK SMILES IDX 75 45 31 47 63 48 43 49 62 50 44 51 47 52 61 53 80 54 45 55
REMARK SMILES IDX 46 56 60 58 81 59 48 60 32 61 33 62 41 63 34 64 35 65 39 66
REMARK SMILES IDX 42 67 36 68 37 69 40 70 38 71 64 72 65 73 73 74 66 75 67 76
REMARK SMILES IDX 71 77 74 78 68 79 69 80 72 81 70 82 49 83 50 84 58 85 51 86
REMARK SMILES IDX 52 87 56 88 59 89 53 90 54 91 57 92 55 93
REMARK H PARENT 13 7 20 27 79 46 47 57
REMARK Flexibility Score: inf
ROOT
ATOM      1  C   UNL     1       3.627   1.785  -7.935  1.00  0.00     0.002 C 
ENDROOT
BRANCH   1   2
ATOM      2  C   UNL     1       3.832   1.013  -6.626  1.00  0.00     0.021 C 
BRANCH   2   3
ATOM      3  C   UNL     1       3.050  -0.298  -6.541  1.00  0.00     0.116 C 
BRANCH   3   4
ATOM      4  N   UNL     1       3.541  -1.265  -7.504  1.00  0.00    -0.356 N 
ATOM      5  C   UNL     1       4.151  -2.466  -7.349  1.00  0.00     0.225 C 
ATOM      6  O   UNL     1       4.488  -3.066  -8.374  1.00  0.00    -0.275 OA
ATOM      7  H   UNL     1       3.407  -1.001  -8.443  1.00  0.00     0.163 HD
BRANCH   5   8
ATOM      8  C   UNL     1       4.383  -3.103  -5.995  1.00  0.00     0.107 C 
ATOM      9  N   UNL     1       3.224  -3.092  -3.940  1.00  0.00    -0.312 N 
ATOM     10  C   UNL     1       3.085  -3.497  -5.318  1.00  0.00     0.139 C 
ATOM     11  C   UNL     1       4.345  -2.292  -3.733  1.00  0.00     0.227 C 
ATOM     12  C   UNL     1       5.161  -2.260  -4.999  1.00  0.00     0.116 C 
ATOM     13  O   UNL     1       4.689  -1.717  -2.708  1.00  0.00    -0.274 OA
BRANCH   9  14
ATOM     14  C   UNL     1       2.263  -3.430  -2.954  1.00  0.00     0.045 A 
ATOM     15  C   UNL     1       1.001  -2.879  -0.933  1.00  0.00     0.009 A 
ATOM     16  C   UNL     1       0.403  -4.144  -0.981  1.00  0.00     0.015 A 
ATOM     17  C   UNL     1       1.952  -2.546  -1.908  1.00  0.00     0.041 A 
ATOM     18  C   UNL     1       0.712  -5.038  -2.003  1.00  0.00     0.003 A 
ATOM     19  C   UNL     1       1.617  -4.671  -2.999  1.00  0.00     0.026 A 
BRANCH  15  20
ATOM     20  S   UNL     1       0.488  -1.806   0.406  1.00  0.00    -0.130 SA
ATOM     21  C   UNL     1       1.074  -0.174  -0.120  1.00  0.00     0.091 C 
ENDBRANCH  15  20
ENDBRANCH   9  14
ENDBRANCH   5   8
ENDBRANCH   3   4
ENDBRANCH   2   3
ENDBRANCH   1   2
BRANCH   1  22
ATOM     22  C   UNL     1       2.170   2.128  -8.264  1.00  0.00     0.002 C 
BRANCH  22  23
ATOM     23  C   UNL     1       1.419   2.883  -7.165  1.00  0.00     0.021 C 
BRANCH  23  24
ATOM     24  C   UNL     1       2.060   4.202  -6.746  1.00  0.00     0.116 C 
BRANCH  24  25
ATOM     25  N   UNL     1       2.125   5.151  -7.843  1.00  0.00    -0.352 N 
ATOM     26  C   UNL     1       1.696   6.451  -7.906  1.00  0.00     0.251 C 
ATOM     27  H   UNL     1       2.541   4.809  -8.668  1.00  0.00     0.163 HD
ATOM     28  O   UNL     1       1.654   7.029  -8.988  1.00  0.00    -0.269 OA
BRANCH  26  29
ATOM     29  C   UNL     1       1.264   7.158  -6.680  1.00  0.00     0.039 A 
ATOM     30  C   UNL     1       0.154   8.003  -6.756  1.00  0.00     0.014 A 
ATOM     31  C   UNL     1       1.959   7.025  -5.474  1.00  0.00     0.014 A 
ATOM     32  C   UNL     1      -0.281   8.679  -5.615  1.00  0.00     0.010 A 
ATOM     33  C   UNL     1       1.474   7.633  -4.318  1.00  0.00     0.010 A 
ATOM     34  C   UNL     1       0.356   8.477  -4.378  1.00  0.00    -0.014 A 
BRANCH  34  35
ATOM     35  C   UNL     1      -0.153   9.149  -3.155  1.00  0.00     0.031 A 
ATOM     36  C   UNL     1       0.688  10.157  -2.422  1.00  0.00     0.074 A 
ATOM     37  C   UNL     1      -1.381   8.836  -2.697  1.00  0.00     0.049 A 
ATOM     38  N   UNL     1       0.387  10.877  -1.369  1.00  0.00    -0.248 NA
ATOM     39  C   UNL     1       2.056  10.371  -2.918  1.00  0.00     0.031 C 
ATOM     40  C   UNL     1      -2.268   7.829  -3.282  1.00  0.00     0.029 A 
ATOM     41  N   UNL     1      -2.100   9.338  -1.641  1.00  0.00    -0.354 N 
ATOM     42  C   UNL     1       1.522  11.623  -1.080  1.00  0.00     0.074 A 
ATOM     43  C   UNL     1       2.541  11.221  -2.026  1.00  0.00     0.031 C 
ATOM     44  C   UNL     1      -3.428   7.819  -2.608  1.00  0.00     0.029 A 
ATOM     45  C   UNL     1      -3.354   8.791  -1.522  1.00  0.00     0.049 A 
ATOM     46  H   UNL     1      -1.750  10.024  -1.028  1.00  0.00     0.167 HD
ATOM     47  C   UNL     1       1.692  12.577  -0.133  1.00  0.00     0.037 A 
ATOM     48  C   UNL     1      -4.338   9.051  -0.640  1.00  0.00     0.037 A 
ATOM     49  C   UNL     1       0.671  12.979   0.802  1.00  0.00     0.049 A 
ATOM     50  C   UNL     1      -4.124  10.116   0.401  1.00  0.00     0.074 A 
ATOM     51  C   UNL     1       0.726  13.970   1.767  1.00  0.00     0.029 A 
ATOM     52  N   UNL     1      -0.588  12.404   0.893  1.00  0.00    -0.354 N 
ATOM     53  N   UNL     1      -3.075  10.874   0.610  1.00  0.00    -0.248 NA
ATOM     54  C   UNL     1      -5.241  10.371   1.319  1.00  0.00     0.031 C 
ATOM     55  C   UNL     1      -0.478  13.954   2.480  1.00  0.00     0.029 A 
ATOM     56  C   UNL     1      -1.310  13.002   1.916  1.00  0.00     0.049 A 
ATOM     57  H   UNL     1      -0.921  11.679   0.317  1.00  0.00     0.167 HD
ATOM     58  C   UNL     1      -3.414  11.714   1.662  1.00  0.00     0.074 A 
ATOM     59  C   UNL     1      -4.778  11.389   2.027  1.00  0.00     0.031 C 
ATOM     60  C   UNL     1      -2.665  12.665   2.274  1.00  0.00     0.037 A 
BRANCH  47  61
ATOM     61  C   UNL     1       3.033  13.253  -0.059  1.00  0.00     0.064 A 
ATOM     62  C   UNL     1       3.486  14.107  -1.077  1.00  0.00     0.173 A 
ATOM     63  C   UNL     1       3.861  13.076   1.060  1.00  0.00     0.173 A 
ATOM     64  F   UNL     1       2.740  14.305  -2.175  1.00  0.00    -0.203 F 
ATOM     65  C   UNL     1       4.729  14.730  -0.994  1.00  0.00     0.198 A 
ATOM     66  C   UNL     1       5.088  13.729   1.157  1.00  0.00     0.198 A 
ATOM     67  F   UNL     1       3.477  12.277   2.067  1.00  0.00    -0.203 F 
ATOM     68  F   UNL     1       5.162  15.496  -2.004  1.00  0.00    -0.200 F 
ATOM     69  C   UNL     1       5.525  14.547   0.127  1.00  0.00     0.200 A 
ATOM     70  F   UNL     1       5.849  13.563   2.248  1.00  0.00    -0.200 F 
ATOM     71  F   UNL     1       6.717  15.155   0.210  1.00  0.00    -0.200 F 
ENDBRANCH  47  61
BRANCH  48  72
ATOM     72  C   UNL     1      -5.628   8.315  -0.725  1.00  0.00     0.064 A 
ATOM     73  C   UNL     1      -6.814   8.971  -1.083  1.00  0.00     0.173 A 
ATOM     74  C   UNL     1      -5.704   6.944  -0.438  1.00  0.00     0.173 A 
ATOM     75  F   UNL     1      -6.797  10.286  -1.350  1.00  0.00    -0.203 F 
ATOM     76  C   UNL     1      -8.030   8.293  -1.121  1.00  0.00     0.198 A 
ATOM     77  C   UNL     1      -6.915   6.259  -0.510  1.00  0.00     0.198 A 
ATOM     78  F   UNL     1      -4.598   6.266  -0.099  1.00  0.00    -0.203 F 
ATOM     79  F   UNL     1      -9.157   8.958  -1.410  1.00  0.00    -0.200 F 
ATOM     80  C   UNL     1      -8.079   6.936  -0.840  1.00  0.00     0.200 A 
ATOM     81  F   UNL     1      -6.954   4.944  -0.257  1.00  0.00    -0.200 F 
ATOM     82  F   UNL     1      -9.248   6.283  -0.880  1.00  0.00    -0.200 F 
ENDBRANCH  48  72
BRANCH  60  83
ATOM     83  C   UNL     1      -3.323  13.443   3.380  1.00  0.00     0.064 A 
ATOM     84  C   UNL     1      -3.679  12.843   4.599  1.00  0.00     0.173 A 
ATOM     85  C   UNL     1      -3.611  14.807   3.215  1.00  0.00     0.173 A 
ATOM     86  F   UNL     1      -3.438  11.540   4.806  1.00  0.00    -0.203 F 
ATOM     87  C   UNL     1      -4.345  13.565   5.586  1.00  0.00     0.198 A 
ATOM     88  C   UNL     1      -4.240  15.536   4.221  1.00  0.00     0.198 A 
ATOM     89  F   UNL     1      -3.283  15.435   2.076  1.00  0.00    -0.203 F 
ATOM     90  F   UNL     1      -4.746  12.950   6.707  1.00  0.00    -0.200 F 
ATOM     91  C   UNL     1      -4.621  14.911   5.398  1.00  0.00     0.200 A 
ATOM     92  F   UNL     1      -4.489  16.840   4.045  1.00  0.00    -0.200 F 
ATOM     93  F   UNL     1      -5.268  15.602   6.347  1.00  0.00    -0.200 F 
ENDBRANCH  60  83
ENDBRANCH  34  35
ENDBRANCH  26  29
ENDBRANCH  24  25
ENDBRANCH  23  24
ENDBRANCH  22  23
ENDBRANCH   1  22
TORSDOF 15
