REMARK SMILES CCC[C@@H]1C[N@@H+](Cc2cc(OC)c3c(c2)OCO3)C[C@H]1C(=O)NCCCCCCNC(=O)c1ccc(-c2c3nc(c(-c4c(F)c(F)c(F)c(F)c4F)c4ccc([nH]4)c(-c4c(F)c(F)c(F)c(F)c4F)c4nc(c(-c5c(F)c(F)c(F)c(F)c5F)c5ccc2[nH]5)C=C4)C=C3)cc1
REMARK SMILES IDX 26 1 25 2 24 3 23 4 21 5 22 6 20 8 4 9 5 10 6 11 19 12 3 14
REMARK SMILES IDX 2 15 1 16 7 17 8 18 9 19 15 20 10 21 14 22 13 23 16 24 18 25
REMARK SMILES IDX 17 26 11 27 12 28 27 29 28 30 29 31 30 32 31 33 32 35 33 36
REMARK SMILES IDX 34 37 95 38 35 39 94 40 36 41 37 42 38 43 88 44 39 45 93 46
REMARK SMILES IDX 87 47 89 48 40 49 92 50 86 51 85 52 41 54 73 55 53 56 72 57
REMARK SMILES IDX 54 58 57 59 71 60 90 61 55 62 56 63 70 65 91 66 58 67 42 68
REMARK SMILES IDX 43 69 51 70 44 71 45 72 49 73 52 74 46 75 47 76 50 77 48 78
REMARK SMILES IDX 74 79 75 80 83 81 76 82 77 83 81 84 84 85 78 86 79 87 82 88
REMARK SMILES IDX 80 89 59 90 60 91 68 92 61 93 62 94 66 95 69 96 63 97 64 98
REMARK SMILES IDX 67 99 65 100
REMARK H PARENT 23 7 6 13 30 34 89 53 57 64
REMARK Flexibility Score: inf
ROOT
ATOM      1  C   UNL     1      -4.001   4.113   4.848  1.00  0.00     0.002 C 
ENDROOT
BRANCH   1   2
ATOM      2  C   UNL     1      -3.061   4.807   3.846  1.00  0.00     0.021 C 
BRANCH   2   3
ATOM      3  C   UNL     1      -1.628   5.140   4.345  1.00  0.00     0.116 C 
BRANCH   3   4
ATOM      4  N   UNL     1      -0.740   4.053   4.797  1.00  0.00    -0.356 N 
ATOM      5  C   UNL     1       0.401   3.402   4.401  1.00  0.00     0.229 C 
ATOM      6  O   UNL     1       0.924   2.713   5.292  1.00  0.00    -0.275 OA
ATOM      7  H   UNL     1      -1.067   3.677   5.647  1.00  0.00     0.163 HD
BRANCH   5   8
ATOM      8  C   UNL     1       1.074   3.373   2.998  1.00  0.00     0.142 C 
ATOM      9  C   UNL     1       1.067   1.984   2.255  1.00  0.00     0.062 C 
ATOM     10  C   UNL     1       1.016   2.390   0.782  1.00  0.00     0.267 C 
ATOM     11  N   UNL     1       0.127   3.537   0.760  1.00  0.00    -0.330 N 
ATOM     12  C   UNL     1       0.532   4.325   1.928  1.00  0.00     0.276 C 
ATOM     13  H   UNL     1       0.227   4.108  -0.079  1.00  0.00     0.348 HD
BRANCH   9  14
ATOM     14  C   UNL     1       2.113   0.898   2.530  1.00  0.00     0.010 C 
BRANCH  14  15
ATOM     15  C   UNL     1       1.642  -0.504   2.039  1.00  0.00    -0.003 C 
ATOM     16  C   UNL     1       1.560  -0.717   0.530  1.00  0.00     0.004 C 
ENDBRANCH  14  15
ENDBRANCH   9  14
BRANCH  11  17
ATOM     17  C   UNL     1      -1.313   3.240   0.544  1.00  0.00     0.299 C 
BRANCH  17  18
ATOM     18  C   UNL     1      -2.034   2.091   1.254  1.00  0.00     0.014 A 
ATOM     19  C   UNL     1      -1.991   1.986   2.647  1.00  0.00     0.060 A 
ATOM     20  C   UNL     1      -2.846   1.155   0.614  1.00  0.00     0.060 A 
ATOM     21  C   UNL     1      -2.551   0.981   3.435  1.00  0.00     0.165 A 
ATOM     22  C   UNL     1      -3.487   0.189   1.396  1.00  0.00     0.170 A 
ATOM     23  C   UNL     1      -3.332   0.085   2.769  1.00  0.00     0.207 A 
ATOM     24  O   UNL     1      -4.348  -0.753   0.915  1.00  0.00    -0.453 OA
ATOM     25  O   UNL     1      -4.037  -0.946   3.298  1.00  0.00    -0.450 OA
ATOM     26  C   UNL     1      -4.724  -1.432   2.132  1.00  0.00     0.468 C 
BRANCH  21  27
ATOM     27  O   UNL     1      -2.214   1.068   4.746  1.00  0.00    -0.493 OA
ATOM     28  C   UNL     1      -3.000   0.375   5.699  1.00  0.00     0.278 C 
ENDBRANCH  21  27
ENDBRANCH  17  18
ENDBRANCH  11  17
ENDBRANCH   5   8
ENDBRANCH   3   4
ENDBRANCH   2   3
ENDBRANCH   1   2
BRANCH   1  29
ATOM     29  C   UNL     1      -5.459   4.612   4.785  1.00  0.00     0.002 C 
BRANCH  29  30
ATOM     30  C   UNL     1      -6.191   4.427   3.447  1.00  0.00     0.021 C 
BRANCH  30  31
ATOM     31  C   UNL     1      -6.589   2.986   3.125  1.00  0.00     0.116 C 
BRANCH  31  32
ATOM     32  N   UNL     1      -7.681   2.520   3.971  1.00  0.00    -0.352 N 
ATOM     33  C   UNL     1      -9.037   2.502   3.736  1.00  0.00     0.251 C 
ATOM     34  H   UNL     1      -7.406   2.162   4.846  1.00  0.00     0.163 HD
ATOM     35  O   UNL     1      -9.822   2.320   4.659  1.00  0.00    -0.269 OA
BRANCH  33  36
ATOM     36  C   UNL     1      -9.562   2.705   2.368  1.00  0.00     0.039 A 
ATOM     37  C   UNL     1     -10.625   3.591   2.165  1.00  0.00     0.014 A 
ATOM     38  C   UNL     1      -9.048   1.974   1.294  1.00  0.00     0.014 A 
ATOM     39  C   UNL     1     -11.130   3.791   0.875  1.00  0.00     0.010 A 
ATOM     40  C   UNL     1      -9.512   2.216   0.002  1.00  0.00     0.010 A 
ATOM     41  C   UNL     1     -10.558   3.125  -0.222  1.00  0.00    -0.014 A 
BRANCH  41  42
ATOM     42  C   UNL     1     -11.040   3.360  -1.609  1.00  0.00     0.031 A 
ATOM     43  C   UNL     1     -11.691   2.248  -2.384  1.00  0.00     0.074 A 
ATOM     44  C   UNL     1     -10.826   4.553  -2.198  1.00  0.00     0.049 A 
ATOM     45  N   UNL     1     -12.093   2.228  -3.630  1.00  0.00    -0.248 NA
ATOM     46  C   UNL     1     -11.893   0.978  -1.669  1.00  0.00     0.031 C 
ATOM     47  C   UNL     1     -10.171   5.700  -1.569  1.00  0.00     0.029 A 
ATOM     48  N   UNL     1     -11.124   4.994  -3.464  1.00  0.00    -0.354 N 
ATOM     49  C   UNL     1     -12.580   0.946  -3.851  1.00  0.00     0.074 A 
ATOM     50  C   UNL     1     -12.376   0.201  -2.627  1.00  0.00     0.031 C 
ATOM     51  C   UNL     1     -10.131   6.718  -2.444  1.00  0.00     0.029 A 
ATOM     52  C   UNL     1     -10.722   6.285  -3.707  1.00  0.00     0.049 A 
ATOM     53  H   UNL     1     -11.582   4.437  -4.135  1.00  0.00     0.167 HD
ATOM     54  C   UNL     1     -13.163   0.442  -4.966  1.00  0.00     0.037 A 
ATOM     55  C   UNL     1     -10.812   7.031  -4.825  1.00  0.00     0.037 A 
ATOM     56  C   UNL     1     -13.385   1.192  -6.175  1.00  0.00     0.049 A 
ATOM     57  C   UNL     1     -11.453   6.444  -6.054  1.00  0.00     0.074 A 
ATOM     58  C   UNL     1     -14.018   0.788  -7.338  1.00  0.00     0.029 A 
ATOM     59  N   UNL     1     -12.979   2.503  -6.376  1.00  0.00    -0.354 N 
ATOM     60  N   UNL     1     -11.966   5.251  -6.230  1.00  0.00    -0.248 NA
ATOM     61  C   UNL     1     -11.531   7.311  -7.238  1.00  0.00     0.031 C 
ATOM     62  C   UNL     1     -13.955   1.839  -8.258  1.00  0.00     0.029 A 
ATOM     63  C   UNL     1     -13.329   2.916  -7.652  1.00  0.00     0.049 A 
ATOM     64  H   UNL     1     -12.511   3.058  -5.711  1.00  0.00     0.167 HD
ATOM     65  C   UNL     1     -12.453   5.233  -7.530  1.00  0.00     0.074 A 
ATOM     66  C   UNL     1     -12.186   6.539  -8.094  1.00  0.00     0.031 C 
ATOM     67  C   UNL     1     -13.066   4.224  -8.196  1.00  0.00     0.037 A 
BRANCH  54  68
ATOM     68  C   UNL     1     -13.609  -0.992  -4.928  1.00  0.00     0.064 A 
ATOM     69  C   UNL     1     -14.695  -1.403  -4.142  1.00  0.00     0.173 A 
ATOM     70  C   UNL     1     -12.966  -1.960  -5.715  1.00  0.00     0.173 A 
ATOM     71  F   UNL     1     -15.338  -0.520  -3.364  1.00  0.00    -0.203 F 
ATOM     72  C   UNL     1     -15.102  -2.735  -4.120  1.00  0.00     0.198 A 
ATOM     73  C   UNL     1     -13.395  -3.285  -5.715  1.00  0.00     0.198 A 
ATOM     74  F   UNL     1     -11.927  -1.620  -6.493  1.00  0.00    -0.203 F 
ATOM     75  F   UNL     1     -16.109  -3.113  -3.321  1.00  0.00    -0.200 F 
ATOM     76  C   UNL     1     -14.456  -3.673  -4.911  1.00  0.00     0.200 A 
ATOM     77  F   UNL     1     -12.779  -4.188  -6.491  1.00  0.00    -0.200 F 
ATOM     78  F   UNL     1     -14.852  -4.953  -4.893  1.00  0.00    -0.200 F 
ENDBRANCH  54  68
BRANCH  55  79
ATOM     79  C   UNL     1     -10.305   8.429  -4.827  1.00  0.00     0.064 A 
ATOM     80  C   UNL     1     -11.191   9.513  -4.899  1.00  0.00     0.173 A 
ATOM     81  C   UNL     1      -8.933   8.711  -4.764  1.00  0.00     0.173 A 
ATOM     82  F   UNL     1     -12.511   9.294  -4.983  1.00  0.00    -0.203 F 
ATOM     83  C   UNL     1     -10.723  10.825  -4.927  1.00  0.00     0.198 A 
ATOM     84  C   UNL     1      -8.467  10.024  -4.763  1.00  0.00     0.198 A 
ATOM     85  F   UNL     1      -8.044   7.709  -4.690  1.00  0.00    -0.203 F 
ATOM     86  F   UNL     1     -11.589  11.841  -5.041  1.00  0.00    -0.200 F 
ATOM     87  C   UNL     1      -9.362  11.080  -4.853  1.00  0.00     0.200 A 
ATOM     88  F   UNL     1      -7.152  10.267  -4.677  1.00  0.00    -0.200 F 
ATOM     89  F   UNL     1      -8.912  12.342  -4.875  1.00  0.00    -0.200 F 
ENDBRANCH  55  79
BRANCH  67  90
ATOM     90  C   UNL     1     -13.526   4.502  -9.598  1.00  0.00     0.064 A 
ATOM     91  C   UNL     1     -12.618   4.625 -10.660  1.00  0.00     0.173 A 
ATOM     92  C   UNL     1     -14.895   4.601  -9.888  1.00  0.00     0.173 A 
ATOM     93  F   UNL     1     -11.298   4.553 -10.432  1.00  0.00    -0.203 F 
ATOM     94  C   UNL     1     -13.064   4.859 -11.958  1.00  0.00     0.198 A 
ATOM     95  C   UNL     1     -15.338   4.806 -11.192  1.00  0.00     0.198 A 
ATOM     96  F   UNL     1     -15.804   4.485  -8.909  1.00  0.00    -0.203 F 
ATOM     97  F   UNL     1     -12.178   5.017 -12.951  1.00  0.00    -0.200 F 
ATOM     98  C   UNL     1     -14.423   4.941 -12.224  1.00  0.00     0.200 A 
ATOM     99  F   UNL     1     -16.652   4.872 -11.449  1.00  0.00    -0.200 F 
ATOM    100  F   UNL     1     -14.850   5.157 -13.476  1.00  0.00    -0.200 F 
ENDBRANCH  67  90
ENDBRANCH  41  42
ENDBRANCH  33  36
ENDBRANCH  31  32
ENDBRANCH  30  31
ENDBRANCH  29  30
ENDBRANCH   1  29
TORSDOF 18
