REMARK SMILES CC(C)[C@@H]1C[N@H+](Cc2ccc(O)c(C(=O)NCCCCCCNC(=O)c3ccc(-c4c5nc(c(-c6c(F)c(F)c(F)c(F)c6F)c6ccc([nH]6)c(-c6c(F)c(F)c(F)c(F)c6F)c6nc(c(-c7c(F)c(F)c(F)c(F)c7F)c7ccc4[nH]7)C=C6)C=C5)cc3)c2)CCC[NH+]1CC1CC1
REMARK SMILES IDX 17 1 16 2 14 3 15 4 13 6 8 7 9 8 89 9 10 10 11 11 7 12 6 13
REMARK SMILES IDX 5 15 4 16 2 17 1 18 3 19 93 20 92 22 91 23 94 25 95 26 96 27
REMARK SMILES IDX 97 28 90 29 12 31 18 33 19 34 20 35 21 36 22 37 23 38 24 39
REMARK SMILES IDX 25 41 26 42 27 43 88 44 28 45 87 46 29 47 30 48 31 49 81 50
REMARK SMILES IDX 32 51 86 52 80 53 82 54 33 55 85 56 79 57 78 58 34 60 66 61
REMARK SMILES IDX 46 62 65 63 47 64 50 65 64 66 83 67 48 68 49 69 63 71 84 72
REMARK SMILES IDX 51 73 35 74 36 75 44 76 37 77 38 78 42 79 45 80 39 81 40 82
REMARK SMILES IDX 43 83 41 84 67 85 68 86 76 87 69 88 70 89 74 90 77 91 71 92
REMARK SMILES IDX 72 93 75 94 73 95 52 96 53 97 61 98 54 99 55 100 59 101
REMARK SMILES IDX 62 102 56 103 57 104 60 105 58 106
REMARK H PARENT 16 5 6 14 93 21 12 32 23 40 82 59 50 70
REMARK Flexibility Score: 90.00
ROOT
ATOM      1  C   UNL     1      -2.738  -5.111  -5.926  1.00  0.00     0.116 C 
ENDROOT
BRANCH   1   2
ATOM      2  N   UNL     1      -3.865  -5.281  -5.034  1.00  0.00    -0.352 N 
ATOM      3  C   UNL     1      -4.016  -5.250  -3.672  1.00  0.00     0.255 C 
ATOM      4  O   UNL     1      -5.175  -5.428  -3.276  1.00  0.00    -0.269 OA
ATOM      5  H   UNL     1      -4.708  -5.457  -5.510  1.00  0.00     0.163 HD
BRANCH   3   6
ATOM      6  C   UNL     1      -2.955  -5.005  -2.638  1.00  0.00     0.082 A 
ATOM      7  C   UNL     1      -2.620  -4.369  -0.262  1.00  0.00     0.007 A 
ATOM      8  C   UNL     1      -1.258  -4.655  -0.400  1.00  0.00     0.013 A 
ATOM      9  C   UNL     1      -3.454  -4.577  -1.376  1.00  0.00     0.027 A 
ATOM     10  C   UNL     1      -0.733  -5.022  -1.632  1.00  0.00     0.047 A 
ATOM     11  C   UNL     1      -1.570  -5.190  -2.742  1.00  0.00     0.128 A 
BRANCH   7  12
ATOM     12  C   UNL     1      -3.144  -3.805   1.052  1.00  0.00     0.299 C 
BRANCH  12  13
ATOM     13  N   UNL     1      -2.960  -2.345   1.283  1.00  0.00    -0.326 N 
ATOM     14  H   UNL     1      -3.033  -2.149   2.281  1.00  0.00     0.348 HD
BRANCH  13  15
ATOM     15  C   UNL     1      -1.585  -1.911   0.964  1.00  0.00     0.328 C 
BRANCH  15  16
ATOM     16  C   UNL     1      -1.166  -0.433   1.172  1.00  0.00     0.242 C 
BRANCH  16  17
ATOM     17  C   UNL     1       0.411  -0.351   1.298  1.00  0.00     0.047 C 
ATOM     18  C   UNL     1       1.247  -0.149   0.036  1.00  0.00     0.014 C 
ATOM     19  C   UNL     1       0.837   0.672   2.357  1.00  0.00     0.014 C 
ENDBRANCH  16  17
BRANCH  16  20
ATOM     20  N   UNL     1      -1.917   0.464   0.294  1.00  0.00    -0.327 N 
ATOM     21  H   UNL     1      -1.103   0.068  -0.178  1.00  0.00     0.348 HD
BRANCH  20  22
ATOM     22  C   UNL     1      -3.173   0.940   0.823  1.00  0.00     0.268 C 
BRANCH  22  23
ATOM     23  C   UNL     1      -4.220  -0.110   1.197  1.00  0.00     0.123 CG0
ATOM     24  G   UNL     1      -4.059  -1.560   0.724  1.00  0.00     0.000 G0
ENDBRANCH  22  23
ENDBRANCH  20  22
BRANCH  20  25
ATOM     25  C   UNL     1      -1.550   0.944  -1.016  1.00  0.00     0.266 C 
BRANCH  25  26
ATOM     26  C   UNL     1      -2.008   0.269  -2.261  1.00  0.00     0.044 C 
ATOM     27  C   UNL     1      -2.303  -1.216  -2.368  1.00  0.00     0.010 C 
ATOM     28  C   UNL     1      -3.371  -0.157  -2.616  1.00  0.00     0.010 C 
ENDBRANCH  25  26
ENDBRANCH  20  25
ENDBRANCH  16  20
ENDBRANCH  15  16
ENDBRANCH  13  15
BRANCH  13  29
ATOM     29  C   UNL     1      -4.059  -1.560   0.724  1.00  0.00     0.268 CG0
ATOM     30  G   UNL     1      -4.220  -0.110   1.197  1.00  0.00     0.000 G0
ENDBRANCH  13  29
ENDBRANCH  12  13
ENDBRANCH   7  12
BRANCH  11  31
ATOM     31  O   UNL     1      -0.940  -5.577  -3.885  1.00  0.00    -0.507 OA
ATOM     32  H   UNL     1      -0.009  -5.684  -3.894  1.00  0.00     0.293 HD
ENDBRANCH  11  31
ENDBRANCH   3   6
ENDBRANCH   1   2
BRANCH   1  33
ATOM     33  C   UNL     1      -2.117  -6.465  -6.294  1.00  0.00     0.021 C 
BRANCH  33  34
ATOM     34  C   UNL     1      -2.776  -7.153  -7.495  1.00  0.00     0.002 C 
BRANCH  34  35
ATOM     35  C   UNL     1      -2.588  -6.434  -8.836  1.00  0.00     0.002 C 
BRANCH  35  36
ATOM     36  C   UNL     1      -1.133  -6.181  -9.244  1.00  0.00     0.021 C 
BRANCH  36  37
ATOM     37  C   UNL     1      -0.296  -7.444  -9.425  1.00  0.00     0.116 C 
BRANCH  37  38
ATOM     38  N   UNL     1      -0.779  -8.258 -10.529  1.00  0.00    -0.352 N 
ATOM     39  C   UNL     1      -0.134  -8.653 -11.676  1.00  0.00     0.251 C 
ATOM     40  H   UNL     1      -1.708  -8.573 -10.442  1.00  0.00     0.163 HD
ATOM     41  O   UNL     1      -0.764  -9.133 -12.607  1.00  0.00    -0.269 OA
BRANCH  39  42
ATOM     42  C   UNL     1       1.333  -8.491 -11.787  1.00  0.00     0.039 A 
ATOM     43  C   UNL     1       1.872  -8.016 -12.985  1.00  0.00     0.014 A 
ATOM     44  C   UNL     1       2.173  -8.833 -10.725  1.00  0.00     0.014 A 
ATOM     45  C   UNL     1       3.252  -7.832 -13.098  1.00  0.00     0.010 A 
ATOM     46  C   UNL     1       3.539  -8.581 -10.812  1.00  0.00     0.010 A 
ATOM     47  C   UNL     1       4.093  -8.084 -12.002  1.00  0.00    -0.014 A 
BRANCH  47  48
ATOM     48  C   UNL     1       5.555  -7.837 -12.082  1.00  0.00     0.031 A 
ATOM     49  C   UNL     1       6.523  -8.981 -11.954  1.00  0.00     0.074 A 
ATOM     50  C   UNL     1       6.011  -6.576 -12.205  1.00  0.00     0.049 A 
ATOM     51  N   UNL     1       7.832  -8.960 -11.928  1.00  0.00    -0.248 NA
ATOM     52  C   UNL     1       5.942 -10.325 -11.808  1.00  0.00     0.031 C 
ATOM     53  C   UNL     1       5.172  -5.380 -12.293  1.00  0.00     0.029 A 
ATOM     54  N   UNL     1       7.292  -6.088 -12.267  1.00  0.00    -0.354 N 
ATOM     55  C   UNL     1       8.227 -10.280 -11.751  1.00  0.00     0.074 A 
ATOM     56  C   UNL     1       7.022 -11.069 -11.618  1.00  0.00     0.031 C 
ATOM     57  C   UNL     1       5.958  -4.300 -12.420  1.00  0.00     0.029 A 
ATOM     58  C   UNL     1       7.356  -4.721 -12.381  1.00  0.00     0.049 A 
ATOM     59  H   UNL     1       8.090  -6.663 -12.232  1.00  0.00     0.167 HD
ATOM     60  C   UNL     1       9.482 -10.789 -11.725  1.00  0.00     0.037 A 
ATOM     61  C   UNL     1       8.421  -3.899 -12.439  1.00  0.00     0.037 A 
ATOM     62  C   UNL     1      10.677 -10.001 -11.879  1.00  0.00     0.049 A 
ATOM     63  C   UNL     1       9.805  -4.490 -12.395  1.00  0.00     0.074 A 
ATOM     64  C   UNL     1      11.993 -10.429 -11.926  1.00  0.00     0.029 A 
ATOM     65  N   UNL     1      10.701  -8.620 -12.007  1.00  0.00    -0.354 N 
ATOM     66  N   UNL     1      10.166  -5.747 -12.297  1.00  0.00    -0.248 NA
ATOM     67  C   UNL     1      10.929  -3.548 -12.477  1.00  0.00     0.031 C 
ATOM     68  C   UNL     1      12.815  -9.302 -12.028  1.00  0.00     0.029 A 
ATOM     69  C   UNL     1      12.011  -8.177 -12.106  1.00  0.00     0.049 A 
ATOM     70  H   UNL     1       9.906  -8.040 -12.024  1.00  0.00     0.167 HD
ATOM     71  C   UNL     1      11.554  -5.750 -12.337  1.00  0.00     0.074 A 
ATOM     72  C   UNL     1      11.969  -4.370 -12.483  1.00  0.00     0.031 C 
ATOM     73  C   UNL     1      12.407  -6.800 -12.259  1.00  0.00     0.037 A 
BRANCH  60  74
ATOM     74  C   UNL     1       9.628 -12.271 -11.524  1.00  0.00     0.064 A 
ATOM     75  C   UNL     1       9.235 -13.191 -12.507  1.00  0.00     0.173 A 
ATOM     76  C   UNL     1      10.204 -12.776 -10.348  1.00  0.00     0.173 A 
ATOM     77  F   UNL     1       8.669 -12.763 -13.646  1.00  0.00    -0.203 F 
ATOM     78  C   UNL     1       9.384 -14.562 -12.309  1.00  0.00     0.198 A 
ATOM     79  C   UNL     1      10.382 -14.146 -10.167  1.00  0.00     0.198 A 
ATOM     80  F   UNL     1      10.604 -11.942  -9.377  1.00  0.00    -0.203 F 
ATOM     81  F   UNL     1       8.953 -15.423 -13.241  1.00  0.00    -0.200 F 
ATOM     82  C   UNL     1       9.964 -15.037 -11.143  1.00  0.00     0.200 A 
ATOM     83  F   UNL     1      10.957 -14.602  -9.046  1.00  0.00    -0.200 F 
ATOM     84  F   UNL     1      10.116 -16.356 -10.957  1.00  0.00    -0.200 F 
ENDBRANCH  60  74
BRANCH  61  85
ATOM     85  C   UNL     1       8.222  -2.431 -12.566  1.00  0.00     0.064 A 
ATOM     86  C   UNL     1       8.574  -1.756 -13.742  1.00  0.00     0.173 A 
ATOM     87  C   UNL     1       7.685  -1.673 -11.515  1.00  0.00     0.173 A 
ATOM     88  F   UNL     1       9.111  -2.434 -14.768  1.00  0.00    -0.203 F 
ATOM     89  C   UNL     1       8.419  -0.376 -13.855  1.00  0.00     0.198 A 
ATOM     90  C   UNL     1       7.500  -0.297 -11.641  1.00  0.00     0.198 A 
ATOM     91  F   UNL     1       7.326  -2.271 -10.369  1.00  0.00    -0.203 F 
ATOM     92  F   UNL     1       8.810   0.251 -14.973  1.00  0.00    -0.200 F 
ATOM     93  C   UNL     1       7.876   0.351 -12.807  1.00  0.00     0.200 A 
ATOM     94  F   UNL     1       6.961   0.399 -10.631  1.00  0.00    -0.200 F 
ATOM     95  F   UNL     1       7.724   1.678 -12.917  1.00  0.00    -0.200 F 
ENDBRANCH  61  85
BRANCH  73  96
ATOM     96  C   UNL     1      13.876  -6.504 -12.370  1.00  0.00     0.064 A 
ATOM     97  C   UNL     1      14.577  -5.853 -11.345  1.00  0.00     0.173 A 
ATOM     98  C   UNL     1      14.597  -6.914 -13.502  1.00  0.00     0.173 A 
ATOM     99  F   UNL     1      13.931  -5.428 -10.248  1.00  0.00    -0.203 F 
ATOM    100  C   UNL     1      15.941  -5.599 -11.461  1.00  0.00     0.198 A 
ATOM    101  C   UNL     1      15.967  -6.688 -13.600  1.00  0.00     0.198 A 
ATOM    102  F   UNL     1      13.976  -7.547 -14.508  1.00  0.00    -0.203 F 
ATOM    103  F   UNL     1      16.581  -4.929 -10.492  1.00  0.00    -0.200 F 
ATOM    104  C   UNL     1      16.636  -6.023 -12.584  1.00  0.00     0.200 A 
ATOM    105  F   UNL     1      16.639  -7.113 -14.678  1.00  0.00    -0.200 F 
ATOM    106  F   UNL     1      17.951  -5.785 -12.690  1.00  0.00    -0.200 F 
ENDBRANCH  73  96
ENDBRANCH  47  48
ENDBRANCH  39  42
ENDBRANCH  37  38
ENDBRANCH  36  37
ENDBRANCH  35  36
ENDBRANCH  34  35
ENDBRANCH  33  34
ENDBRANCH   1  33
TORSDOF 19
