REMARK SMILES CC(C)CC1(CNC(=O)N[C@H](C)CC(=O)NCCCCCCNC(=O)c2ccc(-c3c4nc(c(-c5c(F)c(F)c(F)c(F)c5F)c5ccc([nH]5)c(-c5c(F)c(F)c(F)c(F)c5F)c5nc(c(-c6c(F)c(F)c(F)c(F)c6F)c6ccc3[nH]6)C=C5)C=C4)cc2)CCCC1
REMARK SMILES IDX 17 1 16 2 14 3 15 4 13 6 11 7 12 8 10 9 7 10 8 11 9 13 6 15
REMARK SMILES IDX 5 16 89 17 92 18 90 19 91 20 4 21 2 22 1 23 3 24 18 25 19 26
REMARK SMILES IDX 20 27 21 28 22 29 23 30 24 31 25 33 26 34 27 35 88 36 28 37
REMARK SMILES IDX 87 38 29 39 30 40 31 41 81 42 32 43 86 44 80 45 82 46 33 47
REMARK SMILES IDX 85 48 79 49 78 50 34 52 66 53 46 54 65 55 47 56 50 57 64 58
REMARK SMILES IDX 83 59 48 60 49 61 63 63 84 64 51 65 35 66 36 67 44 68 37 69
REMARK SMILES IDX 38 70 42 71 45 72 39 73 40 74 43 75 41 76 67 77 68 78 76 79
REMARK SMILES IDX 69 80 70 81 74 82 77 83 71 84 72 85 75 86 73 87 52 88 53 89
REMARK SMILES IDX 61 90 54 91 55 92 59 93 62 94 56 95 57 96 60 97 58 98
REMARK H PARENT 16 5 7 12 10 14 23 32 82 51 50 62
REMARK Flexibility Score: inf
ROOT
ATOM      1  C   UNL     1      -0.240   3.627   3.039  1.00  0.00     0.116 C 
ENDROOT
BRANCH   1   2
ATOM      2  N   UNL     1      -0.560   2.909   1.823  1.00  0.00    -0.356 N 
ATOM      3  C   UNL     1      -1.409   1.834   1.744  1.00  0.00     0.222 C 
ATOM      4  O   UNL     1      -1.139   0.899   0.996  1.00  0.00    -0.275 OA
ATOM      5  H   UNL     1      -0.137   3.216   0.988  1.00  0.00     0.163 HD
BRANCH   3   6
ATOM      6  C   UNL     1      -2.741   1.962   2.434  1.00  0.00     0.124 C 
BRANCH   6   7
ATOM      7  C   UNL     1      -3.055   1.304   3.753  1.00  0.00     0.090 C 
ATOM      8  C   UNL     1      -2.045   1.458   4.882  1.00  0.00     0.031 C 
BRANCH   7   9
ATOM      9  N   UNL     1      -4.397   1.651   4.270  1.00  0.00    -0.335 N 
ATOM     10  N   UNL     1      -5.109   3.937   4.059  1.00  0.00    -0.338 N 
ATOM     11  C   UNL     1      -5.170   2.699   4.534  1.00  0.00     0.315 C 
ATOM     12  H   UNL     1      -5.780   4.489   4.521  1.00  0.00     0.165 HD
ATOM     13  O   UNL     1      -6.104   2.483   5.319  1.00  0.00    -0.249 OA
ATOM     14  H   UNL     1      -4.883   0.825   4.494  1.00  0.00     0.165 HD
BRANCH  10  15
ATOM     15  C   UNL     1      -4.397   4.770   3.092  1.00  0.00     0.124 C 
BRANCH  15  16
ATOM     16  C   UNL     1      -4.887   4.718   1.591  1.00  0.00    -0.012 C 
ATOM     17  C   UNL     1      -3.685   4.772   0.600  1.00  0.00     0.009 C 
ATOM     18  C   UNL     1      -5.535   6.064   1.199  1.00  0.00     0.009 C 
ATOM     19  C   UNL     1      -3.172   6.204   0.626  1.00  0.00     0.001 C 
ATOM     20  C   UNL     1      -4.375   7.049   1.023  1.00  0.00     0.001 C 
BRANCH  16  21
ATOM     21  C   UNL     1      -5.751   3.473   1.242  1.00  0.00     0.012 C 
BRANCH  21  22
ATOM     22  C   UNL     1      -7.238   3.421   1.656  1.00  0.00    -0.017 C 
ATOM     23  C   UNL     1      -8.139   4.241   0.731  1.00  0.00     0.007 C 
ATOM     24  C   UNL     1      -7.704   1.956   1.612  1.00  0.00     0.007 C 
ENDBRANCH  21  22
ENDBRANCH  16  21
ENDBRANCH  15  16
ENDBRANCH  10  15
ENDBRANCH   7   9
ENDBRANCH   6   7
ENDBRANCH   3   6
ENDBRANCH   1   2
BRANCH   1  25
ATOM     25  C   UNL     1       0.927   2.901   3.707  1.00  0.00     0.021 C 
BRANCH  25  26
ATOM     26  C   UNL     1       2.255   3.181   2.999  1.00  0.00     0.002 C 
BRANCH  26  27
ATOM     27  C   UNL     1       2.785   4.595   3.237  1.00  0.00     0.002 C 
BRANCH  27  28
ATOM     28  C   UNL     1       2.980   4.947   4.713  1.00  0.00     0.021 C 
BRANCH  28  29
ATOM     29  C   UNL     1       3.786   3.913   5.491  1.00  0.00     0.116 C 
BRANCH  29  30
ATOM     30  N   UNL     1       5.104   3.716   4.909  1.00  0.00    -0.352 N 
ATOM     31  C   UNL     1       6.333   3.878   5.493  1.00  0.00     0.251 C 
ATOM     32  H   UNL     1       5.115   3.428   3.967  1.00  0.00     0.163 HD
ATOM     33  O   UNL     1       7.351   3.921   4.817  1.00  0.00    -0.269 OA
BRANCH  31  34
ATOM     34  C   UNL     1       6.404   4.011   6.960  1.00  0.00     0.039 A 
ATOM     35  C   UNL     1       7.178   5.032   7.510  1.00  0.00     0.014 A 
ATOM     36  C   UNL     1       5.686   3.136   7.779  1.00  0.00     0.014 A 
ATOM     37  C   UNL     1       7.195   5.204   8.893  1.00  0.00     0.010 A 
ATOM     38  C   UNL     1       5.638   3.361   9.149  1.00  0.00     0.010 A 
ATOM     39  C   UNL     1       6.403   4.389   9.719  1.00  0.00    -0.014 A 
BRANCH  39  40
ATOM     40  C   UNL     1       6.373   4.590  11.188  1.00  0.00     0.031 A 
ATOM     41  C   UNL     1       6.876   3.510  12.103  1.00  0.00     0.074 A 
ATOM     42  C   UNL     1       5.846   5.722  11.692  1.00  0.00     0.049 A 
ATOM     43  N   UNL     1       6.892   3.476  13.412  1.00  0.00    -0.248 NA
ATOM     44  C   UNL     1       7.405   2.295  11.465  1.00  0.00     0.031 C 
ATOM     45  C   UNL     1       5.283   6.818  10.901  1.00  0.00     0.029 A 
ATOM     46  N   UNL     1       5.692   6.136  12.990  1.00  0.00    -0.354 N 
ATOM     47  C   UNL     1       7.422   2.238  13.749  1.00  0.00     0.074 A 
ATOM     48  C   UNL     1       7.655   1.524  12.513  1.00  0.00     0.031 C 
ATOM     49  C   UNL     1       4.872   7.791  11.729  1.00  0.00     0.029 A 
ATOM     50  C   UNL     1       5.102   7.371  13.108  1.00  0.00     0.049 A 
ATOM     51  H   UNL     1       5.976   5.599  13.765  1.00  0.00     0.167 HD
ATOM     52  C   UNL     1       7.714   1.753  14.979  1.00  0.00     0.037 A 
ATOM     53  C   UNL     1       4.778   8.079  14.206  1.00  0.00     0.037 A 
ATOM     54  C   UNL     1       7.495   2.477  16.203  1.00  0.00     0.049 A 
ATOM     55  C   UNL     1       5.095   7.506  15.562  1.00  0.00     0.074 A 
ATOM     56  C   UNL     1       7.805   2.099  17.497  1.00  0.00     0.029 A 
ATOM     57  N   UNL     1       6.901   3.729  16.283  1.00  0.00    -0.354 N 
ATOM     58  N   UNL     1       5.666   6.366  15.868  1.00  0.00    -0.248 NA
ATOM     59  C   UNL     1       4.729   8.325  16.726  1.00  0.00     0.031 C 
ATOM     60  C   UNL     1       7.346   3.095  18.365  1.00  0.00     0.029 A 
ATOM     61  C   UNL     1       6.809   4.125  17.608  1.00  0.00     0.049 A 
ATOM     62  H   UNL     1       6.590   4.258  15.513  1.00  0.00     0.167 HD
ATOM     63  C   UNL     1       5.755   6.343  17.253  1.00  0.00     0.074 A 
ATOM     64  C   UNL     1       5.196   7.593  17.726  1.00  0.00     0.031 C 
ATOM     65  C   UNL     1       6.255   5.375  18.061  1.00  0.00     0.037 A 
BRANCH  52  66
ATOM     66  C   UNL     1       8.302   0.372  15.060  1.00  0.00     0.064 A 
ATOM     67  C   UNL     1       9.592   0.090  14.586  1.00  0.00     0.173 A 
ATOM     68  C   UNL     1       7.578  -0.676  15.650  1.00  0.00     0.173 A 
ATOM     69  F   UNL     1      10.324   1.052  14.003  1.00  0.00    -0.203 F 
ATOM     70  C   UNL     1      10.123  -1.195  14.670  1.00  0.00     0.198 A 
ATOM     71  C   UNL     1       8.126  -1.951  15.764  1.00  0.00     0.198 A 
ATOM     72  F   UNL     1       6.341  -0.462  16.124  1.00  0.00    -0.203 F 
ATOM     73  F   UNL     1      11.336  -1.452  14.160  1.00  0.00    -0.200 F 
ATOM     74  C   UNL     1       9.393  -2.212  15.266  1.00  0.00     0.200 A 
ATOM     75  F   UNL     1       7.424  -2.929  16.353  1.00  0.00    -0.200 F 
ATOM     76  F   UNL     1       9.908  -3.446  15.354  1.00  0.00    -0.200 F 
ENDBRANCH  52  66
BRANCH  53  77
ATOM     77  C   UNL     1       4.136   9.413  14.070  1.00  0.00     0.064 A 
ATOM     78  C   UNL     1       4.815  10.581  14.444  1.00  0.00     0.173 A 
ATOM     79  C   UNL     1       2.832   9.549  13.573  1.00  0.00     0.173 A 
ATOM     80  F   UNL     1       6.058  10.503  14.942  1.00  0.00    -0.203 F 
ATOM     81  C   UNL     1       4.204  11.830  14.352  1.00  0.00     0.198 A 
ATOM     82  C   UNL     1       2.234  10.801  13.450  1.00  0.00     0.198 A 
ATOM     83  F   UNL     1       2.140   8.464  13.193  1.00  0.00    -0.203 F 
ATOM     84  F   UNL     1       4.857  12.924  14.767  1.00  0.00    -0.200 F 
ATOM     85  C   UNL     1       2.916  11.940  13.850  1.00  0.00     0.200 A 
ATOM     86  F   UNL     1       0.996  10.904  12.947  1.00  0.00    -0.200 F 
ATOM     87  F   UNL     1       2.330  13.141  13.759  1.00  0.00    -0.200 F 
ENDBRANCH  53  77
BRANCH  65  88
ATOM     88  C   UNL     1       6.255   5.645  19.539  1.00  0.00     0.064 A 
ATOM     89  C   UNL     1       5.068   5.681  20.285  1.00  0.00     0.173 A 
ATOM     90  C   UNL     1       7.466   5.833  20.224  1.00  0.00     0.173 A 
ATOM     91  F   UNL     1       3.883   5.522  19.677  1.00  0.00    -0.203 F 
ATOM     92  C   UNL     1       5.091   5.927  21.655  1.00  0.00     0.198 A 
ATOM     93  C   UNL     1       7.488   6.042  21.599  1.00  0.00     0.198 A 
ATOM     94  F   UNL     1       8.632   5.800  19.559  1.00  0.00    -0.203 F 
ATOM     95  F   UNL     1       3.941   6.013  22.338  1.00  0.00    -0.200 F 
ATOM     96  C   UNL     1       6.301   6.098  22.312  1.00  0.00     0.200 A 
ATOM     97  F   UNL     1       8.659   6.190  22.235  1.00  0.00    -0.200 F 
ATOM     98  F   UNL     1       6.321   6.326  23.633  1.00  0.00    -0.200 F 
ENDBRANCH  65  88
ENDBRANCH  39  40
ENDBRANCH  31  34
ENDBRANCH  29  30
ENDBRANCH  28  29
ENDBRANCH  27  28
ENDBRANCH  26  27
ENDBRANCH  25  26
ENDBRANCH   1  25
TORSDOF 19
