REMARK SMILES COC(=O)c1ccc(C)c2c1[C@H]1C=CC[C@H]1[C@@H](c1ccc(C(=O)NCCCCCCNC(=O)c3ccc(-c4c5nc(c(-c6c(F)c(F)c(F)c(F)c6F)c6ccc([nH]6)c(-c6c(F)c(F)c(F)c(F)c6F)c6nc(c(-c7c(F)c(F)c(F)c(F)c7F)c7ccc4[nH]7)C=C6)C=C5)cc3)cc1)N2
REMARK SMILES IDX 27 1 26 2 25 3 24 4 22 5 23 6 21 8 18 9 19 10 98 11 20 12
REMARK SMILES IDX 97 13 17 14 5 15 6 16 11 17 7 18 10 19 12 20 8 21 99 22
REMARK SMILES IDX 13 23 16 24 9 25 14 27 15 28 3 29 4 30 2 31 1 32 28 33 29 34
REMARK SMILES IDX 30 35 31 36 32 37 33 39 34 40 35 41 96 42 36 43 95 44 37 45
REMARK SMILES IDX 38 46 39 47 89 48 40 49 94 50 88 51 90 52 41 53 93 54 87 55
REMARK SMILES IDX 86 56 42 58 74 59 54 60 73 61 55 62 58 63 72 64 91 65 56 66
REMARK SMILES IDX 57 67 71 69 92 70 59 71 43 72 44 73 52 74 45 75 46 76 50 77
REMARK SMILES IDX 53 78 47 79 48 80 51 81 49 82 75 83 76 84 84 85 77 86 78 87
REMARK SMILES IDX 82 88 85 89 79 90 80 91 83 92 81 93 60 94 61 95 69 96 62 97
REMARK SMILES IDX 63 98 67 99 70 100 64 101 65 102 68 103 66 104
REMARK H PARENT 24 7 99 26 31 38 90 57 58 68
REMARK Flexibility Score: inf
ROOT
ATOM      1  C   UNL     1       8.434   8.826  -3.314  1.00  0.00     0.002 C 
ENDROOT
BRANCH   1   2
ATOM      2  C   UNL     1       7.672   8.609  -1.999  1.00  0.00     0.021 C 
BRANCH   2   3
ATOM      3  C   UNL     1       6.290   9.263  -2.018  1.00  0.00     0.116 C 
BRANCH   3   4
ATOM      4  N   UNL     1       5.368   8.406  -2.721  1.00  0.00    -0.352 N 
ATOM      5  C   UNL     1       4.446   7.496  -2.293  1.00  0.00     0.251 C 
ATOM      6  O   UNL     1       3.854   6.857  -3.165  1.00  0.00    -0.269 OA
ATOM      7  H   UNL     1       5.412   8.495  -3.701  1.00  0.00     0.163 HD
BRANCH   5   8
ATOM      8  C   UNL     1       4.096   7.276  -0.862  1.00  0.00     0.039 A 
ATOM      9  C   UNL     1       3.228   6.658   1.779  1.00  0.00    -0.025 A 
ATOM     10  C   UNL     1       2.434   6.376   0.658  1.00  0.00     0.006 A 
ATOM     11  C   UNL     1       4.447   7.309   1.550  1.00  0.00     0.006 A 
ATOM     12  C   UNL     1       2.855   6.681  -0.635  1.00  0.00     0.014 A 
ATOM     13  C   UNL     1       4.896   7.565   0.247  1.00  0.00     0.014 A 
BRANCH   9  14
ATOM     14  C   UNL     1       2.897   6.172   3.194  1.00  0.00     0.114 C 
ATOM     15  C   UNL     1       0.251   3.056   2.039  1.00  0.00     0.065 A 
ATOM     16  C   UNL     1      -1.068   3.399   1.724  1.00  0.00     0.016 A 
ATOM     17  C   UNL     1       1.114   3.991   2.652  1.00  0.00    -0.003 A 
ATOM     18  C   UNL     1      -1.547   4.668   2.027  1.00  0.00     0.006 A 
ATOM     19  C   UNL     1       0.610   5.278   2.982  1.00  0.00     0.042 A 
ATOM     20  C   UNL     1       2.567   3.645   2.933  1.00  0.00     0.050 C 
ATOM     21  C   UNL     1      -0.723   5.618   2.649  1.00  0.00    -0.028 A 
ATOM     22  N   UNL     1       1.473   6.251   3.471  1.00  0.00    -0.377 N 
ATOM     23  C   UNL     1       3.430   3.334   1.731  1.00  0.00    -0.023 C 
ATOM     24  C   UNL     1       3.394   4.766   3.599  1.00  0.00     0.031 C 
ATOM     25  C   UNL     1      -1.317   6.987   2.866  1.00  0.00     0.046 C 
ATOM     26  H   UNL     1       1.119   6.997   4.007  1.00  0.00     0.161 HD
ATOM     27  C   UNL     1       4.686   3.770   1.892  1.00  0.00    -0.030 C 
ATOM     28  C   UNL     1       4.849   4.463   3.204  1.00  0.00     0.034 C 
BRANCH  15  29
ATOM     29  C   UNL     1       0.705   1.682   1.713  1.00  0.00     0.338 C 
ATOM     30  O   UNL     1       1.279   0.941   2.484  1.00  0.00    -0.246 OA
BRANCH  29  31
ATOM     31  O   UNL     1       0.424   1.435   0.406  1.00  0.00    -0.465 OA
ATOM     32  C   UNL     1       0.909   0.174  -0.057  1.00  0.00     0.282 C 
ENDBRANCH  29  31
ENDBRANCH  15  29
ENDBRANCH   9  14
ENDBRANCH   5   8
ENDBRANCH   3   4
ENDBRANCH   2   3
ENDBRANCH   1   2
BRANCH   1  33
ATOM     33  C   UNL     1       8.644  10.302  -3.677  1.00  0.00     0.002 C 
BRANCH  33  34
ATOM     34  C   UNL     1       9.274  11.136  -2.559  1.00  0.00     0.021 C 
BRANCH  34  35
ATOM     35  C   UNL     1      10.672  10.665  -2.183  1.00  0.00     0.116 C 
BRANCH  35  36
ATOM     36  N   UNL     1      11.591  10.850  -3.295  1.00  0.00    -0.352 N 
ATOM     37  C   UNL     1      12.709  11.640  -3.344  1.00  0.00     0.251 C 
ATOM     38  H   UNL     1      11.384  10.345  -4.114  1.00  0.00     0.163 HD
ATOM     39  O   UNL     1      13.226  11.946  -4.411  1.00  0.00    -0.269 OA
BRANCH  37  40
ATOM     40  C   UNL     1      13.289  12.106  -2.073  1.00  0.00     0.039 A 
ATOM     41  C   UNL     1      13.609  13.456  -1.916  1.00  0.00     0.014 A 
ATOM     42  C   UNL     1      13.508  11.187  -1.042  1.00  0.00     0.014 A 
ATOM     43  C   UNL     1      14.129  13.894  -0.700  1.00  0.00     0.010 A 
ATOM     44  C   UNL     1      13.970  11.634   0.186  1.00  0.00     0.010 A 
ATOM     45  C   UNL     1      14.303  12.986   0.357  1.00  0.00    -0.014 A 
BRANCH  45  46
ATOM     46  C   UNL     1      14.903  13.402   1.641  1.00  0.00     0.031 A 
ATOM     47  C   UNL     1      16.277  12.918   1.993  1.00  0.00     0.074 A 
ATOM     48  C   UNL     1      14.194  14.151   2.502  1.00  0.00     0.049 A 
ATOM     49  N   UNL     1      16.954  13.077   3.101  1.00  0.00    -0.248 NA
ATOM     50  C   UNL     1      16.976  12.128   0.966  1.00  0.00     0.031 C 
ATOM     51  C   UNL     1      12.849  14.670   2.260  1.00  0.00     0.029 A 
ATOM     52  N   UNL     1      14.507  14.594   3.760  1.00  0.00    -0.354 N 
ATOM     53  C   UNL     1      18.157  12.416   2.900  1.00  0.00     0.074 A 
ATOM     54  C   UNL     1      18.090  11.792   1.597  1.00  0.00     0.031 C 
ATOM     55  C   UNL     1      12.458  15.380   3.330  1.00  0.00     0.029 A 
ATOM     56  C   UNL     1      13.509  15.332   4.344  1.00  0.00     0.049 A 
ATOM     57  H   UNL     1      15.366  14.402   4.202  1.00  0.00     0.167 HD
ATOM     58  C   UNL     1      19.233  12.361   3.719  1.00  0.00     0.037 A 
ATOM     59  C   UNL     1      13.455  15.900   5.563  1.00  0.00     0.037 A 
ATOM     60  C   UNL     1      19.283  12.973   5.021  1.00  0.00     0.049 A 
ATOM     61  C   UNL     1      14.632  15.761   6.489  1.00  0.00     0.074 A 
ATOM     62  C   UNL     1      20.319  12.974   5.936  1.00  0.00     0.029 A 
ATOM     63  N   UNL     1      18.242  13.692   5.594  1.00  0.00    -0.354 N 
ATOM     64  N   UNL     1      15.776  15.152   6.289  1.00  0.00    -0.248 NA
ATOM     65  C   UNL     1      14.511  16.393   7.809  1.00  0.00     0.031 C 
ATOM     66  C   UNL     1      19.889  13.652   7.082  1.00  0.00     0.029 A 
ATOM     67  C   UNL     1      18.606  14.128   6.858  1.00  0.00     0.049 A 
ATOM     68  H   UNL     1      17.373  13.867   5.165  1.00  0.00     0.167 HD
ATOM     69  C   UNL     1      16.525  15.354   7.440  1.00  0.00     0.074 A 
ATOM     70  C   UNL     1      15.706  16.152   8.331  1.00  0.00     0.031 C 
ATOM     71  C   UNL     1      17.778  14.923   7.731  1.00  0.00     0.037 A 
BRANCH  58  72
ATOM     72  C   UNL     1      20.437  11.615   3.221  1.00  0.00     0.064 A 
ATOM     73  C   UNL     1      21.198  12.093   2.142  1.00  0.00     0.173 A 
ATOM     74  C   UNL     1      20.846  10.421   3.831  1.00  0.00     0.173 A 
ATOM     75  F   UNL     1      20.841  13.222   1.511  1.00  0.00    -0.203 F 
ATOM     76  C   UNL     1      22.302  11.386   1.672  1.00  0.00     0.198 A 
ATOM     77  C   UNL     1      21.972   9.735   3.381  1.00  0.00     0.198 A 
ATOM     78  F   UNL     1      20.156   9.918   4.866  1.00  0.00    -0.203 F 
ATOM     79  F   UNL     1      22.977  11.833   0.604  1.00  0.00    -0.200 F 
ATOM     80  C   UNL     1      22.693  10.212   2.297  1.00  0.00     0.200 A 
ATOM     81  F   UNL     1      22.356   8.606   3.994  1.00  0.00    -0.200 F 
ATOM     82  F   UNL     1      23.759   9.536   1.849  1.00  0.00    -0.200 F 
ENDBRANCH  58  72
BRANCH  59  83
ATOM     83  C   UNL     1      12.264  16.701   5.942  1.00  0.00     0.064 A 
ATOM     84  C   UNL     1      12.348  18.097   6.034  1.00  0.00     0.173 A 
ATOM     85  C   UNL     1      11.015  16.105   6.171  1.00  0.00     0.173 A 
ATOM     86  F   UNL     1      13.525  18.710   5.841  1.00  0.00    -0.203 F 
ATOM     87  C   UNL     1      11.229  18.867   6.342  1.00  0.00     0.198 A 
ATOM     88  C   UNL     1       9.891  16.878   6.454  1.00  0.00     0.198 A 
ATOM     89  F   UNL     1      10.882  14.773   6.089  1.00  0.00    -0.203 F 
ATOM     90  F   UNL     1      11.342  20.198   6.446  1.00  0.00    -0.200 F 
ATOM     91  C   UNL     1       9.999  18.258   6.542  1.00  0.00     0.200 A 
ATOM     92  F   UNL     1       8.701  16.287   6.630  1.00  0.00    -0.200 F 
ATOM     93  F   UNL     1       8.918  19.000   6.818  1.00  0.00    -0.200 F 
ENDBRANCH  59  83
BRANCH  71  94
ATOM     94  C   UNL     1      18.360  15.333   9.054  1.00  0.00     0.064 A 
ATOM     95  C   UNL     1      17.887  14.806  10.265  1.00  0.00     0.173 A 
ATOM     96  C   UNL     1      19.441  16.228   9.106  1.00  0.00     0.173 A 
ATOM     97  F   UNL     1      16.849  13.957  10.272  1.00  0.00    -0.203 F 
ATOM     98  C   UNL     1      18.456  15.181  11.480  1.00  0.00     0.198 A 
ATOM     99  C   UNL     1      20.030  16.573  10.319  1.00  0.00     0.198 A 
ATOM    100  F   UNL     1      19.939  16.754   7.977  1.00  0.00    -0.203 F 
ATOM    101  F   UNL     1      17.954  14.704  12.627  1.00  0.00    -0.200 F 
ATOM    102  C   UNL     1      19.532  16.057  11.505  1.00  0.00     0.200 A 
ATOM    103  F   UNL     1      21.081  17.404  10.340  1.00  0.00    -0.200 F 
ATOM    104  F   UNL     1      20.085  16.407  12.674  1.00  0.00    -0.200 F 
ENDBRANCH  71  94
ENDBRANCH  45  46
ENDBRANCH  37  40
ENDBRANCH  35  36
ENDBRANCH  34  35
ENDBRANCH  33  34
ENDBRANCH   1  33
TORSDOF 16
