REMARK SMILES Cc1cccc(-c2cc(C[C@]3(C(=O)NCCCCCCNC(=O)c4ccc(-c5c6nc(c(-c7c(F)c(F)c(F)c(F)c7F)c7ccc([nH]7)c(-c7c(F)c(F)c(F)c(F)c7F)c7nc(c(-c8c(F)c(F)c(F)c(F)c8F)c8ccc5[nH]8)C=C7)C=C6)cc4)CCCN(C(=O)C(C)C)C3)on2)c1
REMARK SMILES IDX 17 1 16 2 15 3 14 4 12 5 13 6 11 8 87 9 96 10 88 11 90 12
REMARK SMILES IDX 89 13 10 14 9 15 7 16 8 17 98 18 97 19 6 20 1 21 2 22 3 23
REMARK SMILES IDX 99 24 4 25 5 26 91 27 92 28 93 29 94 30 95 31 18 32 19 33
REMARK SMILES IDX 20 34 21 35 22 36 23 38 24 39 25 40 86 41 26 42 85 43 27 44
REMARK SMILES IDX 28 45 29 46 79 47 30 48 84 49 78 50 80 51 31 52 83 53 77 54
REMARK SMILES IDX 76 55 32 57 64 58 44 59 63 60 45 61 48 62 62 63 81 64 46 65
REMARK SMILES IDX 47 66 61 68 82 69 49 70 33 71 34 72 42 73 35 74 36 75 40 76
REMARK SMILES IDX 43 77 37 78 38 79 41 80 39 81 65 82 66 83 74 84 67 85 68 86
REMARK SMILES IDX 72 87 75 88 69 89 70 90 73 91 71 92 50 93 51 94 59 95 52 96
REMARK SMILES IDX 53 97 57 98 60 99 54 100 55 101 58 102 56 103
REMARK H PARENT 14 7 21 37 80 56 48 67
REMARK Flexibility Score: inf
ROOT
ATOM      1  C   UNL     1      -8.399   8.926  -2.920  1.00  0.00     0.002 C 
ENDROOT
BRANCH   1   2
ATOM      2  C   UNL     1      -7.906   7.746  -2.075  1.00  0.00     0.021 C 
BRANCH   2   3
ATOM      3  C   UNL     1      -6.793   6.900  -2.691  1.00  0.00     0.116 C 
BRANCH   3   4
ATOM      4  N   UNL     1      -5.499   7.553  -2.688  1.00  0.00    -0.356 N 
ATOM      5  C   UNL     1      -4.267   7.135  -2.272  1.00  0.00     0.228 C 
ATOM      6  O   UNL     1      -3.340   7.916  -2.514  1.00  0.00    -0.274 OA
ATOM      7  H   UNL     1      -5.511   8.467  -3.052  1.00  0.00     0.163 HD
BRANCH   5   8
ATOM      8  C   UNL     1      -4.022   5.786  -1.531  1.00  0.00     0.074 C 
ATOM      9  C   UNL     1      -4.845   5.801  -0.206  1.00  0.00     0.021 C 
ATOM     10  C   UNL     1      -4.367   4.627  -2.505  1.00  0.00     0.136 C 
ATOM     11  C   UNL     1      -5.395   4.452   0.265  1.00  0.00     0.023 C 
ATOM     12  N   UNL     1      -4.802   3.399  -1.829  1.00  0.00    -0.341 N 
ATOM     13  C   UNL     1      -5.885   3.592  -0.884  1.00  0.00     0.119 C 
BRANCH   8  14
ATOM     14  C   UNL     1      -2.485   5.757  -1.210  1.00  0.00     0.097 C 
BRANCH  14  15
ATOM     15  C   UNL     1      -1.933   4.522  -0.588  1.00  0.00     0.138 A 
ATOM     16  C   UNL     1      -0.937   2.656   0.069  1.00  0.00     0.114 A 
ATOM     17  C   UNL     1      -1.200   3.462  -1.067  1.00  0.00     0.077 A 
ATOM     18  N   UNL     1      -1.471   3.208   1.170  1.00  0.00    -0.080 NA
ATOM     19  O   UNL     1      -2.068   4.388   0.758  1.00  0.00    -0.361 OA
BRANCH  16  20
ATOM     20  C   UNL     1      -0.235   1.381   0.108  1.00  0.00     0.004 A 
ATOM     21  C   UNL     1       3.311  -0.007  -0.122  1.00  0.00     0.044 C 
ATOM     22  C   UNL     1       1.818   0.080  -0.009  1.00  0.00    -0.050 A 
ATOM     23  C   UNL     1       1.070  -1.099   0.113  1.00  0.00     0.003 A 
ATOM     24  C   UNL     1       1.157   1.320  -0.025  1.00  0.00     0.014 A 
ATOM     25  C   UNL     1      -0.313  -1.043   0.249  1.00  0.00     0.001 A 
ATOM     26  C   UNL     1      -0.956   0.193   0.260  1.00  0.00     0.010 A 
ENDBRANCH  16  20
ENDBRANCH  14  15
ENDBRANCH   8  14
BRANCH  12  27
ATOM     27  C   UNL     1      -4.172   2.203  -2.124  1.00  0.00     0.225 C 
ATOM     28  O   UNL     1      -3.348   2.140  -3.046  1.00  0.00    -0.275 OA
BRANCH  27  29
ATOM     29  C   UNL     1      -4.498   0.905  -1.369  1.00  0.00     0.072 C 
ATOM     30  C   UNL     1      -4.529   0.977   0.156  1.00  0.00     0.018 C 
ATOM     31  C   UNL     1      -5.732   0.220  -1.940  1.00  0.00     0.018 C 
ENDBRANCH  27  29
ENDBRANCH  12  27
ENDBRANCH   5   8
ENDBRANCH   3   4
ENDBRANCH   2   3
ENDBRANCH   1   2
BRANCH   1  32
ATOM     32  C   UNL     1      -8.802   8.621  -4.372  1.00  0.00     0.002 C 
BRANCH  32  33
ATOM     33  C   UNL     1      -9.702   7.404  -4.594  1.00  0.00     0.021 C 
BRANCH  33  34
ATOM     34  C   UNL     1     -11.110   7.534  -4.030  1.00  0.00     0.116 C 
BRANCH  34  35
ATOM     35  N   UNL     1     -12.095   8.016  -4.988  1.00  0.00    -0.352 N 
ATOM     36  C   UNL     1     -13.440   8.310  -4.808  1.00  0.00     0.251 C 
ATOM     37  H   UNL     1     -11.756   8.155  -5.901  1.00  0.00     0.163 HD
ATOM     38  O   UNL     1     -14.124   8.655  -5.748  1.00  0.00    -0.269 OA
BRANCH  36  39
ATOM     39  C   UNL     1     -14.001   8.333  -3.431  1.00  0.00     0.039 A 
ATOM     40  C   UNL     1     -14.776   9.441  -3.064  1.00  0.00     0.014 A 
ATOM     41  C   UNL     1     -13.615   7.403  -2.472  1.00  0.00     0.014 A 
ATOM     42  C   UNL     1     -14.930   9.750  -1.714  1.00  0.00     0.010 A 
ATOM     43  C   UNL     1     -13.681   7.755  -1.139  1.00  0.00     0.010 A 
ATOM     44  C   UNL     1     -14.265   8.971  -0.770  1.00  0.00    -0.014 A 
BRANCH  44  45
ATOM     45  C   UNL     1     -13.981   9.428   0.585  1.00  0.00     0.031 A 
ATOM     46  C   UNL     1     -14.654   8.826   1.753  1.00  0.00     0.074 A 
ATOM     47  C   UNL     1     -12.988  10.328   0.766  1.00  0.00     0.049 A 
ATOM     48  N   UNL     1     -14.684   9.367   2.925  1.00  0.00    -0.248 NA
ATOM     49  C   UNL     1     -15.427   7.593   1.676  1.00  0.00     0.031 C 
ATOM     50  C   UNL     1     -12.303  10.658   2.013  1.00  0.00     0.029 A 
ATOM     51  N   UNL     1     -12.524  11.289  -0.150  1.00  0.00    -0.354 N 
ATOM     52  C   UNL     1     -15.192   8.440   3.804  1.00  0.00     0.074 A 
ATOM     53  C   UNL     1     -15.770   7.427   2.958  1.00  0.00     0.031 C 
ATOM     54  C   UNL     1     -11.748  11.873   1.896  1.00  0.00     0.029 A 
ATOM     55  C   UNL     1     -12.195  12.423   0.629  1.00  0.00     0.049 A 
ATOM     56  H   UNL     1     -12.445  11.193  -1.126  1.00  0.00     0.167 HD
ATOM     57  C   UNL     1     -14.918   8.589   5.134  1.00  0.00     0.037 A 
ATOM     58  C   UNL     1     -12.857  13.608   0.487  1.00  0.00     0.037 A 
ATOM     59  C   UNL     1     -14.354   9.918   5.399  1.00  0.00     0.049 A 
ATOM     60  C   UNL     1     -13.511  14.107   1.753  1.00  0.00     0.074 A 
ATOM     61  C   UNL     1     -13.078  10.368   5.698  1.00  0.00     0.029 A 
ATOM     62  N   UNL     1     -15.113  11.051   5.116  1.00  0.00    -0.354 N 
ATOM     63  N   UNL     1     -13.782  13.346   2.776  1.00  0.00    -0.248 NA
ATOM     64  C   UNL     1     -13.951  15.485   1.949  1.00  0.00     0.031 C 
ATOM     65  C   UNL     1     -13.061  11.777   5.534  1.00  0.00     0.029 A 
ATOM     66  C   UNL     1     -14.331  12.187   5.164  1.00  0.00     0.049 A 
ATOM     67  H   UNL     1     -16.076  11.043   4.911  1.00  0.00     0.167 HD
ATOM     68  C   UNL     1     -14.441  14.078   3.729  1.00  0.00     0.074 A 
ATOM     69  C   UNL     1     -14.500  15.417   3.175  1.00  0.00     0.031 C 
ATOM     70  C   UNL     1     -14.895  13.501   4.881  1.00  0.00     0.037 A 
BRANCH  57  71
ATOM     71  C   UNL     1     -14.908   7.476   6.179  1.00  0.00     0.064 A 
ATOM     72  C   UNL     1     -14.363   7.717   7.465  1.00  0.00     0.173 A 
ATOM     73  C   UNL     1     -15.290   6.135   5.968  1.00  0.00     0.173 A 
ATOM     74  F   UNL     1     -14.004   8.948   7.854  1.00  0.00    -0.203 F 
ATOM     75  C   UNL     1     -14.149   6.700   8.406  1.00  0.00     0.198 A 
ATOM     76  C   UNL     1     -15.094   5.122   6.915  1.00  0.00     0.198 A 
ATOM     77  F   UNL     1     -15.860   5.717   4.840  1.00  0.00    -0.203 F 
ATOM     78  F   UNL     1     -13.575   6.991   9.582  1.00  0.00    -0.200 F 
ATOM     79  C   UNL     1     -14.505   5.399   8.126  1.00  0.00     0.200 A 
ATOM     80  F   UNL     1     -15.467   3.867   6.624  1.00  0.00    -0.200 F 
ATOM     81  F   UNL     1     -14.286   4.420   9.014  1.00  0.00    -0.200 F 
ENDBRANCH  57  71
BRANCH  58  82
ATOM     82  C   UNL     1     -13.392  13.823  -0.882  1.00  0.00     0.064 A 
ATOM     83  C   UNL     1     -12.480  13.919  -1.951  1.00  0.00     0.173 A 
ATOM     84  C   UNL     1     -14.730  13.558  -1.194  1.00  0.00     0.173 A 
ATOM     85  F   UNL     1     -11.183  14.167  -1.703  1.00  0.00    -0.203 F 
ATOM     86  C   UNL     1     -12.866  13.646  -3.260  1.00  0.00     0.198 A 
ATOM     87  C   UNL     1     -15.117  13.297  -2.511  1.00  0.00     0.198 A 
ATOM     88  F   UNL     1     -15.643  13.433  -0.220  1.00  0.00    -0.203 F 
ATOM     89  F   UNL     1     -11.950  13.633  -4.239  1.00  0.00    -0.200 F 
ATOM     90  C   UNL     1     -14.180  13.307  -3.535  1.00  0.00     0.200 A 
ATOM     91  F   UNL     1     -16.381  12.937  -2.774  1.00  0.00    -0.200 F 
ATOM     92  F   UNL     1     -14.536  12.949  -4.776  1.00  0.00    -0.200 F 
ENDBRANCH  58  82
BRANCH  70  93
ATOM     93  C   UNL     1     -15.836  14.126   5.888  1.00  0.00     0.064 A 
ATOM     94  C   UNL     1     -16.771  15.129   5.581  1.00  0.00     0.173 A 
ATOM     95  C   UNL     1     -15.918  13.607   7.205  1.00  0.00     0.173 A 
ATOM     96  F   UNL     1     -16.888  15.620   4.340  1.00  0.00    -0.203 F 
ATOM     97  C   UNL     1     -17.673  15.620   6.532  1.00  0.00     0.198 A 
ATOM     98  C   UNL     1     -16.857  14.058   8.132  1.00  0.00     0.198 A 
ATOM     99  F   UNL     1     -15.106  12.626   7.624  1.00  0.00    -0.203 F 
ATOM    100  F   UNL     1     -18.517  16.606   6.197  1.00  0.00    -0.200 F 
ATOM    101  C   UNL     1     -17.724  15.077   7.801  1.00  0.00     0.200 A 
ATOM    102  F   UNL     1     -16.929  13.482   9.341  1.00  0.00    -0.200 F 
ATOM    103  F   UNL     1     -18.622  15.517   8.693  1.00  0.00    -0.200 F 
ENDBRANCH  70  93
ENDBRANCH  44  45
ENDBRANCH  36  39
ENDBRANCH  34  35
ENDBRANCH  33  34
ENDBRANCH  32  33
ENDBRANCH   1  32
TORSDOF 18
