REMARK SMILES COCC[C@@]1(C(=O)NCCCCCCNC(=O)c2ccc(-c3c4nc(c(-c5c(F)c(F)c(F)c(F)c5F)c5ccc([nH]5)c(-c5c(F)c(F)c(F)c(F)c5F)c5nc(c(-c6c(F)c(F)c(F)c(F)c6F)c6ccc3[nH]6)C=C5)C=C4)cc2)CCCN(C(=O)NCc2ccc(OC)cc2)C1
REMARK SMILES IDX 10 1 9 2 8 3 6 4 7 5 5 7 81 8 97 9 82 10 84 11 83 12 4 13
REMARK SMILES IDX 3 14 2 15 1 16 85 17 86 18 87 19 88 21 89 22 90 23 96 24
REMARK SMILES IDX 91 25 95 26 92 27 93 28 94 29 11 30 12 31 13 32 14 33 15 34
REMARK SMILES IDX 16 35 17 37 18 38 19 39 80 40 20 41 79 42 21 43 22 44 23 45
REMARK SMILES IDX 73 46 24 47 78 48 72 49 74 50 25 51 77 52 71 53 70 54 26 56
REMARK SMILES IDX 58 57 38 58 57 59 39 60 42 61 56 62 75 63 40 64 41 65 55 67
REMARK SMILES IDX 76 68 43 69 27 70 28 71 36 72 29 73 30 74 34 75 37 76 31 77
REMARK SMILES IDX 32 78 35 79 33 80 59 81 60 82 68 83 61 84 62 85 66 86 69 87
REMARK SMILES IDX 63 88 64 89 67 90 65 91 44 92 45 93 53 94 46 95 47 96 51 97
REMARK SMILES IDX 54 98 48 99 49 100 52 101 50 102
REMARK H PARENT 8 6 87 20 15 36 74 55 42 66
REMARK Flexibility Score: inf
ROOT
ATOM      1  C   UNL     1      -3.193  -2.127  -1.677  1.00  0.00     0.021 C 
ENDROOT
BRANCH   1   2
ATOM      2  C   UNL     1      -1.853  -1.650  -1.134  1.00  0.00     0.116 C 
BRANCH   2   3
ATOM      3  N   UNL     1      -0.762  -2.570  -1.327  1.00  0.00    -0.356 N 
ATOM      4  C   UNL     1       0.562  -2.372  -1.535  1.00  0.00     0.228 C 
ATOM      5  O   UNL     1       1.241  -3.401  -1.383  1.00  0.00    -0.274 OA
ATOM      6  H   UNL     1      -1.027  -3.518  -1.304  1.00  0.00     0.163 HD
BRANCH   4   7
ATOM      7  C   UNL     1       1.267  -1.071  -2.051  1.00  0.00     0.069 C 
ATOM      8  C   UNL     1       2.547  -0.904  -1.175  1.00  0.00     0.021 C 
ATOM      9  C   UNL     1       0.516   0.280  -2.056  1.00  0.00     0.138 C 
ATOM     10  C   UNL     1       2.229  -0.293   0.197  1.00  0.00     0.023 C 
ATOM     11  N   UNL     1       0.284   0.864  -0.728  1.00  0.00    -0.324 N 
ATOM     12  C   UNL     1       1.516   1.043   0.030  1.00  0.00     0.121 C 
BRANCH   7  13
ATOM     13  C   UNL     1       1.650  -1.452  -3.530  1.00  0.00     0.047 C 
BRANCH  13  14
ATOM     14  C   UNL     1       2.176  -0.351  -4.459  1.00  0.00     0.161 C 
BRANCH  14  15
ATOM     15  O   UNL     1       3.459   0.097  -4.040  1.00  0.00    -0.385 OA
ATOM     16  C   UNL     1       3.571   1.511  -3.949  1.00  0.00     0.194 C 
ENDBRANCH  14  15
ENDBRANCH  13  14
ENDBRANCH   7  13
BRANCH  11  17
ATOM     17  C   UNL     1      -0.952   1.375  -0.470  1.00  0.00     0.317 C 
ATOM     18  O   UNL     1      -1.803   1.509  -1.359  1.00  0.00    -0.249 OA
ATOM     19  N   UNL     1      -1.401   1.675   0.751  1.00  0.00    -0.334 N 
ATOM     20  H   UNL     1      -2.381   1.770   0.751  1.00  0.00     0.165 HD
BRANCH  19  21
ATOM     21  C   UNL     1      -0.862   1.899   2.074  1.00  0.00     0.153 C 
BRANCH  21  22
ATOM     22  C   UNL     1      -0.642   3.375   2.336  1.00  0.00    -0.028 A 
ATOM     23  C   UNL     1      -1.233   4.366   1.532  1.00  0.00     0.009 A 
ATOM     24  C   UNL     1       0.091   3.790   3.455  1.00  0.00     0.009 A 
ATOM     25  C   UNL     1      -1.096   5.719   1.838  1.00  0.00     0.047 A 
ATOM     26  C   UNL     1       0.226   5.153   3.762  1.00  0.00     0.047 A 
ATOM     27  C   UNL     1      -0.378   6.121   2.959  1.00  0.00     0.118 A 
BRANCH  27  28
ATOM     28  O   UNL     1      -0.344   7.473   3.149  1.00  0.00    -0.497 OA
ATOM     29  C   UNL     1       0.192   7.935   4.380  1.00  0.00     0.278 C 
ENDBRANCH  27  28
ENDBRANCH  21  22
ENDBRANCH  19  21
ENDBRANCH  11  17
ENDBRANCH   4   7
ENDBRANCH   2   3
ENDBRANCH   1   2
BRANCH   1  30
ATOM     30  C   UNL     1      -4.162  -2.714  -0.652  1.00  0.00     0.002 C 
BRANCH  30  31
ATOM     31  C   UNL     1      -4.448  -1.871   0.597  1.00  0.00     0.002 C 
BRANCH  31  32
ATOM     32  C   UNL     1      -4.779  -0.390   0.381  1.00  0.00     0.021 C 
BRANCH  32  33
ATOM     33  C   UNL     1      -5.932  -0.082  -0.570  1.00  0.00     0.116 C 
BRANCH  33  34
ATOM     34  N   UNL     1      -7.159  -0.760  -0.195  1.00  0.00    -0.352 N 
ATOM     35  C   UNL     1      -8.422  -0.277   0.003  1.00  0.00     0.251 C 
ATOM     36  H   UNL     1      -7.066  -1.731  -0.061  1.00  0.00     0.163 HD
ATOM     37  O   UNL     1      -9.283  -1.029   0.469  1.00  0.00    -0.269 OA
BRANCH  35  38
ATOM     38  C   UNL     1      -8.789   1.119  -0.325  1.00  0.00     0.039 A 
ATOM     39  C   UNL     1      -9.712   1.768   0.504  1.00  0.00     0.014 A 
ATOM     40  C   UNL     1      -8.327   1.760  -1.479  1.00  0.00     0.014 A 
ATOM     41  C   UNL     1     -10.165   3.050   0.185  1.00  0.00     0.010 A 
ATOM     42  C   UNL     1      -8.733   3.065  -1.765  1.00  0.00     0.010 A 
ATOM     43  C   UNL     1      -9.679   3.708  -0.954  1.00  0.00    -0.014 A 
BRANCH  43  44
ATOM     44  C   UNL     1     -10.218   5.035  -1.344  1.00  0.00     0.031 A 
ATOM     45  C   UNL     1     -11.076   5.161  -2.574  1.00  0.00     0.074 A 
ATOM     46  C   UNL     1      -9.925   6.123  -0.610  1.00  0.00     0.049 A 
ATOM     47  N   UNL     1     -11.630   6.227  -3.094  1.00  0.00    -0.248 NA
ATOM     48  C   UNL     1     -11.326   3.926  -3.333  1.00  0.00     0.031 C 
ATOM     49  C   UNL     1      -9.074   6.136   0.580  1.00  0.00     0.029 A 
ATOM     50  N   UNL     1     -10.313   7.431  -0.758  1.00  0.00    -0.354 N 
ATOM     51  C   UNL     1     -12.271   5.796  -4.247  1.00  0.00     0.074 A 
ATOM     52  C   UNL     1     -12.006   4.380  -4.376  1.00  0.00     0.031 C 
ATOM     53  C   UNL     1      -9.019   7.387   1.065  1.00  0.00     0.029 A 
ATOM     54  C   UNL     1      -9.815   8.265   0.212  1.00  0.00     0.049 A 
ATOM     55  H   UNL     1     -10.892   7.742  -1.491  1.00  0.00     0.167 HD
ATOM     56  C   UNL     1     -13.032   6.511  -5.111  1.00  0.00     0.037 A 
ATOM     57  C   UNL     1      -9.991   9.588   0.395  1.00  0.00     0.037 A 
ATOM     58  C   UNL     1     -13.329   7.910  -4.960  1.00  0.00     0.049 A 
ATOM     59  C   UNL     1     -10.880  10.350  -0.550  1.00  0.00     0.074 A 
ATOM     60  C   UNL     1     -14.126   8.716  -5.755  1.00  0.00     0.029 A 
ATOM     61  N   UNL     1     -12.846   8.710  -3.935  1.00  0.00    -0.354 N 
ATOM     62  N   UNL     1     -11.525   9.920  -1.607  1.00  0.00    -0.248 NA
ATOM     63  C   UNL     1     -11.078  11.778  -0.266  1.00  0.00     0.031 C 
ATOM     64  C   UNL     1     -14.106  10.011  -5.223  1.00  0.00     0.029 A 
ATOM     65  C   UNL     1     -13.326  10.001  -4.078  1.00  0.00     0.049 A 
ATOM     66  H   UNL     1     -12.250   8.404  -3.213  1.00  0.00     0.167 HD
ATOM     67  C   UNL     1     -12.228  11.012  -2.095  1.00  0.00     0.074 A 
ATOM     68  C   UNL     1     -11.938  12.124  -1.214  1.00  0.00     0.031 C 
ATOM     69  C   UNL     1     -13.041  11.088  -3.177  1.00  0.00     0.037 A 
BRANCH  56  70
ATOM     70  C   UNL     1     -13.600   5.785  -6.295  1.00  0.00     0.064 A 
ATOM     71  C   UNL     1     -14.644   4.858  -6.155  1.00  0.00     0.173 A 
ATOM     72  C   UNL     1     -13.110   6.033  -7.585  1.00  0.00     0.173 A 
ATOM     73  F   UNL     1     -15.137   4.575  -4.940  1.00  0.00    -0.203 F 
ATOM     74  C   UNL     1     -15.157   4.185  -7.261  1.00  0.00     0.198 A 
ATOM     75  C   UNL     1     -13.643   5.378  -8.692  1.00  0.00     0.198 A 
ATOM     76  F   UNL     1     -12.116   6.914  -7.774  1.00  0.00    -0.203 F 
ATOM     77  F   UNL     1     -16.121   3.269  -7.098  1.00  0.00    -0.200 F 
ATOM     78  C   UNL     1     -14.660   4.449  -8.528  1.00  0.00     0.200 A 
ATOM     79  F   UNL     1     -13.170   5.641  -9.918  1.00  0.00    -0.200 F 
ATOM     80  F   UNL     1     -15.157   3.803  -9.592  1.00  0.00    -0.200 F 
ENDBRANCH  56  70
BRANCH  57  81
ATOM     81  C   UNL     1      -9.352  10.264   1.551  1.00  0.00     0.064 A 
ATOM     82  C   UNL     1     -10.117  10.682   2.649  1.00  0.00     0.173 A 
ATOM     83  C   UNL     1      -7.971  10.500   1.587  1.00  0.00     0.173 A 
ATOM     84  F   UNL     1     -11.445  10.494   2.650  1.00  0.00    -0.203 F 
ATOM     85  C   UNL     1      -9.526  11.326   3.733  1.00  0.00     0.198 A 
ATOM     86  C   UNL     1      -7.378  11.125   2.682  1.00  0.00     0.198 A 
ATOM     87  F   UNL     1      -7.197  10.114   0.562  1.00  0.00    -0.203 F 
ATOM     88  F   UNL     1     -10.285  11.750   4.753  1.00  0.00    -0.200 F 
ATOM     89  C   UNL     1      -8.156  11.543   3.751  1.00  0.00     0.200 A 
ATOM     90  F   UNL     1      -6.053  11.324   2.701  1.00  0.00    -0.200 F 
ATOM     91  F   UNL     1      -7.588  12.160   4.795  1.00  0.00    -0.200 F 
ENDBRANCH  57  81
BRANCH  69  92
ATOM     92  C   UNL     1     -13.709  12.403  -3.442  1.00  0.00     0.064 A 
ATOM     93  C   UNL     1     -13.002  13.493  -3.969  1.00  0.00     0.173 A 
ATOM     94  C   UNL     1     -15.082  12.560  -3.200  1.00  0.00     0.173 A 
ATOM     95  F   UNL     1     -11.685  13.393  -4.202  1.00  0.00    -0.203 F 
ATOM     96  C   UNL     1     -13.643  14.702  -4.224  1.00  0.00     0.198 A 
ATOM     97  C   UNL     1     -15.724  13.763  -3.478  1.00  0.00     0.198 A 
ATOM     98  F   UNL     1     -15.802  11.543  -2.701  1.00  0.00    -0.203 F 
ATOM     99  F   UNL     1     -12.941  15.744  -4.690  1.00  0.00    -0.200 F 
ATOM    100  C   UNL     1     -15.003  14.834  -3.984  1.00  0.00     0.200 A 
ATOM    101  F   UNL     1     -17.039  13.887  -3.255  1.00  0.00    -0.200 F 
ATOM    102  F   UNL     1     -15.618  15.998  -4.234  1.00  0.00    -0.200 F 
ENDBRANCH  69  92
ENDBRANCH  43  44
ENDBRANCH  35  38
ENDBRANCH  33  34
ENDBRANCH  32  33
ENDBRANCH  31  32
ENDBRANCH  30  31
ENDBRANCH   1  30
TORSDOF 20
