REMARK SMILES O=C(NCCCCCCNC(=O)[C@@H]1CN(C(=O)CCC(F)(F)F)C[C@H]1c1ccc2c(c1)OCO2)c1ccc(-c2c3nc(c(-c4c(F)c(F)c(F)c(F)c4F)c4ccc([nH]4)c(-c4c(F)c(F)c(F)c(F)c4F)c4nc(c(-c5c(F)c(F)c(F)c(F)c5F)c5ccc2[nH]5)C=C4)C=C3)cc1
REMARK SMILES IDX 7 1 6 2 5 3 4 4 3 5 1 6 2 7 35 9 36 10 97 11 37 12 96 13
REMARK SMILES IDX 38 14 39 15 40 16 90 17 41 18 95 19 89 20 91 21 42 22 94 23
REMARK SMILES IDX 88 24 87 25 43 27 75 28 55 29 74 30 56 31 59 32 73 33 92 34
REMARK SMILES IDX 57 35 58 36 72 38 93 39 60 40 44 41 45 42 53 43 46 44 47 45
REMARK SMILES IDX 51 46 54 47 48 48 49 49 52 50 50 51 76 52 77 53 85 54 78 55
REMARK SMILES IDX 79 56 83 57 86 58 80 59 81 60 84 61 82 62 61 63 62 64 70 65
REMARK SMILES IDX 63 66 64 67 68 68 71 69 65 70 66 71 69 72 67 73 8 74 9 75
REMARK SMILES IDX 10 76 11 77 12 79 13 80 14 81 25 82 15 83 24 84 26 85 27 86
REMARK SMILES IDX 31 87 28 88 30 89 29 90 32 91 34 92 33 93 16 94 17 95 18 96
REMARK SMILES IDX 19 97 20 98 21 99 22 100 23 101
REMARK H PARENT 3 8 91 26 59 37 10 78
REMARK Flexibility Score: inf
ROOT
ATOM      1  C   UNL     1       4.710  -2.859   3.236  1.00  0.00     0.002 C 
ENDROOT
BRANCH   1   2
ATOM      2  C   UNL     1       4.293  -1.407   3.484  1.00  0.00     0.002 C 
BRANCH   2   3
ATOM      3  C   UNL     1       4.813  -0.378   2.478  1.00  0.00     0.021 C 
BRANCH   3   4
ATOM      4  C   UNL     1       4.524  -0.688   1.012  1.00  0.00     0.116 C 
BRANCH   4   5
ATOM      5  N   UNL     1       3.101  -0.758   0.725  1.00  0.00    -0.352 N 
ATOM      6  O   UNL     1       1.121  -0.119  -0.144  1.00  0.00    -0.269 OA
ATOM      7  C   UNL     1       2.350  -0.031  -0.160  1.00  0.00     0.251 C 
ATOM      8  H   UNL     1       2.602  -1.430   1.244  1.00  0.00     0.163 HD
BRANCH   7   9
ATOM      9  C   UNL     1       3.001   0.877  -1.126  1.00  0.00     0.039 A 
ATOM     10  C   UNL     1       4.111   0.466  -1.870  1.00  0.00     0.014 A 
ATOM     11  C   UNL     1       2.458   2.150  -1.322  1.00  0.00     0.014 A 
ATOM     12  C   UNL     1       4.744   1.363  -2.729  1.00  0.00     0.010 A 
ATOM     13  C   UNL     1       3.052   3.025  -2.233  1.00  0.00     0.010 A 
ATOM     14  C   UNL     1       4.211   2.645  -2.928  1.00  0.00    -0.014 A 
BRANCH  14  15
ATOM     15  C   UNL     1       4.829   3.574  -3.906  1.00  0.00     0.031 A 
ATOM     16  C   UNL     1       5.447   4.863  -3.451  1.00  0.00     0.074 A 
ATOM     17  C   UNL     1       4.779   3.273  -5.217  1.00  0.00     0.049 A 
ATOM     18  N   UNL     1       5.929   5.848  -4.166  1.00  0.00    -0.248 NA
ATOM     19  C   UNL     1       5.522   5.078  -2.000  1.00  0.00     0.031 C 
ATOM     20  C   UNL     1       4.198   2.052  -5.776  1.00  0.00     0.029 A 
ATOM     21  N   UNL     1       5.200   3.977  -6.316  1.00  0.00    -0.354 N 
ATOM     22  C   UNL     1       6.342   6.811  -3.254  1.00  0.00     0.074 A 
ATOM     23  C   UNL     1       6.030   6.301  -1.935  1.00  0.00     0.031 C 
ATOM     24  C   UNL     1       4.296   2.092  -7.112  1.00  0.00     0.029 A 
ATOM     25  C   UNL     1       4.887   3.367  -7.505  1.00  0.00     0.049 A 
ATOM     26  H   UNL     1       5.679   4.835  -6.258  1.00  0.00     0.167 HD
ATOM     27  C   UNL     1       6.928   8.008  -3.501  1.00  0.00     0.037 A 
ATOM     28  C   UNL     1       5.021   3.801  -8.773  1.00  0.00     0.037 A 
ATOM     29  C   UNL     1       7.232   8.501  -4.820  1.00  0.00     0.049 A 
ATOM     30  C   UNL     1       5.632   5.149  -9.025  1.00  0.00     0.074 A 
ATOM     31  C   UNL     1       7.867   9.678  -5.177  1.00  0.00     0.029 A 
ATOM     32  N   UNL     1       6.905   7.850  -6.002  1.00  0.00    -0.354 N 
ATOM     33  N   UNL     1       6.061   6.035  -8.159  1.00  0.00    -0.248 NA
ATOM     34  C   UNL     1       5.782   5.559 -10.427  1.00  0.00     0.031 C 
ATOM     35  C   UNL     1       7.867   9.769  -6.572  1.00  0.00     0.029 A 
ATOM     36  C   UNL     1       7.295   8.617  -7.089  1.00  0.00     0.049 A 
ATOM     37  H   UNL     1       6.462   6.973  -6.060  1.00  0.00     0.167 HD
ATOM     38  C   UNL     1       6.556   7.093  -8.906  1.00  0.00     0.074 A 
ATOM     39  C   UNL     1       6.375   6.739 -10.300  1.00  0.00     0.031 C 
ATOM     40  C   UNL     1       7.117   8.248  -8.473  1.00  0.00     0.037 A 
BRANCH  27  41
ATOM     41  C   UNL     1       7.239   8.883  -2.319  1.00  0.00     0.064 A 
ATOM     42  C   UNL     1       8.223   8.542  -1.377  1.00  0.00     0.173 A 
ATOM     43  C   UNL     1       6.547  10.090  -2.130  1.00  0.00     0.173 A 
ATOM     44  F   UNL     1       8.912   7.398  -1.504  1.00  0.00    -0.203 F 
ATOM     45  C   UNL     1       8.467   9.350  -0.269  1.00  0.00     0.198 A 
ATOM     46  C   UNL     1       6.819  10.913  -1.040  1.00  0.00     0.198 A 
ATOM     47  F   UNL     1       5.605  10.474  -3.004  1.00  0.00    -0.203 F 
ATOM     48  F   UNL     1       9.364   8.968   0.652  1.00  0.00    -0.200 F 
ATOM     49  C   UNL     1       7.768  10.536  -0.103  1.00  0.00     0.200 A 
ATOM     50  F   UNL     1       6.153  12.067  -0.891  1.00  0.00    -0.200 F 
ATOM     51  F   UNL     1       8.002  11.310   0.966  1.00  0.00    -0.200 F 
ENDBRANCH  27  41
BRANCH  28  52
ATOM     52  C   UNL     1       4.545   2.938  -9.883  1.00  0.00     0.064 A 
ATOM     53  C   UNL     1       5.450   2.290 -10.733  1.00  0.00     0.173 A 
ATOM     54  C   UNL     1       3.176   2.695 -10.075  1.00  0.00     0.173 A 
ATOM     55  F   UNL     1       6.767   2.504 -10.597  1.00  0.00    -0.203 F 
ATOM     56  C   UNL     1       5.003   1.429 -11.733  1.00  0.00     0.198 A 
ATOM     57  C   UNL     1       2.733   1.812 -11.057  1.00  0.00     0.198 A 
ATOM     58  F   UNL     1       2.271   3.285  -9.281  1.00  0.00    -0.203 F 
ATOM     59  F   UNL     1       5.888   0.837 -12.548  1.00  0.00    -0.200 F 
ATOM     60  C   UNL     1       3.647   1.183 -11.888  1.00  0.00     0.200 A 
ATOM     61  F   UNL     1       1.423   1.562 -11.188  1.00  0.00    -0.200 F 
ATOM     62  F   UNL     1       3.221   0.337 -12.836  1.00  0.00    -0.200 F 
ENDBRANCH  28  52
BRANCH  40  63
ATOM     63  C   UNL     1       7.628   9.206  -9.511  1.00  0.00     0.064 A 
ATOM     64  C   UNL     1       6.761   9.982 -10.293  1.00  0.00     0.173 A 
ATOM     65  C   UNL     1       9.009   9.406  -9.663  1.00  0.00     0.173 A 
ATOM     66  F   UNL     1       5.433   9.816 -10.197  1.00  0.00    -0.203 F 
ATOM     67  C   UNL     1       7.259  10.920 -11.194  1.00  0.00     0.198 A 
ATOM     68  C   UNL     1       9.502  10.364 -10.543  1.00  0.00     0.198 A 
ATOM     69  F   UNL     1       9.880   8.690  -8.935  1.00  0.00    -0.203 F 
ATOM     70  F   UNL     1       6.415  11.632 -11.953  1.00  0.00    -0.200 F 
ATOM     71  C   UNL     1       8.628  11.119 -11.309  1.00  0.00     0.200 A 
ATOM     72  F   UNL     1      10.824  10.564 -10.641  1.00  0.00    -0.200 F 
ATOM     73  F   UNL     1       9.104  12.038 -12.160  1.00  0.00    -0.200 F 
ENDBRANCH  40  63
ENDBRANCH  14  15
ENDBRANCH   7   9
ENDBRANCH   4   5
ENDBRANCH   3   4
ENDBRANCH   2   3
ENDBRANCH   1   2
BRANCH   1  74
ATOM     74  C   UNL     1       6.215  -3.119   3.089  1.00  0.00     0.021 C 
BRANCH  74  75
ATOM     75  C   UNL     1       7.085  -2.693   4.269  1.00  0.00     0.116 C 
BRANCH  75  76
ATOM     76  N   UNL     1       6.775  -3.405   5.493  1.00  0.00    -0.356 N 
ATOM     77  C   UNL     1       7.577  -3.833   6.502  1.00  0.00     0.225 C 
ATOM     78  H   UNL     1       5.821  -3.614   5.613  1.00  0.00     0.163 HD
ATOM     79  O   UNL     1       7.012  -4.273   7.509  1.00  0.00    -0.275 OA
BRANCH  77  80
ATOM     80  C   UNL     1       9.097  -3.837   6.426  1.00  0.00     0.107 C 
ATOM     81  C   UNL     1       9.704  -2.469   6.183  1.00  0.00     0.133 C 
ATOM     82  C   UNL     1       9.666  -4.801   5.358  1.00  0.00     0.053 C 
ATOM     83  N   UNL     1      10.687  -2.628   5.130  1.00  0.00    -0.341 N 
ATOM     84  C   UNL     1      10.799  -4.007   4.686  1.00  0.00     0.128 C 
BRANCH  82  85
ATOM     85  C   UNL     1      10.010  -6.145   6.002  1.00  0.00    -0.038 A 
ATOM     86  C   UNL     1       8.940  -6.925   6.520  1.00  0.00     0.008 A 
ATOM     87  C   UNL     1      11.321  -6.611   6.192  1.00  0.00     0.054 A 
ATOM     88  C   UNL     1       9.164  -8.089   7.263  1.00  0.00     0.051 A 
ATOM     89  C   UNL     1      11.513  -7.764   6.931  1.00  0.00     0.166 A 
ATOM     90  C   UNL     1      10.466  -8.475   7.463  1.00  0.00     0.165 A 
ATOM     91  O   UNL     1      12.720  -8.306   7.247  1.00  0.00    -0.454 OA
ATOM     92  O   UNL     1      10.879  -9.545   8.192  1.00  0.00    -0.454 OA
ATOM     93  C   UNL     1      12.311  -9.399   8.097  1.00  0.00     0.468 C 
ENDBRANCH  82  85
BRANCH  83  94
ATOM     94  C   UNL     1      11.526  -1.666   4.617  1.00  0.00     0.222 C 
ATOM     95  O   UNL     1      12.345  -1.916   3.732  1.00  0.00    -0.275 OA
BRANCH  94  96
ATOM     96  C   UNL     1      11.399  -0.250   5.143  1.00  0.00     0.109 C 
BRANCH  96  97
ATOM     97  C   UNL     1      10.814   0.683   4.088  1.00  0.00     0.125 C 
BRANCH  97  98
ATOM     98  C   UNL     1       9.375   0.368   3.760  1.00  0.00     0.389 C 
ATOM     99  F   UNL     1       8.606   0.389   4.872  1.00  0.00    -0.171 F 
ATOM    100  F   UNL     1       8.863   1.278   2.903  1.00  0.00    -0.171 F 
ATOM    101  F   UNL     1       9.229  -0.844   3.188  1.00  0.00    -0.171 F 
ENDBRANCH  97  98
ENDBRANCH  96  97
ENDBRANCH  94  96
ENDBRANCH  83  94
ENDBRANCH  77  80
ENDBRANCH  75  76
ENDBRANCH  74  75
ENDBRANCH   1  74
TORSDOF 18
