REMARK SMILES COc1ccc(COc2cncc(C(=O)NCCCCCCNC(=O)c3ccc(-c4c5nc(c(-c6c(F)c(F)c(F)c(F)c6F)c6ccc([nH]6)c(-c6c(F)c(F)c(F)c(F)c6F)c6nc(c(-c7c(F)c(F)c(F)c(F)c7F)c7ccc4[nH]7)C=C6)C=C5)cc3)n2)cc1
REMARK SMILES IDX 18 1 17 2 16 3 14 4 15 5 13 7 9 8 10 9 89 10 11 11 12 12
REMARK SMILES IDX 8 13 7 14 6 15 3 16 4 17 91 18 5 19 90 20 2 21 1 22 19 23
REMARK SMILES IDX 20 24 21 25 22 26 23 27 24 28 25 30 26 31 27 32 88 33 28 34
REMARK SMILES IDX 87 35 29 36 30 37 31 38 81 39 32 40 86 41 80 42 82 43 33 44
REMARK SMILES IDX 85 45 79 46 78 47 34 49 66 50 46 51 65 52 47 53 50 54 64 55
REMARK SMILES IDX 83 56 48 57 49 58 63 60 84 61 51 62 35 63 36 64 44 65 37 66
REMARK SMILES IDX 38 67 42 68 45 69 39 70 40 71 43 72 41 73 67 74 68 75 76 76
REMARK SMILES IDX 69 77 70 78 74 79 77 80 71 81 72 82 75 83 73 84 52 85 53 86
REMARK SMILES IDX 61 87 54 88 55 89 59 90 62 91 56 92 57 93 60 94 58 95
REMARK H PARENT 16 6 23 29 82 48 50 59
REMARK Flexibility Score: inf
ROOT
ATOM      1  C   UNL     1       4.755   1.784  11.170  1.00  0.00     0.021 C 
ENDROOT
BRANCH   1   2
ATOM      2  C   UNL     1       3.698   2.691  10.544  1.00  0.00     0.116 C 
BRANCH   2   3
ATOM      3  N   UNL     1       4.308   3.893  10.003  1.00  0.00    -0.351 N 
ATOM      4  C   UNL     1       4.466   4.343   8.714  1.00  0.00     0.271 C 
ATOM      5  O   UNL     1       5.116   5.377   8.548  1.00  0.00    -0.267 OA
ATOM      6  H   UNL     1       4.676   4.498  10.687  1.00  0.00     0.163 HD
BRANCH   4   7
ATOM      7  C   UNL     1       3.865   3.667   7.531  1.00  0.00     0.150 A 
ATOM      8  C   UNL     1       2.507   2.064   6.610  1.00  0.00     0.233 A 
ATOM      9  C   UNL     1       2.619   2.690   5.373  1.00  0.00     0.179 A 
ATOM     10  N   UNL     1       3.125   2.544   7.703  1.00  0.00    -0.205 NA
ATOM     11  N   UNL     1       3.399   3.779   5.171  1.00  0.00    -0.257 NA
ATOM     12  C   UNL     1       4.010   4.259   6.283  1.00  0.00     0.145 A 
BRANCH   8  13
ATOM     13  O   UNL     1       1.649   1.028   6.857  1.00  0.00    -0.472 OA
BRANCH  13  14
ATOM     14  C   UNL     1       2.053  -0.196   6.229  1.00  0.00     0.267 C 
BRANCH  14  15
ATOM     15  C   UNL     1       1.550  -0.240   4.808  1.00  0.00    -0.010 A 
ATOM     16  C   UNL     1       0.688   0.088   2.158  1.00  0.00     0.118 A 
ATOM     17  C   UNL     1      -0.206   0.254   3.216  1.00  0.00     0.047 A 
ATOM     18  C   UNL     1       2.005  -0.292   2.425  1.00  0.00     0.047 A 
ATOM     19  C   UNL     1       0.212   0.073   4.532  1.00  0.00     0.011 A 
ATOM     20  C   UNL     1       2.433  -0.462   3.745  1.00  0.00     0.011 A 
BRANCH  16  21
ATOM     21  O   UNL     1       0.168   0.369   0.926  1.00  0.00    -0.497 OA
ATOM     22  C   UNL     1       0.924  -0.059  -0.198  1.00  0.00     0.278 C 
ENDBRANCH  16  21
ENDBRANCH  14  15
ENDBRANCH  13  14
ENDBRANCH   8  13
ENDBRANCH   4   7
ENDBRANCH   2   3
ENDBRANCH   1   2
BRANCH   1  23
ATOM     23  C   UNL     1       5.358   2.340  12.465  1.00  0.00     0.002 C 
BRANCH  23  24
ATOM     24  C   UNL     1       4.343   2.652  13.570  1.00  0.00     0.002 C 
BRANCH  24  25
ATOM     25  C   UNL     1       3.404   1.499  13.934  1.00  0.00     0.021 C 
BRANCH  25  26
ATOM     26  C   UNL     1       4.110   0.228  14.393  1.00  0.00     0.116 C 
BRANCH  26  27
ATOM     27  N   UNL     1       4.865   0.435  15.619  1.00  0.00    -0.352 N 
ATOM     28  C   UNL     1       4.817  -0.262  16.796  1.00  0.00     0.251 C 
ATOM     29  H   UNL     1       5.503   1.184  15.599  1.00  0.00     0.163 HD
ATOM     30  O   UNL     1       5.389   0.172  17.798  1.00  0.00    -0.269 OA
BRANCH  28  31
ATOM     31  C   UNL     1       4.063  -1.529  16.877  1.00  0.00     0.039 A 
ATOM     32  C   UNL     1       3.239  -1.756  17.982  1.00  0.00     0.014 A 
ATOM     33  C   UNL     1       4.178  -2.498  15.875  1.00  0.00     0.014 A 
ATOM     34  C   UNL     1       2.487  -2.930  18.056  1.00  0.00     0.010 A 
ATOM     35  C   UNL     1       3.377  -3.635  15.916  1.00  0.00     0.010 A 
ATOM     36  C   UNL     1       2.527  -3.865  17.009  1.00  0.00    -0.014 A 
BRANCH  36  37
ATOM     37  C   UNL     1       1.688  -5.089  17.041  1.00  0.00     0.031 A 
ATOM     38  C   UNL     1       2.331  -6.445  17.111  1.00  0.00     0.074 A 
ATOM     39  C   UNL     1       0.349  -4.979  16.946  1.00  0.00     0.049 A 
ATOM     40  N   UNL     1       1.772  -7.629  17.081  1.00  0.00    -0.248 NA
ATOM     41  C   UNL     1       3.799  -6.476  17.199  1.00  0.00     0.031 C 
ATOM     42  C   UNL     1      -0.390  -3.721  16.827  1.00  0.00     0.029 A 
ATOM     43  N   UNL     1      -0.629  -5.942  16.922  1.00  0.00    -0.354 N 
ATOM     44  C   UNL     1       2.818  -8.541  17.132  1.00  0.00     0.074 A 
ATOM     45  C   UNL     1       4.046  -7.777  17.142  1.00  0.00     0.031 C 
ATOM     46  C   UNL     1      -1.704  -3.987  16.762  1.00  0.00     0.029 A 
ATOM     47  C   UNL     1      -1.899  -5.434  16.797  1.00  0.00     0.049 A 
ATOM     48  H   UNL     1      -0.438  -6.906  16.987  1.00  0.00     0.167 HD
ATOM     49  C   UNL     1       2.758  -9.893  17.189  1.00  0.00     0.037 A 
ATOM     50  C   UNL     1      -3.086  -6.064  16.712  1.00  0.00     0.037 A 
ATOM     51  C   UNL     1       1.532 -10.649  17.204  1.00  0.00     0.049 A 
ATOM     52  C   UNL     1      -3.124  -7.567  16.772  1.00  0.00     0.074 A 
ATOM     53  C   UNL     1       1.364 -12.018  17.323  1.00  0.00     0.029 A 
ATOM     54  N   UNL     1       0.264 -10.098  17.093  1.00  0.00    -0.354 N 
ATOM     55  N   UNL     1      -2.133  -8.417  16.891  1.00  0.00    -0.248 NA
ATOM     56  C   UNL     1      -4.449  -8.199  16.693  1.00  0.00     0.031 C 
ATOM     57  C   UNL     1      -0.004 -12.299  17.236  1.00  0.00     0.029 A 
ATOM     58  C   UNL     1      -0.691 -11.102  17.117  1.00  0.00     0.049 A 
ATOM     59  H   UNL     1       0.071  -9.136  17.011  1.00  0.00     0.167 HD
ATOM     60  C   UNL     1      -2.713  -9.678  16.928  1.00  0.00     0.074 A 
ATOM     61  C   UNL     1      -4.145  -9.481  16.835  1.00  0.00     0.031 C 
ATOM     62  C   UNL     1      -2.114 -10.889  17.029  1.00  0.00     0.037 A 
BRANCH  49  63
ATOM     63  C   UNL     1       4.056 -10.645  17.241  1.00  0.00     0.064 A 
ATOM     64  C   UNL     1       4.882 -10.611  18.376  1.00  0.00     0.173 A 
ATOM     65  C   UNL     1       4.463 -11.441  16.160  1.00  0.00     0.173 A 
ATOM     66  F   UNL     1       4.544  -9.857  19.433  1.00  0.00    -0.203 F 
ATOM     67  C   UNL     1       6.079 -11.320  18.413  1.00  0.00     0.198 A 
ATOM     68  C   UNL     1       5.646 -12.174  16.213  1.00  0.00     0.198 A 
ATOM     69  F   UNL     1       3.709 -11.515  15.053  1.00  0.00    -0.203 F 
ATOM     70  F   UNL     1       6.875 -11.232  19.488  1.00  0.00    -0.200 F 
ATOM     71  C   UNL     1       6.457 -12.107  17.336  1.00  0.00     0.200 A 
ATOM     72  F   UNL     1       6.003 -12.944  15.175  1.00  0.00    -0.200 F 
ATOM     73  F   UNL     1       7.606 -12.795  17.376  1.00  0.00    -0.200 F 
ENDBRANCH  49  63
BRANCH  50  74
ATOM     74  C   UNL     1      -4.338  -5.274  16.584  1.00  0.00     0.064 A 
ATOM     75  C   UNL     1      -5.264  -5.218  17.635  1.00  0.00     0.173 A 
ATOM     76  C   UNL     1      -4.637  -4.565  15.412  1.00  0.00     0.173 A 
ATOM     77  F   UNL     1      -5.031  -5.897  18.768  1.00  0.00    -0.203 F 
ATOM     78  C   UNL     1      -6.451  -4.501  17.511  1.00  0.00     0.198 A 
ATOM     79  C   UNL     1      -5.812  -3.824  15.299  1.00  0.00     0.198 A 
ATOM     80  F   UNL     1      -3.782  -4.583  14.379  1.00  0.00    -0.203 F 
ATOM     81  F   UNL     1      -7.340  -4.502  18.513  1.00  0.00    -0.200 F 
ATOM     82  C   UNL     1      -6.722  -3.799  16.345  1.00  0.00     0.200 A 
ATOM     83  F   UNL     1      -6.062  -3.136  14.177  1.00  0.00    -0.200 F 
ATOM     84  F   UNL     1      -7.862  -3.106  16.227  1.00  0.00    -0.200 F 
ENDBRANCH  50  74
BRANCH  62  85
ATOM     85  C   UNL     1      -3.005 -12.096  17.077  1.00  0.00     0.064 A 
ATOM     86  C   UNL     1      -3.699 -12.544  15.944  1.00  0.00     0.173 A 
ATOM     87  C   UNL     1      -3.136 -12.835  18.263  1.00  0.00     0.173 A 
ATOM     88  F   UNL     1      -3.620 -11.863  14.790  1.00  0.00    -0.203 F 
ATOM     89  C   UNL     1      -4.512 -13.673  16.002  1.00  0.00     0.198 A 
ATOM     90  C   UNL     1      -3.924 -13.981  18.310  1.00  0.00     0.198 A 
ATOM     91  F   UNL     1      -2.488 -12.452  19.373  1.00  0.00    -0.203 F 
ATOM     92  F   UNL     1      -5.203 -14.056  14.920  1.00  0.00    -0.200 F 
ATOM     93  C   UNL     1      -4.617 -14.395  17.182  1.00  0.00     0.200 A 
ATOM     94  F   UNL     1      -4.014 -14.685  19.447  1.00  0.00    -0.200 F 
ATOM     95  F   UNL     1      -5.393 -15.486  17.235  1.00  0.00    -0.200 F 
ENDBRANCH  62  85
ENDBRANCH  36  37
ENDBRANCH  28  31
ENDBRANCH  26  27
ENDBRANCH  25  26
ENDBRANCH  24  25
ENDBRANCH  23  24
ENDBRANCH   1  23
TORSDOF 17
