REMARK SMILES C/C=C(\C)[C@@H]1C=C[C@@H]2C[C@H](C)C[C@H](C)[C@@H]2[C@@H]1C(=O)C1=C(NCCCCCCNC(=O)c2ccc(-c3c4nc(c(-c5c(F)c(F)c(F)c(F)c5F)c5ccc([nH]5)c(-c5c(F)c(F)c(F)c(F)c5F)c5nc(c(-c6c(F)c(F)c(F)c(F)c6F)c6ccc3[nH]6)C=C5)C=C4)cc2)[C@H](C[C@](C)(O)C(=O)[O-])NC1=O
REMARK SMILES IDX 24 1 23 2 22 3 21 4 20 6 19 7 103 8 94 9 102 10 104 11 17 13
REMARK SMILES IDX 18 14 16 15 5 16 6 17 7 18 15 19 8 20 13 21 9 22 12 23 14 24
REMARK SMILES IDX 10 25 11 26 3 27 1 28 2 29 4 30 95 31 96 32 97 33 98 34
REMARK SMILES IDX 99 36 100 37 101 38 25 39 26 40 27 41 28 42 29 43 30 45
REMARK SMILES IDX 31 46 32 47 93 48 33 49 92 50 34 51 35 52 36 53 86 54 37 55
REMARK SMILES IDX 91 56 85 57 87 58 38 59 90 60 84 61 83 62 39 64 71 65 51 66
REMARK SMILES IDX 70 67 52 68 55 69 69 70 88 71 53 72 54 73 68 75 89 76 56 77
REMARK SMILES IDX 40 78 41 79 49 80 42 81 43 82 47 83 50 84 44 85 45 86 48 87
REMARK SMILES IDX 46 88 72 89 73 90 81 91 74 92 75 93 79 94 82 95 76 96 77 97
REMARK SMILES IDX 80 98 78 99 57 100 58 101 66 102 59 103 60 104 64 105 67 106
REMARK SMILES IDX 61 107 62 108 65 109 63 110
REMARK H PARENT 21 5 102 12 98 35 28 44 87 63 55 74
REMARK Flexibility Score: inf
ROOT
ATOM      1  C   UNL     1      -6.411   3.512   3.258  1.00  0.00     0.002 C 
ENDROOT
BRANCH   1   2
ATOM      2  C   UNL     1      -5.218   4.135   2.524  1.00  0.00     0.021 C 
BRANCH   2   3
ATOM      3  C   UNL     1      -4.511   5.299   3.219  1.00  0.00     0.112 C 
BRANCH   3   4
ATOM      4  N   UNL     1      -3.980   4.846   4.478  1.00  0.00    -0.386 N 
ATOM      5  H   UNL     1      -4.666   4.621   5.147  1.00  0.00     0.160 HD
BRANCH   4   6
ATOM      6  C   UNL     1      -2.686   4.672   4.914  1.00  0.00     0.050 C 
ATOM      7  C   UNL     1      -1.473   5.013   4.405  1.00  0.00     0.104 C 
ATOM      8  C   UNL     1      -0.504   4.420   5.371  1.00  0.00     0.257 C 
ATOM      9  C   UNL     1      -2.578   3.978   6.273  1.00  0.00     0.133 C 
ATOM     10  N   UNL     1      -1.187   3.707   6.310  1.00  0.00    -0.343 N 
ATOM     11  O   UNL     1       0.712   4.501   5.438  1.00  0.00    -0.269 OA
ATOM     12  H   UNL     1      -0.765   3.078   6.939  1.00  0.00     0.164 HD
BRANCH   7  13
ATOM     13  C   UNL     1      -1.246   6.071   3.357  1.00  0.00     0.174 C 
ATOM     14  O   UNL     1      -1.742   7.185   3.599  1.00  0.00    -0.294 OA
BRANCH  13  15
ATOM     15  C   UNL     1      -0.526   5.902   1.973  1.00  0.00     0.076 C 
ATOM     16  C   UNL     1      -0.365   4.449   1.468  1.00  0.00     0.048 C 
ATOM     17  C   UNL     1       0.678   3.765   2.323  1.00  0.00    -0.022 C 
ATOM     18  C   UNL     1       1.681   4.469   2.904  1.00  0.00    -0.027 C 
ATOM     19  C   UNL     1       0.894   6.544   1.767  1.00  0.00     0.010 C 
ATOM     20  C   UNL     1       1.881   5.986   2.793  1.00  0.00     0.016 C 
ATOM     21  C   UNL     1       1.066   8.060   1.578  1.00  0.00    -0.010 C 
ATOM     22  C   UNL     1       1.797   6.787   4.114  1.00  0.00     0.011 C 
ATOM     23  C   UNL     1       0.894   8.848   2.863  1.00  0.00     0.007 C 
ATOM     24  C   UNL     1       0.221   8.618   0.435  1.00  0.00     0.008 C 
ATOM     25  C   UNL     1       1.810   8.323   3.976  1.00  0.00    -0.013 C 
ATOM     26  C   UNL     1       1.385   8.969   5.301  1.00  0.00     0.007 C 
BRANCH  16  27
ATOM     27  C   UNL     1      -1.671   3.751   1.076  1.00  0.00    -0.070 C 
ATOM     28  C   UNL     1      -3.692   3.914  -0.547  1.00  0.00     0.035 C 
ATOM     29  C   UNL     1      -2.426   4.347   0.119  1.00  0.00    -0.031 C 
ATOM     30  C   UNL     1      -1.973   2.397   1.645  1.00  0.00     0.040 C 
ENDBRANCH  16  27
ENDBRANCH  13  15
ENDBRANCH   7  13
BRANCH   9  31
ATOM     31  C   UNL     1      -2.973   4.755   7.558  1.00  0.00     0.072 C 
BRANCH  31  32
ATOM     32  C   UNL     1      -3.810   6.048   7.509  1.00  0.00     0.103 C 
ATOM     33  C   UNL     1      -3.065   7.245   6.914  1.00  0.00     0.049 C 
BRANCH  32  34
ATOM     34  O   UNL     1      -4.055   6.399   8.900  1.00  0.00    -0.384 OA
ATOM     35  H   UNL     1      -4.582   7.213   8.940  1.00  0.00     0.211 HD
ENDBRANCH  32  34
BRANCH  32  36
ATOM     36  C   UNL     1      -5.219   5.895   6.922  1.00  0.00     0.073 C 
ATOM     37  O   UNL     1      -6.010   6.801   6.700  1.00  0.00    -0.547 OA
ATOM     38  O   UNL     1      -5.627   4.617   6.753  1.00  0.00    -0.547 OA
ENDBRANCH  32  36
ENDBRANCH  31  32
ENDBRANCH   9  31
ENDBRANCH   4   6
ENDBRANCH   3   4
ENDBRANCH   2   3
ENDBRANCH   1   2
BRANCH   1  39
ATOM     39  C   UNL     1      -7.609   4.436   3.470  1.00  0.00     0.002 C 
BRANCH  39  40
ATOM     40  C   UNL     1      -8.146   5.113   2.208  1.00  0.00     0.021 C 
BRANCH  40  41
ATOM     41  C   UNL     1      -8.367   4.199   1.006  1.00  0.00     0.116 C 
BRANCH  41  42
ATOM     42  N   UNL     1      -9.325   3.139   1.261  1.00  0.00    -0.352 N 
ATOM     43  C   UNL     1     -10.386   2.740   0.487  1.00  0.00     0.251 C 
ATOM     44  H   UNL     1      -9.198   2.641   2.100  1.00  0.00     0.163 HD
ATOM     45  O   UNL     1     -11.168   1.884   0.886  1.00  0.00    -0.269 OA
BRANCH  43  46
ATOM     46  C   UNL     1     -10.600   3.379  -0.827  1.00  0.00     0.039 A 
ATOM     47  C   UNL     1     -11.853   3.929  -1.109  1.00  0.00     0.014 A 
ATOM     48  C   UNL     1      -9.564   3.453  -1.764  1.00  0.00     0.014 A 
ATOM     49  C   UNL     1     -12.054   4.603  -2.313  1.00  0.00     0.010 A 
ATOM     50  C   UNL     1      -9.750   4.175  -2.940  1.00  0.00     0.010 A 
ATOM     51  C   UNL     1     -10.998   4.751  -3.226  1.00  0.00    -0.014 A 
BRANCH  51  52
ATOM     52  C   UNL     1     -11.189   5.494  -4.495  1.00  0.00     0.031 A 
ATOM     53  C   UNL     1     -11.150   4.763  -5.806  1.00  0.00     0.074 A 
ATOM     54  C   UNL     1     -11.335   6.831  -4.470  1.00  0.00     0.049 A 
ATOM     55  N   UNL     1     -11.248   5.238  -7.021  1.00  0.00    -0.248 NA
ATOM     56  C   UNL     1     -10.944   3.309  -5.741  1.00  0.00     0.031 C 
ATOM     57  C   UNL     1     -11.328   7.659  -3.264  1.00  0.00     0.029 A 
ATOM     58  N   UNL     1     -11.502   7.731  -5.493  1.00  0.00    -0.354 N 
ATOM     59  C   UNL     1     -11.101   4.145  -7.864  1.00  0.00     0.074 A 
ATOM     60  C   UNL     1     -10.858   2.992  -7.024  1.00  0.00     0.031 C 
ATOM     61  C   UNL     1     -11.487   8.945  -3.615  1.00  0.00     0.029 A 
ATOM     62  C   UNL     1     -11.589   9.033  -5.069  1.00  0.00     0.049 A 
ATOM     63  H   UNL     1     -11.554   7.467  -6.440  1.00  0.00     0.167 HD
ATOM     64  C   UNL     1     -11.182   4.104  -9.215  1.00  0.00     0.037 A 
ATOM     65  C   UNL     1     -11.732  10.170  -5.776  1.00  0.00     0.037 A 
ATOM     66  C   UNL     1     -11.451   5.247 -10.046  1.00  0.00     0.049 A 
ATOM     67  C   UNL     1     -11.856  10.098  -7.272  1.00  0.00     0.074 A 
ATOM     68  C   UNL     1     -11.630   5.297 -11.417  1.00  0.00     0.029 A 
ATOM     69  N   UNL     1     -11.579   6.547  -9.578  1.00  0.00    -0.354 N 
ATOM     70  N   UNL     1     -11.796   9.048  -8.055  1.00  0.00    -0.248 NA
ATOM     71  C   UNL     1     -12.081  11.364  -7.981  1.00  0.00     0.031 C 
ATOM     72  C   UNL     1     -11.831   6.633 -11.784  1.00  0.00     0.029 A 
ATOM     73  C   UNL     1     -11.815   7.410 -10.637  1.00  0.00     0.049 A 
ATOM     74  H   UNL     1     -11.512   6.817  -8.634  1.00  0.00     0.167 HD
ATOM     75  C   UNL     1     -11.989   9.522  -9.345  1.00  0.00     0.074 A 
ATOM     76  C   UNL     1     -12.185  10.954  -9.238  1.00  0.00     0.031 C 
ATOM     77  C   UNL     1     -12.002   8.833 -10.512  1.00  0.00     0.037 A 
BRANCH  64  78
ATOM     78  C   UNL     1     -10.977   2.771  -9.873  1.00  0.00     0.064 A 
ATOM     79  C   UNL     1     -11.930   1.746  -9.768  1.00  0.00     0.173 A 
ATOM     80  C   UNL     1      -9.818   2.517 -10.620  1.00  0.00     0.173 A 
ATOM     81  F   UNL     1     -13.048   1.936  -9.052  1.00  0.00    -0.203 F 
ATOM     82  C   UNL     1     -11.712   0.503 -10.355  1.00  0.00     0.198 A 
ATOM     83  C   UNL     1      -9.616   1.281 -11.230  1.00  0.00     0.198 A 
ATOM     84  F   UNL     1      -8.878   3.464 -10.755  1.00  0.00    -0.203 F 
ATOM     85  F   UNL     1     -12.609  -0.479 -10.192  1.00  0.00    -0.200 F 
ATOM     86  C   UNL     1     -10.558   0.273 -11.089  1.00  0.00     0.200 A 
ATOM     87  F   UNL     1      -8.505   1.062 -11.946  1.00  0.00    -0.200 F 
ATOM     88  F   UNL     1     -10.348  -0.926 -11.651  1.00  0.00    -0.200 F 
ENDBRANCH  64  78
BRANCH  65  89
ATOM     89  C   UNL     1     -11.793  11.470  -5.062  1.00  0.00     0.064 A 
ATOM     90  C   UNL     1     -13.005  12.157  -4.920  1.00  0.00     0.173 A 
ATOM     91  C   UNL     1     -10.648  12.032  -4.479  1.00  0.00     0.173 A 
ATOM     92  F   UNL     1     -14.122  11.665  -5.477  1.00  0.00    -0.203 F 
ATOM     93  C   UNL     1     -13.070  13.364  -4.228  1.00  0.00     0.198 A 
ATOM     94  C   UNL     1     -10.718  13.228  -3.769  1.00  0.00     0.198 A 
ATOM     95  F   UNL     1      -9.466  11.407  -4.583  1.00  0.00    -0.203 F 
ATOM     96  F   UNL     1     -14.237  14.015  -4.128  1.00  0.00    -0.200 F 
ATOM     97  C   UNL     1     -11.928  13.895  -3.646  1.00  0.00     0.200 A 
ATOM     98  F   UNL     1      -9.615  13.731  -3.198  1.00  0.00    -0.200 F 
ATOM     99  F   UNL     1     -11.993  15.050  -2.970  1.00  0.00    -0.200 F 
ENDBRANCH  65  89
BRANCH  77 100
ATOM    100  C   UNL     1     -12.246   9.616 -11.767  1.00  0.00     0.064 A 
ATOM    101  C   UNL     1     -11.253  10.436 -12.321  1.00  0.00     0.173 A 
ATOM    102  C   UNL     1     -13.470   9.512 -12.444  1.00  0.00     0.173 A 
ATOM    103  F   UNL     1     -10.072  10.579 -11.701  1.00  0.00    -0.203 F 
ATOM    104  C   UNL     1     -11.484  11.139 -13.501  1.00  0.00     0.198 A 
ATOM    105  C   UNL     1     -13.689  10.198 -13.636  1.00  0.00     0.198 A 
ATOM    106  F   UNL     1     -14.450   8.737 -11.955  1.00  0.00    -0.203 F 
ATOM    107  F   UNL     1     -10.534  11.946 -13.994  1.00  0.00    -0.200 F 
ATOM    108  C   UNL     1     -12.698  11.014 -14.160  1.00  0.00     0.200 A 
ATOM    109  F   UNL     1     -14.859  10.069 -14.276  1.00  0.00    -0.200 F 
ATOM    110  F   UNL     1     -12.915  11.686 -15.299  1.00  0.00    -0.200 F 
ENDBRANCH  77 100
ENDBRANCH  51  52
ENDBRANCH  43  46
ENDBRANCH  41  42
ENDBRANCH  40  41
ENDBRANCH  39  40
ENDBRANCH   1  39
TORSDOF 20
