REMARK SMILES [NH3+][C@@H](Cc1c[nH]c2ccccc12)C(=O)N[C@@H](CS)C(=O)N[C@@H](CO)C(=O)NCCCCCCNC(=O)c1ccc(-c2c3nc(c(-c4c(F)c(F)c(F)c(F)c4F)c4ccc([nH]4)c(-c4c(F)c(F)c(F)c(F)c4F)c4nc(c(-c5c(F)c(F)c(F)c(F)c5F)c5ccc2[nH]5)C=C4)C=C3)cc1
REMARK SMILES IDX 28 1 27 2 25 3 26 4 22 6 21 7 19 8 20 9 16 11 15 12 13 13
REMARK SMILES IDX 14 14 2 16 1 17 3 21 4 22 5 23 12 24 6 25 7 26 11 27 8 29
REMARK SMILES IDX 10 30 9 31 17 32 18 33 23 35 24 36 29 38 30 39 31 40 32 41
REMARK SMILES IDX 33 42 34 43 35 44 36 46 37 47 38 48 99 49 39 50 98 51 40 52
REMARK SMILES IDX 41 53 42 54 92 55 43 56 97 57 91 58 93 59 44 60 96 61 90 62
REMARK SMILES IDX 89 63 45 65 77 66 57 67 76 68 58 69 61 70 75 71 94 72 59 73
REMARK SMILES IDX 60 74 74 76 95 77 62 78 46 79 47 80 55 81 48 82 49 83 53 84
REMARK SMILES IDX 56 85 50 86 51 87 54 88 52 89 78 90 79 91 87 92 80 93 81 94
REMARK SMILES IDX 85 95 88 96 82 97 83 98 86 99 84 100 63 101 64 102 72 103
REMARK SMILES IDX 65 104 66 105 70 106 73 107 67 108 68 109 71 110 69 111
REMARK H PARENT 27 5 21 10 15 15 1 18 1 19 1 20 6 28 18 34 24 37 34 45 93 64
REMARK H PARENT 61 75
REMARK Flexibility Score: inf
ROOT
ATOM      1  C   UNL     1      -5.281  -6.211   0.018  1.00  0.00     0.116 C 
ENDROOT
BRANCH   1   2
ATOM      2  N   UNL     1      -5.402  -5.332   1.157  1.00  0.00    -0.354 N 
ATOM      3  C   UNL     1      -5.144  -4.008   1.274  1.00  0.00     0.244 C 
ATOM      4  O   UNL     1      -5.423  -3.467   2.349  1.00  0.00    -0.273 OA
ATOM      5  H   UNL     1      -5.726  -5.764   1.980  1.00  0.00     0.163 HD
BRANCH   3   6
ATOM      6  C   UNL     1      -4.576  -3.175   0.124  1.00  0.00     0.197 C 
BRANCH   6   7
ATOM      7  N   UNL     1      -3.295  -3.635  -0.381  1.00  0.00    -0.340 N 
ATOM      8  C   UNL     1      -2.259  -2.889  -0.824  1.00  0.00     0.244 C 
ATOM      9  O   UNL     1      -1.637  -3.390  -1.771  1.00  0.00    -0.273 OA
ATOM     10  H   UNL     1      -3.165  -4.610  -0.403  1.00  0.00     0.164 HD
BRANCH   8  11
ATOM     11  C   UNL     1      -1.858  -1.510  -0.241  1.00  0.00     0.181 C 
BRANCH  11  12
ATOM     12  N   UNL     1      -1.753  -0.531  -1.302  1.00  0.00    -0.338 N 
ATOM     13  C   UNL     1      -0.624  -0.013  -1.854  1.00  0.00     0.279 C 
ATOM     14  O   UNL     1      -0.791   0.799  -2.774  1.00  0.00    -0.268 OA
ATOM     15  H   UNL     1      -2.604  -0.199  -1.669  1.00  0.00     0.164 HD
BRANCH  13  16
ATOM     16  C   UNL     1       0.819  -0.312  -1.333  1.00  0.00     0.275 C 
BRANCH  16  17
ATOM     17  N   UNL     1       1.085   0.401  -0.068  1.00  0.00    -0.347 N 
ATOM     18  H   UNL     1       2.030   0.190   0.249  1.00  0.00     0.345 HD
ATOM     19  H   UNL     1       0.413   0.101   0.639  1.00  0.00     0.345 HD
ATOM     20  H   UNL     1       0.993   1.406  -0.219  1.00  0.00     0.345 HD
ENDBRANCH  16  17
BRANCH  16  21
ATOM     21  C   UNL     1       1.432  -1.721  -1.452  1.00  0.00     0.113 C 
BRANCH  21  22
ATOM     22  C   UNL     1       1.252  -2.853  -0.454  1.00  0.00    -0.016 A 
ATOM     23  C   UNL     1       1.337  -4.170  -0.883  1.00  0.00     0.087 A 
ATOM     24  C   UNL     1       0.941  -2.933   0.962  1.00  0.00     0.003 A 
ATOM     25  N   UNL     1       0.918  -4.996   0.115  1.00  0.00    -0.361 N 
ATOM     26  C   UNL     1       0.570  -4.260   1.217  1.00  0.00     0.046 A 
ATOM     27  C   UNL     1       0.787  -2.023   2.035  1.00  0.00     0.010 A 
ATOM     28  H   UNL     1       0.872  -5.978   0.053  1.00  0.00     0.166 HD
ATOM     29  C   UNL     1      -0.055  -4.679   2.400  1.00  0.00     0.026 A 
ATOM     30  C   UNL     1       0.165  -2.424   3.229  1.00  0.00     0.001 A 
ATOM     31  C   UNL     1      -0.282  -3.728   3.392  1.00  0.00     0.002 A 
ENDBRANCH  21  22
ENDBRANCH  16  21
ENDBRANCH  13  16
ENDBRANCH  11  12
BRANCH  11  32
ATOM     32  C   UNL     1      -2.369  -0.971   1.102  1.00  0.00     0.101 C 
BRANCH  32  33
ATOM     33  S   UNL     1      -3.611   0.377   1.014  1.00  0.00    -0.177 SA
ATOM     34  H   UNL     1      -3.053   1.470   0.429  1.00  0.00     0.102 HD
ENDBRANCH  32  33
ENDBRANCH  11  32
ENDBRANCH   8  11
ENDBRANCH   6   7
BRANCH   6  35
ATOM     35  C   UNL     1      -5.583  -2.895  -1.000  1.00  0.00     0.191 C 
BRANCH  35  36
ATOM     36  O   UNL     1      -5.689  -3.962  -1.940  1.00  0.00    -0.394 OA
ATOM     37  H   UNL     1      -4.832  -4.095  -2.375  1.00  0.00     0.210 HD
ENDBRANCH  35  36
ENDBRANCH   6  35
ENDBRANCH   3   6
ENDBRANCH   1   2
BRANCH   1  38
ATOM     38  C   UNL     1      -4.616  -7.524   0.410  1.00  0.00     0.021 C 
BRANCH  38  39
ATOM     39  C   UNL     1      -5.416  -8.349   1.422  1.00  0.00     0.002 C 
BRANCH  39  40
ATOM     40  C   UNL     1      -6.889  -8.556   1.058  1.00  0.00     0.002 C 
BRANCH  40  41
ATOM     41  C   UNL     1      -7.131  -9.112  -0.346  1.00  0.00     0.021 C 
BRANCH  41  42
ATOM     42  C   UNL     1      -6.380 -10.402  -0.641  1.00  0.00     0.116 C 
BRANCH  42  43
ATOM     43  N   UNL     1      -6.775 -11.470   0.261  1.00  0.00    -0.352 N 
ATOM     44  C   UNL     1      -7.271 -12.706  -0.051  1.00  0.00     0.251 C 
ATOM     45  H   UNL     1      -6.672 -11.280   1.221  1.00  0.00     0.163 HD
ATOM     46  O   UNL     1      -7.777 -13.418   0.816  1.00  0.00    -0.269 OA
BRANCH  44  47
ATOM     47  C   UNL     1      -7.208 -13.170  -1.448  1.00  0.00     0.039 A 
ATOM     48  C   UNL     1      -8.348 -13.724  -2.032  1.00  0.00     0.014 A 
ATOM     49  C   UNL     1      -6.028 -13.026  -2.185  1.00  0.00     0.014 A 
ATOM     50  C   UNL     1      -8.320 -14.088  -3.377  1.00  0.00     0.010 A 
ATOM     51  C   UNL     1      -6.027 -13.312  -3.544  1.00  0.00     0.010 A 
ATOM     52  C   UNL     1      -7.170 -13.854  -4.151  1.00  0.00    -0.014 A 
BRANCH  52  53
ATOM     53  C   UNL     1      -7.141 -14.177  -5.598  1.00  0.00     0.031 A 
ATOM     54  C   UNL     1      -6.193 -15.222  -6.113  1.00  0.00     0.074 A 
ATOM     55  C   UNL     1      -7.923 -13.487  -6.449  1.00  0.00     0.049 A 
ATOM     56  N   UNL     1      -5.968 -15.600  -7.346  1.00  0.00    -0.248 NA
ATOM     57  C   UNL     1      -5.366 -15.916  -5.113  1.00  0.00     0.031 C 
ATOM     58  C   UNL     1      -8.852 -12.421  -6.069  1.00  0.00     0.029 A 
ATOM     59  N   UNL     1      -8.056 -13.573  -7.812  1.00  0.00    -0.354 N 
ATOM     60  C   UNL     1      -4.973 -16.565  -7.269  1.00  0.00     0.074 A 
ATOM     61  C   UNL     1      -4.591 -16.671  -5.878  1.00  0.00     0.031 C 
ATOM     62  C   UNL     1      -9.477 -11.970  -7.168  1.00  0.00     0.029 A 
ATOM     63  C   UNL     1      -8.961 -12.681  -8.334  1.00  0.00     0.049 A 
ATOM     64  H   UNL     1      -7.551 -14.213  -8.363  1.00  0.00     0.167 HD
ATOM     65  C   UNL     1      -4.445 -17.313  -8.265  1.00  0.00     0.037 A 
ATOM     66  C   UNL     1      -9.324 -12.457  -9.611  1.00  0.00     0.037 A 
ATOM     67  C   UNL     1      -4.842 -17.213  -9.645  1.00  0.00     0.049 A 
ATOM     68  C   UNL     1      -8.698 -13.281 -10.703  1.00  0.00     0.074 A 
ATOM     69  C   UNL     1      -4.409 -17.963 -10.724  1.00  0.00     0.029 A 
ATOM     70  N   UNL     1      -5.763 -16.299 -10.137  1.00  0.00    -0.354 N 
ATOM     71  N   UNL     1      -7.810 -14.241 -10.611  1.00  0.00    -0.248 NA
ATOM     72  C   UNL     1      -9.127 -12.992 -12.078  1.00  0.00     0.031 C 
ATOM     73  C   UNL     1      -5.022 -17.463 -11.877  1.00  0.00     0.029 A 
ATOM     74  C   UNL     1      -5.887 -16.444 -11.509  1.00  0.00     0.049 A 
ATOM     75  H   UNL     1      -6.255 -15.643  -9.591  1.00  0.00     0.167 HD
ATOM     76  C   UNL     1      -7.596 -14.690 -11.908  1.00  0.00     0.074 A 
ATOM     77  C   UNL     1      -8.461 -13.908 -12.767  1.00  0.00     0.031 C 
ATOM     78  C   UNL     1      -6.758 -15.660 -12.348  1.00  0.00     0.037 A 
BRANCH  65  79
ATOM     79  C   UNL     1      -3.378 -18.305  -7.900  1.00  0.00     0.064 A 
ATOM     80  C   UNL     1      -3.662 -19.445  -7.130  1.00  0.00     0.173 A 
ATOM     81  C   UNL     1      -2.060 -18.133  -8.351  1.00  0.00     0.173 A 
ATOM     82  F   UNL     1      -4.902 -19.652  -6.663  1.00  0.00    -0.203 F 
ATOM     83  C   UNL     1      -2.662 -20.356  -6.800  1.00  0.00     0.198 A 
ATOM     84  C   UNL     1      -1.070 -19.064  -8.048  1.00  0.00     0.198 A 
ATOM     85  F   UNL     1      -1.733 -17.065  -9.093  1.00  0.00    -0.203 F 
ATOM     86  F   UNL     1      -2.946 -21.406  -6.018  1.00  0.00    -0.200 F 
ATOM     87  C   UNL     1      -1.369 -20.169  -7.266  1.00  0.00     0.200 A 
ATOM     88  F   UNL     1       0.175 -18.890  -8.511  1.00  0.00    -0.200 F 
ATOM     89  F   UNL     1      -0.409 -21.051  -6.954  1.00  0.00    -0.200 F 
ENDBRANCH  65  79
BRANCH  66  90
ATOM     90  C   UNL     1     -10.341 -11.418  -9.925  1.00  0.00     0.064 A 
ATOM     91  C   UNL     1     -11.601 -11.772 -10.426  1.00  0.00     0.173 A 
ATOM     92  C   UNL     1     -10.073 -10.054  -9.740  1.00  0.00     0.173 A 
ATOM     93  F   UNL     1     -11.899 -13.062 -10.637  1.00  0.00    -0.203 F 
ATOM     94  C   UNL     1     -12.545 -10.801 -10.754  1.00  0.00     0.198 A 
ATOM     95  C   UNL     1     -11.029  -9.085 -10.038  1.00  0.00     0.198 A 
ATOM     96  F   UNL     1      -8.885  -9.661  -9.258  1.00  0.00    -0.203 F 
ATOM     97  F   UNL     1     -13.722 -11.165 -11.280  1.00  0.00    -0.200 F 
ATOM     98  C   UNL     1     -12.260  -9.459 -10.555  1.00  0.00     0.200 A 
ATOM     99  F   UNL     1     -10.756  -7.790  -9.828  1.00  0.00    -0.200 F 
ATOM    100  F   UNL     1     -13.169  -8.525 -10.867  1.00  0.00    -0.200 F 
ENDBRANCH  66  90
BRANCH  78 101
ATOM    101  C   UNL     1      -6.758 -15.956 -13.821  1.00  0.00     0.064 A 
ATOM    102  C   UNL     1      -6.219 -15.058 -14.754  1.00  0.00     0.173 A 
ATOM    103  C   UNL     1      -7.263 -17.175 -14.299  1.00  0.00     0.173 A 
ATOM    104  F   UNL     1      -5.737 -13.873 -14.350  1.00  0.00    -0.203 F 
ATOM    105  C   UNL     1      -6.208 -15.360 -16.113  1.00  0.00     0.198 A 
ATOM    106  C   UNL     1      -7.218 -17.488 -15.654  1.00  0.00     0.198 A 
ATOM    107  F   UNL     1      -7.783 -18.073 -13.448  1.00  0.00    -0.203 F 
ATOM    108  F   UNL     1      -5.733 -14.466 -16.991  1.00  0.00    -0.200 F 
ATOM    109  C   UNL     1      -6.699 -16.577 -16.561  1.00  0.00     0.200 A 
ATOM    110  F   UNL     1      -7.677 -18.672 -16.083  1.00  0.00    -0.200 F 
ATOM    111  F   UNL     1      -6.676 -16.870 -17.869  1.00  0.00    -0.200 F 
ENDBRANCH  78 101
ENDBRANCH  52  53
ENDBRANCH  44  47
ENDBRANCH  42  43
ENDBRANCH  41  42
ENDBRANCH  40  41
ENDBRANCH  39  40
ENDBRANCH  38  39
ENDBRANCH   1  38
TORSDOF 24
