REMARK SMILES O=C(NCCCCCCNC(=O)c1ccc(S(=O)(=O)N[C@@H]2CC[N@@H+]3CCC[C@H]23)cc1)c1ccc(-c2c3nc(c(-c4c(F)c(F)c(F)c(F)c4F)c4ccc([nH]4)c(-c4c(F)c(F)c(F)c(F)c4F)c4nc(c(-c5c(F)c(F)c(F)c(F)c5F)c5ccc2[nH]5)C=C4)C=C3)cc1
REMARK SMILES IDX 7 1 6 2 5 3 4 4 3 5 1 6 2 7 31 9 32 10 93 11 33 12 92 13
REMARK SMILES IDX 34 14 35 15 36 16 86 17 37 18 91 19 85 20 87 21 38 22 90 23
REMARK SMILES IDX 84 24 83 25 39 27 71 28 51 29 70 30 52 31 55 32 69 33 88 34
REMARK SMILES IDX 53 35 54 36 68 38 89 39 56 40 40 41 41 42 49 43 42 44 43 45
REMARK SMILES IDX 47 46 50 47 44 48 45 49 48 50 46 51 72 52 73 53 81 54 74 55
REMARK SMILES IDX 75 56 79 57 82 58 76 59 77 60 80 61 78 62 57 63 58 64 66 65
REMARK SMILES IDX 59 66 60 67 64 68 67 69 61 70 62 71 65 72 63 73 8 74 9 75
REMARK SMILES IDX 10 76 11 77 12 79 13 80 14 81 30 82 15 83 29 84 16 85 17 86
REMARK SMILES IDX 18 87 19 88 20 89 21 91 22 92 28 93 23 94 24 95 27 96 25 97
REMARK SMILES IDX 26 99
REMARK H PARENT 3 8 87 26 55 37 10 78 20 90 24 98
REMARK Flexibility Score: inf
ROOT
ATOM      1  C   UNL     1       4.275   1.244   4.180  1.00  0.00     0.002 C 
ENDROOT
BRANCH   1   2
ATOM      2  C   UNL     1       3.852   2.274   3.128  1.00  0.00     0.002 C 
BRANCH   2   3
ATOM      3  C   UNL     1       4.400   2.076   1.714  1.00  0.00     0.021 C 
BRANCH   3   4
ATOM      4  C   UNL     1       4.199   0.693   1.111  1.00  0.00     0.116 C 
BRANCH   4   5
ATOM      5  N   UNL     1       2.801   0.349   0.951  1.00  0.00    -0.352 N 
ATOM      6  O   UNL     1       0.928  -0.236  -0.156  1.00  0.00    -0.269 OA
ATOM      7  C   UNL     1       2.150  -0.124  -0.159  1.00  0.00     0.251 C 
ATOM      8  H   UNL     1       2.241   0.472   1.751  1.00  0.00     0.163 HD
BRANCH   7   9
ATOM      9  C   UNL     1       2.916  -0.481  -1.373  1.00  0.00     0.039 A 
ATOM     10  C   UNL     1       4.080  -1.253  -1.298  1.00  0.00     0.014 A 
ATOM     11  C   UNL     1       2.428  -0.067  -2.616  1.00  0.00     0.014 A 
ATOM     12  C   UNL     1       4.803  -1.533  -2.454  1.00  0.00     0.010 A 
ATOM     13  C   UNL     1       3.120  -0.403  -3.782  1.00  0.00     0.010 A 
ATOM     14  C   UNL     1       4.319  -1.129  -3.708  1.00  0.00    -0.014 A 
BRANCH  14  15
ATOM     15  C   UNL     1       5.020  -1.555  -4.943  1.00  0.00     0.031 A 
ATOM     16  C   UNL     1       5.708  -0.560  -5.830  1.00  0.00     0.074 A 
ATOM     17  C   UNL     1       5.010  -2.862  -5.267  1.00  0.00     0.049 A 
ATOM     18  N   UNL     1       6.337  -0.761  -6.961  1.00  0.00    -0.248 NA
ATOM     19  C   UNL     1       5.680   0.846  -5.400  1.00  0.00     0.031 C 
ATOM     20  C   UNL     1       4.351  -3.915  -4.491  1.00  0.00     0.029 A 
ATOM     21  N   UNL     1       5.563  -3.529  -6.330  1.00  0.00    -0.354 N 
ATOM     22  C   UNL     1       6.763   0.489  -7.387  1.00  0.00     0.074 A 
ATOM     23  C   UNL     1       6.307   1.448  -6.403  1.00  0.00     0.031 C 
ATOM     24  C   UNL     1       4.556  -5.096  -5.090  1.00  0.00     0.029 A 
ATOM     25  C   UNL     1       5.315  -4.879  -6.316  1.00  0.00     0.049 A 
ATOM     26  H   UNL     1       6.087  -3.083  -7.033  1.00  0.00     0.167 HD
ATOM     27  C   UNL     1       7.475   0.800  -8.496  1.00  0.00     0.037 A 
ATOM     28  C   UNL     1       5.642  -5.835  -7.205  1.00  0.00     0.037 A 
ATOM     29  C   UNL     1       7.945  -0.163  -9.459  1.00  0.00     0.049 A 
ATOM     30  C   UNL     1       6.417  -5.456  -8.433  1.00  0.00     0.074 A 
ATOM     31  C   UNL     1       8.736   0.047 -10.575  1.00  0.00     0.029 A 
ATOM     32  N   UNL     1       7.659  -1.520  -9.422  1.00  0.00    -0.354 N 
ATOM     33  N   UNL     1       6.861  -4.278  -8.797  1.00  0.00    -0.248 NA
ATOM     34  C   UNL     1       6.729  -6.536  -9.378  1.00  0.00     0.031 C 
ATOM     35  C   UNL     1       8.892  -1.176 -11.238  1.00  0.00     0.029 A 
ATOM     36  C   UNL     1       8.232  -2.154 -10.513  1.00  0.00     0.049 A 
ATOM     37  H   UNL     1       7.128  -1.967  -8.724  1.00  0.00     0.167 HD
ATOM     38  C   UNL     1       7.511  -4.473 -10.006  1.00  0.00     0.074 A 
ATOM     39  C   UNL     1       7.421  -5.888 -10.305  1.00  0.00     0.031 C 
ATOM     40  C   UNL     1       8.122  -3.561 -10.799  1.00  0.00     0.037 A 
BRANCH  27  41
ATOM     41  C   UNL     1       7.786   2.246  -8.745  1.00  0.00     0.064 A 
ATOM     42  C   UNL     1       8.763   2.927  -8.004  1.00  0.00     0.173 A 
ATOM     43  C   UNL     1       7.145   2.940  -9.782  1.00  0.00     0.173 A 
ATOM     44  F   UNL     1       9.398   2.309  -6.997  1.00  0.00    -0.203 F 
ATOM     45  C   UNL     1       9.076   4.255  -8.283  1.00  0.00     0.198 A 
ATOM     46  C   UNL     1       7.475   4.262 -10.072  1.00  0.00     0.198 A 
ATOM     47  F   UNL     1       6.207   2.332 -10.524  1.00  0.00    -0.203 F 
ATOM     48  F   UNL     1       9.992   4.896  -7.544  1.00  0.00    -0.200 F 
ATOM     49  C   UNL     1       8.437   4.919  -9.320  1.00  0.00     0.200 A 
ATOM     50  F   UNL     1       6.864   4.899 -11.080  1.00  0.00    -0.200 F 
ATOM     51  F   UNL     1       8.747   6.194  -9.593  1.00  0.00    -0.200 F 
ENDBRANCH  27  41
BRANCH  28  52
ATOM     52  C   UNL     1       5.223  -7.237  -6.960  1.00  0.00     0.064 A 
ATOM     53  C   UNL     1       6.160  -8.219  -6.613  1.00  0.00     0.173 A 
ATOM     54  C   UNL     1       3.876  -7.616  -7.043  1.00  0.00     0.173 A 
ATOM     55  F   UNL     1       7.462  -7.906  -6.541  1.00  0.00    -0.203 F 
ATOM     56  C   UNL     1       5.765  -9.532  -6.367  1.00  0.00     0.198 A 
ATOM     57  C   UNL     1       3.479  -8.923  -6.771  1.00  0.00     0.198 A 
ATOM     58  F   UNL     1       2.942  -6.710  -7.367  1.00  0.00    -0.203 F 
ATOM     59  F   UNL     1       6.684 -10.460  -6.067  1.00  0.00    -0.200 F 
ATOM     60  C   UNL     1       4.424  -9.881  -6.438  1.00  0.00     0.200 A 
ATOM     61  F   UNL     1       2.181  -9.252  -6.827  1.00  0.00    -0.200 F 
ATOM     62  F   UNL     1       4.044 -11.142  -6.190  1.00  0.00    -0.200 F 
ENDBRANCH  28  52
BRANCH  40  63
ATOM     63  C   UNL     1       8.745  -4.070 -12.063  1.00  0.00     0.064 A 
ATOM     64  C   UNL     1       7.960  -4.425 -13.169  1.00  0.00     0.173 A 
ATOM     65  C   UNL     1      10.139  -4.174 -12.181  1.00  0.00     0.173 A 
ATOM     66  F   UNL     1       6.622  -4.359 -13.096  1.00  0.00    -0.203 F 
ATOM     67  C   UNL     1       8.548  -4.883 -14.344  1.00  0.00     0.198 A 
ATOM     68  C   UNL     1      10.724  -4.611 -13.365  1.00  0.00     0.198 A 
ATOM     69  F   UNL     1      10.931  -3.844 -11.150  1.00  0.00    -0.203 F 
ATOM     70  F   UNL     1       7.778  -5.254 -15.377  1.00  0.00    -0.200 F 
ATOM     71  C   UNL     1       9.929  -4.970 -14.444  1.00  0.00     0.200 A 
ATOM     72  F   UNL     1      12.059  -4.687 -13.463  1.00  0.00    -0.200 F 
ATOM     73  F   UNL     1      10.494  -5.407 -15.577  1.00  0.00    -0.200 F 
ENDBRANCH  40  63
ENDBRANCH  14  15
ENDBRANCH   7   9
ENDBRANCH   4   5
ENDBRANCH   3   4
ENDBRANCH   2   3
ENDBRANCH   1   2
BRANCH   1  74
ATOM     74  C   UNL     1       5.764   0.906   4.240  1.00  0.00     0.021 C 
BRANCH  74  75
ATOM     75  C   UNL     1       6.702   2.098   4.333  1.00  0.00     0.116 C 
BRANCH  75  76
ATOM     76  N   UNL     1       6.660   2.748   5.626  1.00  0.00    -0.352 N 
ATOM     77  C   UNL     1       7.705   3.037   6.467  1.00  0.00     0.251 C 
ATOM     78  H   UNL     1       5.767   3.016   5.943  1.00  0.00     0.163 HD
ATOM     79  O   UNL     1       7.496   3.474   7.595  1.00  0.00    -0.269 OA
BRANCH  77  80
ATOM     80  C   UNL     1       9.098   2.804   6.019  1.00  0.00     0.039 A 
ATOM     81  C   UNL     1       9.988   2.171   6.893  1.00  0.00     0.015 A 
ATOM     82  C   UNL     1       9.531   3.226   4.755  1.00  0.00     0.015 A 
ATOM     83  C   UNL     1      11.315   1.963   6.506  1.00  0.00     0.022 A 
ATOM     84  C   UNL     1      10.832   2.958   4.339  1.00  0.00     0.022 A 
ATOM     85  C   UNL     1      11.737   2.392   5.243  1.00  0.00     0.082 A 
BRANCH  85  86
ATOM     86  S   UNL     1      13.439   2.264   4.760  1.00  0.00     0.241 S 
ATOM     87  O   UNL     1      14.160   1.643   5.856  1.00  0.00    -0.207 OA
ATOM     88  O   UNL     1      13.465   1.706   3.432  1.00  0.00    -0.207 OA
BRANCH  86  89
ATOM     89  N   UNL     1      14.069   3.828   4.703  1.00  0.00    -0.202 NA
ATOM     90  H   UNL     1      14.690   3.846   3.894  1.00  0.00     0.141 HD
BRANCH  89  91
ATOM     91  C   UNL     1      13.245   5.048   4.601  1.00  0.00     0.133 C 
ATOM     92  C   UNL     1      14.133   6.279   4.364  1.00  0.00     0.087 C 
ATOM     93  C   UNL     1      12.486   5.397   5.885  1.00  0.00     0.202 C 
ATOM     94  C   UNL     1      13.695   7.329   5.388  1.00  0.00     0.264 C 
ATOM     95  N   UNL     1      12.399   6.866   5.891  1.00  0.00    -0.331 N 
ATOM     96  C   UNL     1      13.155   5.059   7.212  1.00  0.00     0.072 C 
ATOM     97  C   UNL     1      12.145   7.248   7.290  1.00  0.00     0.262 C 
ATOM     98  H   UNL     1      11.661   7.271   5.315  1.00  0.00     0.348 HD
ATOM     99  C   UNL     1      12.497   6.041   8.159  1.00  0.00     0.068 C 
ENDBRANCH  89  91
ENDBRANCH  86  89
ENDBRANCH  85  86
ENDBRANCH  77  80
ENDBRANCH  75  76
ENDBRANCH  74  75
ENDBRANCH   1  74
TORSDOF 16
