REMARK SMILES CCOc1ccc(-c2csc3ncn([C@H](C)C(=O)NCCCCCCNC(=O)c4ccc(-c5c6nc(c(-c7c(F)c(F)c(F)c(F)c7F)c7ccc([nH]7)c(-c7c(F)c(F)c(F)c(F)c7F)c7nc(c(-c8c(F)c(F)c(F)c(F)c8F)c8ccc5[nH]8)C=C7)C=C6)cc4)c(=O)c23)cc1
REMARK SMILES IDX 21 1 20 2 19 3 17 4 18 5 15 7 16 8 14 9 8 10 9 11 94 12
REMARK SMILES IDX 10 13 11 14 92 15 12 16 93 17 13 18 7 19 4 20 5 21 96 22
REMARK SMILES IDX 6 23 95 24 3 25 2 26 1 27 22 28 23 29 24 30 25 31 26 32
REMARK SMILES IDX 27 33 28 35 29 36 30 37 91 38 31 39 90 40 32 41 33 42 34 43
REMARK SMILES IDX 84 44 35 45 89 46 83 47 85 48 36 49 88 50 82 51 81 52 37 54
REMARK SMILES IDX 69 55 49 56 68 57 50 58 53 59 67 60 86 61 51 62 52 63 66 65
REMARK SMILES IDX 87 66 54 67 38 68 39 69 47 70 40 71 41 72 45 73 48 74 42 75
REMARK SMILES IDX 43 76 46 77 44 78 70 79 71 80 79 81 72 82 73 83 77 84 80 85
REMARK SMILES IDX 74 86 75 87 78 88 76 89 55 90 56 91 64 92 57 93 58 94 62 95
REMARK SMILES IDX 65 96 59 97 60 98 63 99 61 100
REMARK H PARENT 19 6 26 34 85 53 53 64
REMARK Flexibility Score: inf
ROOT
ATOM      1  C   UNL     1       5.197   2.609   0.728  1.00  0.00     0.021 C 
ENDROOT
BRANCH   1   2
ATOM      2  C   UNL     1       5.604   4.053   0.509  1.00  0.00     0.116 C 
BRANCH   2   3
ATOM      3  N   UNL     1       6.434   4.647   1.528  1.00  0.00    -0.354 N 
ATOM      4  C   UNL     1       7.265   5.731   1.432  1.00  0.00     0.242 C 
ATOM      5  O   UNL     1       7.596   6.269   2.494  1.00  0.00    -0.273 OA
ATOM      6  H   UNL     1       6.398   4.215   2.412  1.00  0.00     0.163 HD
BRANCH   4   7
ATOM      7  C   UNL     1       7.734   6.316   0.072  1.00  0.00     0.177 C 
ATOM      8  C   UNL     1       8.272   5.292  -0.928  1.00  0.00     0.042 C 
BRANCH   7   9
ATOM      9  N   UNL     1       6.818   7.310  -0.524  1.00  0.00    -0.286 N 
ATOM     10  C   UNL     1       6.370  10.893  -1.673  1.00  0.00     0.007 A 
ATOM     11  C   UNL     1       5.173  11.360  -2.189  1.00  0.00     0.076 A 
ATOM     12  C   UNL     1       6.271   9.518  -1.288  1.00  0.00     0.085 A 
ATOM     13  S   UNL     1       3.961  10.162  -2.222  1.00  0.00    -0.123 S 
ATOM     14  C   UNL     1       5.034   8.998  -1.601  1.00  0.00     0.131 A 
ATOM     15  C   UNL     1       7.252   8.626  -0.684  1.00  0.00     0.263 A 
ATOM     16  N   UNL     1       4.664   7.706  -1.498  1.00  0.00    -0.227 NA
ATOM     17  O   UNL     1       8.392   8.998  -0.393  1.00  0.00    -0.268 OA
ATOM     18  C   UNL     1       5.583   6.942  -1.009  1.00  0.00     0.204 A 
BRANCH  10  19
ATOM     19  C   UNL     1       7.513  11.782  -1.582  1.00  0.00    -0.016 A 
ATOM     20  C   UNL     1       9.666  13.549  -1.415  1.00  0.00     0.119 A 
ATOM     21  C   UNL     1       9.807  12.353  -2.117  1.00  0.00     0.047 A 
ATOM     22  C   UNL     1       8.443  13.881  -0.839  1.00  0.00     0.047 A 
ATOM     23  C   UNL     1       8.729  11.467  -2.202  1.00  0.00     0.012 A 
ATOM     24  C   UNL     1       7.378  12.991  -0.897  1.00  0.00     0.012 A 
BRANCH  20  25
ATOM     25  O   UNL     1      10.713  14.428  -1.415  1.00  0.00    -0.494 OA
BRANCH  25  26
ATOM     26  C   UNL     1      11.256  14.671  -0.109  1.00  0.00     0.226 C 
ATOM     27  C   UNL     1      10.516  15.770   0.640  1.00  0.00     0.049 C 
ENDBRANCH  25  26
ENDBRANCH  20  25
ENDBRANCH  10  19
ENDBRANCH   7   9
ENDBRANCH   4   7
ENDBRANCH   2   3
ENDBRANCH   1   2
BRANCH   1  28
ATOM     28  C   UNL     1       4.183   2.375   1.846  1.00  0.00     0.002 C 
BRANCH  28  29
ATOM     29  C   UNL     1       2.938   3.276   1.880  1.00  0.00     0.002 C 
BRANCH  29  30
ATOM     30  C   UNL     1       2.111   3.435   0.595  1.00  0.00     0.021 C 
BRANCH  30  31
ATOM     31  C   UNL     1       1.643   2.140  -0.047  1.00  0.00     0.116 C 
BRANCH  31  32
ATOM     32  N   UNL     1       0.792   1.338   0.825  1.00  0.00    -0.352 N 
ATOM     33  C   UNL     1       0.271   0.082   0.586  1.00  0.00     0.251 C 
ATOM     34  H   UNL     1       0.560   1.743   1.691  1.00  0.00     0.163 HD
ATOM     35  O   UNL     1      -0.719  -0.311   1.194  1.00  0.00    -0.269 OA
BRANCH  33  36
ATOM     36  C   UNL     1       0.917  -0.790  -0.413  1.00  0.00     0.039 A 
ATOM     37  C   UNL     1       0.158  -1.618  -1.242  1.00  0.00     0.014 A 
ATOM     38  C   UNL     1       2.308  -0.770  -0.517  1.00  0.00     0.014 A 
ATOM     39  C   UNL     1       0.809  -2.361  -2.224  1.00  0.00     0.010 A 
ATOM     40  C   UNL     1       2.931  -1.375  -1.580  1.00  0.00     0.010 A 
ATOM     41  C   UNL     1       2.197  -2.211  -2.407  1.00  0.00    -0.014 A 
BRANCH  41  42
ATOM     42  C   UNL     1       2.853  -2.789  -3.577  1.00  0.00     0.031 A 
ATOM     43  C   UNL     1       2.185  -2.402  -4.846  1.00  0.00     0.074 A 
ATOM     44  C   UNL     1       4.034  -3.447  -3.546  1.00  0.00     0.049 A 
ATOM     45  N   UNL     1       1.452  -3.160  -5.588  1.00  0.00    -0.248 NA
ATOM     46  C   UNL     1       2.152  -0.983  -5.237  1.00  0.00     0.031 C 
ATOM     47  C   UNL     1       4.928  -3.628  -2.397  1.00  0.00     0.029 A 
ATOM     48  N   UNL     1       4.741  -4.026  -4.562  1.00  0.00    -0.354 N 
ATOM     49  C   UNL     1       1.077  -2.378  -6.675  1.00  0.00     0.074 A 
ATOM     50  C   UNL     1       1.340  -1.017  -6.298  1.00  0.00     0.031 C 
ATOM     51  C   UNL     1       6.139  -4.053  -2.820  1.00  0.00     0.029 A 
ATOM     52  C   UNL     1       6.063  -4.337  -4.241  1.00  0.00     0.049 A 
ATOM     53  H   UNL     1       4.351  -4.208  -5.447  1.00  0.00     0.167 HD
ATOM     54  C   UNL     1       0.918  -2.967  -7.893  1.00  0.00     0.037 A 
ATOM     55  C   UNL     1       7.026  -4.792  -5.083  1.00  0.00     0.037 A 
ATOM     56  C   UNL     1       0.833  -4.402  -7.737  1.00  0.00     0.049 A 
ATOM     57  C   UNL     1       6.334  -5.394  -6.242  1.00  0.00     0.074 A 
ATOM     58  C   UNL     1      -0.044  -5.300  -7.168  1.00  0.00     0.029 A 
ATOM     59  N   UNL     1       2.042  -5.034  -7.847  1.00  0.00    -0.354 N 
ATOM     60  N   UNL     1       5.641  -6.495  -6.173  1.00  0.00    -0.248 NA
ATOM     61  C   UNL     1       6.094  -4.575  -7.421  1.00  0.00     0.031 C 
ATOM     62  C   UNL     1       0.757  -6.397  -6.721  1.00  0.00     0.029 A 
ATOM     63  C   UNL     1       2.082  -6.170  -7.094  1.00  0.00     0.049 A 
ATOM     64  H   UNL     1       2.789  -4.709  -8.400  1.00  0.00     0.167 HD
ATOM     65  C   UNL     1       4.570  -6.271  -7.016  1.00  0.00     0.074 A 
ATOM     66  C   UNL     1       4.997  -5.179  -7.885  1.00  0.00     0.031 C 
ATOM     67  C   UNL     1       3.338  -6.768  -6.699  1.00  0.00     0.037 A 
BRANCH  54  68
ATOM     68  C   UNL     1       1.413  -2.369  -9.204  1.00  0.00     0.064 A 
ATOM     69  C   UNL     1       1.213  -3.108 -10.393  1.00  0.00     0.173 A 
ATOM     70  C   UNL     1       2.356  -1.323  -9.303  1.00  0.00     0.173 A 
ATOM     71  F   UNL     1       0.357  -4.140 -10.419  1.00  0.00    -0.203 F 
ATOM     72  C   UNL     1       1.969  -2.878 -11.547  1.00  0.00     0.198 A 
ATOM     73  C   UNL     1       3.073  -1.066 -10.472  1.00  0.00     0.198 A 
ATOM     74  F   UNL     1       2.719  -0.577  -8.255  1.00  0.00    -0.203 F 
ATOM     75  F   UNL     1       1.842  -3.696 -12.600  1.00  0.00    -0.200 F 
ATOM     76  C   UNL     1       2.905  -1.863 -11.582  1.00  0.00     0.200 A 
ATOM     77  F   UNL     1       3.996  -0.094 -10.474  1.00  0.00    -0.200 F 
ATOM     78  F   UNL     1       3.679  -1.682 -12.660  1.00  0.00    -0.200 F 
ENDBRANCH  54  68
BRANCH  55  79
ATOM     79  C   UNL     1       8.493  -4.560  -5.090  1.00  0.00     0.064 A 
ATOM     80  C   UNL     1       9.346  -5.329  -5.905  1.00  0.00     0.173 A 
ATOM     81  C   UNL     1       9.044  -3.383  -4.551  1.00  0.00     0.173 A 
ATOM     82  F   UNL     1       8.895  -6.449  -6.490  1.00  0.00    -0.203 F 
ATOM     83  C   UNL     1      10.650  -4.917  -6.205  1.00  0.00     0.198 A 
ATOM     84  C   UNL     1      10.347  -2.975  -4.848  1.00  0.00     0.198 A 
ATOM     85  F   UNL     1       8.296  -2.553  -3.811  1.00  0.00    -0.203 F 
ATOM     86  F   UNL     1      11.402  -5.636  -7.051  1.00  0.00    -0.200 F 
ATOM     87  C   UNL     1      11.143  -3.731  -5.690  1.00  0.00     0.200 A 
ATOM     88  F   UNL     1      10.800  -1.806  -4.373  1.00  0.00    -0.200 F 
ATOM     89  F   UNL     1      12.361  -3.294  -6.038  1.00  0.00    -0.200 F 
ENDBRANCH  55  79
BRANCH  67  90
ATOM     90  C   UNL     1       3.292  -7.939  -5.762  1.00  0.00     0.064 A 
ATOM     91  C   UNL     1       3.732  -7.928  -4.427  1.00  0.00     0.173 A 
ATOM     92  C   UNL     1       2.715  -9.124  -6.241  1.00  0.00     0.173 A 
ATOM     93  F   UNL     1       4.214  -6.811  -3.865  1.00  0.00    -0.203 F 
ATOM     94  C   UNL     1       3.647  -9.071  -3.633  1.00  0.00     0.198 A 
ATOM     95  C   UNL     1       2.591 -10.248  -5.433  1.00  0.00     0.198 A 
ATOM     96  F   UNL     1       2.240  -9.180  -7.495  1.00  0.00    -0.203 F 
ATOM     97  F   UNL     1       4.105  -9.049  -2.372  1.00  0.00    -0.200 F 
ATOM     98  C   UNL     1       3.072 -10.227  -4.136  1.00  0.00     0.200 A 
ATOM     99  F   UNL     1       1.993 -11.347  -5.912  1.00  0.00    -0.200 F 
ATOM    100  F   UNL     1       2.965 -11.318  -3.364  1.00  0.00    -0.200 F 
ENDBRANCH  67  90
ENDBRANCH  41  42
ENDBRANCH  33  36
ENDBRANCH  31  32
ENDBRANCH  30  31
ENDBRANCH  29  30
ENDBRANCH  28  29
ENDBRANCH   1  28
TORSDOF 17
