REMARK SMILES C/C=C(\C)[C@@H]1C(C)=C[C@@H]2[C@H]([C@@H]1/C=C/C=C/C(=O)NCCCCCCNC(=O)c1ccc(-c3c4nc(c(-c5c(F)c(F)c(F)c(F)c5F)c5ccc([nH]5)c(-c5c(F)c(F)c(F)c(F)c5F)c5nc(c(-c6c(F)c(F)c(F)c(F)c6F)c6ccc3[nH]6)C=C5)C=C4)cc1)[C@@H](C)CC[C@@H]2O
REMARK SMILES IDX 21 1 20 2 19 3 18 4 16 5 17 6 15 8 14 9 13 10 12 11 11 12
REMARK SMILES IDX 5 13 6 14 7 15 8 16 10 17 9 18 91 19 95 20 92 21 93 22 94 23
REMARK SMILES IDX 3 24 1 25 2 26 4 27 96 28 22 30 23 31 24 32 25 33 26 34
REMARK SMILES IDX 27 36 28 37 29 38 90 39 30 40 89 41 31 42 32 43 33 44 83 45
REMARK SMILES IDX 34 46 88 47 82 48 84 49 35 50 87 51 81 52 80 53 36 55 68 56
REMARK SMILES IDX 48 57 67 58 49 59 52 60 66 61 85 62 50 63 51 64 65 66 86 67
REMARK SMILES IDX 53 68 37 69 38 70 46 71 39 72 40 73 44 74 47 75 41 76 42 77
REMARK SMILES IDX 45 78 43 79 69 80 70 81 78 82 71 83 72 84 76 85 79 86 73 87
REMARK SMILES IDX 74 88 77 89 75 90 54 91 55 92 63 93 56 94 57 95 61 96 64 97
REMARK SMILES IDX 58 98 59 99 62 100 60 101
REMARK H PARENT 18 7 96 29 25 35 84 54 52 65
REMARK Flexibility Score: inf
ROOT
ATOM      1  C   UNL     1       0.093   3.741  10.297  1.00  0.00     0.002 C 
ENDROOT
BRANCH   1   2
ATOM      2  C   UNL     1       0.292   2.871   9.049  1.00  0.00     0.021 C 
BRANCH   2   3
ATOM      3  C   UNL     1      -0.190   3.547   7.763  1.00  0.00     0.116 C 
BRANCH   3   4
ATOM      4  N   UNL     1       0.809   4.489   7.288  1.00  0.00    -0.353 N 
ATOM      5  C   UNL     1       1.621   4.476   6.197  1.00  0.00     0.243 C 
ATOM      6  O   UNL     1       2.367   5.432   5.993  1.00  0.00    -0.270 OA
ATOM      7  H   UNL     1       0.918   5.282   7.861  1.00  0.00     0.163 HD
BRANCH   5   8
ATOM      8  C   UNL     1       1.544   3.393   5.190  1.00  0.00     0.071 C 
ATOM      9  C   UNL     1       1.383   2.094   5.469  1.00  0.00     0.005 C 
BRANCH   9  10
ATOM     10  C   UNL     1       1.189   1.077   4.463  1.00  0.00    -0.004 C 
ATOM     11  C   UNL     1       0.507  -0.044   4.752  1.00  0.00    -0.022 C 
BRANCH  11  12
ATOM     12  C   UNL     1       0.319  -1.220   3.814  1.00  0.00     0.027 C 
ATOM     13  C   UNL     1      -1.163  -1.476   3.301  1.00  0.00     0.047 C 
ATOM     14  C   UNL     1      -1.544  -2.953   3.281  1.00  0.00    -0.069 C 
ATOM     15  C   UNL     1      -2.547  -3.395   2.252  1.00  0.00     0.040 C 
ATOM     16  C   UNL     1      -1.052  -3.800   4.200  1.00  0.00    -0.021 C 
ATOM     17  C   UNL     1       1.019  -2.464   4.473  1.00  0.00     0.009 C 
ATOM     18  C   UNL     1      -0.028  -3.330   5.212  1.00  0.00     0.044 C 
ATOM     19  C   UNL     1       1.861  -3.345   3.487  1.00  0.00    -0.010 C 
ATOM     20  C   UNL     1       0.681  -4.467   5.969  1.00  0.00     0.121 C 
ATOM     21  C   UNL     1       3.017  -2.575   2.834  1.00  0.00     0.008 C 
ATOM     22  C   UNL     1       2.461  -4.577   4.208  1.00  0.00     0.006 C 
ATOM     23  C   UNL     1       1.450  -5.378   5.023  1.00  0.00     0.033 C 
BRANCH  13  24
ATOM     24  C   UNL     1      -2.356  -0.701   3.910  1.00  0.00    -0.070 C 
ATOM     25  C   UNL     1      -4.468   0.658   3.415  1.00  0.00     0.035 C 
ATOM     26  C   UNL     1      -3.121   0.076   3.110  1.00  0.00    -0.031 C 
ATOM     27  C   UNL     1      -2.741  -1.015   5.337  1.00  0.00     0.040 C 
ENDBRANCH  13  24
BRANCH  20  28
ATOM     28  O   UNL     1      -0.233  -5.215   6.766  1.00  0.00    -0.393 OA
ATOM     29  H   UNL     1      -0.888  -5.642   6.193  1.00  0.00     0.210 HD
ENDBRANCH  20  28
ENDBRANCH  11  12
ENDBRANCH   9  10
ENDBRANCH   5   8
ENDBRANCH   3   4
ENDBRANCH   2   3
ENDBRANCH   1   2
BRANCH   1  30
ATOM     30  C   UNL     1      -1.370   4.082  10.613  1.00  0.00     0.002 C 
BRANCH  30  31
ATOM     31  C   UNL     1      -2.298   2.873  10.749  1.00  0.00     0.021 C 
BRANCH  31  32
ATOM     32  C   UNL     1      -1.914   1.918  11.875  1.00  0.00     0.116 C 
BRANCH  32  33
ATOM     33  N   UNL     1      -2.027   2.554  13.179  1.00  0.00    -0.352 N 
ATOM     34  C   UNL     1      -2.775   2.180  14.267  1.00  0.00     0.251 C 
ATOM     35  H   UNL     1      -1.490   3.370  13.297  1.00  0.00     0.163 HD
ATOM     36  O   UNL     1      -2.940   2.955  15.202  1.00  0.00    -0.269 OA
BRANCH  34  37
ATOM     37  C   UNL     1      -3.391   0.838  14.305  1.00  0.00     0.039 A 
ATOM     38  C   UNL     1      -4.707   0.708  14.755  1.00  0.00     0.014 A 
ATOM     39  C   UNL     1      -2.665  -0.291  13.915  1.00  0.00     0.014 A 
ATOM     40  C   UNL     1      -5.312  -0.550  14.766  1.00  0.00     0.010 A 
ATOM     41  C   UNL     1      -3.292  -1.531  13.854  1.00  0.00     0.010 A 
ATOM     42  C   UNL     1      -4.619  -1.674  14.288  1.00  0.00    -0.014 A 
BRANCH  42  43
ATOM     43  C   UNL     1      -5.258  -3.014  14.249  1.00  0.00     0.031 A 
ATOM     44  C   UNL     1      -4.708  -4.133  15.089  1.00  0.00     0.074 A 
ATOM     45  C   UNL     1      -6.292  -3.236  13.415  1.00  0.00     0.049 A 
ATOM     46  N   UNL     1      -5.072  -5.390  15.137  1.00  0.00    -0.248 NA
ATOM     47  C   UNL     1      -3.581  -3.802  15.976  1.00  0.00     0.031 C 
ATOM     48  C   UNL     1      -6.889  -2.240  12.523  1.00  0.00     0.029 A 
ATOM     49  N   UNL     1      -7.017  -4.376  13.172  1.00  0.00    -0.354 N 
ATOM     50  C   UNL     1      -4.215  -5.997  16.046  1.00  0.00     0.074 A 
ATOM     51  C   UNL     1      -3.276  -4.988  16.483  1.00  0.00     0.031 C 
ATOM     52  C   UNL     1      -7.901  -2.806  11.847  1.00  0.00     0.029 A 
ATOM     53  C   UNL     1      -7.998  -4.213  12.224  1.00  0.00     0.049 A 
ATOM     54  H   UNL     1      -6.850  -5.229  13.633  1.00  0.00     0.167 HD
ATOM     55  C   UNL     1      -4.228  -7.275  16.494  1.00  0.00     0.037 A 
ATOM     56  C   UNL     1      -8.868  -5.103  11.710  1.00  0.00     0.037 A 
ATOM     57  C   UNL     1      -5.177  -8.270  16.070  1.00  0.00     0.049 A 
ATOM     58  C   UNL     1      -8.842  -6.524  12.208  1.00  0.00     0.074 A 
ATOM     59  C   UNL     1      -5.302  -9.581  16.497  1.00  0.00     0.029 A 
ATOM     60  N   UNL     1      -6.164  -8.064  15.117  1.00  0.00    -0.354 N 
ATOM     61  N   UNL     1      -8.068  -7.071  13.114  1.00  0.00    -0.248 NA
ATOM     62  C   UNL     1      -9.818  -7.450  11.617  1.00  0.00     0.031 C 
ATOM     63  C   UNL     1      -6.331 -10.182  15.767  1.00  0.00     0.029 A 
ATOM     64  C   UNL     1      -6.888  -9.230  14.928  1.00  0.00     0.049 A 
ATOM     65  H   UNL     1      -6.325  -7.215  14.645  1.00  0.00     0.167 HD
ATOM     66  C   UNL     1      -8.486  -8.390  13.227  1.00  0.00     0.074 A 
ATOM     67  C   UNL     1      -9.591  -8.558  12.307  1.00  0.00     0.031 C 
ATOM     68  C   UNL     1      -7.998  -9.375  14.021  1.00  0.00     0.037 A 
BRANCH  55  69
ATOM     69  C   UNL     1      -3.187  -7.670  17.502  1.00  0.00     0.064 A 
ATOM     70  C   UNL     1      -3.209  -7.174  18.815  1.00  0.00     0.173 A 
ATOM     71  C   UNL     1      -2.183  -8.591  17.167  1.00  0.00     0.173 A 
ATOM     72  F   UNL     1      -4.141  -6.283  19.185  1.00  0.00    -0.203 F 
ATOM     73  C   UNL     1      -2.250  -7.565  19.746  1.00  0.00     0.198 A 
ATOM     74  C   UNL     1      -1.245  -9.004  18.110  1.00  0.00     0.198 A 
ATOM     75  F   UNL     1      -2.118  -9.102  15.928  1.00  0.00    -0.203 F 
ATOM     76  F   UNL     1      -2.264  -7.041  20.980  1.00  0.00    -0.200 F 
ATOM     77  C   UNL     1      -1.274  -8.486  19.396  1.00  0.00     0.200 A 
ATOM     78  F   UNL     1      -0.312  -9.907  17.774  1.00  0.00    -0.200 F 
ATOM     79  F   UNL     1      -0.360  -8.870  20.296  1.00  0.00    -0.200 F 
ENDBRANCH  55  69
BRANCH  56  80
ATOM     80  C   UNL     1      -9.850  -4.679  10.676  1.00  0.00     0.064 A 
ATOM     81  C   UNL     1     -11.224  -4.654  10.954  1.00  0.00     0.173 A 
ATOM     82  C   UNL     1      -9.441  -4.315   9.384  1.00  0.00     0.173 A 
ATOM     83  F   UNL     1     -11.667  -5.012  12.168  1.00  0.00    -0.203 F 
ATOM     84  C   UNL     1     -12.152  -4.314   9.973  1.00  0.00     0.198 A 
ATOM     85  C   UNL     1     -10.368  -3.943   8.413  1.00  0.00     0.198 A 
ATOM     86  F   UNL     1      -8.138  -4.316   9.066  1.00  0.00    -0.203 F 
ATOM     87  F   UNL     1     -13.463  -4.357  10.250  1.00  0.00    -0.200 F 
ATOM     88  C   UNL     1     -11.724  -3.954   8.704  1.00  0.00     0.200 A 
ATOM     89  F   UNL     1      -9.949  -3.580   7.193  1.00  0.00    -0.200 F 
ATOM     90  F   UNL     1     -12.617  -3.628   7.760  1.00  0.00    -0.200 F 
ENDBRANCH  56  80
BRANCH  68  91
ATOM     91  C   UNL     1      -8.689 -10.707  13.972  1.00  0.00     0.064 A 
ATOM     92  C   UNL     1      -8.587 -11.553  12.857  1.00  0.00     0.173 A 
ATOM     93  C   UNL     1      -9.428 -11.161  15.075  1.00  0.00     0.173 A 
ATOM     94  F   UNL     1      -7.904 -11.160  11.771  1.00  0.00    -0.203 F 
ATOM     95  C   UNL     1      -9.223 -12.791  12.839  1.00  0.00     0.198 A 
ATOM     96  C   UNL     1     -10.034 -12.414  15.066  1.00  0.00     0.198 A 
ATOM     97  F   UNL     1      -9.551 -10.395  16.169  1.00  0.00    -0.203 F 
ATOM     98  F   UNL     1      -9.155 -13.561  11.743  1.00  0.00    -0.200 F 
ATOM     99  C   UNL     1      -9.938 -13.224  13.946  1.00  0.00     0.200 A 
ATOM    100  F   UNL     1     -10.710 -12.837  16.143  1.00  0.00    -0.200 F 
ATOM    101  F   UNL     1     -10.542 -14.421  13.929  1.00  0.00    -0.200 F 
ENDBRANCH  68  91
ENDBRANCH  42  43
ENDBRANCH  34  37
ENDBRANCH  32  33
ENDBRANCH  31  32
ENDBRANCH  30  31
ENDBRANCH   1  30
TORSDOF 17
