REMARK SMILES CCOc1ncnc(N[C@@H]2C=C[C@H](C(=O)NCCCCCCNC(=O)c3ccc(-c4c5nc(c(-c6c(F)c(F)c(F)c(F)c6F)c6ccc([nH]6)c(-c6c(F)c(F)c(F)c(F)c6F)c6nc(c(-c7c(F)c(F)c(F)c(F)c7F)c7ccc4[nH]7)C=C6)C=C5)cc3)C2)c1C
REMARK SMILES IDX 18 1 17 2 16 3 14 4 15 5 13 7 10 8 11 9 89 10 12 11 9 12
REMARK SMILES IDX 8 14 4 15 5 16 90 17 6 18 91 19 7 20 3 21 2 22 1 23 19 24
REMARK SMILES IDX 20 25 21 26 22 27 23 28 24 29 25 31 26 32 27 33 88 34 28 35
REMARK SMILES IDX 87 36 29 37 30 38 31 39 81 40 32 41 86 42 80 43 82 44 33 45
REMARK SMILES IDX 85 46 79 47 78 48 34 50 66 51 46 52 65 53 47 54 50 55 64 56
REMARK SMILES IDX 83 57 48 58 49 59 63 61 84 62 51 63 35 64 36 65 44 66 37 67
REMARK SMILES IDX 38 68 42 69 45 70 39 71 40 72 43 73 41 74 67 75 68 76 76 77
REMARK SMILES IDX 69 78 70 79 74 80 77 81 71 82 72 83 75 84 73 85 52 86 53 87
REMARK SMILES IDX 61 88 54 89 55 90 59 91 62 92 56 93 57 94 60 95 58 96
REMARK H PARENT 16 6 9 13 23 30 82 49 50 60
REMARK Flexibility Score: inf
ROOT
ATOM      1  C   UNL     1      10.617   5.334  -0.837  1.00  0.00     0.021 C 
ENDROOT
BRANCH   1   2
ATOM      2  C   UNL     1      10.178   4.478  -2.029  1.00  0.00     0.116 C 
BRANCH   2   3
ATOM      3  N   UNL     1      10.486   3.092  -1.757  1.00  0.00    -0.356 N 
ATOM      4  C   UNL     1       9.665   2.217  -1.096  1.00  0.00     0.227 C 
ATOM      5  O   UNL     1      10.187   1.457  -0.282  1.00  0.00    -0.274 OA
ATOM      6  H   UNL     1      11.354   2.750  -2.072  1.00  0.00     0.163 HD
BRANCH   4   7
ATOM      7  C   UNL     1       8.161   2.296  -1.377  1.00  0.00     0.103 C 
ATOM      8  C   UNL     1       6.834   0.233  -1.576  1.00  0.00     0.104 C 
ATOM      9  C   UNL     1       7.163   0.799  -2.911  1.00  0.00    -0.006 C 
ATOM     10  C   UNL     1       7.340   1.275  -0.573  1.00  0.00     0.046 C 
ATOM     11  C   UNL     1       7.865   1.933  -2.809  1.00  0.00    -0.016 C 
BRANCH   8  12
ATOM     12  N   UNL     1       7.364  -1.095  -1.365  1.00  0.00    -0.363 N 
ATOM     13  H   UNL     1       6.709  -1.806  -1.177  1.00  0.00     0.162 HD
BRANCH  12  14
ATOM     14  C   UNL     1       8.694  -1.473  -1.398  1.00  0.00     0.136 A 
ATOM     15  C   UNL     1      10.442  -2.918  -0.798  1.00  0.00     0.221 A 
ATOM     16  N   UNL     1      11.350  -2.212  -1.483  1.00  0.00    -0.201 NA
ATOM     17  C   UNL     1       9.103  -2.586  -0.674  1.00  0.00     0.054 A 
ATOM     18  C   UNL     1      10.857  -1.126  -2.080  1.00  0.00     0.228 A 
ATOM     19  C   UNL     1       8.156  -3.400   0.148  1.00  0.00     0.054 C 
ATOM     20  N   UNL     1       9.571  -0.747  -2.104  1.00  0.00    -0.219 NA
BRANCH  15  21
ATOM     21  O   UNL     1      10.927  -4.007  -0.113  1.00  0.00    -0.478 OA
BRANCH  21  22
ATOM     22  C   UNL     1      11.158  -5.102  -1.002  1.00  0.00     0.228 C 
ATOM     23  C   UNL     1      10.092  -6.158  -0.758  1.00  0.00     0.049 C 
ENDBRANCH  21  22
ENDBRANCH  15  21
ENDBRANCH  12  14
ENDBRANCH   8  12
ENDBRANCH   4   7
ENDBRANCH   2   3
ENDBRANCH   1   2
BRANCH   1  24
ATOM     24  C   UNL     1      12.133   5.308  -0.586  1.00  0.00     0.002 C 
BRANCH  24  25
ATOM     25  C   UNL     1      12.986   5.750  -1.780  1.00  0.00     0.002 C 
BRANCH  25  26
ATOM     26  C   UNL     1      12.626   7.127  -2.338  1.00  0.00     0.021 C 
BRANCH  26  27
ATOM     27  C   UNL     1      12.740   8.256  -1.323  1.00  0.00     0.116 C 
BRANCH  27  28
ATOM     28  N   UNL     1      14.115   8.472  -0.901  1.00  0.00    -0.352 N 
ATOM     29  C   UNL     1      14.848   9.630  -0.918  1.00  0.00     0.251 C 
ATOM     30  H   UNL     1      14.583   7.677  -0.557  1.00  0.00     0.163 HD
ATOM     31  O   UNL     1      16.061   9.603  -0.722  1.00  0.00    -0.269 OA
BRANCH  29  32
ATOM     32  C   UNL     1      14.175  10.914  -1.195  1.00  0.00     0.039 A 
ATOM     33  C   UNL     1      14.764  11.809  -2.091  1.00  0.00     0.014 A 
ATOM     34  C   UNL     1      12.960  11.230  -0.579  1.00  0.00     0.014 A 
ATOM     35  C   UNL     1      14.106  12.998  -2.411  1.00  0.00     0.010 A 
ATOM     36  C   UNL     1      12.268  12.374  -0.961  1.00  0.00     0.010 A 
ATOM     37  C   UNL     1      12.837  13.274  -1.875  1.00  0.00    -0.014 A 
BRANCH  37  38
ATOM     38  C   UNL     1      12.094  14.504  -2.247  1.00  0.00     0.031 A 
ATOM     39  C   UNL     1      11.767  15.532  -1.200  1.00  0.00     0.074 A 
ATOM     40  C   UNL     1      11.660  14.666  -3.513  1.00  0.00     0.049 A 
ATOM     41  N   UNL     1      11.066  16.633  -1.309  1.00  0.00    -0.248 NA
ATOM     42  C   UNL     1      12.271  15.275   0.158  1.00  0.00     0.031 C 
ATOM     43  C   UNL     1      11.878  13.720  -4.608  1.00  0.00     0.029 A 
ATOM     44  N   UNL     1      10.936  15.680  -4.088  1.00  0.00    -0.354 N 
ATOM     45  C   UNL     1      11.037  17.189  -0.037  1.00  0.00     0.074 A 
ATOM     46  C   UNL     1      11.736  16.276   0.840  1.00  0.00     0.031 C 
ATOM     47  C   UNL     1      11.321  14.209  -5.728  1.00  0.00     0.029 A 
ATOM     48  C   UNL     1      10.669  15.478  -5.420  1.00  0.00     0.049 A 
ATOM     49  H   UNL     1      10.637  16.477  -3.593  1.00  0.00     0.167 HD
ATOM     50  C   UNL     1      10.496  18.366   0.358  1.00  0.00     0.037 A 
ATOM     51  C   UNL     1       9.967  16.227  -6.292  1.00  0.00     0.037 A 
ATOM     52  C   UNL     1       9.817  19.279  -0.523  1.00  0.00     0.049 A 
ATOM     53  C   UNL     1       9.356  17.520  -5.822  1.00  0.00     0.074 A 
ATOM     54  C   UNL     1       9.282  20.522  -0.232  1.00  0.00     0.029 A 
ATOM     55  N   UNL     1       9.573  19.045  -1.869  1.00  0.00    -0.354 N 
ATOM     56  N   UNL     1       9.392  18.070  -4.632  1.00  0.00    -0.248 NA
ATOM     57  C   UNL     1       8.611  18.301  -6.819  1.00  0.00     0.031 C 
ATOM     58  C   UNL     1       8.662  21.012  -1.386  1.00  0.00     0.029 A 
ATOM     59  C   UNL     1       8.870  20.107  -2.415  1.00  0.00     0.049 A 
ATOM     60  H   UNL     1       9.858  18.242  -2.363  1.00  0.00     0.167 HD
ATOM     61  C   UNL     1       8.707  19.272  -4.745  1.00  0.00     0.074 A 
ATOM     62  C   UNL     1       8.278  19.379  -6.123  1.00  0.00     0.031 C 
ATOM     63  C   UNL     1       8.458  20.205  -3.792  1.00  0.00     0.037 A 
BRANCH  50  64
ATOM     64  C   UNL     1      10.615  18.733   1.811  1.00  0.00     0.064 A 
ATOM     65  C   UNL     1      11.852  19.048   2.394  1.00  0.00     0.173 A 
ATOM     66  C   UNL     1       9.473  18.805   2.622  1.00  0.00     0.173 A 
ATOM     67  F   UNL     1      12.978  18.985   1.667  1.00  0.00    -0.203 F 
ATOM     68  C   UNL     1      11.945  19.387   3.742  1.00  0.00     0.198 A 
ATOM     69  C   UNL     1       9.565  19.179   3.960  1.00  0.00     0.198 A 
ATOM     70  F   UNL     1       8.263  18.522   2.115  1.00  0.00    -0.203 F 
ATOM     71  F   UNL     1      13.144  19.628   4.290  1.00  0.00    -0.200 F 
ATOM     72  C   UNL     1      10.801  19.460   4.522  1.00  0.00     0.200 A 
ATOM     73  F   UNL     1       8.456  19.265   4.708  1.00  0.00    -0.200 F 
ATOM     74  F   UNL     1      10.890  19.795   5.816  1.00  0.00    -0.200 F 
ENDBRANCH  50  64
BRANCH  51  75
ATOM     75  C   UNL     1       9.818  15.783  -7.704  1.00  0.00     0.064 A 
ATOM     76  C   UNL     1      10.425  16.492  -8.751  1.00  0.00     0.173 A 
ATOM     77  C   UNL     1       9.058  14.652  -8.038  1.00  0.00     0.173 A 
ATOM     78  F   UNL     1      11.145  17.592  -8.485  1.00  0.00    -0.203 F 
ATOM     79  C   UNL     1      10.257  16.102 -10.078  1.00  0.00     0.198 A 
ATOM     80  C   UNL     1       8.918  14.244  -9.363  1.00  0.00     0.198 A 
ATOM     81  F   UNL     1       8.461  13.935  -7.075  1.00  0.00    -0.203 F 
ATOM     82  F   UNL     1      10.804  16.829 -11.062  1.00  0.00    -0.200 F 
ATOM     83  C   UNL     1       9.508  14.975 -10.383  1.00  0.00     0.200 A 
ATOM     84  F   UNL     1       8.208  13.145  -9.651  1.00  0.00    -0.200 F 
ATOM     85  F   UNL     1       9.349  14.598 -11.658  1.00  0.00    -0.200 F 
ENDBRANCH  51  75
BRANCH  63  86
ATOM     86  C   UNL     1       7.726  21.447  -4.215  1.00  0.00     0.064 A 
ATOM     87  C   UNL     1       6.367  21.424  -4.564  1.00  0.00     0.173 A 
ATOM     88  C   UNL     1       8.386  22.686  -4.230  1.00  0.00     0.173 A 
ATOM     89  F   UNL     1       5.694  20.264  -4.581  1.00  0.00    -0.203 F 
ATOM     90  C   UNL     1       5.705  22.590  -4.939  1.00  0.00     0.198 A 
ATOM     91  C   UNL     1       7.711  23.855  -4.570  1.00  0.00     0.198 A 
ATOM     92  F   UNL     1       9.683  22.766  -3.897  1.00  0.00    -0.203 F 
ATOM     93  F   UNL     1       4.421  22.536  -5.320  1.00  0.00    -0.200 F 
ATOM     94  C   UNL     1       6.374  23.805  -4.933  1.00  0.00     0.200 A 
ATOM     95  F   UNL     1       8.356  25.030  -4.547  1.00  0.00    -0.200 F 
ATOM     96  F   UNL     1       5.732  24.928  -5.284  1.00  0.00    -0.200 F 
ENDBRANCH  63  86
ENDBRANCH  37  38
ENDBRANCH  29  32
ENDBRANCH  27  28
ENDBRANCH  26  27
ENDBRANCH  25  26
ENDBRANCH  24  25
ENDBRANCH   1  24
TORSDOF 17
