REMARK SMILES CC(C)(C)N(CC(=O)NCCCCCCNC(=O)c1ccc(-c2c3nc(c(-c4c(F)c(F)c(F)c(F)c4F)c4ccc([nH]4)c(-c4c(F)c(F)c(F)c(F)c4F)c4nc(c(-c5c(F)c(F)c(F)c(F)c5F)c5ccc2[nH]5)C=C4)C=C3)cc1)C(=O)c1cc2ccccc2o1
REMARK SMILES IDX 12 1 11 2 10 3 9 4 7 5 8 6 6 8 5 9 2 10 1 11 3 12 4 13 82 14
REMARK SMILES IDX 83 15 84 16 85 17 92 18 86 19 91 20 87 21 90 22 88 23 89 24
REMARK SMILES IDX 13 25 14 26 15 27 16 28 17 29 18 31 19 32 20 33 81 34 21 35
REMARK SMILES IDX 80 36 22 37 23 38 24 39 74 40 25 41 79 42 73 43 75 44 26 45
REMARK SMILES IDX 78 46 72 47 71 48 27 50 59 51 39 52 58 53 40 54 43 55 57 56
REMARK SMILES IDX 76 57 41 58 42 59 56 61 77 62 44 63 28 64 29 65 37 66 30 67
REMARK SMILES IDX 31 68 35 69 38 70 32 71 33 72 36 73 34 74 60 75 61 76 69 77
REMARK SMILES IDX 62 78 63 79 67 80 70 81 64 82 65 83 68 84 66 85 45 86 46 87
REMARK SMILES IDX 54 88 47 89 48 90 52 91 55 92 49 93 50 94 53 95 51 96
REMARK H PARENT 9 7 16 30 75 49 43 60
REMARK Flexibility Score: inf
ROOT
ATOM      1  C   UNL     1       4.872  -3.716  -0.087  1.00  0.00     0.002 C 
ENDROOT
BRANCH   1   2
ATOM      2  C   UNL     1       3.543  -3.070  -0.026  1.00  0.00     0.021 C 
BRANCH   2   3
ATOM      3  C   UNL     1       3.645  -1.642  -0.549  1.00  0.00     0.116 C 
BRANCH   3   4
ATOM      4  N   UNL     1       3.956  -1.571  -1.942  1.00  0.00    -0.355 N 
ATOM      5  C   UNL     1       3.156  -1.073  -2.946  1.00  0.00     0.239 C 
ATOM      6  O   UNL     1       3.551  -1.069  -4.111  1.00  0.00    -0.273 OA
ATOM      7  H   UNL     1       4.838  -1.916  -2.213  1.00  0.00     0.163 HD
BRANCH   5   8
ATOM      8  C   UNL     1       1.779  -0.497  -2.611  1.00  0.00     0.220 C 
BRANCH   8   9
ATOM      9  N   UNL     1       0.957  -1.513  -1.933  1.00  0.00    -0.322 N 
BRANCH   9  10
ATOM     10  C   UNL     1       0.384  -1.237  -0.580  1.00  0.00     0.035 C 
ATOM     11  C   UNL     1       0.863   0.106   0.008  1.00  0.00     0.034 C 
ATOM     12  C   UNL     1       0.746  -2.359   0.378  1.00  0.00     0.034 C 
ATOM     13  C   UNL     1      -1.127  -1.233  -0.572  1.00  0.00     0.034 C 
ENDBRANCH   9  10
BRANCH   9  14
ATOM     14  C   UNL     1       0.698  -2.795  -2.471  1.00  0.00     0.290 C 
ATOM     15  O   UNL     1      -0.081  -3.521  -1.834  1.00  0.00    -0.265 OA
BRANCH  14  16
ATOM     16  C   UNL     1       1.064  -3.166  -3.852  1.00  0.00     0.192 A 
ATOM     17  C   UNL     1       1.182  -4.264  -4.708  1.00  0.00     0.065 A 
ATOM     18  O   UNL     1      -0.181  -2.998  -4.548  1.00  0.00    -0.451 OA
ATOM     19  C   UNL     1       0.087  -5.074  -4.274  1.00  0.00     0.021 A 
ATOM     20  C   UNL     1      -1.094  -4.159  -3.916  1.00  0.00     0.135 A 
ATOM     21  C   UNL     1       0.094  -6.504  -4.339  1.00  0.00     0.012 A 
ATOM     22  C   UNL     1      -1.919  -5.238  -3.339  1.00  0.00     0.048 A 
ATOM     23  C   UNL     1      -0.932  -7.339  -3.991  1.00  0.00     0.001 A 
ATOM     24  C   UNL     1      -1.906  -6.720  -3.302  1.00  0.00     0.004 A 
ENDBRANCH  14  16
ENDBRANCH   9  14
ENDBRANCH   8   9
ENDBRANCH   5   8
ENDBRANCH   3   4
ENDBRANCH   2   3
ENDBRANCH   1   2
BRANCH   1  25
ATOM     25  C   UNL     1       5.838  -2.915   0.770  1.00  0.00     0.002 C 
BRANCH  25  26
ATOM     26  C   UNL     1       5.391  -2.884   2.220  1.00  0.00     0.021 C 
BRANCH  26  27
ATOM     27  C   UNL     1       5.291  -4.293   2.736  1.00  0.00     0.116 C 
BRANCH  27  28
ATOM     28  N   UNL     1       6.571  -4.973   2.730  1.00  0.00    -0.352 N 
ATOM     29  C   UNL     1       7.248  -5.421   3.844  1.00  0.00     0.251 C 
ATOM     30  H   UNL     1       6.993  -5.127   1.854  1.00  0.00     0.163 HD
ATOM     31  O   UNL     1       8.352  -5.952   3.765  1.00  0.00    -0.269 OA
BRANCH  29  32
ATOM     32  C   UNL     1       6.595  -5.297   5.178  1.00  0.00     0.039 A 
ATOM     33  C   UNL     1       7.311  -4.912   6.303  1.00  0.00     0.014 A 
ATOM     34  C   UNL     1       5.261  -5.680   5.338  1.00  0.00     0.014 A 
ATOM     35  C   UNL     1       6.722  -5.051   7.564  1.00  0.00     0.010 A 
ATOM     36  C   UNL     1       4.629  -5.633   6.570  1.00  0.00     0.010 A 
ATOM     37  C   UNL     1       5.353  -5.295   7.703  1.00  0.00    -0.014 A 
BRANCH  37  38
ATOM     38  C   UNL     1       4.693  -5.158   9.018  1.00  0.00     0.031 A 
ATOM     39  C   UNL     1       3.991  -6.317   9.627  1.00  0.00     0.074 A 
ATOM     40  C   UNL     1       4.712  -3.971   9.665  1.00  0.00     0.049 A 
ATOM     41  N   UNL     1       3.393  -6.347  10.784  1.00  0.00    -0.248 NA
ATOM     42  C   UNL     1       3.952  -7.589   8.886  1.00  0.00     0.031 C 
ATOM     43  C   UNL     1       5.369  -2.773   9.148  1.00  0.00     0.029 A 
ATOM     44  N   UNL     1       4.184  -3.562  10.870  1.00  0.00    -0.354 N 
ATOM     45  C   UNL     1       2.927  -7.635  10.925  1.00  0.00     0.074 A 
ATOM     46  C   UNL     1       3.273  -8.364   9.723  1.00  0.00     0.031 C 
ATOM     47  C   UNL     1       5.224  -1.774  10.025  1.00  0.00     0.029 A 
ATOM     48  C   UNL     1       4.442  -2.243  11.159  1.00  0.00     0.049 A 
ATOM     49  H   UNL     1       3.673  -4.155  11.465  1.00  0.00     0.167 HD
ATOM     50  C   UNL     1       2.276  -8.137  11.993  1.00  0.00     0.037 A 
ATOM     51  C   UNL     1       4.109  -1.467  12.207  1.00  0.00     0.037 A 
ATOM     52  C   UNL     1       1.911  -7.388  13.145  1.00  0.00     0.049 A 
ATOM     53  C   UNL     1       3.302  -2.030  13.328  1.00  0.00     0.074 A 
ATOM     54  C   UNL     1       1.241  -7.876  14.246  1.00  0.00     0.029 A 
ATOM     55  N   UNL     1       2.158  -6.047  13.358  1.00  0.00    -0.354 N 
ATOM     56  N   UNL     1       2.900  -3.263  13.445  1.00  0.00    -0.248 NA
ATOM     57  C   UNL     1       2.895  -1.148  14.438  1.00  0.00     0.031 C 
ATOM     58  C   UNL     1       1.043  -6.835  15.119  1.00  0.00     0.029 A 
ATOM     59  C   UNL     1       1.616  -5.702  14.579  1.00  0.00     0.049 A 
ATOM     60  H   UNL     1       2.636  -5.443  12.746  1.00  0.00     0.167 HD
ATOM     61  C   UNL     1       2.220  -3.322  14.641  1.00  0.00     0.074 A 
ATOM     62  C   UNL     1       2.252  -1.998  15.229  1.00  0.00     0.031 C 
ATOM     63  C   UNL     1       1.633  -4.411  15.175  1.00  0.00     0.037 A 
BRANCH  50  64
ATOM     64  C   UNL     1       1.881  -9.566  11.965  1.00  0.00     0.064 A 
ATOM     65  C   UNL     1       2.832 -10.575  11.878  1.00  0.00     0.173 A 
ATOM     66  C   UNL     1       0.530  -9.931  12.029  1.00  0.00     0.173 A 
ATOM     67  F   UNL     1       4.135 -10.287  12.008  1.00  0.00    -0.203 F 
ATOM     68  C   UNL     1       2.430 -11.877  11.631  1.00  0.00     0.198 A 
ATOM     69  C   UNL     1       0.143 -11.256  11.923  1.00  0.00     0.198 A 
ATOM     70  F   UNL     1      -0.412  -9.006  12.261  1.00  0.00    -0.203 F 
ATOM     71  F   UNL     1       3.313 -12.778  11.191  1.00  0.00    -0.200 F 
ATOM     72  C   UNL     1       1.098 -12.233  11.738  1.00  0.00     0.200 A 
ATOM     73  F   UNL     1      -1.156 -11.572  11.931  1.00  0.00    -0.200 F 
ATOM     74  F   UNL     1       0.751 -13.526  11.700  1.00  0.00    -0.200 F 
ENDBRANCH  50  64
BRANCH  51  75
ATOM     75  C   UNL     1       4.520  -0.054  12.239  1.00  0.00     0.064 A 
ATOM     76  C   UNL     1       5.299   0.449  13.278  1.00  0.00     0.173 A 
ATOM     77  C   UNL     1       4.063   0.838  11.267  1.00  0.00     0.173 A 
ATOM     78  F   UNL     1       5.879  -0.390  14.148  1.00  0.00    -0.203 F 
ATOM     79  C   UNL     1       5.469   1.819  13.417  1.00  0.00     0.198 A 
ATOM     80  C   UNL     1       4.353   2.189  11.340  1.00  0.00     0.198 A 
ATOM     81  F   UNL     1       3.393   0.377  10.202  1.00  0.00    -0.203 F 
ATOM     82  F   UNL     1       5.932   2.328  14.563  1.00  0.00    -0.200 F 
ATOM     83  C   UNL     1       5.079   2.677  12.406  1.00  0.00     0.200 A 
ATOM     84  F   UNL     1       3.883   3.019  10.404  1.00  0.00    -0.200 F 
ATOM     85  F   UNL     1       5.441   3.965  12.450  1.00  0.00    -0.200 F 
ENDBRANCH  51  75
BRANCH  63  86
ATOM     86  C   UNL     1       0.998  -4.281  16.510  1.00  0.00     0.064 A 
ATOM     87  C   UNL     1      -0.064  -3.414  16.735  1.00  0.00     0.173 A 
ATOM     88  C   UNL     1       1.475  -5.037  17.587  1.00  0.00     0.173 A 
ATOM     89  F   UNL     1      -0.675  -2.811  15.704  1.00  0.00    -0.203 F 
ATOM     90  C   UNL     1      -0.466  -3.148  18.033  1.00  0.00     0.198 A 
ATOM     91  C   UNL     1       0.965  -4.869  18.861  1.00  0.00     0.198 A 
ATOM     92  F   UNL     1       2.397  -5.992  17.391  1.00  0.00    -0.203 F 
ATOM     93  F   UNL     1      -1.213  -2.071  18.294  1.00  0.00    -0.200 F 
ATOM     94  C   UNL     1      -0.019  -3.930  19.082  1.00  0.00     0.200 A 
ATOM     95  F   UNL     1       1.477  -5.567  19.880  1.00  0.00    -0.200 F 
ATOM     96  F   UNL     1      -0.572  -3.796  20.293  1.00  0.00    -0.200 F 
ENDBRANCH  63  86
ENDBRANCH  37  38
ENDBRANCH  29  32
ENDBRANCH  27  28
ENDBRANCH  26  27
ENDBRANCH  25  26
ENDBRANCH   1  25
TORSDOF 17
