REMARK SMILES CC1(C)S[C@H](c2ccc(-c3ccccc3)o2)[NH2+][C@H]1C(=O)NCCCCCCNC(=O)c1ccc(-c2c3nc(c(-c4c(F)c(F)c(F)c(F)c4F)c4ccc([nH]4)c(-c4c(F)c(F)c(F)c(F)c4F)c4nc(c(-c5c(F)c(F)c(F)c(F)c5F)c5ccc2[nH]5)C=C4)C=C3)cc1
REMARK SMILES IDX 24 1 23 2 22 3 21 4 19 5 20 6 18 8 1 9 2 10 3 11 4 12 5 13
REMARK SMILES IDX 17 14 6 17 7 18 16 19 8 20 9 21 10 22 11 23 15 24 12 25
REMARK SMILES IDX 14 26 13 27 25 28 26 29 27 30 28 31 29 32 30 34 31 35 32 36
REMARK SMILES IDX 93 37 33 38 92 39 34 40 35 41 36 42 86 43 37 44 91 45 85 46
REMARK SMILES IDX 87 47 38 48 90 49 84 50 83 51 39 53 71 54 51 55 70 56 52 57
REMARK SMILES IDX 55 58 69 59 88 60 53 61 54 62 68 64 89 65 56 66 40 67 41 68
REMARK SMILES IDX 49 69 42 70 43 71 47 72 50 73 44 74 45 75 48 76 46 77 72 78
REMARK SMILES IDX 73 79 81 80 74 81 75 82 79 83 82 84 76 85 77 86 80 87 78 88
REMARK SMILES IDX 57 89 58 90 66 91 59 92 60 93 64 94 67 95 61 96 62 97 65 98
REMARK SMILES IDX 63 99
REMARK H PARENT 21 7 17 15 17 16 28 33 87 52 55 63
REMARK Flexibility Score: inf
ROOT
ATOM      1  C   UNL     1       1.885   3.758   3.803  1.00  0.00     0.002 C 
ENDROOT
BRANCH   1   2
ATOM      2  C   UNL     1       1.494   2.422   3.170  1.00  0.00     0.021 C 
BRANCH   2   3
ATOM      3  C   UNL     1       0.260   2.475   2.266  1.00  0.00     0.116 C 
BRANCH   3   4
ATOM      4  N   UNL     1       0.587   3.002   0.954  1.00  0.00    -0.351 N 
ATOM      5  C   UNL     1       0.549   2.489  -0.307  1.00  0.00     0.279 C 
ATOM      6  O   UNL     1       1.062   3.195  -1.185  1.00  0.00    -0.268 OA
ATOM      7  H   UNL     1       0.905   3.933   0.982  1.00  0.00     0.163 HD
BRANCH   5   8
ATOM      8  C   UNL     1      -0.026   1.103  -0.681  1.00  0.00     0.289 C 
ATOM      9  C   UNL     1       1.738  -0.128   0.843  1.00  0.00     0.030 C 
ATOM     10  C   UNL     1       0.938  -0.083  -0.457  1.00  0.00     0.078 C 
ATOM     11  C   UNL     1       1.906  -0.234  -1.637  1.00  0.00     0.030 C 
ATOM     12  S   UNL     1      -0.178  -1.525  -0.411  1.00  0.00    -0.078 SA
ATOM     13  C   UNL     1      -1.700  -0.546  -0.284  1.00  0.00     0.311 C 
ATOM     14  N   UNL     1      -1.369   0.868  -0.103  1.00  0.00    -0.317 N 
ATOM     15  H   UNL     1      -1.364   1.097   0.890  1.00  0.00     0.348 HD
ATOM     16  H   UNL     1      -2.062   1.455  -0.568  1.00  0.00     0.348 HD
BRANCH  13  17
ATOM     17  C   UNL     1      -2.605  -0.868  -1.430  1.00  0.00     0.172 A 
ATOM     18  C   UNL     1      -3.366  -1.996  -1.678  1.00  0.00     0.054 A 
ATOM     19  O   UNL     1      -2.760   0.026  -2.458  1.00  0.00    -0.454 OA
ATOM     20  C   UNL     1      -4.034  -1.777  -2.899  1.00  0.00     0.051 A 
ATOM     21  C   UNL     1      -3.647  -0.529  -3.340  1.00  0.00     0.134 A 
BRANCH  21  22
ATOM     22  C   UNL     1      -4.015   0.254  -4.509  1.00  0.00     0.017 A 
ATOM     23  C   UNL     1      -3.053   0.938  -5.261  1.00  0.00     0.012 A 
ATOM     24  C   UNL     1      -5.351   0.278  -4.938  1.00  0.00     0.012 A 
ATOM     25  C   UNL     1      -3.419   1.613  -6.430  1.00  0.00     0.001 A 
ATOM     26  C   UNL     1      -5.718   0.962  -6.098  1.00  0.00     0.001 A 
ATOM     27  C   UNL     1      -4.750   1.623  -6.848  1.00  0.00     0.000 A 
ENDBRANCH  21  22
ENDBRANCH  13  17
ENDBRANCH   5   8
ENDBRANCH   3   4
ENDBRANCH   2   3
ENDBRANCH   1   2
BRANCH   1  28
ATOM     28  C   UNL     1       0.868   4.335   4.791  1.00  0.00     0.002 C 
BRANCH  28  29
ATOM     29  C   UNL     1       0.402   3.382   5.895  1.00  0.00     0.021 C 
BRANCH  29  30
ATOM     30  C   UNL     1       1.514   2.722   6.706  1.00  0.00     0.116 C 
BRANCH  30  31
ATOM     31  N   UNL     1       2.355   3.690   7.385  1.00  0.00    -0.352 N 
ATOM     32  C   UNL     1       2.726   3.756   8.702  1.00  0.00     0.251 C 
ATOM     33  H   UNL     1       2.712   4.407   6.813  1.00  0.00     0.163 HD
ATOM     34  O   UNL     1       3.309   4.749   9.124  1.00  0.00    -0.269 OA
BRANCH  32  35
ATOM     35  C   UNL     1       2.418   2.642   9.627  1.00  0.00     0.039 A 
ATOM     36  C   UNL     1       1.967   2.952  10.913  1.00  0.00     0.014 A 
ATOM     37  C   UNL     1       2.624   1.308   9.260  1.00  0.00     0.014 A 
ATOM     38  C   UNL     1       1.701   1.926  11.822  1.00  0.00     0.010 A 
ATOM     39  C   UNL     1       2.296   0.283  10.145  1.00  0.00     0.010 A 
ATOM     40  C   UNL     1       1.853   0.583  11.442  1.00  0.00    -0.014 A 
BRANCH  40  41
ATOM     41  C   UNL     1       1.597  -0.508  12.416  1.00  0.00     0.031 A 
ATOM     42  C   UNL     1       2.733  -1.363  12.908  1.00  0.00     0.074 A 
ATOM     43  C   UNL     1       0.342  -0.741  12.843  1.00  0.00     0.049 A 
ATOM     44  N   UNL     1       2.713  -2.355  13.763  1.00  0.00    -0.248 NA
ATOM     45  C   UNL     1       4.063  -1.083  12.347  1.00  0.00     0.031 C 
ATOM     46  C   UNL     1      -0.849  -0.016  12.401  1.00  0.00     0.029 A 
ATOM     47  N   UNL     1      -0.140  -1.655  13.747  1.00  0.00    -0.354 N 
ATOM     48  C   UNL     1       4.020  -2.821  13.831  1.00  0.00     0.074 A 
ATOM     49  C   UNL     1       4.796  -2.043  12.891  1.00  0.00     0.031 C 
ATOM     50  C   UNL     1      -1.921  -0.492  13.055  1.00  0.00     0.029 A 
ATOM     51  C   UNL     1      -1.496  -1.570  13.944  1.00  0.00     0.049 A 
ATOM     52  H   UNL     1       0.432  -2.309  14.209  1.00  0.00     0.167 HD
ATOM     53  C   UNL     1       4.533  -3.791  14.625  1.00  0.00     0.037 A 
ATOM     54  C   UNL     1      -2.302  -2.276  14.759  1.00  0.00     0.037 A 
ATOM     55  C   UNL     1       3.765  -4.543  15.583  1.00  0.00     0.049 A 
ATOM     56  C   UNL     1      -1.704  -3.331  15.650  1.00  0.00     0.074 A 
ATOM     57  C   UNL     1       4.201  -5.505  16.478  1.00  0.00     0.029 A 
ATOM     58  N   UNL     1       2.397  -4.413  15.771  1.00  0.00    -0.354 N 
ATOM     59  N   UNL     1      -0.454  -3.712  15.758  1.00  0.00    -0.248 NA
ATOM     60  C   UNL     1      -2.628  -4.043  16.543  1.00  0.00     0.031 C 
ATOM     61  C   UNL     1       3.090  -5.984  17.181  1.00  0.00     0.029 A 
ATOM     62  C   UNL     1       1.969  -5.290  16.756  1.00  0.00     0.049 A 
ATOM     63  H   UNL     1       1.815  -3.791  15.277  1.00  0.00     0.167 HD
ATOM     64  C   UNL     1      -0.438  -4.689  16.744  1.00  0.00     0.074 A 
ATOM     65  C   UNL     1      -1.800  -4.826  17.218  1.00  0.00     0.031 C 
ATOM     66  C   UNL     1       0.609  -5.412  17.214  1.00  0.00     0.037 A 
BRANCH  53  67
ATOM     67  C   UNL     1       5.999  -4.088  14.496  1.00  0.00     0.064 A 
ATOM     68  C   UNL     1       6.974  -3.181  14.939  1.00  0.00     0.173 A 
ATOM     69  C   UNL     1       6.435  -5.303  13.947  1.00  0.00     0.173 A 
ATOM     70  F   UNL     1       6.610  -2.000  15.460  1.00  0.00    -0.203 F 
ATOM     71  C   UNL     1       8.331  -3.466  14.808  1.00  0.00     0.198 A 
ATOM     72  C   UNL     1       7.793  -5.598  13.845  1.00  0.00     0.198 A 
ATOM     73  F   UNL     1       5.545  -6.208  13.512  1.00  0.00    -0.203 F 
ATOM     74  F   UNL     1       9.244  -2.563  15.191  1.00  0.00    -0.200 F 
ATOM     75  C   UNL     1       8.739  -4.676  14.268  1.00  0.00     0.200 A 
ATOM     76  F   UNL     1       8.185  -6.772  13.332  1.00  0.00    -0.200 F 
ATOM     77  F   UNL     1      10.045  -4.951  14.146  1.00  0.00    -0.200 F 
ENDBRANCH  53  67
BRANCH  54  78
ATOM     78  C   UNL     1      -3.757  -1.980  14.801  1.00  0.00     0.064 A 
ATOM     79  C   UNL     1      -4.334  -1.367  15.922  1.00  0.00     0.173 A 
ATOM     80  C   UNL     1      -4.600  -2.306  13.729  1.00  0.00     0.173 A 
ATOM     81  F   UNL     1      -3.571  -1.055  16.980  1.00  0.00    -0.203 F 
ATOM     82  C   UNL     1      -5.702  -1.111  15.979  1.00  0.00     0.198 A 
ATOM     83  C   UNL     1      -5.963  -2.026  13.776  1.00  0.00     0.198 A 
ATOM     84  F   UNL     1      -4.095  -2.889  12.631  1.00  0.00    -0.203 F 
ATOM     85  F   UNL     1      -6.234  -0.566  17.081  1.00  0.00    -0.200 F 
ATOM     86  C   UNL     1      -6.515  -1.436  14.903  1.00  0.00     0.200 A 
ATOM     87  F   UNL     1      -6.744  -2.329  12.729  1.00  0.00    -0.200 F 
ATOM     88  F   UNL     1      -7.831  -1.188  14.957  1.00  0.00    -0.200 F 
ENDBRANCH  54  78
BRANCH  66  89
ATOM     89  C   UNL     1       0.322  -6.396  18.309  1.00  0.00     0.064 A 
ATOM     90  C   UNL     1      -0.386  -7.582  18.064  1.00  0.00     0.173 A 
ATOM     91  C   UNL     1       0.776  -6.159  19.616  1.00  0.00     0.173 A 
ATOM     92  F   UNL     1      -0.853  -7.846  16.834  1.00  0.00    -0.203 F 
ATOM     93  C   UNL     1      -0.657  -8.479  19.093  1.00  0.00     0.198 A 
ATOM     94  C   UNL     1       0.528  -7.073  20.636  1.00  0.00     0.198 A 
ATOM     95  F   UNL     1       1.463  -5.043  19.901  1.00  0.00    -0.203 F 
ATOM     96  F   UNL     1      -1.382  -9.579  18.847  1.00  0.00    -0.200 F 
ATOM     97  C   UNL     1      -0.196  -8.227  20.377  1.00  0.00     0.200 A 
ATOM     98  F   UNL     1       0.985  -6.833  21.873  1.00  0.00    -0.200 F 
ATOM     99  F   UNL     1      -0.458  -9.091  21.366  1.00  0.00    -0.200 F 
ENDBRANCH  66  89
ENDBRANCH  40  41
ENDBRANCH  32  35
ENDBRANCH  30  31
ENDBRANCH  29  30
ENDBRANCH  28  29
ENDBRANCH   1  28
TORSDOF 15
