REMARK SMILES O=C(COc1ccc(N2C[C@@H](C(=O)NCCCCCCNC(=O)c3ccc(-c4c5nc(c(-c6c(F)c(F)c(F)c(F)c6F)c6ccc([nH]6)c(-c6c(F)c(F)c(F)c(F)c6F)c6nc(c(-c7c(F)c(F)c(F)c(F)c7F)c7ccc4[nH]7)C=C6)C=C5)cc3)CC2=O)cc1)Nc1ccc(Cl)cc1Cl
REMARK SMILES IDX 16 1 15 2 14 3 12 4 13 5 11 7 9 8 10 9 88 10 87 11 89 12
REMARK SMILES IDX 8 13 5 14 6 15 91 16 7 17 90 18 4 19 3 20 2 21 1 22 92 23
REMARK SMILES IDX 93 25 94 26 99 27 95 28 98 29 100 30 96 31 97 32 17 33 18 34
REMARK SMILES IDX 19 35 20 36 21 37 22 38 23 40 24 41 25 42 86 43 26 44 85 45
REMARK SMILES IDX 27 46 28 47 29 48 79 49 30 50 84 51 78 52 80 53 31 54 83 55
REMARK SMILES IDX 77 56 76 57 32 59 64 60 44 61 63 62 45 63 48 64 62 65 81 66
REMARK SMILES IDX 46 67 47 68 61 70 82 71 49 72 33 73 34 74 42 75 35 76 36 77
REMARK SMILES IDX 40 78 43 79 37 80 38 81 41 82 39 83 65 84 66 85 74 86 67 87
REMARK SMILES IDX 68 88 72 89 75 90 69 91 70 92 73 93 71 94 50 95 51 96 59 97
REMARK SMILES IDX 52 98 53 99 57 100 60 101 54 102 55 103 58 104 56 105
REMARK H PARENT 14 6 92 24 21 39 80 58 48 69
REMARK Flexibility Score: inf
ROOT
ATOM      1  C   UNL     1      -2.643   7.779   1.574  1.00  0.00     0.021 C 
ENDROOT
BRANCH   1   2
ATOM      2  C   UNL     1      -1.699   7.564   0.389  1.00  0.00     0.116 C 
BRANCH   2   3
ATOM      3  N   UNL     1      -1.268   8.830  -0.178  1.00  0.00    -0.356 N 
ATOM      4  C   UNL     1      -0.047   9.413  -0.276  1.00  0.00     0.225 C 
ATOM      5  O   UNL     1       0.004  10.531  -0.797  1.00  0.00    -0.275 OA
ATOM      6  H   UNL     1      -1.998   9.364  -0.564  1.00  0.00     0.163 HD
BRANCH   4   7
ATOM      7  C   UNL     1       1.228   8.744   0.189  1.00  0.00     0.107 C 
ATOM      8  N   UNL     1       1.918   6.496   0.339  1.00  0.00    -0.312 N 
ATOM      9  C   UNL     1       1.569   7.508  -0.625  1.00  0.00     0.139 C 
ATOM     10  C   UNL     1       1.701   6.907   1.654  1.00  0.00     0.227 C 
ATOM     11  C   UNL     1       1.236   8.335   1.652  1.00  0.00     0.116 C 
ATOM     12  O   UNL     1       1.870   6.269   2.686  1.00  0.00    -0.274 OA
BRANCH   8  13
ATOM     13  C   UNL     1       2.345   5.201  -0.035  1.00  0.00     0.044 A 
ATOM     14  C   UNL     1       3.289   2.617  -0.644  1.00  0.00     0.120 A 
ATOM     15  C   UNL     1       3.671   3.705  -1.426  1.00  0.00     0.048 A 
ATOM     16  C   UNL     1       2.428   2.819   0.430  1.00  0.00     0.048 A 
ATOM     17  C   UNL     1       3.174   4.988  -1.144  1.00  0.00     0.030 A 
ATOM     18  C   UNL     1       1.967   4.099   0.733  1.00  0.00     0.030 A 
BRANCH  14  19
ATOM     19  O   UNL     1       3.899   1.409  -0.861  1.00  0.00    -0.484 OA
BRANCH  19  20
ATOM     20  C   UNL     1       3.003   0.377  -1.275  1.00  0.00     0.329 C 
BRANCH  20  21
ATOM     21  C   UNL     1       2.109  -0.207  -0.176  1.00  0.00     0.262 C 
ATOM     22  O   UNL     1       0.897  -0.304  -0.335  1.00  0.00    -0.271 OA
ATOM     23  N   UNL     1       2.809  -0.479   0.994  1.00  0.00    -0.322 N 
ATOM     24  H   UNL     1       3.788  -0.376   0.974  1.00  0.00     0.170 HD
BRANCH  23  25
ATOM     25  C   UNL     1       2.220  -0.893   2.213  1.00  0.00     0.060 A 
ATOM     26  C   UNL     1       2.751  -0.304   3.373  1.00  0.00     0.029 A 
ATOM     27  C   UNL     1       1.160  -1.809   2.349  1.00  0.00     0.066 A 
ATOM     28  C   UNL     1       2.180  -0.547   4.626  1.00  0.00     0.023 A 
ATOM     29  C   UNL     1       0.585  -2.044   3.605  1.00  0.00     0.043 A 
ATOM     30  Cl  UNL     1       0.629  -2.846   1.068  1.00  0.00    -0.082 Cl
ATOM     31  C   UNL     1       1.088  -1.401   4.732  1.00  0.00     0.042 A 
ATOM     32  Cl  UNL     1       0.376  -1.690   6.271  1.00  0.00    -0.084 Cl
ENDBRANCH  23  25
ENDBRANCH  20  21
ENDBRANCH  19  20
ENDBRANCH  14  19
ENDBRANCH   8  13
ENDBRANCH   4   7
ENDBRANCH   2   3
ENDBRANCH   1   2
BRANCH   1  33
ATOM     33  C   UNL     1      -3.983   8.430   1.207  1.00  0.00     0.002 C 
BRANCH  33  34
ATOM     34  C   UNL     1      -4.801   7.688   0.146  1.00  0.00     0.002 C 
BRANCH  34  35
ATOM     35  C   UNL     1      -5.086   6.218   0.459  1.00  0.00     0.021 C 
BRANCH  35  36
ATOM     36  C   UNL     1      -5.827   5.981   1.770  1.00  0.00     0.116 C 
BRANCH  36  37
ATOM     37  N   UNL     1      -7.159   6.566   1.764  1.00  0.00    -0.352 N 
ATOM     38  C   UNL     1      -8.367   5.979   2.045  1.00  0.00     0.251 C 
ATOM     39  H   UNL     1      -7.199   7.520   1.523  1.00  0.00     0.163 HD
ATOM     40  O   UNL     1      -9.414   6.572   1.807  1.00  0.00    -0.269 OA
BRANCH  38  41
ATOM     41  C   UNL     1      -8.405   4.617   2.619  1.00  0.00     0.039 A 
ATOM     42  C   UNL     1      -9.323   3.696   2.110  1.00  0.00     0.014 A 
ATOM     43  C   UNL     1      -7.541   4.250   3.654  1.00  0.00     0.014 A 
ATOM     44  C   UNL     1      -9.334   2.389   2.601  1.00  0.00     0.010 A 
ATOM     45  C   UNL     1      -7.495   2.927   4.082  1.00  0.00     0.010 A 
ATOM     46  C   UNL     1      -8.398   1.984   3.567  1.00  0.00    -0.014 A 
BRANCH  46  47
ATOM     47  C   UNL     1      -8.352   0.580   4.048  1.00  0.00     0.031 A 
ATOM     48  C   UNL     1      -8.633   0.261   5.489  1.00  0.00     0.074 A 
ATOM     49  C   UNL     1      -8.006  -0.403   3.195  1.00  0.00     0.049 A 
ATOM     50  N   UNL     1      -8.618  -0.897   6.100  1.00  0.00    -0.248 NA
ATOM     51  C   UNL     1      -8.942   1.398   6.369  1.00  0.00     0.031 C 
ATOM     52  C   UNL     1      -7.659  -0.215   1.786  1.00  0.00     0.029 A 
ATOM     53  N   UNL     1      -7.884  -1.756   3.390  1.00  0.00    -0.354 N 
ATOM     54  C   UNL     1      -8.905  -0.626   7.432  1.00  0.00     0.074 A 
ATOM     55  C   UNL     1      -9.021   0.811   7.553  1.00  0.00     0.031 C 
ATOM     56  C   UNL     1      -7.401  -1.411   1.234  1.00  0.00     0.029 A 
ATOM     57  C   UNL     1      -7.523  -2.444   2.258  1.00  0.00     0.049 A 
ATOM     58  H   UNL     1      -8.041  -2.192   4.259  1.00  0.00     0.167 HD
ATOM     59  C   UNL     1      -9.082  -1.496   8.455  1.00  0.00     0.037 A 
ATOM     60  C   UNL     1      -7.313  -3.761   2.067  1.00  0.00     0.037 A 
ATOM     61  C   UNL     1      -8.973  -2.926   8.325  1.00  0.00     0.049 A 
ATOM     62  C   UNL     1      -7.492  -4.707   3.223  1.00  0.00     0.074 A 
ATOM     63  C   UNL     1      -9.193  -3.900   9.283  1.00  0.00     0.029 A 
ATOM     64  N   UNL     1      -8.600  -3.588   7.163  1.00  0.00    -0.354 N 
ATOM     65  N   UNL     1      -7.846  -4.449   4.459  1.00  0.00    -0.248 NA
ATOM     66  C   UNL     1      -7.247  -6.130   2.954  1.00  0.00     0.031 C 
ATOM     67  C   UNL     1      -8.891  -5.144   8.720  1.00  0.00     0.029 A 
ATOM     68  C   UNL     1      -8.549  -4.955   7.390  1.00  0.00     0.049 A 
ATOM     69  H   UNL     1      -8.400  -3.151   6.303  1.00  0.00     0.167 HD
ATOM     70  C   UNL     1      -7.896  -5.676   5.107  1.00  0.00     0.074 A 
ATOM     71  C   UNL     1      -7.550  -6.680   4.122  1.00  0.00     0.031 C 
ATOM     72  C   UNL     1      -8.203  -5.945   6.400  1.00  0.00     0.037 A 
BRANCH  59  73
ATOM     73  C   UNL     1      -9.400  -0.918   9.806  1.00  0.00     0.064 A 
ATOM     74  C   UNL     1     -10.609  -0.250  10.059  1.00  0.00     0.173 A 
ATOM     75  C   UNL     1      -8.486  -1.036  10.865  1.00  0.00     0.173 A 
ATOM     76  F   UNL     1     -11.516  -0.100   9.082  1.00  0.00    -0.203 F 
ATOM     77  C   UNL     1     -10.869   0.319  11.304  1.00  0.00     0.198 A 
ATOM     78  C   UNL     1      -8.767  -0.499  12.119  1.00  0.00     0.198 A 
ATOM     79  F   UNL     1      -7.319  -1.671  10.685  1.00  0.00    -0.203 F 
ATOM     80  F   UNL     1     -11.999   1.014  11.498  1.00  0.00    -0.200 F 
ATOM     81  C   UNL     1      -9.951   0.190  12.334  1.00  0.00     0.200 A 
ATOM     82  F   UNL     1      -7.885  -0.640  13.119  1.00  0.00    -0.200 F 
ATOM     83  F   UNL     1     -10.202   0.739  13.530  1.00  0.00    -0.200 F 
ENDBRANCH  59  73
BRANCH  60  84
ATOM     84  C   UNL     1      -6.952  -4.261   0.716  1.00  0.00     0.064 A 
ATOM     85  C   UNL     1      -7.858  -5.028  -0.031  1.00  0.00     0.173 A 
ATOM     86  C   UNL     1      -5.708  -3.973   0.135  1.00  0.00     0.173 A 
ATOM     87  F   UNL     1      -9.052  -5.346   0.489  1.00  0.00    -0.203 F 
ATOM     88  C   UNL     1      -7.529  -5.498  -1.300  1.00  0.00     0.198 A 
ATOM     89  C   UNL     1      -5.392  -4.418  -1.147  1.00  0.00     0.198 A 
ATOM     90  F   UNL     1      -4.809  -3.239   0.806  1.00  0.00    -0.203 F 
ATOM     91  F   UNL     1      -8.399  -6.261  -1.976  1.00  0.00    -0.200 F 
ATOM     92  C   UNL     1      -6.300  -5.186  -1.861  1.00  0.00     0.200 A 
ATOM     93  F   UNL     1      -4.210  -4.101  -1.693  1.00  0.00    -0.200 F 
ATOM     94  F   UNL     1      -5.989  -5.629  -3.087  1.00  0.00    -0.200 F 
ENDBRANCH  60  84
BRANCH  72  95
ATOM     95  C   UNL     1      -8.214  -7.388   6.821  1.00  0.00     0.064 A 
ATOM     96  C   UNL     1      -7.033  -8.138   6.926  1.00  0.00     0.173 A 
ATOM     97  C   UNL     1      -9.422  -8.018   7.160  1.00  0.00     0.173 A 
ATOM     98  F   UNL     1      -5.853  -7.589   6.600  1.00  0.00    -0.203 F 
ATOM     99  C   UNL     1      -7.064  -9.471   7.327  1.00  0.00     0.198 A 
ATOM    100  C   UNL     1      -9.445  -9.340   7.595  1.00  0.00     0.198 A 
ATOM    101  F   UNL     1     -10.580  -7.346   7.084  1.00  0.00    -0.203 F 
ATOM    102  F   UNL     1      -5.929 -10.183   7.368  1.00  0.00    -0.200 F 
ATOM    103  C   UNL     1      -8.268 -10.068   7.669  1.00  0.00     0.200 A 
ATOM    104  F   UNL     1     -10.608  -9.909   7.941  1.00  0.00    -0.200 F 
ATOM    105  F   UNL     1      -8.295 -11.349   8.064  1.00  0.00    -0.200 F 
ENDBRANCH  72  95
ENDBRANCH  46  47
ENDBRANCH  38  41
ENDBRANCH  36  37
ENDBRANCH  35  36
ENDBRANCH  34  35
ENDBRANCH  33  34
ENDBRANCH   1  33
TORSDOF 18
