REMARK SMILES C[C@@H]1C[C@@H]1C(=O)NCCC(=O)N[C@@](C)(C(=O)NCCCCCCNC(=O)c1ccc(-c2c3nc(c(-c4c(F)c(F)c(F)c(F)c4F)c4ccc([nH]4)c(-c4c(F)c(F)c(F)c(F)c4F)c4nc(c(-c5c(F)c(F)c(F)c(F)c5F)c5ccc2[nH]5)C=C4)C=C3)cc1)C(F)(F)F
REMARK SMILES IDX 19 1 18 2 17 3 15 4 16 5 13 7 14 8 12 9 10 10 11 11 9 13
REMARK SMILES IDX 8 14 7 15 5 16 6 17 4 19 1 20 2 21 3 22 90 23 91 24 92 25
REMARK SMILES IDX 93 26 20 27 21 28 22 29 23 30 24 31 25 32 26 34 27 35 28 36
REMARK SMILES IDX 89 37 29 38 88 39 30 40 31 41 32 42 82 43 33 44 87 45 81 46
REMARK SMILES IDX 83 47 34 48 86 49 80 50 79 51 35 53 67 54 47 55 66 56 48 57
REMARK SMILES IDX 51 58 65 59 84 60 49 61 50 62 64 64 85 65 52 66 36 67 37 68
REMARK SMILES IDX 45 69 38 70 39 71 43 72 46 73 40 74 41 75 44 76 42 77 68 78
REMARK SMILES IDX 69 79 77 80 70 81 71 82 75 83 78 84 72 85 73 86 76 87 74 88
REMARK SMILES IDX 53 89 54 90 62 91 55 92 56 93 60 94 63 95 57 96 58 97 61 98
REMARK SMILES IDX 59 99
REMARK H PARENT 17 6 12 12 7 18 24 33 83 52 51 63
REMARK Flexibility Score: inf
ROOT
ATOM      1  C   UNL     1       3.078   7.293   6.281  1.00  0.00     0.021 C 
ENDROOT
BRANCH   1   2
ATOM      2  C   UNL     1       2.508   5.966   5.782  1.00  0.00     0.116 C 
BRANCH   2   3
ATOM      3  N   UNL     1       1.167   6.184   5.273  1.00  0.00    -0.354 N 
ATOM      4  C   UNL     1       0.565   6.017   4.068  1.00  0.00     0.254 C 
ATOM      5  O   UNL     1      -0.603   6.412   4.031  1.00  0.00    -0.272 OA
ATOM      6  H   UNL     1       0.552   6.532   5.959  1.00  0.00     0.163 HD
BRANCH   4   7
ATOM      7  C   UNL     1       1.246   5.272   2.901  1.00  0.00     0.212 C 
ATOM      8  C   UNL     1       1.526   3.841   3.400  1.00  0.00     0.056 C 
BRANCH   7   9
ATOM      9  N   UNL     1       2.551   5.961   2.576  1.00  0.00    -0.335 N 
ATOM     10  C   UNL     1       3.455   5.845   1.565  1.00  0.00     0.222 C 
ATOM     11  O   UNL     1       4.619   6.168   1.824  1.00  0.00    -0.275 OA
ATOM     12  H   UNL     1       2.802   6.644   3.240  1.00  0.00     0.164 HD
BRANCH  10  13
ATOM     13  C   UNL     1       3.076   5.455   0.154  1.00  0.00     0.121 C 
BRANCH  13  14
ATOM     14  C   UNL     1       3.479   4.053  -0.298  1.00  0.00     0.125 C 
BRANCH  14  15
ATOM     15  N   UNL     1       3.091   2.979   0.590  1.00  0.00    -0.355 N 
ATOM     16  C   UNL     1       2.036   2.109   0.537  1.00  0.00     0.223 C 
ATOM     17  O   UNL     1       1.840   1.354   1.485  1.00  0.00    -0.275 OA
ATOM     18  H   UNL     1       3.686   2.852   1.364  1.00  0.00     0.163 HD
BRANCH  16  19
ATOM     19  C   UNL     1       1.114   2.115  -0.624  1.00  0.00     0.081 C 
ATOM     20  C   UNL     1       1.057  -0.515  -0.660  1.00  0.00     0.008 C 
ATOM     21  C   UNL     1       0.607   0.802  -1.198  1.00  0.00    -0.001 C 
ATOM     22  C   UNL     1       1.544   1.662  -1.997  1.00  0.00     0.018 C 
ENDBRANCH  16  19
ENDBRANCH  14  15
ENDBRANCH  13  14
ENDBRANCH  10  13
ENDBRANCH   7   9
BRANCH   7  23
ATOM     23  C   UNL     1       0.175   5.269   1.793  1.00  0.00     0.420 C 
ATOM     24  F   UNL     1      -0.058   6.511   1.307  1.00  0.00    -0.168 F 
ATOM     25  F   UNL     1       0.569   4.521   0.742  1.00  0.00    -0.168 F 
ATOM     26  F   UNL     1      -1.002   4.731   2.180  1.00  0.00    -0.168 F 
ENDBRANCH   7  23
ENDBRANCH   4   7
ENDBRANCH   2   3
ENDBRANCH   1   2
BRANCH   1  27
ATOM     27  C   UNL     1       2.180   8.000   7.312  1.00  0.00     0.002 C 
BRANCH  27  28
ATOM     28  C   UNL     1       1.768   7.133   8.507  1.00  0.00     0.002 C 
BRANCH  28  29
ATOM     29  C   UNL     1       2.938   6.551   9.298  1.00  0.00     0.021 C 
BRANCH  29  30
ATOM     30  C   UNL     1       3.936   7.592   9.784  1.00  0.00     0.116 C 
BRANCH  30  31
ATOM     31  N   UNL     1       3.322   8.571  10.664  1.00  0.00    -0.352 N 
ATOM     32  C   UNL     1       3.743   9.002  11.900  1.00  0.00     0.251 C 
ATOM     33  H   UNL     1       2.491   8.982  10.331  1.00  0.00     0.163 HD
ATOM     34  O   UNL     1       3.031   9.701  12.598  1.00  0.00    -0.269 OA
BRANCH  32  35
ATOM     35  C   UNL     1       5.073   8.574  12.379  1.00  0.00     0.039 A 
ATOM     36  C   UNL     1       5.181   8.021  13.656  1.00  0.00     0.014 A 
ATOM     37  C   UNL     1       6.194   8.685  11.551  1.00  0.00     0.014 A 
ATOM     38  C   UNL     1       6.410   7.516  14.081  1.00  0.00     0.010 A 
ATOM     39  C   UNL     1       7.399   8.118  11.948  1.00  0.00     0.010 A 
ATOM     40  C   UNL     1       7.517   7.528  13.216  1.00  0.00    -0.014 A 
BRANCH  40  41
ATOM     41  C   UNL     1       8.808   6.918  13.613  1.00  0.00     0.031 A 
ATOM     42  C   UNL     1      10.028   7.778  13.770  1.00  0.00     0.074 A 
ATOM     43  C   UNL     1       8.894   5.581  13.758  1.00  0.00     0.049 A 
ATOM     44  N   UNL     1      11.263   7.425  14.024  1.00  0.00    -0.248 NA
ATOM     45  C   UNL     1       9.842   9.227  13.591  1.00  0.00     0.031 C 
ATOM     46  C   UNL     1       7.787   4.639  13.585  1.00  0.00     0.029 A 
ATOM     47  N   UNL     1       9.965   4.782  14.068  1.00  0.00    -0.354 N 
ATOM     48  C   UNL     1      11.999   8.602  14.020  1.00  0.00     0.074 A 
ATOM     49  C   UNL     1      11.085   9.674  13.691  1.00  0.00     0.031 C 
ATOM     50  C   UNL     1       8.233   3.392  13.805  1.00  0.00     0.029 A 
ATOM     51  C   UNL     1       9.663   3.442  14.094  1.00  0.00     0.049 A 
ATOM     52  H   UNL     1      10.865   5.135  14.253  1.00  0.00     0.167 HD
ATOM     53  C   UNL     1      13.315   8.773  14.289  1.00  0.00     0.037 A 
ATOM     54  C   UNL     1      10.454   2.376  14.313  1.00  0.00     0.037 A 
ATOM     55  C   UNL     1      14.213   7.705  14.640  1.00  0.00     0.049 A 
ATOM     56  C   UNL     1      11.915   2.595  14.601  1.00  0.00     0.074 A 
ATOM     57  C   UNL     1      15.548   7.783  14.997  1.00  0.00     0.029 A 
ATOM     58  N   UNL     1      13.867   6.362  14.675  1.00  0.00    -0.354 N 
ATOM     59  N   UNL     1      12.586   3.719  14.666  1.00  0.00    -0.248 NA
ATOM     60  C   UNL     1      12.727   1.395  14.849  1.00  0.00     0.031 C 
ATOM     61  C   UNL     1      16.023   6.484  15.200  1.00  0.00     0.029 A 
ATOM     62  C   UNL     1      14.971   5.599  15.021  1.00  0.00     0.049 A 
ATOM     63  H   UNL     1      12.971   6.004  14.483  1.00  0.00     0.167 HD
ATOM     64  C   UNL     1      13.890   3.366  14.986  1.00  0.00     0.074 A 
ATOM     65  C   UNL     1      13.912   1.925  15.120  1.00  0.00     0.031 C 
ATOM     66  C   UNL     1      14.973   4.165  15.152  1.00  0.00     0.037 A 
BRANCH  53  67
ATOM     67  C   UNL     1      13.865  10.168  14.216  1.00  0.00     0.064 A 
ATOM     68  C   UNL     1      13.530  11.141  15.169  1.00  0.00     0.173 A 
ATOM     69  C   UNL     1      14.772  10.522  13.206  1.00  0.00     0.173 A 
ATOM     70  F   UNL     1      12.658  10.857  16.147  1.00  0.00    -0.203 F 
ATOM     71  C   UNL     1      14.065  12.425  15.100  1.00  0.00     0.198 A 
ATOM     72  C   UNL     1      15.328  11.798  13.157  1.00  0.00     0.198 A 
ATOM     73  F   UNL     1      15.128   9.627  12.272  1.00  0.00    -0.203 F 
ATOM     74  F   UNL     1      13.697  13.351  15.996  1.00  0.00    -0.200 F 
ATOM     75  C   UNL     1      14.969  12.750  14.100  1.00  0.00     0.200 A 
ATOM     76  F   UNL     1      16.211  12.106  12.197  1.00  0.00    -0.200 F 
ATOM     77  F   UNL     1      15.491  13.982  14.041  1.00  0.00    -0.200 F 
ENDBRANCH  53  67
BRANCH  54  78
ATOM     78  C   UNL     1       9.882   1.005  14.280  1.00  0.00     0.064 A 
ATOM     79  C   UNL     1       9.776   0.239  15.449  1.00  0.00     0.173 A 
ATOM     80  C   UNL     1       9.438   0.428  13.080  1.00  0.00     0.173 A 
ATOM     81  F   UNL     1      10.206   0.739  16.617  1.00  0.00    -0.203 F 
ATOM     82  C   UNL     1       9.271  -1.059  15.416  1.00  0.00     0.198 A 
ATOM     83  C   UNL     1       8.906  -0.859  13.054  1.00  0.00     0.198 A 
ATOM     84  F   UNL     1       9.512   1.121  11.934  1.00  0.00    -0.203 F 
ATOM     85  F   UNL     1       9.228  -1.787  16.541  1.00  0.00    -0.200 F 
ATOM     86  C   UNL     1       8.832  -1.605  14.220  1.00  0.00     0.200 A 
ATOM     87  F   UNL     1       8.469  -1.377  11.898  1.00  0.00    -0.200 F 
ATOM     88  F   UNL     1       8.345  -2.853  14.190  1.00  0.00    -0.200 F 
ENDBRANCH  54  78
BRANCH  66  89
ATOM     89  C   UNL     1      16.266   3.498  15.523  1.00  0.00     0.064 A 
ATOM     90  C   UNL     1      16.987   2.727  14.600  1.00  0.00     0.173 A 
ATOM     91  C   UNL     1      16.809   3.666  16.806  1.00  0.00     0.173 A 
ATOM     92  F   UNL     1      16.502   2.524  13.365  1.00  0.00    -0.203 F 
ATOM     93  C   UNL     1      18.191   2.126  14.956  1.00  0.00     0.198 A 
ATOM     94  C   UNL     1      18.028   3.089  17.149  1.00  0.00     0.198 A 
ATOM     95  F   UNL     1      16.162   4.400  17.724  1.00  0.00    -0.203 F 
ATOM     96  F   UNL     1      18.838   1.353  14.073  1.00  0.00    -0.200 F 
ATOM     97  C   UNL     1      18.714   2.313  16.227  1.00  0.00     0.200 A 
ATOM     98  F   UNL     1      18.539   3.283  18.372  1.00  0.00    -0.200 F 
ATOM     99  F   UNL     1      19.877   1.740  16.565  1.00  0.00    -0.200 F 
ENDBRANCH  66  89
ENDBRANCH  40  41
ENDBRANCH  32  35
ENDBRANCH  30  31
ENDBRANCH  29  30
ENDBRANCH  28  29
ENDBRANCH  27  28
ENDBRANCH   1  27
TORSDOF 19
