REMARK SMILES Cc1ccc(C(=O)NCCCCCCNC(=O)c2ccc(-c3c4nc(c(-c5c(F)c(F)c(F)c(F)c5F)c5ccc([nH]5)c(-c5c(F)c(F)c(F)c(F)c5F)c5nc(c(-c6c(F)c(F)c(F)c(F)c6F)c6ccc3[nH]6)C=C5)C=C4)cc2)cc1S(=O)(=O)C[C@@H]1C[C@H]2CC[C@@H]1C2
REMARK SMILES IDX 11 1 10 2 9 3 8 4 6 5 7 6 5 8 1 9 2 10 3 11 82 12 4 13 81 14
REMARK SMILES IDX 83 15 84 16 85 17 86 18 87 19 88 20 92 21 89 22 91 23 93 24
REMARK SMILES IDX 90 25 12 26 13 27 14 28 15 29 16 30 17 32 18 33 19 34 80 35
REMARK SMILES IDX 20 36 79 37 21 38 22 39 23 40 73 41 24 42 78 43 72 44 74 45
REMARK SMILES IDX 25 46 77 47 71 48 70 49 26 51 58 52 38 53 57 54 39 55 42 56
REMARK SMILES IDX 56 57 75 58 40 59 41 60 55 62 76 63 43 64 27 65 28 66 36 67
REMARK SMILES IDX 29 68 30 69 34 70 37 71 31 72 32 73 35 74 33 75 59 76 60 77
REMARK SMILES IDX 68 78 61 79 62 80 66 81 69 82 63 83 64 84 67 85 65 86 44 87
REMARK SMILES IDX 45 88 53 89 46 90 47 91 51 92 54 93 48 94 49 95 52 96 50 97
REMARK H PARENT 8 7 15 31 74 50 42 61
REMARK Flexibility Score: inf
ROOT
ATOM      1  C   UNL     1      -5.702   3.532  -1.091  1.00  0.00     0.002 C 
ENDROOT
BRANCH   1   2
ATOM      2  C   UNL     1      -4.213   3.293  -1.357  1.00  0.00     0.021 C 
BRANCH   2   3
ATOM      3  C   UNL     1      -3.363   2.590  -0.298  1.00  0.00     0.116 C 
BRANCH   3   4
ATOM      4  N   UNL     1      -3.868   1.317   0.181  1.00  0.00    -0.352 N 
ATOM      5  C   UNL     1      -3.200   0.173   0.562  1.00  0.00     0.251 C 
ATOM      6  O   UNL     1      -3.847  -0.759   1.038  1.00  0.00    -0.269 OA
ATOM      7  H   UNL     1      -4.849   1.261   0.243  1.00  0.00     0.163 HD
BRANCH   5   8
ATOM      8  C   UNL     1      -1.742  -0.017   0.311  1.00  0.00     0.041 A 
ATOM      9  C   UNL     1       2.062  -0.587  -1.608  1.00  0.00     0.046 C 
ATOM     10  C   UNL     1       0.856  -0.353  -0.746  1.00  0.00    -0.032 A 
ATOM     11  C   UNL     1      -0.049  -1.431  -0.675  1.00  0.00     0.005 A 
ATOM     12  C   UNL     1       0.502   0.852  -0.116  1.00  0.00     0.071 A 
ATOM     13  C   UNL     1      -1.339  -1.261  -0.171  1.00  0.00     0.014 A 
ATOM     14  C   UNL     1      -0.786   0.991   0.452  1.00  0.00     0.034 A 
BRANCH  12  15
ATOM     15  S   UNL     1       1.451   2.369  -0.225  1.00  0.00     0.178 S 
ATOM     16  O   UNL     1       1.403   2.748  -1.626  1.00  0.00    -0.224 OA
ATOM     17  O   UNL     1       0.895   3.270   0.774  1.00  0.00    -0.224 OA
BRANCH  15  18
ATOM     18  C   UNL     1       3.157   2.145   0.215  1.00  0.00     0.146 C 
BRANCH  18  19
ATOM     19  C   UNL     1       3.412   1.442   1.546  1.00  0.00     0.008 C 
ATOM     20  C   UNL     1       4.515   2.147   2.382  1.00  0.00     0.008 C 
ATOM     21  C   UNL     1       4.024   0.026   1.369  1.00  0.00    -0.007 C 
ATOM     22  C   UNL     1       5.509   1.015   2.691  1.00  0.00    -0.011 C 
ATOM     23  C   UNL     1       3.862  -0.740   2.689  1.00  0.00     0.004 C 
ATOM     24  C   UNL     1       5.533   0.281   1.355  1.00  0.00     0.007 C 
ATOM     25  C   UNL     1       4.841  -0.013   3.620  1.00  0.00     0.004 C 
ENDBRANCH  18  19
ENDBRANCH  15  18
ENDBRANCH  12  15
ENDBRANCH   5   8
ENDBRANCH   3   4
ENDBRANCH   2   3
ENDBRANCH   1   2
BRANCH   1  26
ATOM     26  C   UNL     1      -6.133   4.114   0.260  1.00  0.00     0.002 C 
BRANCH  26  27
ATOM     27  C   UNL     1      -5.358   5.314   0.801  1.00  0.00     0.021 C 
BRANCH  27  28
ATOM     28  C   UNL     1      -5.409   6.573  -0.054  1.00  0.00     0.116 C 
BRANCH  28  29
ATOM     29  N   UNL     1      -6.341   7.592   0.418  1.00  0.00    -0.352 N 
ATOM     30  C   UNL     1      -6.633   8.826  -0.144  1.00  0.00     0.251 C 
ATOM     31  H   UNL     1      -6.827   7.375   1.246  1.00  0.00     0.163 HD
ATOM     32  O   UNL     1      -7.439   9.580   0.375  1.00  0.00    -0.269 OA
BRANCH  30  33
ATOM     33  C   UNL     1      -6.037   9.163  -1.459  1.00  0.00     0.039 A 
ATOM     34  C   UNL     1      -6.899   9.524  -2.500  1.00  0.00     0.014 A 
ATOM     35  C   UNL     1      -4.691   8.910  -1.712  1.00  0.00     0.014 A 
ATOM     36  C   UNL     1      -6.467   9.382  -3.817  1.00  0.00     0.010 A 
ATOM     37  C   UNL     1      -4.291   8.674  -3.012  1.00  0.00     0.010 A 
ATOM     38  C   UNL     1      -5.202   8.842  -4.059  1.00  0.00    -0.014 A 
BRANCH  38  39
ATOM     39  C   UNL     1      -4.816   8.295  -5.353  1.00  0.00     0.031 A 
ATOM     40  C   UNL     1      -3.888   9.014  -6.244  1.00  0.00     0.074 A 
ATOM     41  C   UNL     1      -5.288   7.089  -5.744  1.00  0.00     0.049 A 
ATOM     42  N   UNL     1      -3.943   8.938  -7.533  1.00  0.00    -0.248 NA
ATOM     43  C   UNL     1      -2.833   9.895  -5.755  1.00  0.00     0.031 C 
ATOM     44  C   UNL     1      -4.841   6.297  -6.889  1.00  0.00     0.029 A 
ATOM     45  N   UNL     1      -6.438   6.426  -5.288  1.00  0.00    -0.354 N 
ATOM     46  C   UNL     1      -2.792   9.501  -8.020  1.00  0.00     0.074 A 
ATOM     47  C   UNL     1      -2.174  10.158  -6.889  1.00  0.00     0.031 C 
ATOM     48  C   UNL     1      -5.830   5.465  -7.249  1.00  0.00     0.029 A 
ATOM     49  C   UNL     1      -6.981   5.787  -6.426  1.00  0.00     0.049 A 
ATOM     50  H   UNL     1      -6.792   6.409  -4.369  1.00  0.00     0.167 HD
ATOM     51  C   UNL     1      -2.385   9.235  -9.291  1.00  0.00     0.037 A 
ATOM     52  C   UNL     1      -8.227   6.074  -6.893  1.00  0.00     0.037 A 
ATOM     53  C   UNL     1      -3.284   8.326  -9.988  1.00  0.00     0.049 A 
ATOM     54  C   UNL     1      -8.268   6.498  -8.340  1.00  0.00     0.074 A 
ATOM     55  C   UNL     1      -3.236   6.964 -10.238  1.00  0.00     0.029 A 
ATOM     56  N   UNL     1      -4.585   8.725 -10.275  1.00  0.00    -0.354 N 
ATOM     57  N   UNL     1      -7.237   6.942  -9.001  1.00  0.00    -0.248 NA
ATOM     58  C   UNL     1      -9.484   6.492  -9.144  1.00  0.00     0.031 C 
ATOM     59  C   UNL     1      -4.505   6.546 -10.701  1.00  0.00     0.029 A 
ATOM     60  C   UNL     1      -5.331   7.655 -10.731  1.00  0.00     0.049 A 
ATOM     61  H   UNL     1      -4.927   9.643 -10.169  1.00  0.00     0.167 HD
ATOM     62  C   UNL     1      -7.618   7.291 -10.277  1.00  0.00     0.074 A 
ATOM     63  C   UNL     1      -9.030   6.964 -10.318  1.00  0.00     0.031 C 
ATOM     64  C   UNL     1      -6.714   7.822 -11.159  1.00  0.00     0.037 A 
BRANCH  51  65
ATOM     65  C   UNL     1      -0.994   9.582  -9.744  1.00  0.00     0.064 A 
ATOM     66  C   UNL     1      -0.189   8.664 -10.446  1.00  0.00     0.173 A 
ATOM     67  C   UNL     1      -0.386  10.813  -9.439  1.00  0.00     0.173 A 
ATOM     68  F   UNL     1      -0.665   7.483 -10.858  1.00  0.00    -0.203 F 
ATOM     69  C   UNL     1       1.156   8.916 -10.723  1.00  0.00     0.198 A 
ATOM     70  C   UNL     1       0.972  11.046  -9.674  1.00  0.00     0.198 A 
ATOM     71  F   UNL     1      -1.098  11.810  -8.890  1.00  0.00    -0.203 F 
ATOM     72  F   UNL     1       1.883   7.997 -11.373  1.00  0.00    -0.200 F 
ATOM     73  C   UNL     1       1.746  10.091 -10.305  1.00  0.00     0.200 A 
ATOM     74  F   UNL     1       1.532  12.193  -9.261  1.00  0.00    -0.200 F 
ATOM     75  F   UNL     1       3.052  10.304 -10.513  1.00  0.00    -0.200 F 
ENDBRANCH  51  65
BRANCH  52  76
ATOM     76  C   UNL     1      -9.158   6.551  -5.839  1.00  0.00     0.064 A 
ATOM     77  C   UNL     1      -9.466   5.682  -4.773  1.00  0.00     0.173 A 
ATOM     78  C   UNL     1      -9.434   7.911  -5.667  1.00  0.00     0.173 A 
ATOM     79  F   UNL     1      -9.215   4.367  -4.887  1.00  0.00    -0.203 F 
ATOM     80  C   UNL     1      -9.917   6.169  -3.549  1.00  0.00     0.198 A 
ATOM     81  C   UNL     1      -9.902   8.393  -4.443  1.00  0.00     0.198 A 
ATOM     82  F   UNL     1      -9.146   8.790  -6.638  1.00  0.00    -0.203 F 
ATOM     83  F   UNL     1     -10.090   5.329  -2.518  1.00  0.00    -0.200 F 
ATOM     84  C   UNL     1     -10.110   7.529  -3.377  1.00  0.00     0.200 A 
ATOM     85  F   UNL     1     -10.063   9.713  -4.266  1.00  0.00    -0.200 F 
ATOM     86  F   UNL     1     -10.456   8.011  -2.176  1.00  0.00    -0.200 F 
ENDBRANCH  52  76
BRANCH  64  87
ATOM     87  C   UNL     1      -6.957   8.447 -12.528  1.00  0.00     0.064 A 
ATOM     88  C   UNL     1      -8.208   8.821 -13.045  1.00  0.00     0.173 A 
ATOM     89  C   UNL     1      -5.854   8.796 -13.360  1.00  0.00     0.173 A 
ATOM     90  F   UNL     1      -9.336   8.664 -12.347  1.00  0.00    -0.203 F 
ATOM     91  C   UNL     1      -8.351   9.436 -14.297  1.00  0.00     0.198 A 
ATOM     92  C   UNL     1      -5.995   9.459 -14.579  1.00  0.00     0.198 A 
ATOM     93  F   UNL     1      -4.587   8.532 -13.010  1.00  0.00    -0.203 F 
ATOM     94  F   UNL     1      -9.577   9.733 -14.750  1.00  0.00    -0.200 F 
ATOM     95  C   UNL     1      -7.247   9.767 -15.057  1.00  0.00     0.200 A 
ATOM     96  F   UNL     1      -4.904   9.811 -15.275  1.00  0.00    -0.200 F 
ATOM     97  F   UNL     1      -7.388  10.397 -16.230  1.00  0.00    -0.200 F 
ENDBRANCH  64  87
ENDBRANCH  38  39
ENDBRANCH  30  33
ENDBRANCH  28  29
ENDBRANCH  27  28
ENDBRANCH  26  27
ENDBRANCH   1  26
TORSDOF 16
