REMARK SMILES Cc1nc(C[N@@H+]2CCC[C@H]2C(=O)NCCCCCCNC(=O)c2ccc(-c3c4nc(c(-c5c(F)c(F)c(F)c(F)c5F)c5ccc([nH]5)c(-c5c(F)c(F)c(F)c(F)c5F)c5nc(c(-c6c(F)c(F)c(F)c(F)c6F)c6ccc3[nH]6)C=C5)C=C4)cc2)cs1
REMARK SMILES IDX 16 1 15 2 14 3 13 4 11 5 12 6 10 8 6 9 7 10 8 12 9 13 5 14
REMARK SMILES IDX 4 15 1 16 2 17 3 18 87 19 86 20 17 21 18 22 19 23 20 24
REMARK SMILES IDX 21 25 22 27 23 28 24 29 85 30 25 31 84 32 26 33 27 34 28 35
REMARK SMILES IDX 78 36 29 37 83 38 77 39 79 40 30 41 82 42 76 43 75 44 31 46
REMARK SMILES IDX 63 47 43 48 62 49 44 50 47 51 61 52 80 53 45 54 46 55 60 57
REMARK SMILES IDX 81 58 48 59 32 60 33 61 41 62 34 63 35 64 39 65 42 66 36 67
REMARK SMILES IDX 37 68 40 69 38 70 64 71 65 72 73 73 66 74 67 75 71 76 74 77
REMARK SMILES IDX 68 78 69 79 72 80 70 81 49 82 50 83 58 84 51 85 52 86 56 87
REMARK SMILES IDX 59 88 53 89 54 90 57 91 55 92
REMARK H PARENT 13 7 6 11 20 26 79 45 47 56
REMARK Flexibility Score: inf
ROOT
ATOM      1  C   UNL     1       4.275  -7.137  -2.551  1.00  0.00     0.002 C 
ENDROOT
BRANCH   1   2
ATOM      2  C   UNL     1       3.658  -6.128  -1.579  1.00  0.00     0.021 C 
BRANCH   2   3
ATOM      3  C   UNL     1       3.968  -4.664  -1.879  1.00  0.00     0.116 C 
BRANCH   3   4
ATOM      4  N   UNL     1       3.392  -4.238  -3.138  1.00  0.00    -0.351 N 
ATOM      5  C   UNL     1       2.590  -3.195  -3.481  1.00  0.00     0.278 C 
ATOM      6  O   UNL     1       2.279  -3.148  -4.679  1.00  0.00    -0.268 OA
ATOM      7  H   UNL     1       3.628  -4.819  -3.897  1.00  0.00     0.163 HD
BRANCH   5   8
ATOM      8  C   UNL     1       2.001  -2.167  -2.480  1.00  0.00     0.274 C 
ATOM      9  N   UNL     1       2.800  -2.006  -1.253  1.00  0.00    -0.320 N 
ATOM     10  C   UNL     1       3.655  -0.843  -1.413  1.00  0.00     0.263 C 
ATOM     11  H   UNL     1       3.413  -2.812  -1.132  1.00  0.00     0.349 HD
ATOM     12  C   UNL     1       2.893   0.110  -2.308  1.00  0.00     0.068 C 
ATOM     13  C   UNL     1       1.970  -0.775  -3.132  1.00  0.00     0.081 C 
BRANCH   9  14
ATOM     14  C   UNL     1       2.027  -2.095  -0.009  1.00  0.00     0.321 C 
BRANCH  14  15
ATOM     15  C   UNL     1       1.037  -0.994   0.224  1.00  0.00     0.106 A 
ATOM     16  C   UNL     1      -2.470   0.000  -0.072  1.00  0.00     0.079 C 
ATOM     17  C   UNL     1      -1.008  -0.129   0.173  1.00  0.00     0.090 A 
ATOM     18  N   UNL     1      -0.283  -1.172  -0.174  1.00  0.00    -0.241 NA
ATOM     19  S   UNL     1      -0.152   1.135   0.961  1.00  0.00    -0.127 S 
ATOM     20  C   UNL     1       1.278   0.201   0.879  1.00  0.00     0.096 A 
ENDBRANCH  14  15
ENDBRANCH   9  14
ENDBRANCH   5   8
ENDBRANCH   3   4
ENDBRANCH   2   3
ENDBRANCH   1   2
BRANCH   1  21
ATOM     21  C   UNL     1       5.794  -7.048  -2.722  1.00  0.00     0.002 C 
BRANCH  21  22
ATOM     22  C   UNL     1       6.610  -7.076  -1.428  1.00  0.00     0.021 C 
BRANCH  22  23
ATOM     23  C   UNL     1       6.354  -8.278  -0.526  1.00  0.00     0.116 C 
BRANCH  23  24
ATOM     24  N   UNL     1       6.724  -9.534  -1.153  1.00  0.00    -0.352 N 
ATOM     25  C   UNL     1       7.463 -10.573  -0.647  1.00  0.00     0.251 C 
ATOM     26  H   UNL     1       6.398  -9.658  -2.074  1.00  0.00     0.163 HD
ATOM     27  O   UNL     1       7.810 -11.496  -1.376  1.00  0.00    -0.269 OA
BRANCH  25  28
ATOM     28  C   UNL     1       7.864 -10.576   0.778  1.00  0.00     0.039 A 
ATOM     29  C   UNL     1       9.169 -10.952   1.108  1.00  0.00     0.014 A 
ATOM     30  C   UNL     1       6.955 -10.244   1.787  1.00  0.00     0.014 A 
ATOM     31  C   UNL     1       9.575 -10.957   2.444  1.00  0.00     0.010 A 
ATOM     32  C   UNL     1       7.380 -10.184   3.113  1.00  0.00     0.010 A 
ATOM     33  C   UNL     1       8.689 -10.554   3.456  1.00  0.00    -0.014 A 
BRANCH  33  34
ATOM     34  C   UNL     1       9.098 -10.560   4.884  1.00  0.00     0.031 A 
ATOM     35  C   UNL     1       8.436 -11.509   5.846  1.00  0.00     0.074 A 
ATOM     36  C   UNL     1      10.028  -9.691   5.323  1.00  0.00     0.049 A 
ATOM     37  N   UNL     1       8.588 -11.617   7.142  1.00  0.00    -0.248 NA
ATOM     38  C   UNL     1       7.455 -12.447   5.277  1.00  0.00     0.031 C 
ATOM     39  C   UNL     1      10.723  -8.704   4.495  1.00  0.00     0.029 A 
ATOM     40  N   UNL     1      10.543  -9.492   6.580  1.00  0.00    -0.354 N 
ATOM     41  C   UNL     1       7.717 -12.623   7.541  1.00  0.00     0.074 A 
ATOM     42  C   UNL     1       6.999 -13.055   6.362  1.00  0.00     0.031 C 
ATOM     43  C   UNL     1      11.588  -8.019   5.262  1.00  0.00     0.029 A 
ATOM     44  C   UNL     1      11.483  -8.492   6.639  1.00  0.00     0.049 A 
ATOM     45  H   UNL     1      10.264 -10.016   7.365  1.00  0.00     0.167 HD
ATOM     46  C   UNL     1       7.550 -13.158   8.774  1.00  0.00     0.037 A 
ATOM     47  C   UNL     1      12.176  -8.011   7.689  1.00  0.00     0.037 A 
ATOM     48  C   UNL     1       8.283 -12.745   9.942  1.00  0.00     0.049 A 
ATOM     49  C   UNL     1      11.960  -8.617   9.051  1.00  0.00     0.074 A 
ATOM     50  C   UNL     1       8.196 -13.233  11.235  1.00  0.00     0.029 A 
ATOM     51  N   UNL     1       9.248 -11.749   9.954  1.00  0.00    -0.354 N 
ATOM     52  N   UNL     1      11.160  -9.591   9.408  1.00  0.00    -0.248 NA
ATOM     53  C   UNL     1      12.755  -8.060  10.155  1.00  0.00     0.031 C 
ATOM     54  C   UNL     1       9.090 -12.514  12.035  1.00  0.00     0.029 A 
ATOM     55  C   UNL     1       9.764 -11.609  11.232  1.00  0.00     0.049 A 
ATOM     56  H   UNL     1       9.525 -11.221   9.171  1.00  0.00     0.167 HD
ATOM     57  C   UNL     1      11.387  -9.794  10.763  1.00  0.00     0.074 A 
ATOM     58  C   UNL     1      12.405  -8.846  11.163  1.00  0.00     0.031 C 
ATOM     59  C   UNL     1      10.804 -10.685  11.602  1.00  0.00     0.037 A 
BRANCH  46  60
ATOM     60  C   UNL     1       6.547 -14.264   8.921  1.00  0.00     0.064 A 
ATOM     61  C   UNL     1       6.785 -15.541   8.388  1.00  0.00     0.173 A 
ATOM     62  C   UNL     1       5.357 -14.063   9.636  1.00  0.00     0.173 A 
ATOM     63  F   UNL     1       7.901 -15.781   7.684  1.00  0.00    -0.203 F 
ATOM     64  C   UNL     1       5.858 -16.568   8.547  1.00  0.00     0.198 A 
ATOM     65  C   UNL     1       4.446 -15.101   9.818  1.00  0.00     0.198 A 
ATOM     66  F   UNL     1       5.083 -12.863  10.170  1.00  0.00    -0.203 F 
ATOM     67  F   UNL     1       6.087 -17.766   7.992  1.00  0.00    -0.200 F 
ATOM     68  C   UNL     1       4.694 -16.349   9.268  1.00  0.00     0.200 A 
ATOM     69  F   UNL     1       3.328 -14.892  10.526  1.00  0.00    -0.200 F 
ATOM     70  F   UNL     1       3.808 -17.342   9.429  1.00  0.00    -0.200 F 
ENDBRANCH  46  60
BRANCH  47  71
ATOM     71  C   UNL     1      13.162  -6.915   7.500  1.00  0.00     0.064 A 
ATOM     72  C   UNL     1      14.536  -7.150   7.662  1.00  0.00     0.173 A 
ATOM     73  C   UNL     1      12.756  -5.608   7.197  1.00  0.00     0.173 A 
ATOM     74  F   UNL     1      14.972  -8.379   7.974  1.00  0.00    -0.203 F 
ATOM     75  C   UNL     1      15.461  -6.113   7.561  1.00  0.00     0.198 A 
ATOM     76  C   UNL     1      13.685  -4.578   7.067  1.00  0.00     0.198 A 
ATOM     77  F   UNL     1      11.455  -5.331   7.028  1.00  0.00    -0.203 F 
ATOM     78  F   UNL     1      16.760  -6.354   7.782  1.00  0.00    -0.200 F 
ATOM     79  C   UNL     1      15.035  -4.828   7.261  1.00  0.00     0.200 A 
ATOM     80  F   UNL     1      13.271  -3.340   6.765  1.00  0.00    -0.200 F 
ATOM     81  F   UNL     1      15.924  -3.829   7.172  1.00  0.00    -0.200 F 
ENDBRANCH  47  71
BRANCH  59  82
ATOM     82  C   UNL     1      11.303 -10.727  13.016  1.00  0.00     0.064 A 
ATOM     83  C   UNL     1      11.014  -9.707  13.934  1.00  0.00     0.173 A 
ATOM     84  C   UNL     1      12.054 -11.824  13.466  1.00  0.00     0.173 A 
ATOM     85  F   UNL     1      10.311  -8.631  13.549  1.00  0.00    -0.203 F 
ATOM     86  C   UNL     1      11.483  -9.771  15.243  1.00  0.00     0.198 A 
ATOM     87  C   UNL     1      12.497 -11.898  14.783  1.00  0.00     0.198 A 
ATOM     88  F   UNL     1      12.351 -12.829  12.628  1.00  0.00    -0.203 F 
ATOM     89  F   UNL     1      11.238  -8.762  16.090  1.00  0.00    -0.200 F 
ATOM     90  C   UNL     1      12.218 -10.868  15.668  1.00  0.00     0.200 A 
ATOM     91  F   UNL     1      13.195 -12.965  15.194  1.00  0.00    -0.200 F 
ATOM     92  F   UNL     1      12.665 -10.929  16.930  1.00  0.00    -0.200 F 
ENDBRANCH  59  82
ENDBRANCH  33  34
ENDBRANCH  25  28
ENDBRANCH  23  24
ENDBRANCH  22  23
ENDBRANCH  21  22
ENDBRANCH   1  21
TORSDOF 15
