REMARK SMILES C[C@@H]1[C@@H](C(=O)NCCCCCCNC(=O)c2ccc(-c3c4nc(c(-c5c(F)c(F)c(F)c(F)c5F)c5ccc([nH]5)c(-c5c(F)c(F)c(F)c(F)c5F)c5nc(c(-c6c(F)c(F)c(F)c(F)c6F)c6ccc3[nH]6)C=C5)C=C4)cc2)CCN1C(=O)[C@@H]1CCCN1C(=O)C1CC1
REMARK SMILES IDX 8 1 7 2 6 3 4 4 5 5 3 7 1 8 2 9 81 10 79 11 80 12 82 13
REMARK SMILES IDX 83 14 84 15 85 16 88 17 86 18 87 19 89 20 90 21 91 22 92 23
REMARK SMILES IDX 93 24 9 25 10 26 11 27 12 28 13 29 14 30 15 32 16 33 17 34
REMARK SMILES IDX 78 35 18 36 77 37 19 38 20 39 21 40 71 41 22 42 76 43 70 44
REMARK SMILES IDX 72 45 23 46 75 47 69 48 68 49 24 51 56 52 36 53 55 54 37 55
REMARK SMILES IDX 40 56 54 57 73 58 38 59 39 60 53 62 74 63 41 64 25 65 26 66
REMARK SMILES IDX 34 67 27 68 28 69 32 70 35 71 29 72 30 73 33 74 31 75 57 76
REMARK SMILES IDX 58 77 66 78 59 79 60 80 64 81 67 82 61 83 62 84 65 85 63 86
REMARK SMILES IDX 42 87 43 88 51 89 44 90 45 91 49 92 52 93 46 94 47 95 50 96
REMARK SMILES IDX 48 97
REMARK H PARENT 6 6 13 31 72 50 40 61
REMARK Flexibility Score: inf
ROOT
ATOM      1  C   UNL     1      -2.879   4.319  -1.494  1.00  0.00     0.021 C 
ENDROOT
BRANCH   1   2
ATOM      2  C   UNL     1      -2.452   2.958  -0.963  1.00  0.00     0.116 C 
BRANCH   2   3
ATOM      3  N   UNL     1      -1.660   2.204  -1.910  1.00  0.00    -0.356 N 
ATOM      4  C   UNL     1      -0.643   1.326  -1.676  1.00  0.00     0.225 C 
ATOM      5  O   UNL     1      -0.088   0.825  -2.654  1.00  0.00    -0.275 OA
ATOM      6  H   UNL     1      -1.887   2.345  -2.858  1.00  0.00     0.163 HD
BRANCH   4   7
ATOM      7  C   UNL     1      -0.186   1.063  -0.240  1.00  0.00     0.102 C 
ATOM      8  C   UNL     1       1.886   0.193   0.931  1.00  0.00     0.032 C 
ATOM      9  C   UNL     1       0.868  -0.076  -0.178  1.00  0.00     0.094 C 
ATOM     10  N   UNL     1       0.075  -1.289   0.085  1.00  0.00    -0.337 N 
ATOM     11  C   UNL     1      -1.295   0.507   0.658  1.00  0.00     0.037 C 
ATOM     12  C   UNL     1      -1.321  -0.950   0.262  1.00  0.00     0.121 C 
BRANCH  10  13
ATOM     13  C   UNL     1       0.370  -2.517  -0.496  1.00  0.00     0.245 C 
ATOM     14  O   UNL     1      -0.371  -3.022  -1.341  1.00  0.00    -0.272 OA
BRANCH  13  15
ATOM     15  C   UNL     1       1.584  -3.260   0.107  1.00  0.00     0.174 C 
ATOM     16  C   UNL     1       2.896  -2.882  -0.584  1.00  0.00     0.037 C 
ATOM     17  N   UNL     1       1.466  -4.702  -0.132  1.00  0.00    -0.330 N 
ATOM     18  C   UNL     1       2.974  -3.854  -1.750  1.00  0.00     0.024 C 
ATOM     19  C   UNL     1       2.383  -5.128  -1.177  1.00  0.00     0.120 C 
BRANCH  17  20
ATOM     20  C   UNL     1       0.648  -5.652   0.452  1.00  0.00     0.226 C 
ATOM     21  O   UNL     1       0.678  -6.821   0.068  1.00  0.00    -0.275 OA
BRANCH  20  22
ATOM     22  C   UNL     1      -0.272  -5.374   1.594  1.00  0.00     0.079 C 
ATOM     23  C   UNL     1      -0.692  -4.105   2.271  1.00  0.00     0.014 C 
ATOM     24  C   UNL     1      -1.626  -4.759   1.298  1.00  0.00     0.014 C 
ENDBRANCH  20  22
ENDBRANCH  17  20
ENDBRANCH  13  15
ENDBRANCH  10  13
ENDBRANCH   4   7
ENDBRANCH   2   3
ENDBRANCH   1   2
BRANCH   1  25
ATOM     25  C   UNL     1      -3.804   4.284  -2.714  1.00  0.00     0.002 C 
BRANCH  25  26
ATOM     26  C   UNL     1      -5.075   3.440  -2.574  1.00  0.00     0.002 C 
BRANCH  26  27
ATOM     27  C   UNL     1      -5.952   3.742  -1.357  1.00  0.00     0.021 C 
BRANCH  27  28
ATOM     28  C   UNL     1      -6.332   5.205  -1.166  1.00  0.00     0.116 C 
BRANCH  28  29
ATOM     29  N   UNL     1      -7.052   5.754  -2.300  1.00  0.00    -0.352 N 
ATOM     30  C   UNL     1      -8.209   6.491  -2.332  1.00  0.00     0.251 C 
ATOM     31  H   UNL     1      -6.650   5.570  -3.179  1.00  0.00     0.163 HD
ATOM     32  O   UNL     1      -8.736   6.752  -3.409  1.00  0.00    -0.269 OA
BRANCH  30  33
ATOM     33  C   UNL     1      -8.843   6.952  -1.077  1.00  0.00     0.039 A 
ATOM     34  C   UNL     1     -10.235   6.875  -0.969  1.00  0.00     0.014 A 
ATOM     35  C   UNL     1      -8.091   7.484  -0.025  1.00  0.00     0.014 A 
ATOM     36  C   UNL     1     -10.865   7.287   0.206  1.00  0.00     0.010 A 
ATOM     37  C   UNL     1      -8.714   7.823   1.175  1.00  0.00     0.010 A 
ATOM     38  C   UNL     1     -10.109   7.739   1.300  1.00  0.00    -0.014 A 
BRANCH  38  39
ATOM     39  C   UNL     1     -10.772   8.138   2.568  1.00  0.00     0.031 A 
ATOM     40  C   UNL     1     -10.705   9.562   3.048  1.00  0.00     0.074 A 
ATOM     41  C   UNL     1     -11.411   7.208   3.305  1.00  0.00     0.049 A 
ATOM     42  N   UNL     1     -11.209  10.095   4.133  1.00  0.00    -0.248 NA
ATOM     43  C   UNL     1      -9.951  10.508   2.212  1.00  0.00     0.031 C 
ATOM     44  C   UNL     1     -11.507   5.786   2.971  1.00  0.00     0.029 A 
ATOM     45  N   UNL     1     -12.100   7.319   4.487  1.00  0.00    -0.354 N 
ATOM     46  C   UNL     1     -10.830  11.431   4.111  1.00  0.00     0.074 A 
ATOM     47  C   UNL     1     -10.002  11.615   2.939  1.00  0.00     0.031 C 
ATOM     48  C   UNL     1     -12.239   5.163   3.908  1.00  0.00     0.029 A 
ATOM     49  C   UNL     1     -12.633   6.131   4.927  1.00  0.00     0.049 A 
ATOM     50  H   UNL     1     -12.203   8.168   4.974  1.00  0.00     0.167 HD
ATOM     51  C   UNL     1     -11.164  12.420   4.973  1.00  0.00     0.037 A 
ATOM     52  C   UNL     1     -13.355   5.854   6.029  1.00  0.00     0.037 A 
ATOM     53  C   UNL     1     -12.005  12.238   6.128  1.00  0.00     0.049 A 
ATOM     54  C   UNL     1     -13.699   6.970   6.980  1.00  0.00     0.074 A 
ATOM     55  C   UNL     1     -12.448  13.188   7.032  1.00  0.00     0.029 A 
ATOM     56  N   UNL     1     -12.527  11.020   6.541  1.00  0.00    -0.354 N 
ATOM     57  N   UNL     1     -13.398   8.243   6.907  1.00  0.00    -0.248 NA
ATOM     58  C   UNL     1     -14.493   6.609   8.163  1.00  0.00     0.031 C 
ATOM     59  C   UNL     1     -13.192  12.537   8.021  1.00  0.00     0.029 A 
ATOM     60  C   UNL     1     -13.263  11.191   7.703  1.00  0.00     0.049 A 
ATOM     61  H   UNL     1     -12.393  10.162   6.078  1.00  0.00     0.167 HD
ATOM     62  C   UNL     1     -13.985   8.839   8.016  1.00  0.00     0.074 A 
ATOM     63  C   UNL     1     -14.679   7.790   8.734  1.00  0.00     0.031 C 
ATOM     64  C   UNL     1     -13.951  10.137   8.406  1.00  0.00     0.037 A 
BRANCH  51  65
ATOM     65  C   UNL     1     -10.621  13.794   4.701  1.00  0.00     0.064 A 
ATOM     66  C   UNL     1     -11.056  14.554   3.603  1.00  0.00     0.173 A 
ATOM     67  C   UNL     1      -9.684  14.376   5.568  1.00  0.00     0.173 A 
ATOM     68  F   UNL     1     -11.943  14.042   2.736  1.00  0.00    -0.203 F 
ATOM     69  C   UNL     1     -10.551  15.830   3.368  1.00  0.00     0.198 A 
ATOM     70  C   UNL     1      -9.206  15.665   5.348  1.00  0.00     0.198 A 
ATOM     71  F   UNL     1      -9.238  13.698   6.636  1.00  0.00    -0.203 F 
ATOM     72  F   UNL     1     -10.942  16.515   2.284  1.00  0.00    -0.200 F 
ATOM     73  C   UNL     1      -9.632  16.388   4.244  1.00  0.00     0.200 A 
ATOM     74  F   UNL     1      -8.329  16.208   6.204  1.00  0.00    -0.200 F 
ATOM     75  F   UNL     1      -9.153  17.619   4.021  1.00  0.00    -0.200 F 
ENDBRANCH  51  65
BRANCH  52  76
ATOM     76  C   UNL     1     -13.822   4.466   6.285  1.00  0.00     0.064 A 
ATOM     77  C   UNL     1     -15.185   4.141   6.228  1.00  0.00     0.173 A 
ATOM     78  C   UNL     1     -12.920   3.440   6.604  1.00  0.00     0.173 A 
ATOM     79  F   UNL     1     -16.088   5.091   5.948  1.00  0.00    -0.203 F 
ATOM     80  C   UNL     1     -15.630   2.850   6.505  1.00  0.00     0.198 A 
ATOM     81  C   UNL     1     -13.364   2.142   6.849  1.00  0.00     0.198 A 
ATOM     82  F   UNL     1     -11.605   3.696   6.666  1.00  0.00    -0.203 F 
ATOM     83  F   UNL     1     -16.942   2.579   6.495  1.00  0.00    -0.200 F 
ATOM     84  C   UNL     1     -14.718   1.850   6.809  1.00  0.00     0.200 A 
ATOM     85  F   UNL     1     -12.478   1.176   7.127  1.00  0.00    -0.200 F 
ATOM     86  F   UNL     1     -15.146   0.608   7.073  1.00  0.00    -0.200 F 
ENDBRANCH  52  76
BRANCH  64  87
ATOM     87  C   UNL     1     -14.710  10.502   9.650  1.00  0.00     0.064 A 
ATOM     88  C   UNL     1     -14.281  10.093  10.921  1.00  0.00     0.173 A 
ATOM     89  C   UNL     1     -15.863  11.298   9.571  1.00  0.00     0.173 A 
ATOM     90  F   UNL     1     -13.193   9.318  11.050  1.00  0.00    -0.203 F 
ATOM     91  C   UNL     1     -14.996  10.441  12.065  1.00  0.00     0.198 A 
ATOM     92  C   UNL     1     -16.555  11.673  10.719  1.00  0.00     0.198 A 
ATOM     93  F   UNL     1     -16.312  11.723   8.381  1.00  0.00    -0.203 F 
ATOM     94  F   UNL     1     -14.598   9.992  13.263  1.00  0.00    -0.200 F 
ATOM     95  C   UNL     1     -16.127  11.236  11.963  1.00  0.00     0.200 A 
ATOM     96  F   UNL     1     -17.639  12.455  10.620  1.00  0.00    -0.200 F 
ATOM     97  F   UNL     1     -16.810  11.576  13.065  1.00  0.00    -0.200 F 
ENDBRANCH  64  87
ENDBRANCH  38  39
ENDBRANCH  30  33
ENDBRANCH  28  29
ENDBRANCH  27  28
ENDBRANCH  26  27
ENDBRANCH  25  26
ENDBRANCH   1  25
TORSDOF 17
