REMARK SMILES N#C[C@H]1CN(c2cc(C(=O)NCCCCCCNC(=O)c3ccc(-c4c5nc(c(-c6c(F)c(F)c(F)c(F)c6F)c6ccc([nH]6)c(-c6c(F)c(F)c(F)c(F)c6F)c6nc(c(-c7c(F)c(F)c(F)c(F)c7F)c7ccc4[nH]7)C=C6)C=C5)cc3)c(N)cc2F)CCO1
REMARK SMILES IDX 14 1 13 2 12 3 11 4 9 5 10 6 8 8 6 9 7 10 87 11 86 12 88 13
REMARK SMILES IDX 84 14 5 15 3 16 4 17 91 18 90 19 89 20 2 21 1 22 85 23 15 26
REMARK SMILES IDX 16 27 17 28 18 29 19 30 20 32 21 33 22 34 83 35 23 36 82 37
REMARK SMILES IDX 24 38 25 39 26 40 76 41 27 42 81 43 75 44 77 45 28 46 80 47
REMARK SMILES IDX 74 48 73 49 29 51 61 52 41 53 60 54 42 55 45 56 59 57 78 58
REMARK SMILES IDX 43 59 44 60 58 62 79 63 46 64 30 65 31 66 39 67 32 68 33 69
REMARK SMILES IDX 37 70 40 71 34 72 35 73 38 74 36 75 62 76 63 77 71 78 64 79
REMARK SMILES IDX 65 80 69 81 72 82 66 83 67 84 70 85 68 86 47 87 48 88 56 89
REMARK SMILES IDX 49 90 50 91 54 92 57 93 51 94 52 95 55 96 53 97
REMARK H PARENT 11 7 85 24 85 25 18 31 77 50 45 61
REMARK Flexibility Score: inf
ROOT
ATOM      1  C   UNL     1       1.115   8.148  -6.729  1.00  0.00     0.002 C 
ENDROOT
BRANCH   1   2
ATOM      2  C   UNL     1       0.590   7.036  -5.819  1.00  0.00     0.021 C 
BRANCH   2   3
ATOM      3  C   UNL     1       1.272   5.681  -5.950  1.00  0.00     0.116 C 
BRANCH   3   4
ATOM      4  N   UNL     1       2.677   5.659  -5.608  1.00  0.00    -0.352 N 
ATOM      5  C   UNL     1       3.453   4.631  -5.119  1.00  0.00     0.253 C 
ATOM      6  O   UNL     1       4.652   4.860  -4.947  1.00  0.00    -0.269 OA
ATOM      7  H   UNL     1       3.153   6.510  -5.746  1.00  0.00     0.163 HD
BRANCH   5   8
ATOM      8  C   UNL     1       2.909   3.290  -4.724  1.00  0.00     0.065 A 
ATOM      9  C   UNL     1       3.196   1.404  -3.168  1.00  0.00     0.074 A 
ATOM     10  C   UNL     1       3.566   2.673  -3.630  1.00  0.00     0.045 A 
ATOM     11  C   UNL     1       2.037   0.845  -3.716  1.00  0.00     0.148 A 
ATOM     12  C   UNL     1       1.381   1.423  -4.794  1.00  0.00     0.067 A 
ATOM     13  F   UNL     1       1.562  -0.317  -3.239  1.00  0.00    -0.205 F 
ATOM     14  C   UNL     1       1.888   2.581  -5.389  1.00  0.00     0.047 A 
BRANCH   9  15
ATOM     15  N   UNL     1       3.997   0.700  -2.296  1.00  0.00    -0.363 N 
ATOM     16  C   UNL     1       3.839   0.112   0.090  1.00  0.00     0.240 C 
ATOM     17  C   UNL     1       4.334   1.156  -0.944  1.00  0.00     0.164 C 
ATOM     18  O   UNL     1       4.326  -1.217  -0.230  1.00  0.00    -0.360 OA
ATOM     19  C   UNL     1       3.874  -1.628  -1.531  1.00  0.00     0.183 C 
ATOM     20  C   UNL     1       4.388  -0.679  -2.618  1.00  0.00     0.145 C 
BRANCH  16  21
ATOM     21  C   UNL     1       4.291   0.496   1.441  1.00  0.00     0.096 C 
ATOM     22  N   UNL     1       4.635   0.817   2.500  1.00  0.00    -0.195 NA
ENDBRANCH  16  21
ENDBRANCH   9  15
BRANCH  14  23
ATOM     23  N   UNL     1       1.359   2.932  -6.627  1.00  0.00    -0.398 N 
ATOM     24  H   UNL     1       1.681   3.739  -7.089  1.00  0.00     0.156 HD
ATOM     25  H   UNL     1       0.662   2.373  -7.040  1.00  0.00     0.156 HD
ENDBRANCH  14  23
ENDBRANCH   5   8
ENDBRANCH   3   4
ENDBRANCH   2   3
ENDBRANCH   1   2
BRANCH   1  26
ATOM     26  C   UNL     1       1.219   7.827  -8.224  1.00  0.00     0.002 C 
BRANCH  26  27
ATOM     27  C   UNL     1      -0.043   7.281  -8.895  1.00  0.00     0.021 C 
BRANCH  27  28
ATOM     28  C   UNL     1      -1.309   8.100  -8.679  1.00  0.00     0.116 C 
BRANCH  28  29
ATOM     29  N   UNL     1      -1.188   9.465  -9.163  1.00  0.00    -0.352 N 
ATOM     30  C   UNL     1      -2.012  10.168 -10.007  1.00  0.00     0.251 C 
ATOM     31  H   UNL     1      -0.400   9.957  -8.838  1.00  0.00     0.163 HD
ATOM     32  O   UNL     1      -1.670  11.266 -10.432  1.00  0.00    -0.269 OA
BRANCH  30  33
ATOM     33  C   UNL     1      -3.304   9.586 -10.426  1.00  0.00     0.039 A 
ATOM     34  C   UNL     1      -3.677   9.668 -11.770  1.00  0.00     0.014 A 
ATOM     35  C   UNL     1      -4.143   8.959  -9.501  1.00  0.00     0.014 A 
ATOM     36  C   UNL     1      -4.862   9.065 -12.197  1.00  0.00     0.010 A 
ATOM     37  C   UNL     1      -5.276   8.283  -9.943  1.00  0.00     0.010 A 
ATOM     38  C   UNL     1      -5.652   8.335 -11.294  1.00  0.00    -0.014 A 
BRANCH  38  39
ATOM     39  C   UNL     1      -6.878   7.625 -11.740  1.00  0.00     0.031 A 
ATOM     40  C   UNL     1      -8.220   8.013 -11.186  1.00  0.00     0.074 A 
ATOM     41  C   UNL     1      -6.777   6.592 -12.598  1.00  0.00     0.049 A 
ATOM     42  N   UNL     1      -9.395   7.479 -11.404  1.00  0.00    -0.248 NA
ATOM     43  C   UNL     1      -8.239   9.137 -10.237  1.00  0.00     0.031 C 
ATOM     44  C   UNL     1      -5.530   6.098 -13.182  1.00  0.00     0.029 A 
ATOM     45  N   UNL     1      -7.740   5.769 -13.126  1.00  0.00    -0.354 N 
ATOM     46  C   UNL     1     -10.287   8.196 -10.618  1.00  0.00     0.074 A 
ATOM     47  C   UNL     1      -9.507   9.150  -9.860  1.00  0.00     0.031 C 
ATOM     48  C   UNL     1      -5.807   5.084 -14.017  1.00  0.00     0.029 A 
ATOM     49  C   UNL     1      -7.243   4.822 -13.987  1.00  0.00     0.049 A 
ATOM     50  H   UNL     1      -8.697   5.849 -12.907  1.00  0.00     0.167 HD
ATOM     51  C   UNL     1     -11.637   8.090 -10.555  1.00  0.00     0.037 A 
ATOM     52  C   UNL     1      -7.874   3.849 -14.672  1.00  0.00     0.037 A 
ATOM     53  C   UNL     1     -12.406   7.133 -11.308  1.00  0.00     0.049 A 
ATOM     54  C   UNL     1      -9.367   3.706 -14.535  1.00  0.00     0.074 A 
ATOM     55  C   UNL     1     -13.778   6.962 -11.341  1.00  0.00     0.029 A 
ATOM     56  N   UNL     1     -11.864   6.173 -12.152  1.00  0.00    -0.354 N 
ATOM     57  N   UNL     1     -10.209   4.428 -13.837  1.00  0.00    -0.248 NA
ATOM     58  C   UNL     1      -9.995   2.612 -15.288  1.00  0.00     0.031 C 
ATOM     59  C   UNL     1     -14.061   5.854 -12.148  1.00  0.00     0.029 A 
ATOM     60  C   UNL     1     -12.873   5.384 -12.683  1.00  0.00     0.049 A 
ATOM     61  H   UNL     1     -10.904   6.068 -12.345  1.00  0.00     0.167 HD
ATOM     62  C   UNL     1     -11.469   3.903 -14.095  1.00  0.00     0.074 A 
ATOM     63  C   UNL     1     -11.279   2.807 -15.023  1.00  0.00     0.031 C 
ATOM     64  C   UNL     1     -12.673   4.298 -13.612  1.00  0.00     0.037 A 
BRANCH  51  65
ATOM     65  C   UNL     1     -12.357   9.027  -9.623  1.00  0.00     0.064 A 
ATOM     66  C   UNL     1     -12.370  10.416  -9.833  1.00  0.00     0.173 A 
ATOM     67  C   UNL     1     -13.038   8.533  -8.500  1.00  0.00     0.173 A 
ATOM     68  F   UNL     1     -11.730  10.945 -10.887  1.00  0.00    -0.203 F 
ATOM     69  C   UNL     1     -12.985  11.275  -8.927  1.00  0.00     0.198 A 
ATOM     70  C   UNL     1     -13.690   9.393  -7.619  1.00  0.00     0.198 A 
ATOM     71  F   UNL     1     -13.071   7.215  -8.251  1.00  0.00    -0.203 F 
ATOM     72  F   UNL     1     -12.910  12.601  -9.107  1.00  0.00    -0.200 F 
ATOM     73  C   UNL     1     -13.649  10.763  -7.823  1.00  0.00     0.200 A 
ATOM     74  F   UNL     1     -14.348   8.894  -6.563  1.00  0.00    -0.200 F 
ATOM     75  F   UNL     1     -14.237  11.591  -6.949  1.00  0.00    -0.200 F 
ENDBRANCH  51  65
BRANCH  52  76
ATOM     76  C   UNL     1      -7.101   2.958 -15.577  1.00  0.00     0.064 A 
ATOM     77  C   UNL     1      -7.279   3.021 -16.966  1.00  0.00     0.173 A 
ATOM     78  C   UNL     1      -6.171   2.033 -15.081  1.00  0.00     0.173 A 
ATOM     79  F   UNL     1      -8.171   3.876 -17.489  1.00  0.00    -0.203 F 
ATOM     80  C   UNL     1      -6.571   2.182 -17.823  1.00  0.00     0.198 A 
ATOM     81  C   UNL     1      -5.439   1.217 -15.941  1.00  0.00     0.198 A 
ATOM     82  F   UNL     1      -5.958   1.936 -13.761  1.00  0.00    -0.203 F 
ATOM     83  F   UNL     1      -6.795   2.232 -19.143  1.00  0.00    -0.200 F 
ATOM     84  C   UNL     1      -5.646   1.285 -17.310  1.00  0.00     0.200 A 
ATOM     85  F   UNL     1      -4.533   0.365 -15.442  1.00  0.00    -0.200 F 
ATOM     86  F   UNL     1      -4.958   0.483 -18.135  1.00  0.00    -0.200 F 
ENDBRANCH  52  76
BRANCH  64  87
ATOM     87  C   UNL     1     -13.893   3.576 -14.115  1.00  0.00     0.064 A 
ATOM     88  C   UNL     1     -14.162   2.242 -13.774  1.00  0.00     0.173 A 
ATOM     89  C   UNL     1     -14.829   4.247 -14.918  1.00  0.00     0.173 A 
ATOM     90  F   UNL     1     -13.295   1.549 -13.021  1.00  0.00    -0.203 F 
ATOM     91  C   UNL     1     -15.306   1.599 -14.244  1.00  0.00     0.198 A 
ATOM     92  C   UNL     1     -15.990   3.614 -15.353  1.00  0.00     0.198 A 
ATOM     93  F   UNL     1     -14.626   5.526 -15.270  1.00  0.00    -0.203 F 
ATOM     94  F   UNL     1     -15.512   0.308 -13.952  1.00  0.00    -0.200 F 
ATOM     95  C   UNL     1     -16.223   2.288 -15.024  1.00  0.00     0.200 A 
ATOM     96  F   UNL     1     -16.884   4.288 -16.089  1.00  0.00    -0.200 F 
ATOM     97  F   UNL     1     -17.328   1.671 -15.463  1.00  0.00    -0.200 F 
ENDBRANCH  64  87
ENDBRANCH  38  39
ENDBRANCH  30  33
ENDBRANCH  28  29
ENDBRANCH  27  28
ENDBRANCH  26  27
ENDBRANCH   1  26
TORSDOF 16
