REMARK SMILES COc1ccc2c(c1)c(CC(=O)NCCCCCCNC(=O)c1ccc(-c3c4nc(c(-c5c(F)c(F)c(F)c(F)c5F)c5ccc([nH]5)c(-c5c(F)c(F)c(F)c(F)c5F)c5nc(c(-c6c(F)c(F)c(F)c(F)c6F)c6ccc3[nH]6)C=C5)C=C4)cc1)c(C(F)(F)F)n2C(=O)c1ccc(Cl)cc1
REMARK SMILES IDX 16 1 15 2 14 3 13 4 11 5 12 6 10 8 9 9 3 10 4 11 8 12 5 13
REMARK SMILES IDX 7 14 6 15 91 16 86 17 2 18 1 19 92 20 93 21 94 22 95 23
REMARK SMILES IDX 100 24 96 25 99 26 97 27 98 28 87 29 88 30 89 31 90 32 17 33
REMARK SMILES IDX 18 34 19 35 20 36 21 37 22 39 23 40 24 41 85 42 25 43 84 44
REMARK SMILES IDX 26 45 27 46 28 47 78 48 29 49 83 50 77 51 79 52 30 53 82 54
REMARK SMILES IDX 76 55 75 56 31 58 63 59 43 60 62 61 44 62 47 63 61 64 80 65
REMARK SMILES IDX 45 66 46 67 60 69 81 70 48 71 32 72 33 73 41 74 34 75 35 76
REMARK SMILES IDX 39 77 42 78 36 79 37 80 40 81 38 82 64 83 65 84 73 85 66 86
REMARK SMILES IDX 67 87 71 88 74 89 68 90 69 91 72 92 70 93 49 94 50 95 58 96
REMARK SMILES IDX 51 97 52 98 56 99 59 100 53 101 54 102 57 103 55 104
REMARK H PARENT 13 7 20 38 79 57 47 68
REMARK Flexibility Score: inf
ROOT
ATOM      1  C   UNL     1       0.124  -7.847   2.939  1.00  0.00     0.002 C 
ENDROOT
BRANCH   1   2
ATOM      2  C   UNL     1       0.148  -7.568   1.432  1.00  0.00     0.021 C 
BRANCH   2   3
ATOM      3  C   UNL     1      -1.215  -7.733   0.762  1.00  0.00     0.116 C 
BRANCH   3   4
ATOM      4  N   UNL     1      -2.081  -6.607   1.047  1.00  0.00    -0.356 N 
ATOM      5  C   UNL     1      -2.518  -5.629   0.200  1.00  0.00     0.224 C 
ATOM      6  O   UNL     1      -3.232  -4.733   0.653  1.00  0.00    -0.275 OA
ATOM      7  H   UNL     1      -2.398  -6.537   1.977  1.00  0.00     0.163 HD
BRANCH   5   8
ATOM      8  C   UNL     1      -2.168  -5.693  -1.281  1.00  0.00     0.138 C 
BRANCH   8   9
ATOM      9  C   UNL     1      -0.700  -5.515  -1.565  1.00  0.00     0.000 A 
ATOM     10  C   UNL     1       0.824  -2.291  -0.212  1.00  0.00     0.119 A 
ATOM     11  C   UNL     1       2.091  -2.489  -0.734  1.00  0.00     0.048 A 
ATOM     12  C   UNL     1      -0.169  -3.250  -0.405  1.00  0.00     0.057 A 
ATOM     13  C   UNL     1       2.384  -3.635  -1.478  1.00  0.00     0.031 A 
ATOM     14  C   UNL     1       0.106  -4.419  -1.149  1.00  0.00     0.008 A 
ATOM     15  C   UNL     1       1.395  -4.623  -1.652  1.00  0.00     0.057 A 
ATOM     16  N   UNL     1       1.430  -5.912  -2.208  1.00  0.00    -0.271 N 
ATOM     17  C   UNL     1       0.110  -6.339  -2.344  1.00  0.00     0.135 A 
BRANCH  10  18
ATOM     18  O   UNL     1       0.476  -1.199   0.535  1.00  0.00    -0.497 OA
ATOM     19  C   UNL     1       0.938   0.033  -0.014  1.00  0.00     0.278 C 
ENDBRANCH  10  18
BRANCH  16  20
ATOM     20  C   UNL     1       2.592  -6.673  -2.514  1.00  0.00     0.262 C 
ATOM     21  O   UNL     1       2.450  -7.870  -2.764  1.00  0.00    -0.268 OA
BRANCH  20  22
ATOM     22  C   UNL     1       3.972  -6.160  -2.492  1.00  0.00     0.040 A 
ATOM     23  C   UNL     1       4.625  -5.955  -1.271  1.00  0.00     0.015 A 
ATOM     24  C   UNL     1       4.589  -5.824  -3.702  1.00  0.00     0.015 A 
ATOM     25  C   UNL     1       5.874  -5.328  -1.261  1.00  0.00     0.021 A 
ATOM     26  C   UNL     1       5.844  -5.210  -3.684  1.00  0.00     0.021 A 
ATOM     27  C   UNL     1       6.470  -4.946  -2.464  1.00  0.00     0.041 A 
ATOM     28  Cl  UNL     1       7.977  -4.117  -2.442  1.00  0.00    -0.084 Cl
ENDBRANCH  20  22
ENDBRANCH  16  20
BRANCH  17  29
ATOM     29  C   UNL     1      -0.284  -7.521  -3.167  1.00  0.00     0.432 C 
ATOM     30  F   UNL     1      -0.333  -8.657  -2.430  1.00  0.00    -0.165 F 
ATOM     31  F   UNL     1      -1.539  -7.345  -3.669  1.00  0.00    -0.165 F 
ATOM     32  F   UNL     1       0.501  -7.737  -4.247  1.00  0.00    -0.165 F 
ENDBRANCH  17  29
ENDBRANCH   8   9
ENDBRANCH   5   8
ENDBRANCH   3   4
ENDBRANCH   2   3
ENDBRANCH   1   2
BRANCH   1  33
ATOM     33  C   UNL     1      -0.282  -9.275   3.323  1.00  0.00     0.002 C 
BRANCH  33  34
ATOM     34  C   UNL     1       0.571 -10.385   2.697  1.00  0.00     0.021 C 
BRANCH  34  35
ATOM     35  C   UNL     1       2.067 -10.271   2.996  1.00  0.00     0.116 C 
BRANCH  35  36
ATOM     36  N   UNL     1       2.377 -10.248   4.411  1.00  0.00    -0.352 N 
ATOM     37  C   UNL     1       2.586 -11.199   5.369  1.00  0.00     0.251 C 
ATOM     38  H   UNL     1       2.455  -9.333   4.765  1.00  0.00     0.163 HD
ATOM     39  O   UNL     1       2.957 -10.789   6.472  1.00  0.00    -0.269 OA
BRANCH  37  40
ATOM     40  C   UNL     1       2.323 -12.653   5.204  1.00  0.00     0.039 A 
ATOM     41  C   UNL     1       1.942 -13.279   4.019  1.00  0.00     0.014 A 
ATOM     42  C   UNL     1       2.390 -13.425   6.381  1.00  0.00     0.014 A 
ATOM     43  C   UNL     1       1.498 -14.595   4.036  1.00  0.00     0.010 A 
ATOM     44  C   UNL     1       1.979 -14.752   6.399  1.00  0.00     0.010 A 
ATOM     45  C   UNL     1       1.470 -15.313   5.236  1.00  0.00    -0.014 A 
BRANCH  45  46
ATOM     46  C   UNL     1       0.997 -16.692   5.184  1.00  0.00     0.031 A 
ATOM     47  C   UNL     1       1.778 -17.554   4.255  1.00  0.00     0.074 A 
ATOM     48  C   UNL     1      -0.018 -17.164   5.939  1.00  0.00     0.049 A 
ATOM     49  N   UNL     1       1.364 -18.130   3.174  1.00  0.00    -0.248 NA
ATOM     50  C   UNL     1       3.230 -17.665   4.471  1.00  0.00     0.031 C 
ATOM     51  C   UNL     1      -0.696 -16.497   7.053  1.00  0.00     0.029 A 
ATOM     52  N   UNL     1      -0.613 -18.393   5.914  1.00  0.00    -0.354 N 
ATOM     53  C   UNL     1       2.462 -18.820   2.662  1.00  0.00     0.074 A 
ATOM     54  C   UNL     1       3.607 -18.390   3.417  1.00  0.00     0.031 C 
ATOM     55  C   UNL     1      -1.436 -17.400   7.737  1.00  0.00     0.029 A 
ATOM     56  C   UNL     1      -1.404 -18.665   7.026  1.00  0.00     0.049 A 
ATOM     57  H   UNL     1      -0.493 -19.031   5.174  1.00  0.00     0.167 HD
ATOM     58  C   UNL     1       2.291 -19.872   1.815  1.00  0.00     0.037 A 
ATOM     59  C   UNL     1      -1.950 -19.864   7.350  1.00  0.00     0.037 A 
ATOM     60  C   UNL     1       0.974 -19.861   1.239  1.00  0.00     0.049 A 
ATOM     61  C   UNL     1      -2.032 -20.655   6.101  1.00  0.00     0.074 A 
ATOM     62  C   UNL     1       0.307 -19.121   0.289  1.00  0.00     0.029 A 
ATOM     63  N   UNL     1       0.030 -20.520   1.979  1.00  0.00    -0.354 N 
ATOM     64  N   UNL     1      -2.818 -20.361   5.105  1.00  0.00    -0.248 NA
ATOM     65  C   UNL     1      -0.976 -21.614   5.805  1.00  0.00     0.031 C 
ATOM     66  C   UNL     1      -1.068 -19.149   0.672  1.00  0.00     0.029 A 
ATOM     67  C   UNL     1      -1.197 -19.941   1.813  1.00  0.00     0.049 A 
ATOM     68  H   UNL     1       0.210 -21.301   2.550  1.00  0.00     0.167 HD
ATOM     69  C   UNL     1      -2.109 -20.747   3.984  1.00  0.00     0.074 A 
ATOM     70  C   UNL     1      -1.085 -21.659   4.476  1.00  0.00     0.031 C 
ATOM     71  C   UNL     1      -2.230 -20.049   2.818  1.00  0.00     0.037 A 
BRANCH  58  72
ATOM     72  C   UNL     1       3.107 -21.147   1.881  1.00  0.00     0.064 A 
ATOM     73  C   UNL     1       2.903 -22.150   0.910  1.00  0.00     0.173 A 
ATOM     74  C   UNL     1       3.827 -21.552   3.026  1.00  0.00     0.173 A 
ATOM     75  F   UNL     1       2.197 -21.892  -0.202  1.00  0.00    -0.203 F 
ATOM     76  C   UNL     1       3.341 -23.466   1.101  1.00  0.00     0.198 A 
ATOM     77  C   UNL     1       4.304 -22.852   3.190  1.00  0.00     0.198 A 
ATOM     78  F   UNL     1       3.994 -20.749   4.083  1.00  0.00    -0.203 F 
ATOM     79  F   UNL     1       3.025 -24.410   0.204  1.00  0.00    -0.200 F 
ATOM     80  C   UNL     1       4.040 -23.815   2.241  1.00  0.00     0.200 A 
ATOM     81  F   UNL     1       4.951 -23.177   4.318  1.00  0.00    -0.200 F 
ATOM     82  F   UNL     1       4.412 -25.084   2.452  1.00  0.00    -0.200 F 
ENDBRANCH  58  72
BRANCH  59  83
ATOM     83  C   UNL     1      -2.064 -20.509   8.684  1.00  0.00     0.064 A 
ATOM     84  C   UNL     1      -2.804 -21.697   8.840  1.00  0.00     0.173 A 
ATOM     85  C   UNL     1      -1.190 -20.178   9.736  1.00  0.00     0.173 A 
ATOM     86  F   UNL     1      -3.644 -22.101   7.875  1.00  0.00    -0.203 F 
ATOM     87  C   UNL     1      -2.623 -22.538   9.943  1.00  0.00     0.198 A 
ATOM     88  C   UNL     1      -1.015 -21.016  10.840  1.00  0.00     0.198 A 
ATOM     89  F   UNL     1      -0.408 -19.093   9.665  1.00  0.00    -0.203 F 
ATOM     90  F   UNL     1      -3.277 -23.707  10.008  1.00  0.00    -0.200 F 
ATOM     91  C   UNL     1      -1.713 -22.206  10.931  1.00  0.00     0.200 A 
ATOM     92  F   UNL     1      -0.108 -20.700  11.775  1.00  0.00    -0.200 F 
ATOM     93  F   UNL     1      -1.473 -23.051  11.944  1.00  0.00    -0.200 F 
ENDBRANCH  59  83
BRANCH  71  94
ATOM     94  C   UNL     1      -3.449 -19.193   2.653  1.00  0.00     0.064 A 
ATOM     95  C   UNL     1      -3.726 -18.043   3.411  1.00  0.00     0.173 A 
ATOM     96  C   UNL     1      -4.323 -19.505   1.603  1.00  0.00     0.173 A 
ATOM     97  F   UNL     1      -2.896 -17.638   4.380  1.00  0.00    -0.203 F 
ATOM     98  C   UNL     1      -4.849 -17.261   3.143  1.00  0.00     0.198 A 
ATOM     99  C   UNL     1      -5.420 -18.701   1.314  1.00  0.00     0.198 A 
ATOM    100  F   UNL     1      -4.082 -20.571   0.823  1.00  0.00    -0.203 F 
ATOM    101  F   UNL     1      -5.103 -16.173   3.885  1.00  0.00    -0.200 F 
ATOM    102  C   UNL     1      -5.688 -17.585   2.089  1.00  0.00     0.200 A 
ATOM    103  F   UNL     1      -6.202 -18.995   0.266  1.00  0.00    -0.200 F 
ATOM    104  F   UNL     1      -6.742 -16.807   1.802  1.00  0.00    -0.200 F 
ENDBRANCH  71  94
ENDBRANCH  45  46
ENDBRANCH  37  40
ENDBRANCH  35  36
ENDBRANCH  34  35
ENDBRANCH  33  34
ENDBRANCH   1  33
TORSDOF 18
