REMARK SMILES CC(C)(C)OC(=O)N1CCN(c2nc3ccccc3s2)[C@H](C(=O)NCCCCCCNC(=O)c2ccc(-c3c4nc(c(-c5c(F)c(F)c(F)c(F)c5F)c5ccc([nH]5)c(-c5c(F)c(F)c(F)c(F)c5F)c5nc(c(-c6c(F)c(F)c(F)c(F)c6F)c6ccc3[nH]6)C=C5)C=C4)cc2)C1
REMARK SMILES IDX 27 1 26 2 25 3 24 4 22 5 23 6 21 8 8 9 9 10 97 11 10 12
REMARK SMILES IDX 11 13 6 14 7 15 5 16 2 17 1 18 3 19 4 20 12 21 13 22 20 23
REMARK SMILES IDX 14 24 19 25 15 26 18 27 16 28 17 29 28 30 29 31 30 32 31 33
REMARK SMILES IDX 32 34 33 36 34 37 35 38 96 39 36 40 95 41 37 42 38 43 39 44
REMARK SMILES IDX 89 45 40 46 94 47 88 48 90 49 41 50 93 51 87 52 86 53 42 55
REMARK SMILES IDX 74 56 54 57 73 58 55 59 58 60 72 61 91 62 56 63 57 64 71 66
REMARK SMILES IDX 92 67 59 68 43 69 44 70 52 71 45 72 46 73 50 74 53 75 47 76
REMARK SMILES IDX 48 77 51 78 49 79 75 80 76 81 84 82 77 83 78 84 82 85 85 86
REMARK SMILES IDX 79 87 80 88 83 89 81 90 60 91 61 92 69 93 62 94 63 95 67 96
REMARK SMILES IDX 70 97 64 98 65 99 68 100 66 101
REMARK H PARENT 24 7 31 35 90 54 58 65
REMARK Flexibility Score: inf
ROOT
ATOM      1  C   UNL     1       6.260  -0.708   4.067  1.00  0.00     0.002 C 
ENDROOT
BRANCH   1   2
ATOM      2  C   UNL     1       4.843  -0.308   3.633  1.00  0.00     0.021 C 
BRANCH   2   3
ATOM      3  C   UNL     1       3.916   0.064   4.792  1.00  0.00     0.116 C 
BRANCH   3   4
ATOM      4  N   UNL     1       4.438   1.220   5.493  1.00  0.00    -0.354 N 
ATOM      5  C   UNL     1       3.953   2.498   5.507  1.00  0.00     0.244 C 
ATOM      6  O   UNL     1       4.765   3.396   5.726  1.00  0.00    -0.273 OA
ATOM      7  H   UNL     1       5.248   1.065   6.030  1.00  0.00     0.163 HD
BRANCH   5   8
ATOM      8  C   UNL     1       2.465   2.729   5.208  1.00  0.00     0.193 C 
ATOM      9  N   UNL     1       0.952   3.504   3.378  1.00  0.00    -0.304 N 
ATOM     10  C   UNL     1       0.205   4.353   4.314  1.00  0.00     0.144 C 
ATOM     11  C   UNL     1       2.346   3.210   3.748  1.00  0.00     0.158 C 
ATOM     12  C   UNL     1       0.334   3.838   5.761  1.00  0.00     0.141 C 
ATOM     13  N   UNL     1       1.759   3.703   6.081  1.00  0.00    -0.332 N 
BRANCH   9  14
ATOM     14  C   UNL     1       0.390   3.166   2.171  1.00  0.00     0.410 C 
ATOM     15  O   UNL     1      -0.596   3.731   1.713  1.00  0.00    -0.224 OA
BRANCH  14  16
ATOM     16  O   UNL     1       1.006   2.099   1.601  1.00  0.00    -0.444 OA
BRANCH  16  17
ATOM     17  C   UNL     1       0.513   1.529   0.358  1.00  0.00     0.106 C 
ATOM     18  C   UNL     1       1.179   0.148   0.264  1.00  0.00     0.056 C 
ATOM     19  C   UNL     1       0.979   2.398  -0.811  1.00  0.00     0.056 C 
ATOM     20  C   UNL     1      -1.008   1.313   0.335  1.00  0.00     0.056 C 
ENDBRANCH  16  17
ENDBRANCH  14  16
ENDBRANCH   9  14
BRANCH  13  21
ATOM     21  C   UNL     1       2.156   3.957   7.350  1.00  0.00     0.187 A 
ATOM     22  N   UNL     1       1.630   3.413   8.423  1.00  0.00    -0.220 NA
ATOM     23  S   UNL     1       3.293   5.218   7.659  1.00  0.00    -0.097 S 
ATOM     24  C   UNL     1       2.222   3.940   9.565  1.00  0.00     0.084 A 
ATOM     25  C   UNL     1       3.192   4.916   9.339  1.00  0.00     0.056 A 
ATOM     26  C   UNL     1       1.930   3.586  10.899  1.00  0.00     0.030 A 
ATOM     27  C   UNL     1       3.910   5.521  10.383  1.00  0.00     0.021 A 
ATOM     28  C   UNL     1       2.628   4.194  11.951  1.00  0.00     0.002 A 
ATOM     29  C   UNL     1       3.613   5.142  11.693  1.00  0.00     0.002 A 
ENDBRANCH  13  21
ENDBRANCH   5   8
ENDBRANCH   3   4
ENDBRANCH   2   3
ENDBRANCH   1   2
BRANCH   1  30
ATOM     30  C   UNL     1       6.323  -1.848   5.087  1.00  0.00     0.002 C 
BRANCH  30  31
ATOM     31  C   UNL     1       5.614  -3.131   4.654  1.00  0.00     0.021 C 
BRANCH  31  32
ATOM     32  C   UNL     1       6.123  -3.716   3.342  1.00  0.00     0.116 C 
BRANCH  32  33
ATOM     33  N   UNL     1       7.515  -4.126   3.429  1.00  0.00    -0.352 N 
ATOM     34  C   UNL     1       8.082  -5.337   3.122  1.00  0.00     0.251 C 
ATOM     35  H   UNL     1       8.139  -3.437   3.754  1.00  0.00     0.163 HD
ATOM     36  O   UNL     1       9.241  -5.579   3.440  1.00  0.00    -0.269 OA
BRANCH  34  37
ATOM     37  C   UNL     1       7.278  -6.362   2.425  1.00  0.00     0.039 A 
ATOM     38  C   UNL     1       7.327  -7.682   2.878  1.00  0.00     0.014 A 
ATOM     39  C   UNL     1       6.474  -6.021   1.334  1.00  0.00     0.014 A 
ATOM     40  C   UNL     1       6.520  -8.648   2.275  1.00  0.00     0.010 A 
ATOM     41  C   UNL     1       5.611  -6.965   0.789  1.00  0.00     0.010 A 
ATOM     42  C   UNL     1       5.628  -8.290   1.251  1.00  0.00    -0.014 A 
BRANCH  42  43
ATOM     43  C   UNL     1       4.703  -9.288   0.656  1.00  0.00     0.031 A 
ATOM     44  C   UNL     1       4.808  -9.645  -0.801  1.00  0.00     0.074 A 
ATOM     45  C   UNL     1       3.730  -9.828   1.415  1.00  0.00     0.049 A 
ATOM     46  N   UNL     1       4.057 -10.446  -1.514  1.00  0.00    -0.248 NA
ATOM     47  C   UNL     1       5.884  -8.995  -1.565  1.00  0.00     0.031 C 
ATOM     48  C   UNL     1       3.497  -9.529   2.829  1.00  0.00     0.029 A 
ATOM     49  N   UNL     1       2.749 -10.737   1.103  1.00  0.00    -0.354 N 
ATOM     50  C   UNL     1       4.563 -10.389  -2.806  1.00  0.00     0.074 A 
ATOM     51  C   UNL     1       5.645  -9.428  -2.794  1.00  0.00     0.031 C 
ATOM     52  C   UNL     1       2.460 -10.259   3.268  1.00  0.00     0.029 A 
ATOM     53  C   UNL     1       1.925 -11.043   2.159  1.00  0.00     0.049 A 
ATOM     54  H   UNL     1       2.646 -11.132   0.207  1.00  0.00     0.167 HD
ATOM     55  C   UNL     1       4.176 -11.092  -3.897  1.00  0.00     0.037 A 
ATOM     56  C   UNL     1       0.853 -11.855   2.223  1.00  0.00     0.037 A 
ATOM     57  C   UNL     1       3.107 -12.057  -3.899  1.00  0.00     0.049 A 
ATOM     58  C   UNL     1       0.428 -12.604   0.988  1.00  0.00     0.074 A 
ATOM     59  C   UNL     1       2.673 -12.860  -4.939  1.00  0.00     0.029 A 
ATOM     60  N   UNL     1       2.299 -12.343  -2.809  1.00  0.00    -0.354 N 
ATOM     61  N   UNL     1       0.958 -12.596  -0.211  1.00  0.00    -0.248 NA
ATOM     62  C   UNL     1      -0.743 -13.483   1.118  1.00  0.00     0.031 C 
ATOM     63  C   UNL     1       1.562 -13.585  -4.497  1.00  0.00     0.029 A 
ATOM     64  C   UNL     1       1.348 -13.289  -3.161  1.00  0.00     0.049 A 
ATOM     65  H   UNL     1       2.387 -11.936  -1.917  1.00  0.00     0.167 HD
ATOM     66  C   UNL     1       0.210 -13.489  -0.966  1.00  0.00     0.074 A 
ATOM     67  C   UNL     1      -0.802 -14.033  -0.086  1.00  0.00     0.031 C 
ATOM     68  C   UNL     1       0.350 -13.829  -2.271  1.00  0.00     0.037 A 
BRANCH  55  69
ATOM     69  C   UNL     1       4.910 -10.841  -5.184  1.00  0.00     0.064 A 
ATOM     70  C   UNL     1       6.252 -11.218  -5.356  1.00  0.00     0.173 A 
ATOM     71  C   UNL     1       4.253 -10.251  -6.275  1.00  0.00     0.173 A 
ATOM     72  F   UNL     1       6.931 -11.776  -4.342  1.00  0.00    -0.203 F 
ATOM     73  C   UNL     1       6.915 -10.984  -6.557  1.00  0.00     0.198 A 
ATOM     74  C   UNL     1       4.910 -10.052  -7.487  1.00  0.00     0.198 A 
ATOM     75  F   UNL     1       2.969  -9.877  -6.170  1.00  0.00    -0.203 F 
ATOM     76  F   UNL     1       8.212 -11.302  -6.678  1.00  0.00    -0.200 F 
ATOM     77  C   UNL     1       6.242 -10.410  -7.624  1.00  0.00     0.200 A 
ATOM     78  F   UNL     1       4.252  -9.512  -8.522  1.00  0.00    -0.200 F 
ATOM     79  F   UNL     1       6.879 -10.194  -8.784  1.00  0.00    -0.200 F 
ENDBRANCH  55  69
BRANCH  56  80
ATOM     80  C   UNL     1       0.115 -12.015   3.504  1.00  0.00     0.064 A 
ATOM     81  C   UNL     1       0.123 -13.236   4.194  1.00  0.00     0.173 A 
ATOM     82  C   UNL     1      -0.623 -10.959   4.059  1.00  0.00     0.173 A 
ATOM     83  F   UNL     1       0.798 -14.282   3.695  1.00  0.00    -0.203 F 
ATOM     84  C   UNL     1      -0.598 -13.402   5.375  1.00  0.00     0.198 A 
ATOM     85  C   UNL     1      -1.316 -11.116   5.257  1.00  0.00     0.198 A 
ATOM     86  F   UNL     1      -0.659  -9.768   3.443  1.00  0.00    -0.203 F 
ATOM     87  F   UNL     1      -0.617 -14.595   5.984  1.00  0.00    -0.200 F 
ATOM     88  C   UNL     1      -1.313 -12.340   5.908  1.00  0.00     0.200 A 
ATOM     89  F   UNL     1      -1.990 -10.082   5.778  1.00  0.00    -0.200 F 
ATOM     90  F   UNL     1      -2.004 -12.498   7.045  1.00  0.00    -0.200 F 
ENDBRANCH  56  80
BRANCH  68  91
ATOM     91  C   UNL     1      -0.584 -14.872  -2.819  1.00  0.00     0.064 A 
ATOM     92  C   UNL     1      -1.949 -14.616  -3.014  1.00  0.00     0.173 A 
ATOM     93  C   UNL     1      -0.094 -16.134  -3.191  1.00  0.00     0.173 A 
ATOM     94  F   UNL     1      -2.471 -13.431  -2.662  1.00  0.00    -0.203 F 
ATOM     95  C   UNL     1      -2.794 -15.594  -3.533  1.00  0.00     0.198 A 
ATOM     96  C   UNL     1      -0.934 -17.096  -3.743  1.00  0.00     0.198 A 
ATOM     97  F   UNL     1       1.205 -16.429  -3.033  1.00  0.00    -0.203 F 
ATOM     98  F   UNL     1      -4.105 -15.345  -3.658  1.00  0.00    -0.200 F 
ATOM     99  C   UNL     1      -2.285 -16.829  -3.905  1.00  0.00     0.200 A 
ATOM    100  F   UNL     1      -0.436 -18.282  -4.119  1.00  0.00    -0.200 F 
ATOM    101  F   UNL     1      -3.098 -17.765  -4.413  1.00  0.00    -0.200 F 
ENDBRANCH  68  91
ENDBRANCH  42  43
ENDBRANCH  34  37
ENDBRANCH  32  33
ENDBRANCH  31  32
ENDBRANCH  30  31
ENDBRANCH   1  30
TORSDOF 17
