REMARK SMILES O=C(NCCCCCCNC(=O)[C@@H]1CCc2[nH]ncc2C1)c1ccc(-c2c3nc(c(-c4c(F)c(F)c(F)c(F)c4F)c4ccc([nH]4)c(-c4c(F)c(F)c(F)c(F)c4F)c4nc(c(-c5c(F)c(F)c(F)c(F)c5F)c5ccc2[nH]5)C=C4)C=C3)cc1
REMARK SMILES IDX 5 1 4 2 3 3 1 4 2 5 22 7 23 8 84 9 24 10 83 11 25 12 26 13
REMARK SMILES IDX 27 14 77 15 28 16 82 17 76 18 78 19 29 20 81 21 75 22 74 23
REMARK SMILES IDX 30 25 62 26 42 27 61 28 43 29 46 30 60 31 79 32 44 33 45 34
REMARK SMILES IDX 59 36 80 37 47 38 31 39 32 40 40 41 33 42 34 43 38 44 41 45
REMARK SMILES IDX 35 46 36 47 39 48 37 49 63 50 64 51 72 52 65 53 66 54 70 55
REMARK SMILES IDX 73 56 67 57 68 58 71 59 69 60 48 61 49 62 57 63 50 64 51 65
REMARK SMILES IDX 55 66 58 67 52 68 53 69 56 70 54 71 6 72 7 73 8 74 9 75
REMARK SMILES IDX 10 76 11 77 12 79 13 80 14 81 21 82 15 83 20 84 16 85 19 86
REMARK SMILES IDX 17 87 18 88
REMARK H PARENT 3 6 78 24 46 35 10 78 17 89
REMARK Flexibility Score: inf
ROOT
ATOM      1  C   UNL     1       4.612  -0.677   2.384  1.00  0.00     0.021 C 
ENDROOT
BRANCH   1   2
ATOM      2  C   UNL     1       4.425  -0.843   0.880  1.00  0.00     0.116 C 
BRANCH   2   3
ATOM      3  N   UNL     1       3.022  -0.938   0.516  1.00  0.00    -0.352 N 
ATOM      4  O   UNL     1       1.051  -0.214  -0.306  1.00  0.00    -0.269 OA
ATOM      5  C   UNL     1       2.279  -0.114  -0.282  1.00  0.00     0.251 C 
ATOM      6  H   UNL     1       2.538  -1.705   0.899  1.00  0.00     0.163 HD
BRANCH   5   7
ATOM      7  C   UNL     1       2.947   0.906  -1.112  1.00  0.00     0.039 A 
ATOM      8  C   UNL     1       4.075   0.582  -1.874  1.00  0.00     0.014 A 
ATOM      9  C   UNL     1       2.412   2.195  -1.154  1.00  0.00     0.014 A 
ATOM     10  C   UNL     1       4.728   1.572  -2.601  1.00  0.00     0.010 A 
ATOM     11  C   UNL     1       3.027   3.170  -1.939  1.00  0.00     0.010 A 
ATOM     12  C   UNL     1       4.198   2.869  -2.655  1.00  0.00    -0.014 A 
BRANCH  12  13
ATOM     13  C   UNL     1       4.827   3.903  -3.510  1.00  0.00     0.031 A 
ATOM     14  C   UNL     1       5.439   5.128  -2.900  1.00  0.00     0.074 A 
ATOM     15  C   UNL     1       4.792   3.752  -4.846  1.00  0.00     0.049 A 
ATOM     16  N   UNL     1       5.923   6.192  -3.488  1.00  0.00    -0.248 NA
ATOM     17  C   UNL     1       5.502   5.169  -1.431  1.00  0.00     0.031 C 
ATOM     18  C   UNL     1       4.220   2.602  -5.547  1.00  0.00     0.029 A 
ATOM     19  N   UNL     1       5.222   4.578  -5.853  1.00  0.00    -0.354 N 
ATOM     20  C   UNL     1       6.324   7.040  -2.465  1.00  0.00     0.074 A 
ATOM     21  C   UNL     1       6.005   6.376  -1.218  1.00  0.00     0.031 C 
ATOM     22  C   UNL     1       4.332   2.794  -6.869  1.00  0.00     0.029 A 
ATOM     23  C   UNL     1       4.924   4.106  -7.107  1.00  0.00     0.049 A 
ATOM     24  H   UNL     1       5.698   5.425  -5.692  1.00  0.00     0.167 HD
ATOM     25  C   UNL     1       6.907   8.259  -2.563  1.00  0.00     0.037 A 
ATOM     26  C   UNL     1       5.071   4.683  -8.314  1.00  0.00     0.037 A 
ATOM     27  C   UNL     1       7.217   8.905  -3.813  1.00  0.00     0.049 A 
ATOM     28  C   UNL     1       5.678   6.053  -8.400  1.00  0.00     0.074 A 
ATOM     29  C   UNL     1       7.845  10.119  -4.026  1.00  0.00     0.029 A 
ATOM     30  N   UNL     1       6.906   8.392  -5.066  1.00  0.00    -0.354 N 
ATOM     31  N   UNL     1       6.092   6.833  -7.430  1.00  0.00    -0.248 NA
ATOM     32  C   UNL     1       5.841   6.624  -9.742  1.00  0.00     0.031 C 
ATOM     33  C   UNL     1       7.859  10.370  -5.402  1.00  0.00     0.029 A 
ATOM     34  C   UNL     1       7.302   9.280  -6.054  1.00  0.00     0.049 A 
ATOM     35  H   UNL     1       6.469   7.525  -5.229  1.00  0.00     0.167 HD
ATOM     36  C   UNL     1       6.591   7.973  -8.043  1.00  0.00     0.074 A 
ATOM     37  C   UNL     1       6.428   7.783  -9.471  1.00  0.00     0.031 C 
ATOM     38  C   UNL     1       7.142   9.072  -7.472  1.00  0.00     0.037 A 
BRANCH  25  39
ATOM     39  C   UNL     1       7.207   8.989  -1.284  1.00  0.00     0.064 A 
ATOM     40  C   UNL     1       8.190   8.544  -0.387  1.00  0.00     0.173 A 
ATOM     41  C   UNL     1       6.504  10.159  -0.956  1.00  0.00     0.173 A 
ATOM     42  F   UNL     1       8.886   7.427  -0.646  1.00  0.00    -0.203 F 
ATOM     43  C   UNL     1       8.426   9.217   0.810  1.00  0.00     0.198 A 
ATOM     44  C   UNL     1       6.767  10.848   0.226  1.00  0.00     0.198 A 
ATOM     45  F   UNL     1       5.560  10.636  -1.780  1.00  0.00    -0.203 F 
ATOM     46  F   UNL     1       9.323   8.734   1.681  1.00  0.00    -0.200 F 
ATOM     47  C   UNL     1       7.718  10.370   1.114  1.00  0.00     0.200 A 
ATOM     48  F   UNL     1       6.091  11.970   0.510  1.00  0.00    -0.200 F 
ATOM     49  F   UNL     1       7.944  11.013   2.267  1.00  0.00    -0.200 F 
ENDBRANCH  25  39
BRANCH  26  50
ATOM     50  C   UNL     1       4.618   3.951  -9.523  1.00  0.00     0.064 A 
ATOM     51  C   UNL     1       5.541   3.409 -10.426  1.00  0.00     0.173 A 
ATOM     52  C   UNL     1       3.254   3.724  -9.765  1.00  0.00     0.173 A 
ATOM     53  F   UNL     1       6.854   3.612 -10.244  1.00  0.00    -0.203 F 
ATOM     54  C   UNL     1       5.117   2.669 -11.528  1.00  0.00     0.198 A 
ATOM     55  C   UNL     1       2.833   2.960 -10.850  1.00  0.00     0.198 A 
ATOM     56  F   UNL     1       2.333   4.213  -8.922  1.00  0.00    -0.203 F 
ATOM     57  F   UNL     1       6.019   2.180 -12.390  1.00  0.00    -0.200 F 
ATOM     58  C   UNL     1       3.765   2.436 -11.733  1.00  0.00     0.200 A 
ATOM     59  F   UNL     1       1.528   2.720 -11.032  1.00  0.00    -0.200 F 
ATOM     60  F   UNL     1       3.360   1.705 -12.780  1.00  0.00    -0.200 F 
ENDBRANCH  26  50
BRANCH  38  61
ATOM     61  C   UNL     1       7.662  10.142  -8.387  1.00  0.00     0.064 A 
ATOM     62  C   UNL     1       6.803  11.001  -9.086  1.00  0.00     0.173 A 
ATOM     63  C   UNL     1       9.045  10.357  -8.502  1.00  0.00     0.173 A 
ATOM     64  F   UNL     1       5.474  10.825  -9.024  1.00  0.00    -0.203 F 
ATOM     65  C   UNL     1       7.310  12.032  -9.873  1.00  0.00     0.198 A 
ATOM     66  C   UNL     1       9.546  11.406  -9.265  1.00  0.00     0.198 A 
ATOM     67  F   UNL     1       9.908   9.564  -7.849  1.00  0.00    -0.203 F 
ATOM     68  F   UNL     1       6.472  12.823 -10.558  1.00  0.00    -0.200 F 
ATOM     69  C   UNL     1       8.679  12.241  -9.953  1.00  0.00     0.200 A 
ATOM     70  F   UNL     1      10.869  11.615  -9.328  1.00  0.00    -0.200 F 
ATOM     71  F   UNL     1       9.163  13.247 -10.694  1.00  0.00    -0.200 F 
ENDBRANCH  38  61
ENDBRANCH  12  13
ENDBRANCH   5   7
ENDBRANCH   2   3
ENDBRANCH   1   2
BRANCH   1  72
ATOM     72  C   UNL     1       4.063  -1.830   3.229  1.00  0.00     0.002 C 
BRANCH  72  73
ATOM     73  C   UNL     1       4.576  -3.224   2.853  1.00  0.00     0.002 C 
BRANCH  73  74
ATOM     74  C   UNL     1       6.095  -3.351   2.723  1.00  0.00     0.021 C 
BRANCH  74  75
ATOM     75  C   UNL     1       6.881  -2.944   3.964  1.00  0.00     0.116 C 
BRANCH  75  76
ATOM     76  N   UNL     1       6.786  -3.935   5.011  1.00  0.00    -0.356 N 
ATOM     77  C   UNL     1       7.697  -4.520   5.821  1.00  0.00     0.223 C 
ATOM     78  H   UNL     1       5.867  -4.250   5.168  1.00  0.00     0.163 HD
ATOM     79  O   UNL     1       7.247  -5.359   6.613  1.00  0.00    -0.275 OA
BRANCH  77  80
ATOM     80  C   UNL     1       9.201  -4.272   5.791  1.00  0.00     0.083 C 
ATOM     81  C   UNL     1       9.763  -2.958   5.206  1.00  0.00     0.020 C 
ATOM     82  C   UNL     1       9.903  -5.509   5.172  1.00  0.00     0.052 C 
ATOM     83  C   UNL     1      11.258  -2.768   5.538  1.00  0.00     0.057 C 
ATOM     84  C   UNL     1      11.375  -5.287   5.118  1.00  0.00    -0.006 A 
ATOM     85  C   UNL     1      11.958  -4.048   5.270  1.00  0.00     0.038 A 
ATOM     86  C   UNL     1      12.458  -6.160   4.922  1.00  0.00     0.138 A 
ATOM     87  N   UNL     1      13.301  -4.231   5.151  1.00  0.00    -0.282 N 
ATOM     88  N   UNL     1      13.632  -5.518   4.933  1.00  0.00    -0.184 NA
ATOM     89  H   UNL     1      13.959  -3.502   5.216  1.00  0.00     0.190 HD
ENDBRANCH  77  80
ENDBRANCH  75  76
ENDBRANCH  74  75
ENDBRANCH  73  74
ENDBRANCH  72  73
ENDBRANCH   1  72
TORSDOF 13
