REMARK SMILES O=C(NCCCCCCNC(=O)c1cc(N2C(=O)[C@H]3[C@@H]4C=C[C@@H]([C@@H]5C[C@H]45)[C@@H]3C2=O)ccc1Cl)c1ccc(-c2c3nc(c(-c4c(F)c(F)c(F)c(F)c4F)c4ccc([nH]4)c(-c4c(F)c(F)c(F)c(F)c4F)c4nc(c(-c5c(F)c(F)c(F)c(F)c5F)c5ccc2[nH]5)C=C4)C=C3)cc1
REMARK SMILES IDX 6 1 5 2 4 3 3 4 1 5 2 6 34 8 35 9 96 10 36 11 95 12 37 13
REMARK SMILES IDX 38 14 39 15 89 16 40 17 94 18 88 19 90 20 41 21 93 22 87 23
REMARK SMILES IDX 86 24 42 26 74 27 54 28 73 29 55 30 58 31 72 32 91 33 56 34
REMARK SMILES IDX 57 35 71 37 92 38 59 39 43 40 44 41 52 42 45 43 46 44 50 45
REMARK SMILES IDX 53 46 47 47 48 48 51 49 49 50 75 51 76 52 84 53 77 54 78 55
REMARK SMILES IDX 82 56 85 57 79 58 80 59 83 60 81 61 60 62 61 63 69 64 62 65
REMARK SMILES IDX 63 66 67 67 70 68 64 69 65 70 68 71 66 72 7 73 8 74 9 75
REMARK SMILES IDX 10 76 11 77 12 79 13 80 14 81 32 82 15 83 31 84 33 85 30 86
REMARK SMILES IDX 16 87 17 88 28 89 18 90 19 91 27 92 29 93 20 94 23 95 21 96
REMARK SMILES IDX 26 97 22 98 24 99 25 100
REMARK H PARENT 3 7 90 25 58 36 10 78
REMARK Flexibility Score: inf
ROOT
ATOM      1  C   UNL     1       4.276   3.838   0.842  1.00  0.00     0.002 C 
ENDROOT
BRANCH   1   2
ATOM      2  C   UNL     1       4.751   2.734  -0.100  1.00  0.00     0.021 C 
BRANCH   2   3
ATOM      3  C   UNL     1       4.461   1.324   0.388  1.00  0.00     0.116 C 
BRANCH   3   4
ATOM      4  N   UNL     1       3.037   1.044   0.462  1.00  0.00    -0.352 N 
ATOM      5  O   UNL     1       1.116  -0.013  -0.092  1.00  0.00    -0.269 OA
ATOM      6  C   UNL     1       2.342   0.001  -0.098  1.00  0.00     0.251 C 
ATOM      7  H   UNL     1       2.501   1.686   0.981  1.00  0.00     0.163 HD
BRANCH   6   8
ATOM      8  C   UNL     1       3.092  -1.108  -0.722  1.00  0.00     0.039 A 
ATOM      9  C   UNL     1       4.191  -1.668  -0.066  1.00  0.00     0.014 A 
ATOM     10  C   UNL     1       2.690  -1.594  -1.969  1.00  0.00     0.014 A 
ATOM     11  C   UNL     1       4.959  -2.631  -0.705  1.00  0.00     0.010 A 
ATOM     12  C   UNL     1       3.408  -2.632  -2.569  1.00  0.00     0.010 A 
ATOM     13  C   UNL     1       4.551  -3.153  -1.943  1.00  0.00    -0.014 A 
BRANCH  13  14
ATOM     14  C   UNL     1       5.254  -4.341  -2.485  1.00  0.00     0.031 A 
ATOM     15  C   UNL     1       6.016  -4.287  -3.775  1.00  0.00     0.074 A 
ATOM     16  C   UNL     1       5.190  -5.484  -1.773  1.00  0.00     0.049 A 
ATOM     17  N   UNL     1       6.669  -5.246  -4.382  1.00  0.00    -0.248 NA
ATOM     18  C   UNL     1       6.047  -2.999  -4.485  1.00  0.00     0.031 C 
ATOM     19  C   UNL     1       4.458  -5.649  -0.512  1.00  0.00     0.029 A 
ATOM     20  N   UNL     1       5.745  -6.718  -1.993  1.00  0.00    -0.354 N 
ATOM     21  C   UNL     1       7.173  -4.687  -5.548  1.00  0.00     0.074 A 
ATOM     22  C   UNL     1       6.739  -3.307  -5.576  1.00  0.00     0.031 C 
ATOM     23  C   UNL     1       4.637  -6.895  -0.056  1.00  0.00     0.029 A 
ATOM     24  C   UNL     1       5.428  -7.640  -1.026  1.00  0.00     0.049 A 
ATOM     25  H   UNL     1       6.316  -6.922  -2.769  1.00  0.00     0.167 HD
ATOM     26  C   UNL     1       7.930  -5.282  -6.501  1.00  0.00     0.037 A 
ATOM     27  C   UNL     1       5.707  -8.953  -0.947  1.00  0.00     0.037 A 
ATOM     28  C   UNL     1       8.367  -6.655  -6.450  1.00  0.00     0.049 A 
ATOM     29  C   UNL     1       6.516  -9.584  -2.044  1.00  0.00     0.074 A 
ATOM     30  C   UNL     1       9.193  -7.329  -7.334  1.00  0.00     0.029 A 
ATOM     31  N   UNL     1       8.004  -7.568  -5.470  1.00  0.00    -0.354 N 
ATOM     32  N   UNL     1       7.046  -9.028  -3.105  1.00  0.00    -0.248 NA
ATOM     33  C   UNL     1       6.761 -11.028  -1.935  1.00  0.00     0.031 C 
ATOM     34  C   UNL     1       9.273  -8.665  -6.928  1.00  0.00     0.029 A 
ATOM     35  C   UNL     1       8.552  -8.810  -5.754  1.00  0.00     0.049 A 
ATOM     36  H   UNL     1       7.440  -7.365  -4.689  1.00  0.00     0.167 HD
ATOM     37  C   UNL     1       7.699 -10.047  -3.782  1.00  0.00     0.074 A 
ATOM     38  C   UNL     1       7.528 -11.248  -2.993  1.00  0.00     0.031 C 
ATOM     39  C   UNL     1       8.370  -9.996  -4.958  1.00  0.00     0.037 A 
BRANCH  26  40
ATOM     40  C   UNL     1       8.331  -4.475  -7.702  1.00  0.00     0.064 A 
ATOM     41  C   UNL     1       9.308  -3.473  -7.628  1.00  0.00     0.173 A 
ATOM     42  C   UNL     1       7.809  -4.790  -8.968  1.00  0.00     0.173 A 
ATOM     43  F   UNL     1       9.835  -3.130  -6.443  1.00  0.00    -0.203 F 
ATOM     44  C   UNL     1       9.746  -2.813  -8.774  1.00  0.00     0.198 A 
ATOM     45  C   UNL     1       8.267  -4.146 -10.114  1.00  0.00     0.198 A 
ATOM     46  F   UNL     1       6.878  -5.747  -9.096  1.00  0.00    -0.203 F 
ATOM     47  F   UNL     1      10.668  -1.845  -8.678  1.00  0.00    -0.200 F 
ATOM     48  C   UNL     1       9.234  -3.158 -10.017  1.00  0.00     0.200 A 
ATOM     49  F   UNL     1       7.784  -4.494 -11.315  1.00  0.00    -0.200 F 
ATOM     50  F   UNL     1       9.676  -2.540 -11.121  1.00  0.00    -0.200 F 
ENDBRANCH  26  40
BRANCH  27  51
ATOM     51  C   UNL     1       5.179  -9.764   0.182  1.00  0.00     0.064 A 
ATOM     52  C   UNL     1       6.041 -10.370   1.105  1.00  0.00     0.173 A 
ATOM     53  C   UNL     1       3.800  -9.973   0.342  1.00  0.00     0.173 A 
ATOM     54  F   UNL     1       7.368 -10.214   0.986  1.00  0.00    -0.203 F 
ATOM     55  C   UNL     1       5.547 -11.185   2.122  1.00  0.00     0.198 A 
ATOM     56  C   UNL     1       3.305 -10.754   1.383  1.00  0.00     0.198 A 
ATOM     57  F   UNL     1       2.930  -9.409  -0.509  1.00  0.00    -0.203 F 
ATOM     58  F   UNL     1       6.397 -11.808   2.949  1.00  0.00    -0.200 F 
ATOM     59  C   UNL     1       4.180 -11.372   2.263  1.00  0.00     0.200 A 
ATOM     60  F   UNL     1       1.983 -10.914   1.527  1.00  0.00    -0.200 F 
ATOM     61  F   UNL     1       3.706 -12.158   3.239  1.00  0.00    -0.200 F 
ENDBRANCH  27  51
BRANCH  39  62
ATOM     62  C   UNL     1       8.984 -11.275  -5.447  1.00  0.00     0.064 A 
ATOM     63  C   UNL     1       8.194 -12.337  -5.912  1.00  0.00     0.173 A 
ATOM     64  C   UNL     1      10.378 -11.434  -5.469  1.00  0.00     0.173 A 
ATOM     65  F   UNL     1       6.856 -12.243  -5.893  1.00  0.00    -0.203 F 
ATOM     66  C   UNL     1       8.776 -13.522  -6.353  1.00  0.00     0.198 A 
ATOM     67  C   UNL     1      10.957 -12.606  -5.945  1.00  0.00     0.198 A 
ATOM     68  F   UNL     1      11.178 -10.447  -5.039  1.00  0.00    -0.203 F 
ATOM     69  F   UNL     1       8.000 -14.545  -6.738  1.00  0.00    -0.200 F 
ATOM     70  C   UNL     1      10.157 -13.652  -6.377  1.00  0.00     0.200 A 
ATOM     71  F   UNL     1      12.292 -12.724  -5.981  1.00  0.00    -0.200 F 
ATOM     72  F   UNL     1      10.716 -14.791  -6.809  1.00  0.00    -0.200 F 
ENDBRANCH  39  62
ENDBRANCH  13  14
ENDBRANCH   6   8
ENDBRANCH   3   4
ENDBRANCH   2   3
ENDBRANCH   1   2
BRANCH   1  73
ATOM     73  C   UNL     1       4.795   3.735   2.279  1.00  0.00     0.002 C 
BRANCH  73  74
ATOM     74  C   UNL     1       6.318   3.627   2.427  1.00  0.00     0.021 C 
BRANCH  74  75
ATOM     75  C   UNL     1       7.108   4.726   1.723  1.00  0.00     0.116 C 
BRANCH  75  76
ATOM     76  N   UNL     1       6.748   6.044   2.206  1.00  0.00    -0.352 N 
ATOM     77  C   UNL     1       7.562   7.078   2.577  1.00  0.00     0.252 C 
ATOM     78  H   UNL     1       5.782   6.220   2.276  1.00  0.00     0.163 HD
ATOM     79  O   UNL     1       7.088   8.106   3.052  1.00  0.00    -0.269 OA
BRANCH  77  80
ATOM     80  C   UNL     1       9.022   6.952   2.463  1.00  0.00     0.060 A 
ATOM     81  C   UNL     1       9.755   7.054   3.656  1.00  0.00     0.042 A 
ATOM     82  C   UNL     1       9.678   6.831   1.231  1.00  0.00     0.053 A 
ATOM     83  C   UNL     1      11.147   7.075   3.610  1.00  0.00     0.053 A 
ATOM     84  C   UNL     1      11.070   6.772   1.200  1.00  0.00     0.023 A 
ATOM     85  Cl  UNL     1       8.853   6.795  -0.285  1.00  0.00    -0.083 Cl
ATOM     86  C   UNL     1      11.800   6.920   2.379  1.00  0.00     0.028 A 
BRANCH  83  87
ATOM     87  N   UNL     1      11.914   7.176   4.785  1.00  0.00    -0.250 N 
ATOM     88  C   UNL     1      11.779   6.272   5.852  1.00  0.00     0.238 C 
ATOM     89  C   UNL     1      13.118   7.907   4.849  1.00  0.00     0.238 C 
ATOM     90  O   UNL     1      10.983   5.363   6.011  1.00  0.00    -0.274 OA
ATOM     91  C   UNL     1      12.877   6.664   6.787  1.00  0.00     0.100 C 
ATOM     92  C   UNL     1      13.935   7.061   5.754  1.00  0.00     0.100 C 
ATOM     93  O   UNL     1      13.497   8.854   4.189  1.00  0.00    -0.274 OA
ATOM     94  C   UNL     1      13.547   5.852   7.909  1.00  0.00     0.028 C 
ATOM     95  C   UNL     1      15.297   7.135   6.426  1.00  0.00     0.028 C 
ATOM     96  C   UNL     1      14.301   6.987   8.644  1.00  0.00    -0.026 C 
ATOM     97  C   UNL     1      14.661   4.889   7.457  1.00  0.00     0.001 C 
ATOM     98  C   UNL     1      15.156   7.681   7.856  1.00  0.00    -0.026 C 
ATOM     99  C   UNL     1      15.703   5.623   6.598  1.00  0.00     0.001 C 
ATOM    100  C   UNL     1      14.953   4.396   6.070  1.00  0.00     0.009 C 
ENDBRANCH  83  87
ENDBRANCH  77  80
ENDBRANCH  75  76
ENDBRANCH  74  75
ENDBRANCH  73  74
ENDBRANCH   1  73
TORSDOF 14
