REMARK SMILES COc1ncccc1NS(=O)(=O)c1ccc(Br)c(C(=O)NCCCCCCNC(=O)c2ccc(-c3c4nc(c(-c5c(F)c(F)c(F)c(F)c5F)c5ccc([nH]5)c(-c5c(F)c(F)c(F)c(F)c5F)c5nc(c(-c6c(F)c(F)c(F)c(F)c6F)c6ccc3[nH]6)C=C5)C=C4)cc2)c1
REMARK SMILES IDX 23 1 22 2 21 3 19 4 20 5 18 7 13 8 14 9 94 10 15 11 16 12
REMARK SMILES IDX 17 13 10 14 11 15 12 16 9 17 8 19 3 20 4 21 5 22 7 23 6 24
REMARK SMILES IDX 2 25 1 26 24 27 25 28 26 29 27 30 28 31 29 32 30 34 31 35
REMARK SMILES IDX 32 36 93 37 33 38 92 39 34 40 35 41 36 42 86 43 37 44 91 45
REMARK SMILES IDX 85 46 87 47 38 48 90 49 84 50 83 51 39 53 71 54 51 55 70 56
REMARK SMILES IDX 52 57 55 58 69 59 88 60 53 61 54 62 68 64 89 65 56 66 40 67
REMARK SMILES IDX 41 68 49 69 42 70 43 71 47 72 50 73 44 74 45 75 48 76 46 77
REMARK SMILES IDX 72 78 73 79 81 80 74 81 75 82 79 83 82 84 76 85 77 86 80 87
REMARK SMILES IDX 78 88 57 89 58 90 66 91 59 92 60 93 64 94 67 95 61 96 62 97
REMARK SMILES IDX 65 98 63 99
REMARK H PARENT 21 6 9 18 28 33 87 52 55 63
REMARK Flexibility Score: inf
ROOT
ATOM      1  C   UNL     1      -5.026   2.199  -0.795  1.00  0.00     0.021 C 
ENDROOT
BRANCH   1   2
ATOM      2  C   UNL     1      -3.922   1.703  -1.728  1.00  0.00     0.116 C 
BRANCH   2   3
ATOM      3  N   UNL     1      -3.025   2.727  -2.219  1.00  0.00    -0.352 N 
ATOM      4  C   UNL     1      -1.730   2.646  -2.674  1.00  0.00     0.252 C 
ATOM      5  O   UNL     1      -1.218   3.669  -3.135  1.00  0.00    -0.269 OA
ATOM      6  H   UNL     1      -3.406   3.634  -2.229  1.00  0.00     0.163 HD
BRANCH   4   7
ATOM      7  C   UNL     1      -0.870   1.440  -2.521  1.00  0.00     0.055 A 
ATOM      8  C   UNL     1       1.331   0.675  -1.768  1.00  0.00     0.088 A 
ATOM      9  C   UNL     1       0.964  -0.651  -1.997  1.00  0.00     0.023 A 
ATOM     10  C   UNL     1       0.428   1.711  -2.042  1.00  0.00     0.037 A 
ATOM     11  C   UNL     1      -0.286  -0.923  -2.555  1.00  0.00     0.018 A 
ATOM     12  C   UNL     1      -1.181   0.119  -2.866  1.00  0.00     0.030 A 
ATOM     13  Br  UNL     1      -2.645  -0.378  -3.969  1.00  0.00    -0.050 Br
BRANCH   8  14
ATOM     14  S   UNL     1       2.982   1.069  -1.258  1.00  0.00     0.262 S 
ATOM     15  O   UNL     1       3.381   2.286  -1.936  1.00  0.00    -0.201 OA
ATOM     16  O   UNL     1       3.783  -0.129  -1.391  1.00  0.00    -0.201 OA
BRANCH  14  17
ATOM     17  N   UNL     1       2.969   1.412   0.403  1.00  0.00    -0.274 N 
ATOM     18  H   UNL     1       3.619   0.978   1.002  1.00  0.00     0.180 HD
BRANCH  17  19
ATOM     19  C   UNL     1       2.005   2.339   0.933  1.00  0.00     0.111 A 
ATOM     20  C   UNL     1       0.678   1.973   1.203  1.00  0.00     0.238 A 
ATOM     21  N   UNL     1      -0.254   2.813   1.702  1.00  0.00    -0.220 NA
ATOM     22  C   UNL     1       0.155   4.067   1.986  1.00  0.00     0.115 A 
ATOM     23  C   UNL     1       2.386   3.646   1.234  1.00  0.00     0.034 A 
ATOM     24  C   UNL     1       1.449   4.522   1.781  1.00  0.00     0.023 A 
BRANCH  20  25
ATOM     25  O   UNL     1       0.202   0.728   0.885  1.00  0.00    -0.480 OA
ATOM     26  C   UNL     1       0.648  -0.248   1.816  1.00  0.00     0.280 C 
ENDBRANCH  20  25
ENDBRANCH  17  19
ENDBRANCH  14  17
ENDBRANCH   8  14
ENDBRANCH   4   7
ENDBRANCH   2   3
ENDBRANCH   1   2
BRANCH   1  27
ATOM     27  C   UNL     1      -6.005   3.238  -1.359  1.00  0.00     0.002 C 
BRANCH  27  28
ATOM     28  C   UNL     1      -6.628   2.963  -2.732  1.00  0.00     0.002 C 
BRANCH  28  29
ATOM     29  C   UNL     1      -7.309   1.608  -2.936  1.00  0.00     0.021 C 
BRANCH  29  30
ATOM     30  C   UNL     1      -8.382   1.228  -1.922  1.00  0.00     0.116 C 
BRANCH  30  31
ATOM     31  N   UNL     1      -9.511   2.142  -1.911  1.00  0.00    -0.352 N 
ATOM     32  C   UNL     1     -10.856   1.891  -2.035  1.00  0.00     0.251 C 
ATOM     33  H   UNL     1      -9.276   3.091  -1.797  1.00  0.00     0.163 HD
ATOM     34  O   UNL     1     -11.646   2.827  -2.120  1.00  0.00    -0.269 OA
BRANCH  32  35
ATOM     35  C   UNL     1     -11.369   0.501  -2.094  1.00  0.00     0.039 A 
ATOM     36  C   UNL     1     -12.371   0.198  -3.022  1.00  0.00     0.014 A 
ATOM     37  C   UNL     1     -10.903  -0.491  -1.228  1.00  0.00     0.014 A 
ATOM     38  C   UNL     1     -12.857  -1.109  -3.125  1.00  0.00     0.010 A 
ATOM     39  C   UNL     1     -11.339  -1.808  -1.377  1.00  0.00     0.010 A 
ATOM     40  C   UNL     1     -12.321  -2.131  -2.326  1.00  0.00    -0.014 A 
BRANCH  40  41
ATOM     41  C   UNL     1     -12.775  -3.539  -2.471  1.00  0.00     0.031 A 
ATOM     42  C   UNL     1     -13.487  -4.229  -1.341  1.00  0.00     0.074 A 
ATOM     43  C   UNL     1     -12.492  -4.219  -3.600  1.00  0.00     0.049 A 
ATOM     44  N   UNL     1     -13.895  -5.471  -1.251  1.00  0.00    -0.248 NA
ATOM     45  C   UNL     1     -13.755  -3.422  -0.140  1.00  0.00     0.031 C 
ATOM     46  C   UNL     1     -11.772  -3.678  -4.753  1.00  0.00     0.029 A 
ATOM     47  N   UNL     1     -12.766  -5.516  -3.959  1.00  0.00    -0.354 N 
ATOM     48  C   UNL     1     -14.452  -5.596   0.015  1.00  0.00     0.074 A 
ATOM     49  C   UNL     1     -14.285  -4.320   0.677  1.00  0.00     0.031 C 
ATOM     50  C   UNL     1     -11.676  -4.627  -5.697  1.00  0.00     0.029 A 
ATOM     51  C   UNL     1     -12.293  -5.855  -5.203  1.00  0.00     0.049 A 
ATOM     52  H   UNL     1     -13.254  -6.144  -3.379  1.00  0.00     0.167 HD
ATOM     53  C   UNL     1     -15.065  -6.671   0.567  1.00  0.00     0.037 A 
ATOM     54  C   UNL     1     -12.342  -7.026  -5.867  1.00  0.00     0.037 A 
ATOM     55  C   UNL     1     -15.252  -7.932  -0.102  1.00  0.00     0.049 A 
ATOM     56  C   UNL     1     -13.020  -8.207  -5.227  1.00  0.00     0.074 A 
ATOM     57  C   UNL     1     -15.913  -9.060   0.350  1.00  0.00     0.029 A 
ATOM     58  N   UNL     1     -14.771  -8.232  -1.369  1.00  0.00    -0.354 N 
ATOM     59  N   UNL     1     -13.601  -8.294  -4.056  1.00  0.00    -0.248 NA
ATOM     60  C   UNL     1     -13.054  -9.453  -6.006  1.00  0.00     0.031 C 
ATOM     61  C   UNL     1     -15.792 -10.059  -0.622  1.00  0.00     0.029 A 
ATOM     62  C   UNL     1     -15.100  -9.537  -1.703  1.00  0.00     0.049 A 
ATOM     63  H   UNL     1     -14.269  -7.611  -1.945  1.00  0.00     0.167 HD
ATOM     64  C   UNL     1     -14.092  -9.589  -3.968  1.00  0.00     0.074 A 
ATOM     65  C   UNL     1     -13.755 -10.249  -5.212  1.00  0.00     0.031 C 
ATOM     66  C   UNL     1     -14.762 -10.179  -2.947  1.00  0.00     0.037 A 
BRANCH  53  67
ATOM     67  C   UNL     1     -15.584  -6.530   1.970  1.00  0.00     0.064 A 
ATOM     68  C   UNL     1     -16.688  -5.717   2.268  1.00  0.00     0.173 A 
ATOM     69  C   UNL     1     -14.995  -7.246   3.023  1.00  0.00     0.173 A 
ATOM     70  F   UNL     1     -17.283  -5.004   1.300  1.00  0.00    -0.203 F 
ATOM     71  C   UNL     1     -17.163  -5.602   3.572  1.00  0.00     0.198 A 
ATOM     72  C   UNL     1     -15.491  -7.153   4.320  1.00  0.00     0.198 A 
ATOM     73  F   UNL     1     -13.941  -8.044   2.792  1.00  0.00    -0.203 F 
ATOM     74  F   UNL     1     -18.187  -4.781   3.841  1.00  0.00    -0.200 F 
ATOM     75  C   UNL     1     -16.569  -6.325   4.596  1.00  0.00     0.200 A 
ATOM     76  F   UNL     1     -14.925  -7.864   5.306  1.00  0.00    -0.200 F 
ATOM     77  F   UNL     1     -17.031  -6.219   5.849  1.00  0.00    -0.200 F 
ENDBRANCH  53  67
BRANCH  54  78
ATOM     78  C   UNL     1     -11.748  -7.134  -7.225  1.00  0.00     0.064 A 
ATOM     79  C   UNL     1     -12.561  -7.293  -8.356  1.00  0.00     0.173 A 
ATOM     80  C   UNL     1     -10.360  -7.089  -7.421  1.00  0.00     0.173 A 
ATOM     81  F   UNL     1     -13.893  -7.365  -8.216  1.00  0.00    -0.203 F 
ATOM     82  C   UNL     1     -12.009  -7.423  -9.628  1.00  0.00     0.198 A 
ATOM     83  C   UNL     1      -9.810  -7.189  -8.698  1.00  0.00     0.198 A 
ATOM     84  F   UNL     1      -9.537  -6.935  -6.373  1.00  0.00    -0.203 F 
ATOM     85  F   UNL     1     -12.807  -7.621 -10.685  1.00  0.00    -0.200 F 
ATOM     86  C   UNL     1     -10.634  -7.364  -9.799  1.00  0.00     0.200 A 
ATOM     87  F   UNL     1      -8.481  -7.119  -8.860  1.00  0.00    -0.200 F 
ATOM     88  F   UNL     1     -10.103  -7.486 -11.023  1.00  0.00    -0.200 F 
ENDBRANCH  54  78
BRANCH  66  89
ATOM     89  C   UNL     1     -15.204 -11.601  -3.145  1.00  0.00     0.064 A 
ATOM     90  C   UNL     1     -14.289 -12.663  -3.146  1.00  0.00     0.173 A 
ATOM     91  C   UNL     1     -16.565 -11.906  -3.296  1.00  0.00     0.173 A 
ATOM     92  F   UNL     1     -12.975 -12.422  -3.020  1.00  0.00    -0.203 F 
ATOM     93  C   UNL     1     -14.717 -13.977  -3.318  1.00  0.00     0.198 A 
ATOM     94  C   UNL     1     -16.993 -13.223  -3.437  1.00  0.00     0.198 A 
ATOM     95  F   UNL     1     -17.483 -10.927  -3.296  1.00  0.00    -0.203 F 
ATOM     96  F   UNL     1     -13.820 -14.971  -3.364  1.00  0.00    -0.200 F 
ATOM     97  C   UNL     1     -16.069 -14.256  -3.455  1.00  0.00     0.200 A 
ATOM     98  F   UNL     1     -18.301 -13.492  -3.556  1.00  0.00    -0.200 F 
ATOM     99  F   UNL     1     -16.480 -15.522  -3.613  1.00  0.00    -0.200 F 
ENDBRANCH  66  89
ENDBRANCH  40  41
ENDBRANCH  32  35
ENDBRANCH  30  31
ENDBRANCH  29  30
ENDBRANCH  28  29
ENDBRANCH  27  28
ENDBRANCH   1  27
TORSDOF 17
