REMARK SMILES CC(=O)Nc1cccc(NC(=O)N[C@H](C(=O)NCCCCCCNC(=O)c2ccc(-c3c4nc(c(-c5c(F)c(F)c(F)c(F)c5F)c5ccc([nH]5)c(-c5c(F)c(F)c(F)c(F)c5F)c5nc(c(-c6c(F)c(F)c(F)c(F)c6F)c6ccc3[nH]6)C=C5)C=C4)cc2)C(C)C)c1
REMARK SMILES IDX 20 1 19 2 18 3 17 4 15 5 16 6 14 8 13 9 10 10 11 11 12 13
REMARK SMILES IDX 9 15 5 16 6 17 93 18 7 19 8 20 4 21 1 22 2 23 3 24 90 26
REMARK SMILES IDX 91 27 92 28 21 29 22 30 23 31 24 32 25 33 26 35 27 36 28 37
REMARK SMILES IDX 89 38 29 39 88 40 30 41 31 42 32 43 82 44 33 45 87 46 81 47
REMARK SMILES IDX 83 48 34 49 86 50 80 51 79 52 35 54 67 55 47 56 66 57 48 58
REMARK SMILES IDX 51 59 65 60 84 61 49 62 50 63 64 65 85 66 52 67 36 68 37 69
REMARK SMILES IDX 45 70 38 71 39 72 43 73 46 74 40 75 41 76 44 77 42 78 68 79
REMARK SMILES IDX 69 80 77 81 70 82 71 83 75 84 78 85 72 86 73 87 76 88 74 89
REMARK SMILES IDX 53 90 54 91 62 92 55 93 56 94 60 95 63 96 57 97 58 98 61 99
REMARK SMILES IDX 59 100
REMARK H PARENT 17 7 10 12 13 14 4 25 24 34 83 53 51 64
REMARK Flexibility Score: inf
ROOT
ATOM      1  C   UNL     1       9.703   6.308   4.828  1.00  0.00     0.002 C 
ENDROOT
BRANCH   1   2
ATOM      2  C   UNL     1       8.245   5.847   4.856  1.00  0.00     0.021 C 
BRANCH   2   3
ATOM      3  C   UNL     1       7.957   4.832   3.748  1.00  0.00     0.116 C 
BRANCH   3   4
ATOM      4  N   UNL     1       6.914   3.885   4.100  1.00  0.00    -0.354 N 
ATOM      5  C   UNL     1       5.586   3.742   3.891  1.00  0.00     0.242 C 
ATOM      6  O   UNL     1       5.119   2.691   4.363  1.00  0.00    -0.273 OA
ATOM      7  H   UNL     1       7.273   3.143   4.638  1.00  0.00     0.163 HD
BRANCH   5   8
ATOM      8  C   UNL     1       4.609   4.734   3.171  1.00  0.00     0.175 C 
BRANCH   8   9
ATOM      9  N   UNL     1       3.451   4.773   4.094  1.00  0.00    -0.326 N 
ATOM     10  N   UNL     1       1.580   5.721   2.988  1.00  0.00    -0.308 N 
ATOM     11  C   UNL     1       2.171   5.173   4.067  1.00  0.00     0.319 C 
ATOM     12  H   UNL     1       0.833   6.326   3.203  1.00  0.00     0.171 HD
ATOM     13  O   UNL     1       1.547   5.157   5.131  1.00  0.00    -0.248 OA
ATOM     14  H   UNL     1       3.687   4.400   4.974  1.00  0.00     0.166 HD
BRANCH  10  15
ATOM     15  C   UNL     1       1.832   5.591   1.621  1.00  0.00     0.044 A 
ATOM     16  C   UNL     1       2.174   6.741  -0.482  1.00  0.00     0.043 A 
ATOM     17  C   UNL     1       2.567   5.521  -1.050  1.00  0.00     0.026 A 
ATOM     18  C   UNL     1       1.709   6.741   0.830  1.00  0.00     0.052 A 
ATOM     19  C   UNL     1       2.564   4.343  -0.297  1.00  0.00     0.004 A 
ATOM     20  C   UNL     1       2.207   4.381   1.047  1.00  0.00     0.026 A 
BRANCH  16  21
ATOM     21  N   UNL     1       2.299   7.883  -1.290  1.00  0.00    -0.326 N 
ATOM     22  C   UNL     1       2.618   9.764   0.350  1.00  0.00     0.114 C 
ATOM     23  C   UNL     1       2.401   9.220  -1.035  1.00  0.00     0.221 C 
ATOM     24  O   UNL     1       2.413   9.987  -2.002  1.00  0.00    -0.275 OA
ATOM     25  H   UNL     1       2.317   7.674  -2.251  1.00  0.00     0.169 HD
ENDBRANCH  16  21
ENDBRANCH  10  15
ENDBRANCH   8   9
BRANCH   8  26
ATOM     26  C   UNL     1       5.221   6.085   2.751  1.00  0.00     0.015 C 
ATOM     27  C   UNL     1       5.803   5.945   1.330  1.00  0.00     0.010 C 
ATOM     28  C   UNL     1       4.378   7.353   2.806  1.00  0.00     0.010 C 
ENDBRANCH   8  26
ENDBRANCH   5   8
ENDBRANCH   3   4
ENDBRANCH   2   3
ENDBRANCH   1   2
BRANCH   1  29
ATOM     29  C   UNL     1      10.149   6.940   3.505  1.00  0.00     0.002 C 
BRANCH  29  30
ATOM     30  C   UNL     1       9.519   8.298   3.192  1.00  0.00     0.021 C 
BRANCH  30  31
ATOM     31  C   UNL     1       9.694   9.343   4.291  1.00  0.00     0.116 C 
BRANCH  31  32
ATOM     32  N   UNL     1      11.079   9.435   4.737  1.00  0.00    -0.352 N 
ATOM     33  C   UNL     1      11.964  10.476   4.649  1.00  0.00     0.251 C 
ATOM     34  H   UNL     1      11.432   8.623   5.169  1.00  0.00     0.163 HD
ATOM     35  O   UNL     1      13.163  10.294   4.824  1.00  0.00    -0.269 OA
BRANCH  33  36
ATOM     36  C   UNL     1      11.457  11.824   4.342  1.00  0.00     0.039 A 
ATOM     37  C   UNL     1      12.121  12.605   3.395  1.00  0.00     0.014 A 
ATOM     38  C   UNL     1      10.322  12.306   4.999  1.00  0.00     0.014 A 
ATOM     39  C   UNL     1      11.601  13.853   3.053  1.00  0.00     0.010 A 
ATOM     40  C   UNL     1       9.764  13.513   4.605  1.00  0.00     0.010 A 
ATOM     41  C   UNL     1      10.398  14.295   3.628  1.00  0.00    -0.014 A 
BRANCH  41  42
ATOM     42  C   UNL     1       9.766  15.567   3.216  1.00  0.00     0.031 A 
ATOM     43  C   UNL     1       9.619  16.684   4.206  1.00  0.00     0.074 A 
ATOM     44  C   UNL     1       9.243  15.670   1.980  1.00  0.00     0.049 A 
ATOM     45  N   UNL     1       8.996  17.827   4.078  1.00  0.00    -0.248 NA
ATOM     46  C   UNL     1      10.228  16.475   5.529  1.00  0.00     0.031 C 
ATOM     47  C   UNL     1       9.293  14.628   0.953  1.00  0.00     0.029 A 
ATOM     48  N   UNL     1       8.550  16.692   1.384  1.00  0.00    -0.354 N 
ATOM     49  C   UNL     1       9.129  18.466   5.303  1.00  0.00     0.074 A 
ATOM     50  C   UNL     1       9.841  17.562   6.179  1.00  0.00     0.031 C 
ATOM     51  C   UNL     1       8.674  15.070  -0.152  1.00  0.00     0.029 A 
ATOM     52  C   UNL     1       8.143  16.405   0.104  1.00  0.00     0.049 A 
ATOM     53  H   UNL     1       8.362  17.549   1.831  1.00  0.00     0.167 HD
ATOM     54  C   UNL     1       8.713  19.706   5.653  1.00  0.00     0.037 A 
ATOM     55  C   UNL     1       7.407  17.133  -0.756  1.00  0.00     0.037 A 
ATOM     56  C   UNL     1       8.017  20.599   4.764  1.00  0.00     0.049 A 
ATOM     57  C   UNL     1       6.918  18.489  -0.327  1.00  0.00     0.074 A 
ATOM     58  C   UNL     1       7.611  21.901   4.993  1.00  0.00     0.029 A 
ATOM     59  N   UNL     1       7.614  20.273   3.477  1.00  0.00    -0.354 N 
ATOM     60  N   UNL     1       7.116  19.119   0.806  1.00  0.00    -0.248 NA
ATOM     61  C   UNL     1       6.099  19.233  -1.293  1.00  0.00     0.031 C 
ATOM     62  C   UNL     1       6.912  22.343   3.865  1.00  0.00     0.029 A 
ATOM     63  C   UNL     1       6.928  21.335   2.912  1.00  0.00     0.049 A 
ATOM     64  H   UNL     1       7.790  19.413   3.030  1.00  0.00     0.167 HD
ATOM     65  C   UNL     1       6.463  20.337   0.685  1.00  0.00     0.074 A 
ATOM     66  C   UNL     1       5.880  20.367  -0.641  1.00  0.00     0.031 C 
ATOM     67  C   UNL     1       6.351  21.339   1.591  1.00  0.00     0.037 A 
BRANCH  54  68
ATOM     68  C   UNL     1       8.998  20.163   7.054  1.00  0.00     0.064 A 
ATOM     69  C   UNL     1      10.306  20.425   7.492  1.00  0.00     0.173 A 
ATOM     70  C   UNL     1       7.951  20.362   7.966  1.00  0.00     0.173 A 
ATOM     71  F   UNL     1      11.346  20.240   6.664  1.00  0.00    -0.203 F 
ATOM     72  C   UNL     1      10.557  20.835   8.799  1.00  0.00     0.198 A 
ATOM     73  C   UNL     1       8.203  20.803   9.263  1.00  0.00     0.198 A 
ATOM     74  F   UNL     1       6.681  20.130   7.600  1.00  0.00    -0.203 F 
ATOM     75  F   UNL     1      11.819  21.024   9.210  1.00  0.00    -0.200 F 
ATOM     76  C   UNL     1       9.505  21.030   9.681  1.00  0.00     0.200 A 
ATOM     77  F   UNL     1       7.184  21.003  10.110  1.00  0.00    -0.200 F 
ATOM     78  F   UNL     1       9.748  21.428  10.938  1.00  0.00    -0.200 F 
ENDBRANCH  54  68
BRANCH  55  79
ATOM     79  C   UNL     1       7.101  16.597  -2.108  1.00  0.00     0.064 A 
ATOM     80  C   UNL     1       7.673  17.169  -3.252  1.00  0.00     0.173 A 
ATOM     81  C   UNL     1       6.248  15.498  -2.285  1.00  0.00     0.173 A 
ATOM     82  F   UNL     1       8.482  18.233  -3.134  1.00  0.00    -0.203 F 
ATOM     83  C   UNL     1       7.392  16.674  -4.523  1.00  0.00     0.198 A 
ATOM     84  C   UNL     1       5.990  14.984  -3.555  1.00  0.00     0.198 A 
ATOM     85  F   UNL     1       5.681  14.909  -1.222  1.00  0.00    -0.203 F 
ATOM     86  F   UNL     1       7.923  17.264  -5.602  1.00  0.00    -0.200 F 
ATOM     87  C   UNL     1       6.556  15.577  -4.673  1.00  0.00     0.200 A 
ATOM     88  F   UNL     1       5.197  13.913  -3.694  1.00  0.00    -0.200 F 
ATOM     89  F   UNL     1       6.295  15.094  -5.895  1.00  0.00    -0.200 F 
ENDBRANCH  55  79
BRANCH  67  90
ATOM     90  C   UNL     1       5.573  22.554   1.177  1.00  0.00     0.064 A 
ATOM     91  C   UNL     1       4.176  22.523   1.062  1.00  0.00     0.173 A 
ATOM     92  C   UNL     1       6.226  23.775   0.950  1.00  0.00     0.173 A 
ATOM     93  F   UNL     1       3.508  21.375   1.253  1.00  0.00    -0.203 F 
ATOM     94  C   UNL     1       3.462  23.667   0.717  1.00  0.00     0.198 A 
ATOM     95  C   UNL     1       5.506  24.924   0.636  1.00  0.00     0.198 A 
ATOM     96  F   UNL     1       7.561  23.858   1.053  1.00  0.00    -0.203 F 
ATOM     97  F   UNL     1       2.131  23.605   0.573  1.00  0.00    -0.200 F 
ATOM     98  C   UNL     1       4.126  24.868   0.515  1.00  0.00     0.200 A 
ATOM     99  F   UNL     1       6.147  26.086   0.455  1.00  0.00    -0.200 F 
ATOM    100  F   UNL     1       3.435  25.971   0.198  1.00  0.00    -0.200 F 
ENDBRANCH  67  90
ENDBRANCH  41  42
ENDBRANCH  33  36
ENDBRANCH  31  32
ENDBRANCH  30  31
ENDBRANCH  29  30
ENDBRANCH   1  29
TORSDOF 17
