REMARK SMILES Cc1cc(C[N@H+]2CC[C@@H](C(=O)NCCCCCCNC(=O)c3ccc(-c4c5nc(c(-c6c(F)c(F)c(F)c(F)c6F)c6ccc([nH]6)c(-c6c(F)c(F)c(F)c(F)c6F)c6nc(c(-c7c(F)c(F)c(F)c(F)c7F)c7ccc4[nH]7)C=C6)C=C5)cc3)[C@@H]2C)ccc1Br
REMARK SMILES IDX 15 1 14 2 13 3 12 4 10 5 11 6 9 8 6 9 7 10 85 11 8 13 86 14
REMARK SMILES IDX 5 15 4 16 1 17 2 18 3 19 89 20 88 21 90 22 87 23 16 24 17 25
REMARK SMILES IDX 18 26 19 27 20 28 21 30 22 31 23 32 84 33 24 34 83 35 25 36
REMARK SMILES IDX 26 37 27 38 77 39 28 40 82 41 76 42 78 43 29 44 81 45 75 46
REMARK SMILES IDX 74 47 30 49 62 50 42 51 61 52 43 53 46 54 60 55 79 56 44 57
REMARK SMILES IDX 45 58 59 60 80 61 47 62 31 63 32 64 40 65 33 66 34 67 38 68
REMARK SMILES IDX 41 69 35 70 36 71 39 72 37 73 63 74 64 75 72 76 65 77 66 78
REMARK SMILES IDX 70 79 73 80 67 81 68 82 71 83 69 84 48 85 49 86 57 87 50 88
REMARK SMILES IDX 51 89 55 90 58 91 52 92 53 93 56 94 54 95
REMARK H PARENT 12 7 6 12 19 29 78 48 46 59
REMARK Flexibility Score: inf
ROOT
ATOM      1  C   UNL     1       0.106   1.123   2.046  1.00  0.00     0.002 C 
ENDROOT
BRANCH   1   2
ATOM      2  C   UNL     1       1.409   0.714   0.959  1.00  0.00     0.021 C 
BRANCH   2   3
ATOM      3  C   UNL     1       1.732   0.918  -1.199  1.00  0.00     0.116 C 
BRANCH   3   4
ATOM      4  N   UNL     1       1.713   2.192  -2.165  1.00  0.00    -0.356 N 
ATOM      5  C   UNL     1       2.642   2.876  -2.877  1.00  0.00     0.229 C 
ATOM      6  O   UNL     1       2.239   3.892  -3.458  1.00  0.00    -0.275 OA
ATOM      7  H   UNL     1       0.810   2.571  -2.267  1.00  0.00     0.163 HD
BRANCH   5   8
ATOM      8  C   UNL     1       4.109   2.486  -2.993  1.00  0.00     0.142 C 
ATOM      9  N   UNL     1       5.397   1.391  -1.272  1.00  0.00    -0.328 N 
ATOM     10  C   UNL     1       5.226   0.425  -2.358  1.00  0.00     0.263 C 
ATOM     11  C   UNL     1       4.946   2.709  -1.736  1.00  0.00     0.193 C 
ATOM     12  H   UNL     1       6.394   1.440  -1.062  1.00  0.00     0.348 HD
ATOM     13  C   UNL     1       4.355   1.056  -3.437  1.00  0.00     0.081 C 
ATOM     14  C   UNL     1       6.182   3.569  -2.018  1.00  0.00     0.076 C 
BRANCH   9  15
ATOM     15  C   UNL     1       4.880   0.987   0.041  1.00  0.00     0.299 C 
BRANCH  15  16
ATOM     16  C   UNL     1       3.374   0.891   0.131  1.00  0.00     0.007 A 
ATOM     17  C   UNL     1       0.180  -2.169  -0.546  1.00  0.00     0.045 C 
ATOM     18  C   UNL     1       0.808  -0.822  -0.372  1.00  0.00    -0.036 A 
ATOM     19  C   UNL     1       2.591  -0.716  -0.125  1.00  0.00     0.014 A 
ATOM     20  C   UNL     1      -0.189   0.685  -0.406  1.00  0.00     0.020 A 
ATOM     21  C   UNL     1       0.582   2.293  -0.108  1.00  0.00     0.016 A 
ATOM     22  Br  UNL     1      -1.998   0.638  -0.970  1.00  0.00    -0.051 Br
ATOM     23  C   UNL     1       2.364   2.396   0.170  1.00  0.00     0.011 A 
ENDBRANCH  15  16
ENDBRANCH   9  15
ENDBRANCH   5   8
ENDBRANCH   3   4
ENDBRANCH   2   3
ENDBRANCH   1   2
BRANCH   1  24
ATOM     24  C   UNL     1      -0.837  -0.021   2.460  1.00  0.00     0.002 C 
BRANCH  24  25
ATOM     25  C   UNL     1      -0.167  -1.198   3.154  1.00  0.00     0.021 C 
BRANCH  25  26
ATOM     26  C   UNL     1       0.579  -0.772   4.405  1.00  0.00     0.116 C 
BRANCH  26  27
ATOM     27  N   UNL     1      -0.368  -0.278   5.399  1.00  0.00    -0.352 N 
ATOM     28  C   UNL     1      -1.015  -1.030   6.349  1.00  0.00     0.251 C 
ATOM     29  H   UNL     1      -0.563   0.688   5.387  1.00  0.00     0.163 HD
ATOM     30  O   UNL     1      -2.103  -0.699   6.802  1.00  0.00    -0.269 OA
BRANCH  28  31
ATOM     31  C   UNL     1      -0.341  -2.255   6.814  1.00  0.00     0.039 A 
ATOM     32  C   UNL     1      -1.058  -3.437   6.987  1.00  0.00     0.014 A 
ATOM     33  C   UNL     1       1.039  -2.212   7.031  1.00  0.00     0.014 A 
ATOM     34  C   UNL     1      -0.370  -4.592   7.355  1.00  0.00     0.010 A 
ATOM     35  C   UNL     1       1.734  -3.384   7.257  1.00  0.00     0.010 A 
ATOM     36  C   UNL     1       1.032  -4.575   7.472  1.00  0.00    -0.014 A 
BRANCH  36  37
ATOM     37  C   UNL     1       1.788  -5.779   7.879  1.00  0.00     0.031 A 
ATOM     38  C   UNL     1       2.602  -5.753   9.143  1.00  0.00     0.074 A 
ATOM     39  C   UNL     1       1.789  -6.860   7.079  1.00  0.00     0.049 A 
ATOM     40  N   UNL     1       3.346  -6.691   9.668  1.00  0.00    -0.248 NA
ATOM     41  C   UNL     1       2.624  -4.486   9.893  1.00  0.00     0.031 C 
ATOM     42  C   UNL     1       1.111  -6.955   5.786  1.00  0.00     0.029 A 
ATOM     43  N   UNL     1       2.384  -8.084   7.237  1.00  0.00    -0.354 N 
ATOM     44  C   UNL     1       3.932  -6.120  10.791  1.00  0.00     0.074 A 
ATOM     45  C   UNL     1       3.533  -4.733  10.821  1.00  0.00     0.031 C 
ATOM     46  C   UNL     1       1.290  -8.188   5.287  1.00  0.00     0.029 A 
ATOM     47  C   UNL     1       2.123  -8.954   6.209  1.00  0.00     0.049 A 
ATOM     48  H   UNL     1       2.944  -8.316   8.012  1.00  0.00     0.167 HD
ATOM     49  C   UNL     1       4.702  -6.711  11.734  1.00  0.00     0.037 A 
ATOM     50  C   UNL     1       2.510 -10.232   6.038  1.00  0.00     0.037 A 
ATOM     51  C   UNL     1       5.067  -8.101  11.700  1.00  0.00     0.049 A 
ATOM     52  C   UNL     1       3.332 -10.884   7.114  1.00  0.00     0.074 A 
ATOM     53  C   UNL     1       5.769  -8.835  12.636  1.00  0.00     0.029 A 
ATOM     54  N   UNL     1       4.759  -8.967  10.658  1.00  0.00    -0.354 N 
ATOM     55  N   UNL     1       3.796 -10.368   8.228  1.00  0.00    -0.248 NA
ATOM     56  C   UNL     1       3.672 -12.297   6.917  1.00  0.00     0.031 C 
ATOM     57  C   UNL     1       5.942 -10.129  12.132  1.00  0.00     0.029 A 
ATOM     58  C   UNL     1       5.290 -10.221  10.911  1.00  0.00     0.049 A 
ATOM     59  H   UNL     1       4.240  -8.725   9.857  1.00  0.00     0.167 HD
ATOM     60  C   UNL     1       4.474 -11.393   8.872  1.00  0.00     0.074 A 
ATOM     61  C   UNL     1       4.332 -12.569   8.034  1.00  0.00     0.031 C 
ATOM     62  C   UNL     1       5.155 -11.368  10.046  1.00  0.00     0.037 A 
BRANCH  49  63
ATOM     63  C   UNL     1       5.196  -5.847  12.862  1.00  0.00     0.064 A 
ATOM     64  C   UNL     1       4.319  -5.263  13.793  1.00  0.00     0.173 A 
ATOM     65  C   UNL     1       6.566  -5.578  13.003  1.00  0.00     0.173 A 
ATOM     66  F   UNL     1       2.997  -5.473  13.700  1.00  0.00    -0.203 F 
ATOM     67  C   UNL     1       4.788  -4.403  14.783  1.00  0.00     0.198 A 
ATOM     68  C   UNL     1       7.035  -4.750  14.020  1.00  0.00     0.198 A 
ATOM     69  F   UNL     1       7.452  -6.108  12.147  1.00  0.00    -0.203 F 
ATOM     70  F   UNL     1       3.922  -3.795  15.605  1.00  0.00    -0.200 F 
ATOM     71  C   UNL     1       6.146  -4.151  14.899  1.00  0.00     0.200 A 
ATOM     72  F   UNL     1       8.350  -4.518  14.139  1.00  0.00    -0.200 F 
ATOM     73  F   UNL     1       6.596  -3.320  15.850  1.00  0.00    -0.200 F 
ENDBRANCH  49  63
BRANCH  50  74
ATOM     74  C   UNL     1       2.076 -10.969   4.824  1.00  0.00     0.064 A 
ATOM     75  C   UNL     1       1.117 -11.987   4.900  1.00  0.00     0.173 A 
ATOM     76  C   UNL     1       2.568 -10.629   3.555  1.00  0.00     0.173 A 
ATOM     77  F   UNL     1       0.625 -12.356   6.092  1.00  0.00    -0.203 F 
ATOM     78  C   UNL     1       0.671 -12.644   3.754  1.00  0.00     0.198 A 
ATOM     79  C   UNL     1       2.101 -11.266   2.407  1.00  0.00     0.198 A 
ATOM     80  F   UNL     1       3.477  -9.652   3.427  1.00  0.00    -0.203 F 
ATOM     81  F   UNL     1      -0.227 -13.633   3.857  1.00  0.00    -0.200 F 
ATOM     82  C   UNL     1       1.156 -12.276   2.508  1.00  0.00     0.200 A 
ATOM     83  F   UNL     1       2.556 -10.891   1.204  1.00  0.00    -0.200 F 
ATOM     84  F   UNL     1       0.712 -12.892   1.405  1.00  0.00    -0.200 F 
ENDBRANCH  50  74
BRANCH  62  85
ATOM     85  C   UNL     1       5.796 -12.653  10.485  1.00  0.00     0.064 A 
ATOM     86  C   UNL     1       6.898 -13.194   9.805  1.00  0.00     0.173 A 
ATOM     87  C   UNL     1       5.316 -13.340  11.610  1.00  0.00     0.173 A 
ATOM     88  F   UNL     1       7.387 -12.582   8.715  1.00  0.00    -0.203 F 
ATOM     89  C   UNL     1       7.469 -14.397  10.211  1.00  0.00     0.198 A 
ATOM     90  C   UNL     1       5.914 -14.522  12.036  1.00  0.00     0.198 A 
ATOM     91  F   UNL     1       4.272 -12.860  12.303  1.00  0.00    -0.203 F 
ATOM     92  F   UNL     1       8.478 -14.928   9.507  1.00  0.00    -0.200 F 
ATOM     93  C   UNL     1       6.981 -15.056  11.330  1.00  0.00     0.200 A 
ATOM     94  F   UNL     1       5.453 -15.148  13.128  1.00  0.00    -0.200 F 
ATOM     95  F   UNL     1       7.533 -16.212  11.720  1.00  0.00    -0.200 F 
ENDBRANCH  62  85
ENDBRANCH  36  37
ENDBRANCH  28  31
ENDBRANCH  26  27
ENDBRANCH  25  26
ENDBRANCH  24  25
ENDBRANCH   1  24
TORSDOF 15
