REMARK SMILES O=C(NCCCCCCNC(=O)c1ccc(-c2ccc(F)c(C(F)(F)F)c2)cc1[N+](=O)[O-])c1ccc(-c2c3nc(c(-c4c(F)c(F)c(F)c(F)c4F)c4ccc([nH]4)c(-c4c(F)c(F)c(F)c(F)c4F)c4nc(c(-c5c(F)c(F)c(F)c(F)c5F)c5ccc2[nH]5)C=C4)C=C3)cc1
REMARK SMILES IDX 6 1 5 2 4 3 3 4 1 5 2 6 33 8 34 9 95 10 35 11 94 12 36 13
REMARK SMILES IDX 37 14 38 15 88 16 39 17 93 18 87 19 89 20 40 21 92 22 86 23
REMARK SMILES IDX 85 24 41 26 73 27 53 28 72 29 54 30 57 31 71 32 90 33 55 34
REMARK SMILES IDX 56 35 70 37 91 38 58 39 42 40 43 41 51 42 44 43 45 44 49 45
REMARK SMILES IDX 52 46 46 47 47 48 50 49 48 50 74 51 75 52 83 53 76 54 77 55
REMARK SMILES IDX 81 56 84 57 78 58 79 59 82 60 80 61 59 62 60 63 68 64 61 65
REMARK SMILES IDX 62 66 66 67 69 68 63 69 64 70 67 71 65 72 7 73 8 74 9 75
REMARK SMILES IDX 10 76 11 77 12 79 13 80 14 81 29 82 15 83 28 84 16 85 30 86
REMARK SMILES IDX 31 87 32 88 17 89 18 90 27 91 19 92 22 93 20 94 21 95 23 96
REMARK SMILES IDX 24 97 25 98 26 99
REMARK H PARENT 3 7 89 25 57 36 10 78
REMARK Flexibility Score: inf
ROOT
ATOM      1  C   UNL     1       4.207   3.325  -2.327  1.00  0.00     0.002 C 
ENDROOT
BRANCH   1   2
ATOM      2  C   UNL     1       4.683   1.879  -2.199  1.00  0.00     0.021 C 
BRANCH   2   3
ATOM      3  C   UNL     1       4.432   1.225  -0.848  1.00  0.00     0.116 C 
BRANCH   3   4
ATOM      4  N   UNL     1       3.021   1.090  -0.530  1.00  0.00    -0.352 N 
ATOM      5  O   UNL     1       1.130   0.015   0.080  1.00  0.00    -0.269 OA
ATOM      6  C   UNL     1       2.353   0.000  -0.027  1.00  0.00     0.251 C 
ATOM      7  H   UNL     1       2.469   1.888  -0.697  1.00  0.00     0.163 HD
BRANCH   6   8
ATOM      8  C   UNL     1       3.110  -1.210   0.363  1.00  0.00     0.039 A 
ATOM      9  C   UNL     1       4.280  -1.109   1.119  1.00  0.00     0.014 A 
ATOM     10  C   UNL     1       2.634  -2.466  -0.028  1.00  0.00     0.014 A 
ATOM     11  C   UNL     1       5.039  -2.245   1.373  1.00  0.00     0.010 A 
ATOM     12  C   UNL     1       3.357  -3.617   0.298  1.00  0.00     0.010 A 
ATOM     13  C   UNL     1       4.577  -3.513   0.982  1.00  0.00    -0.014 A 
BRANCH  13  14
ATOM     14  C   UNL     1       5.351  -4.716   1.380  1.00  0.00     0.031 A 
ATOM     15  C   UNL     1       6.027  -5.587   0.361  1.00  0.00     0.074 A 
ATOM     16  C   UNL     1       5.467  -4.993   2.693  1.00  0.00     0.049 A 
ATOM     17  N   UNL     1       6.771  -6.649   0.550  1.00  0.00    -0.248 NA
ATOM     18  C   UNL     1       5.843  -5.229  -1.054  1.00  0.00     0.031 C 
ATOM     19  C   UNL     1       4.835  -4.227   3.771  1.00  0.00     0.029 A 
ATOM     20  N   UNL     1       6.166  -5.973   3.349  1.00  0.00    -0.354 N 
ATOM     21  C   UNL     1       7.133  -7.092  -0.715  1.00  0.00     0.074 A 
ATOM     22  C   UNL     1       6.508  -6.199  -1.668  1.00  0.00     0.031 C 
ATOM     23  C   UNL     1       5.213  -4.734   4.952  1.00  0.00     0.029 A 
ATOM     24  C   UNL     1       6.066  -5.894   4.716  1.00  0.00     0.049 A 
ATOM     25  H   UNL     1       6.689  -6.665   2.885  1.00  0.00     0.167 HD
ATOM     26  C   UNL     1       7.921  -8.144  -1.045  1.00  0.00     0.037 A 
ATOM     27  C   UNL     1       6.592  -6.676   5.676  1.00  0.00     0.037 A 
ATOM     28  C   UNL     1       8.550  -9.022  -0.090  1.00  0.00     0.049 A 
ATOM     29  C   UNL     1       7.453  -7.838   5.277  1.00  0.00     0.074 A 
ATOM     30  C   UNL     1       9.390 -10.097  -0.327  1.00  0.00     0.029 A 
ATOM     31  N   UNL     1       8.405  -8.926   1.286  1.00  0.00    -0.354 N 
ATOM     32  N   UNL     1       7.814  -8.224   4.078  1.00  0.00    -0.248 NA
ATOM     33  C   UNL     1       7.979  -8.674   6.364  1.00  0.00     0.031 C 
ATOM     34  C   UNL     1       9.723 -10.674   0.903  1.00  0.00     0.029 A 
ATOM     35  C   UNL     1       9.126  -9.934   1.910  1.00  0.00     0.049 A 
ATOM     36  H   UNL     1       7.870  -8.243   1.752  1.00  0.00     0.167 HD
ATOM     37  C   UNL     1       8.612  -9.342   4.264  1.00  0.00     0.074 A 
ATOM     38  C   UNL     1       8.709  -9.553   5.694  1.00  0.00     0.031 C 
ATOM     39  C   UNL     1       9.204 -10.131   3.334  1.00  0.00     0.037 A 
BRANCH  26  40
ATOM     40  C   UNL     1       8.151  -8.417  -2.503  1.00  0.00     0.064 A 
ATOM     41  C   UNL     1       8.994  -7.606  -3.278  1.00  0.00     0.173 A 
ATOM     42  C   UNL     1       7.582  -9.545  -3.114  1.00  0.00     0.173 A 
ATOM     43  F   UNL     1       9.556  -6.512  -2.743  1.00  0.00    -0.203 F 
ATOM     44  C   UNL     1       9.248  -7.908  -4.614  1.00  0.00     0.198 A 
ATOM     45  C   UNL     1       7.856  -9.856  -4.444  1.00  0.00     0.198 A 
ATOM     46  F   UNL     1       6.774 -10.357  -2.416  1.00  0.00    -0.203 F 
ATOM     47  F   UNL     1      10.035  -7.104  -5.342  1.00  0.00    -0.200 F 
ATOM     48  C   UNL     1       8.686  -9.036  -5.193  1.00  0.00     0.200 A 
ATOM     49  F   UNL     1       7.322 -10.953  -4.998  1.00  0.00    -0.200 F 
ATOM     50  F   UNL     1       8.943  -9.332  -6.475  1.00  0.00    -0.200 F 
ENDBRANCH  26  40
BRANCH  27  51
ATOM     51  C   UNL     1       6.310  -6.382   7.104  1.00  0.00     0.064 A 
ATOM     52  C   UNL     1       7.320  -5.923   7.960  1.00  0.00     0.173 A 
ATOM     53  C   UNL     1       5.024  -6.546   7.639  1.00  0.00     0.173 A 
ATOM     54  F   UNL     1       8.570  -5.768   7.499  1.00  0.00    -0.203 F 
ATOM     55  C   UNL     1       7.058  -5.656   9.302  1.00  0.00     0.198 A 
ATOM     56  C   UNL     1       4.756  -6.250   8.973  1.00  0.00     0.198 A 
ATOM     57  F   UNL     1       4.022  -6.977   6.859  1.00  0.00    -0.203 F 
ATOM     58  F   UNL     1       8.050  -5.259  10.110  1.00  0.00    -0.200 F 
ATOM     59  C   UNL     1       5.775  -5.813   9.805  1.00  0.00     0.200 A 
ATOM     60  F   UNL     1       3.512  -6.387   9.450  1.00  0.00    -0.200 F 
ATOM     61  F   UNL     1       5.522  -5.549  11.094  1.00  0.00    -0.200 F 
ENDBRANCH  27  51
BRANCH  39  62
ATOM     62  C   UNL     1      10.016 -11.284   3.844  1.00  0.00     0.064 A 
ATOM     63  C   UNL     1       9.405 -12.417   4.401  1.00  0.00     0.173 A 
ATOM     64  C   UNL     1      11.416 -11.258   3.769  1.00  0.00     0.173 A 
ATOM     65  F   UNL     1       8.070 -12.479   4.511  1.00  0.00    -0.203 F 
ATOM     66  C   UNL     1      10.170 -13.472   4.891  1.00  0.00     0.198 A 
ATOM     67  C   UNL     1      12.176 -12.326   4.236  1.00  0.00     0.198 A 
ATOM     68  F   UNL     1      12.046 -10.198   3.242  1.00  0.00    -0.203 F 
ATOM     69  F   UNL     1       9.568 -14.521   5.468  1.00  0.00    -0.200 F 
ATOM     70  C   UNL     1      11.553 -13.428   4.805  1.00  0.00     0.200 A 
ATOM     71  F   UNL     1      13.512 -12.287   4.144  1.00  0.00    -0.200 F 
ATOM     72  F   UNL     1      12.288 -14.443   5.280  1.00  0.00    -0.200 F 
ENDBRANCH  39  62
ENDBRANCH  13  14
ENDBRANCH   6   8
ENDBRANCH   3   4
ENDBRANCH   2   3
ENDBRANCH   1   2
BRANCH   1  73
ATOM     73  C   UNL     1       4.710   4.295  -1.254  1.00  0.00     0.002 C 
BRANCH  73  74
ATOM     74  C   UNL     1       6.228   4.345  -1.042  1.00  0.00     0.021 C 
BRANCH  74  75
ATOM     75  C   UNL     1       7.064   4.553  -2.302  1.00  0.00     0.116 C 
BRANCH  75  76
ATOM     76  N   UNL     1       6.738   5.787  -2.993  1.00  0.00    -0.352 N 
ATOM     77  C   UNL     1       7.569   6.706  -3.575  1.00  0.00     0.258 C 
ATOM     78  H   UNL     1       5.777   5.993  -3.053  1.00  0.00     0.163 HD
ATOM     79  O   UNL     1       7.130   7.753  -4.035  1.00  0.00    -0.269 OA
BRANCH  77  80
ATOM     80  C   UNL     1       9.021   6.471  -3.593  1.00  0.00     0.117 A 
ATOM     81  C   UNL     1       9.825   7.372  -2.891  1.00  0.00     0.022 A 
ATOM     82  C   UNL     1       9.624   5.412  -4.268  1.00  0.00     0.282 A 
ATOM     83  C   UNL     1      11.210   7.179  -2.834  1.00  0.00     0.010 A 
ATOM     84  C   UNL     1      11.009   5.202  -4.202  1.00  0.00     0.095 A 
ATOM     85  C   UNL     1      11.825   6.088  -3.476  1.00  0.00    -0.012 A 
BRANCH  82  86
ATOM     86  N   UNL     1       8.836   4.492  -5.061  1.00  0.00     0.063 N 
ATOM     87  O   UNL     1       8.977   3.286  -4.813  1.00  0.00    -0.258 OA
ATOM     88  O   UNL     1       8.101   4.965  -5.934  1.00  0.00    -0.258 OA
ENDBRANCH  82  86
BRANCH  85  89
ATOM     89  C   UNL     1      13.282   5.885  -3.402  1.00  0.00    -0.017 A 
ATOM     90  C   UNL     1      13.957   5.910  -2.170  1.00  0.00     0.012 A 
ATOM     91  C   UNL     1      14.040   5.657  -4.566  1.00  0.00     0.025 A 
ATOM     92  C   UNL     1      15.339   5.716  -2.104  1.00  0.00     0.040 A 
ATOM     93  C   UNL     1      15.430   5.456  -4.510  1.00  0.00     0.092 A 
ATOM     94  C   UNL     1      16.060   5.492  -3.271  1.00  0.00     0.135 A 
ATOM     95  F   UNL     1      17.384   5.309  -3.187  1.00  0.00    -0.206 F 
BRANCH  93  96
ATOM     96  C   UNL     1      16.246   5.213  -5.743  1.00  0.00     0.419 C 
ATOM     97  F   UNL     1      17.157   6.195  -5.978  1.00  0.00    -0.166 F 
ATOM     98  F   UNL     1      16.941   4.044  -5.700  1.00  0.00    -0.166 F 
ATOM     99  F   UNL     1      15.486   5.142  -6.874  1.00  0.00    -0.166 F 
ENDBRANCH  93  96
ENDBRANCH  85  89
ENDBRANCH  77  80
ENDBRANCH  75  76
ENDBRANCH  74  75
ENDBRANCH  73  74
ENDBRANCH   1  73
TORSDOF 16
