REMARK SMILES CC(C)CN(C)/C=C\C(=O)NCCCCCCNC(=O)c1ccc(-c2c3nc(c(-c4c(F)c(F)c(F)c(F)c4F)c4ccc([nH]4)c(-c4c(F)c(F)c(F)c(F)c4F)c4nc(c(-c5c(F)c(F)c(F)c(F)c5F)c5ccc2[nH]5)C=C4)C=C3)cc1
REMARK SMILES IDX 14 1 13 2 12 3 11 4 9 5 10 6 8 8 7 9 5 10 6 11 4 12 2 13
REMARK SMILES IDX 1 14 3 15 15 16 16 17 17 18 18 19 19 20 20 22 21 23 22 24
REMARK SMILES IDX 83 25 23 26 82 27 24 28 25 29 26 30 76 31 27 32 81 33 75 34
REMARK SMILES IDX 77 35 28 36 80 37 74 38 73 39 29 41 61 42 41 43 60 44 42 45
REMARK SMILES IDX 45 46 59 47 78 48 43 49 44 50 58 52 79 53 46 54 30 55 31 56
REMARK SMILES IDX 39 57 32 58 33 59 37 60 40 61 34 62 35 63 38 64 36 65 62 66
REMARK SMILES IDX 63 67 71 68 64 69 65 70 69 71 72 72 66 73 67 74 70 75 68 76
REMARK SMILES IDX 47 77 48 78 56 79 49 80 50 81 54 82 57 83 51 84 52 85 55 86
REMARK SMILES IDX 53 87
REMARK H PARENT 11 7 18 21 77 40 45 51
REMARK Flexibility Score: inf
ROOT
ATOM      1  C   UNL     1      -1.110   3.686  -0.658  1.00  0.00     0.002 C 
ENDROOT
BRANCH   1   2
ATOM      2  C   UNL     1      -1.901   2.781   0.299  1.00  0.00     0.021 C 
BRANCH   2   3
ATOM      3  C   UNL     1      -2.668   1.624  -0.351  1.00  0.00     0.116 C 
BRANCH   3   4
ATOM      4  N   UNL     1      -1.913   0.854  -1.326  1.00  0.00    -0.353 N 
ATOM      5  C   UNL     1      -1.592  -0.471  -1.342  1.00  0.00     0.245 C 
ATOM      6  O   UNL     1      -1.159  -0.984  -2.371  1.00  0.00    -0.270 OA
ATOM      7  H   UNL     1      -1.582   1.371  -2.096  1.00  0.00     0.163 HD
BRANCH   5   8
ATOM      8  C   UNL     1      -1.809  -1.303  -0.142  1.00  0.00     0.088 C 
ATOM      9  C   UNL     1      -1.212  -1.130   1.046  1.00  0.00     0.086 C 
BRANCH   9  10
ATOM     10  N   UNL     1      -0.256  -0.218   1.476  1.00  0.00    -0.380 N 
ATOM     11  C   UNL     1      -0.371   0.349   2.822  1.00  0.00     0.143 C 
BRANCH  10  12
ATOM     12  C   UNL     1       0.691   0.412   0.538  1.00  0.00     0.118 C 
BRANCH  12  13
ATOM     13  C   UNL     1       2.126   0.590   1.041  1.00  0.00     0.002 C 
ATOM     14  C   UNL     1       2.921  -0.701   0.860  1.00  0.00     0.009 C 
ATOM     15  C   UNL     1       2.768   1.723   0.226  1.00  0.00     0.009 C 
ENDBRANCH  12  13
ENDBRANCH  10  12
ENDBRANCH   9  10
ENDBRANCH   5   8
ENDBRANCH   3   4
ENDBRANCH   2   3
ENDBRANCH   1   2
BRANCH   1  16
ATOM     16  C   UNL     1      -1.928   4.814  -1.292  1.00  0.00     0.002 C 
BRANCH  16  17
ATOM     17  C   UNL     1      -2.670   5.712  -0.297  1.00  0.00     0.021 C 
BRANCH  17  18
ATOM     18  C   UNL     1      -1.795   6.276   0.821  1.00  0.00     0.116 C 
BRANCH  18  19
ATOM     19  N   UNL     1      -0.945   7.350   0.335  1.00  0.00    -0.352 N 
ATOM     20  C   UNL     1      -1.064   8.693   0.586  1.00  0.00     0.251 C 
ATOM     21  H   UNL     1      -0.195   7.082  -0.244  1.00  0.00     0.163 HD
ATOM     22  O   UNL     1      -0.477   9.521  -0.110  1.00  0.00    -0.269 OA
BRANCH  20  23
ATOM     23  C   UNL     1      -1.914   9.142   1.705  1.00  0.00     0.039 A 
ATOM     24  C   UNL     1      -2.869  10.136   1.486  1.00  0.00     0.014 A 
ATOM     25  C   UNL     1      -1.763   8.570   2.974  1.00  0.00     0.014 A 
ATOM     26  C   UNL     1      -3.699  10.533   2.536  1.00  0.00     0.010 A 
ATOM     27  C   UNL     1      -2.637   8.918   3.999  1.00  0.00     0.010 A 
ATOM     28  C   UNL     1      -3.603   9.915   3.795  1.00  0.00    -0.014 A 
BRANCH  28  29
ATOM     29  C   UNL     1      -4.498  10.322   4.907  1.00  0.00     0.031 A 
ATOM     30  C   UNL     1      -3.933  10.992   6.129  1.00  0.00     0.074 A 
ATOM     31  C   UNL     1      -5.817  10.062   4.828  1.00  0.00     0.049 A 
ATOM     32  N   UNL     1      -4.555  11.438   7.191  1.00  0.00    -0.248 NA
ATOM     33  C   UNL     1      -2.472  11.159   6.178  1.00  0.00     0.031 C 
ATOM     34  C   UNL     1      -6.474   9.359   3.724  1.00  0.00     0.029 A 
ATOM     35  N   UNL     1      -6.843  10.359   5.690  1.00  0.00    -0.354 N 
ATOM     36  C   UNL     1      -3.565  11.931   8.031  1.00  0.00     0.074 A 
ATOM     37  C   UNL     1      -2.296  11.674   7.386  1.00  0.00     0.031 C 
ATOM     38  C   UNL     1      -7.795   9.308   3.961  1.00  0.00     0.029 A 
ATOM     39  C   UNL     1      -8.075   9.951   5.242  1.00  0.00     0.049 A 
ATOM     40  H   UNL     1      -6.707  10.821   6.549  1.00  0.00     0.167 HD
ATOM     41  C   UNL     1      -3.703  12.566   9.220  1.00  0.00     0.037 A 
ATOM     42  C   UNL     1      -9.293  10.089   5.798  1.00  0.00     0.037 A 
ATOM     43  C   UNL     1      -4.969  12.841   9.847  1.00  0.00     0.049 A 
ATOM     44  C   UNL     1      -9.421  10.818   7.108  1.00  0.00     0.074 A 
ATOM     45  C   UNL     1      -5.221  13.534  11.018  1.00  0.00     0.029 A 
ATOM     46  N   UNL     1      -6.199  12.431   9.353  1.00  0.00    -0.354 N 
ATOM     47  N   UNL     1      -8.484  11.357   7.851  1.00  0.00    -0.248 NA
ATOM     48  C   UNL     1     -10.778  10.971   7.650  1.00  0.00     0.031 C 
ATOM     49  C   UNL     1      -6.600  13.504  11.256  1.00  0.00     0.029 A 
ATOM     50  C   UNL     1      -7.212  12.837  10.207  1.00  0.00     0.049 A 
ATOM     51  H   UNL     1      -6.332  11.925   8.518  1.00  0.00     0.167 HD
ATOM     52  C   UNL     1      -9.138  11.932   8.932  1.00  0.00     0.074 A 
ATOM     53  C   UNL     1     -10.554  11.697   8.735  1.00  0.00     0.031 C 
ATOM     54  C   UNL     1      -8.616  12.592   9.995  1.00  0.00     0.037 A 
BRANCH  41  55
ATOM     55  C   UNL     1      -2.451  13.015   9.918  1.00  0.00     0.064 A 
ATOM     56  C   UNL     1      -1.665  14.065   9.417  1.00  0.00     0.173 A 
ATOM     57  C   UNL     1      -2.052  12.417  11.123  1.00  0.00     0.173 A 
ATOM     58  F   UNL     1      -1.995  14.663   8.262  1.00  0.00    -0.203 F 
ATOM     59  C   UNL     1      -0.513  14.479  10.080  1.00  0.00     0.198 A 
ATOM     60  C   UNL     1      -0.916  12.855  11.800  1.00  0.00     0.198 A 
ATOM     61  F   UNL     1      -2.768  11.412  11.649  1.00  0.00    -0.203 F 
ATOM     62  F   UNL     1       0.247  15.451   9.556  1.00  0.00    -0.200 F 
ATOM     63  C   UNL     1      -0.144  13.880  11.274  1.00  0.00     0.200 A 
ATOM     64  F   UNL     1      -0.568  12.283  12.960  1.00  0.00    -0.200 F 
ATOM     65  F   UNL     1       0.960  14.286  11.916  1.00  0.00    -0.200 F 
ENDBRANCH  41  55
BRANCH  42  66
ATOM     66  C   UNL     1     -10.494   9.559   5.100  1.00  0.00     0.064 A 
ATOM     67  C   UNL     1     -11.451  10.425   4.552  1.00  0.00     0.173 A 
ATOM     68  C   UNL     1     -10.714   8.180   4.972  1.00  0.00     0.173 A 
ATOM     69  F   UNL     1     -11.295  11.753   4.665  1.00  0.00    -0.203 F 
ATOM     70  C   UNL     1     -12.594   9.933   3.925  1.00  0.00     0.198 A 
ATOM     71  C   UNL     1     -11.843   7.689   4.319  1.00  0.00     0.198 A 
ATOM     72  F   UNL     1      -9.826   7.309   5.473  1.00  0.00    -0.203 F 
ATOM     73  F   UNL     1     -13.516  10.783   3.455  1.00  0.00    -0.200 F 
ATOM     74  C   UNL     1     -12.786   8.565   3.805  1.00  0.00     0.200 A 
ATOM     75  F   UNL     1     -12.017   6.366   4.191  1.00  0.00    -0.200 F 
ATOM     76  F   UNL     1     -13.884   8.092   3.199  1.00  0.00    -0.200 F 
ENDBRANCH  42  66
BRANCH  54  77
ATOM     77  C   UNL     1      -9.584  13.125  11.011  1.00  0.00     0.064 A 
ATOM     78  C   UNL     1     -10.296  12.271  11.867  1.00  0.00     0.173 A 
ATOM     79  C   UNL     1      -9.790  14.507  11.142  1.00  0.00     0.173 A 
ATOM     80  F   UNL     1     -10.146  10.941  11.772  1.00  0.00    -0.203 F 
ATOM     81  C   UNL     1     -11.206  12.779  12.790  1.00  0.00     0.198 A 
ATOM     82  C   UNL     1     -10.675  15.013  12.089  1.00  0.00     0.198 A 
ATOM     83  F   UNL     1      -9.127  15.367  10.355  1.00  0.00    -0.203 F 
ATOM     84  F   UNL     1     -11.920  11.942  13.555  1.00  0.00    -0.200 F 
ATOM     85  C   UNL     1     -11.391  14.149  12.904  1.00  0.00     0.200 A 
ATOM     86  F   UNL     1     -10.842  16.337  12.208  1.00  0.00    -0.200 F 
ATOM     87  F   UNL     1     -12.267  14.636  13.793  1.00  0.00    -0.200 F 
ENDBRANCH  54  77
ENDBRANCH  28  29
ENDBRANCH  20  23
ENDBRANCH  18  19
ENDBRANCH  17  18
ENDBRANCH  16  17
ENDBRANCH   1  16
TORSDOF 16
