REMARK SMILES C[C@H](C[NH3+])CS/C=C/C(=O)NCCCCCCNC(=O)c1ccc(-c2c3nc(c(-c4c(F)c(F)c(F)c(F)c4F)c4ccc([nH]4)c(-c4c(F)c(F)c(F)c(F)c4F)c4nc(c(-c5c(F)c(F)c(F)c(F)c5F)c5ccc2[nH]5)C=C4)C=C3)cc1
REMARK SMILES IDX 13 1 12 2 11 3 9 4 10 5 8 7 7 8 6 9 5 10 2 11 1 12 3 13 4 14
REMARK SMILES IDX 14 18 15 19 16 20 17 21 18 22 19 23 20 25 21 26 22 27 83 28
REMARK SMILES IDX 23 29 82 30 24 31 25 32 26 33 76 34 27 35 81 36 75 37 77 38
REMARK SMILES IDX 28 39 80 40 74 41 73 42 29 44 61 45 41 46 60 47 42 48 45 49
REMARK SMILES IDX 59 50 78 51 43 52 44 53 58 55 79 56 46 57 30 58 31 59 39 60
REMARK SMILES IDX 32 61 33 62 37 63 40 64 34 65 35 66 38 67 36 68 62 69 63 70
REMARK SMILES IDX 71 71 64 72 65 73 69 74 72 75 66 76 67 77 70 78 68 79 47 80
REMARK SMILES IDX 48 81 56 82 49 83 50 84 54 85 57 86 51 87 52 88 55 89 53 90
REMARK H PARENT 11 6 4 15 4 16 4 17 18 24 77 43 45 54
REMARK Flexibility Score: inf
ROOT
ATOM      1  C   UNL     1      -2.184   4.639  -2.760  1.00  0.00     0.021 C 
ENDROOT
BRANCH   1   2
ATOM      2  C   UNL     1      -1.103   3.571  -2.871  1.00  0.00     0.116 C 
BRANCH   2   3
ATOM      3  N   UNL     1      -0.199   3.621  -1.740  1.00  0.00    -0.353 N 
ATOM      4  C   UNL     1      -0.212   2.871  -0.607  1.00  0.00     0.244 C 
ATOM      5  O   UNL     1       0.492   3.170   0.352  1.00  0.00    -0.270 OA
ATOM      6  H   UNL     1       0.522   4.289  -1.800  1.00  0.00     0.163 HD
BRANCH   4   7
ATOM      7  C   UNL     1      -1.084   1.683  -0.528  1.00  0.00     0.078 C 
ATOM      8  C   UNL     1      -0.961   0.716  -1.447  1.00  0.00     0.046 C 
BRANCH   8   9
ATOM      9  S   UNL     1      -1.707  -0.829  -1.319  1.00  0.00    -0.133 SA
BRANCH   9  10
ATOM     10  C   UNL     1      -0.953  -1.476   0.213  1.00  0.00     0.083 C 
BRANCH  10  11
ATOM     11  C   UNL     1       0.568  -1.770   0.187  1.00  0.00     0.051 C 
ATOM     12  C   UNL     1       0.890  -2.647   1.406  1.00  0.00     0.014 C 
BRANCH  11  13
ATOM     13  C   UNL     1       1.425  -0.486   0.177  1.00  0.00     0.262 C 
BRANCH  13  14
ATOM     14  N   UNL     1       2.855  -0.704   0.386  1.00  0.00    -0.357 N 
ATOM     15  H   UNL     1       3.006  -1.108   1.310  1.00  0.00     0.344 HD
ATOM     16  H   UNL     1       3.348   0.187   0.320  1.00  0.00     0.344 HD
ATOM     17  H   UNL     1       3.210  -1.342  -0.327  1.00  0.00     0.344 HD
ENDBRANCH  13  14
ENDBRANCH  11  13
ENDBRANCH  10  11
ENDBRANCH   9  10
ENDBRANCH   8   9
ENDBRANCH   4   7
ENDBRANCH   2   3
ENDBRANCH   1   2
BRANCH   1  18
ATOM     18  C   UNL     1      -1.679   6.063  -3.010  1.00  0.00     0.002 C 
BRANCH  18  19
ATOM     19  C   UNL     1      -0.937   6.268  -4.335  1.00  0.00     0.002 C 
BRANCH  19  20
ATOM     20  C   UNL     1      -1.651   5.723  -5.573  1.00  0.00     0.021 C 
BRANCH  20  21
ATOM     21  C   UNL     1      -3.051   6.281  -5.787  1.00  0.00     0.116 C 
BRANCH  21  22
ATOM     22  N   UNL     1      -3.031   7.708  -6.059  1.00  0.00    -0.352 N 
ATOM     23  C   UNL     1      -3.558   8.386  -7.132  1.00  0.00     0.251 C 
ATOM     24  H   UNL     1      -2.578   8.265  -5.385  1.00  0.00     0.163 HD
ATOM     25  O   UNL     1      -3.289   9.562  -7.325  1.00  0.00    -0.269 OA
BRANCH  23  26
ATOM     26  C   UNL     1      -4.448   7.663  -8.064  1.00  0.00     0.039 A 
ATOM     27  C   UNL     1      -4.229   7.772  -9.438  1.00  0.00     0.014 A 
ATOM     28  C   UNL     1      -5.482   6.863  -7.570  1.00  0.00     0.014 A 
ATOM     29  C   UNL     1      -5.015   7.028 -10.322  1.00  0.00     0.010 A 
ATOM     30  C   UNL     1      -6.209   6.065  -8.444  1.00  0.00     0.010 A 
ATOM     31  C   UNL     1      -5.989   6.146  -9.829  1.00  0.00    -0.014 A 
BRANCH  31  32
ATOM     32  C   UNL     1      -6.822   5.313 -10.731  1.00  0.00     0.031 A 
ATOM     33  C   UNL     1      -8.311   5.519 -10.759  1.00  0.00     0.074 A 
ATOM     34  C   UNL     1      -6.259   4.323 -11.448  1.00  0.00     0.049 A 
ATOM     35  N   UNL     1      -9.237   4.809 -11.351  1.00  0.00    -0.248 NA
ATOM     36  C   UNL     1      -8.829   6.661  -9.989  1.00  0.00     0.031 C 
ATOM     37  C   UNL     1      -4.830   4.011 -11.486  1.00  0.00     0.029 A 
ATOM     38  N   UNL     1      -6.827   3.380 -12.269  1.00  0.00    -0.354 N 
ATOM     39  C   UNL     1     -10.443   5.404 -11.007  1.00  0.00     0.074 A 
ATOM     40  C   UNL     1     -10.138   6.497 -10.111  1.00  0.00     0.031 C 
ATOM     41  C   UNL     1      -4.631   2.959 -12.298  1.00  0.00     0.029 A 
ATOM     42  C   UNL     1      -5.921   2.492 -12.797  1.00  0.00     0.049 A 
ATOM     43  H   UNL     1      -7.792   3.344 -12.461  1.00  0.00     0.167 HD
ATOM     44  C   UNL     1     -11.691   5.080 -11.420  1.00  0.00     0.037 A 
ATOM     45  C   UNL     1      -6.115   1.413 -13.579  1.00  0.00     0.037 A 
ATOM     46  C   UNL     1     -11.984   4.003 -12.328  1.00  0.00     0.049 A 
ATOM     47  C   UNL     1      -7.517   1.051 -13.995  1.00  0.00     0.074 A 
ATOM     48  C   UNL     1     -13.209   3.618 -12.843  1.00  0.00     0.029 A 
ATOM     49  N   UNL     1     -11.037   3.137 -12.855  1.00  0.00    -0.354 N 
ATOM     50  N   UNL     1      -8.648   1.647 -13.704  1.00  0.00    -0.248 NA
ATOM     51  C   UNL     1      -7.670  -0.134 -14.852  1.00  0.00     0.031 C 
ATOM     52  C   UNL     1     -13.011   2.486 -13.639  1.00  0.00     0.029 A 
ATOM     53  C   UNL     1     -11.654   2.205 -13.674  1.00  0.00     0.049 A 
ATOM     54  H   UNL     1     -10.070   3.178 -12.675  1.00  0.00     0.167 HD
ATOM     55  C   UNL     1      -9.637   0.941 -14.374  1.00  0.00     0.074 A 
ATOM     56  C   UNL     1      -8.975  -0.130 -15.088  1.00  0.00     0.031 C 
ATOM     57  C   UNL     1     -10.975   1.162 -14.400  1.00  0.00     0.037 A 
BRANCH  44  58
ATOM     58  C   UNL     1     -12.833   5.898 -10.886  1.00  0.00     0.064 A 
ATOM     59  C   UNL     1     -13.006   7.244 -11.242  1.00  0.00     0.173 A 
ATOM     60  C   UNL     1     -13.781   5.322 -10.027  1.00  0.00     0.173 A 
ATOM     61  F   UNL     1     -12.123   7.848 -12.052  1.00  0.00    -0.203 F 
ATOM     62  C   UNL     1     -14.063   7.992 -10.730  1.00  0.00     0.198 A 
ATOM     63  C   UNL     1     -14.857   6.063  -9.545  1.00  0.00     0.198 A 
ATOM     64  F   UNL     1     -13.669   4.037  -9.658  1.00  0.00    -0.203 F 
ATOM     65  F   UNL     1     -14.172   9.292 -11.037  1.00  0.00    -0.200 F 
ATOM     66  C   UNL     1     -14.991   7.399  -9.888  1.00  0.00     0.200 A 
ATOM     67  F   UNL     1     -15.762   5.483  -8.744  1.00  0.00    -0.200 F 
ATOM     68  F   UNL     1     -16.011   8.119  -9.400  1.00  0.00    -0.200 F 
ENDBRANCH  44  58
BRANCH  45  69
ATOM     69  C   UNL     1      -4.954   0.604 -14.034  1.00  0.00     0.064 A 
ATOM     70  C   UNL     1      -4.579   0.584 -15.385  1.00  0.00     0.173 A 
ATOM     71  C   UNL     1      -4.201  -0.171 -13.138  1.00  0.00     0.173 A 
ATOM     72  F   UNL     1      -5.278   1.292 -16.284  1.00  0.00    -0.203 F 
ATOM     73  C   UNL     1      -3.512  -0.197 -15.826  1.00  0.00     0.198 A 
ATOM     74  C   UNL     1      -3.116  -0.927 -13.576  1.00  0.00     0.198 A 
ATOM     75  F   UNL     1      -4.514  -0.183 -11.834  1.00  0.00    -0.203 F 
ATOM     76  F   UNL     1      -3.208  -0.236 -17.131  1.00  0.00    -0.200 F 
ATOM     77  C   UNL     1      -2.778  -0.948 -14.920  1.00  0.00     0.200 A 
ATOM     78  F   UNL     1      -2.399  -1.638 -12.695  1.00  0.00    -0.200 F 
ATOM     79  F   UNL     1      -1.751  -1.696 -15.344  1.00  0.00    -0.200 F 
ENDBRANCH  45  69
BRANCH  57  80
ATOM     80  C   UNL     1     -11.812   0.278 -15.277  1.00  0.00     0.064 A 
ATOM     81  C   UNL     1     -12.072  -1.061 -14.951  1.00  0.00     0.173 A 
ATOM     82  C   UNL     1     -12.422   0.805 -16.427  1.00  0.00     0.173 A 
ATOM     83  F   UNL     1     -11.501  -1.616 -13.872  1.00  0.00    -0.203 F 
ATOM     84  C   UNL     1     -12.900  -1.843 -15.752  1.00  0.00     0.198 A 
ATOM     85  C   UNL     1     -13.275   0.030 -17.206  1.00  0.00     0.198 A 
ATOM     86  F   UNL     1     -12.211   2.082 -16.779  1.00  0.00    -0.203 F 
ATOM     87  F   UNL     1     -13.104  -3.131 -15.444  1.00  0.00    -0.200 F 
ATOM     88  C   UNL     1     -13.509  -1.295 -16.872  1.00  0.00     0.200 A 
ATOM     89  F   UNL     1     -13.876   0.567 -18.277  1.00  0.00    -0.200 F 
ATOM     90  F   UNL     1     -14.321  -2.045 -17.630  1.00  0.00    -0.200 F 
ENDBRANCH  57  80
ENDBRANCH  31  32
ENDBRANCH  23  26
ENDBRANCH  21  22
ENDBRANCH  20  21
ENDBRANCH  19  20
ENDBRANCH  18  19
ENDBRANCH   1  18
TORSDOF 18
