REMARK SMILES C[C@H](CN(C)C(=O)c1ccc(F)c(F)c1F)C(=O)NCCCCCCNC(=O)c1ccc(-c2c3nc(c(-c4c(F)c(F)c(F)c(F)c4F)c4ccc([nH]4)c(-c4c(F)c(F)c(F)c(F)c4F)c4nc(c(-c5c(F)c(F)c(F)c(F)c5F)c5ccc2[nH]5)C=C4)C=C3)cc1
REMARK SMILES IDX 21 1 20 2 19 3 17 4 18 5 2 7 1 8 3 9 4 10 5 11 6 12 7 13
REMARK SMILES IDX 8 14 9 15 15 16 10 17 13 18 16 19 11 20 14 21 12 22 22 23
REMARK SMILES IDX 23 24 24 25 25 26 26 27 27 28 28 30 29 31 30 32 91 33 31 34
REMARK SMILES IDX 90 35 32 36 33 37 34 38 84 39 35 40 89 41 83 42 85 43 36 44
REMARK SMILES IDX 88 45 82 46 81 47 37 49 69 50 49 51 68 52 50 53 53 54 67 55
REMARK SMILES IDX 86 56 51 57 52 58 66 60 87 61 54 62 38 63 39 64 47 65 40 66
REMARK SMILES IDX 41 67 45 68 48 69 42 70 43 71 46 72 44 73 70 74 71 75 79 76
REMARK SMILES IDX 72 77 73 78 77 79 80 80 74 81 75 82 78 83 76 84 55 85 56 86
REMARK SMILES IDX 64 87 57 88 58 89 62 90 65 91 59 92 60 93 63 94 61 95
REMARK H PARENT 19 6 26 29 85 48 53 59
REMARK Flexibility Score: inf
ROOT
ATOM      1  C   UNL     1      -2.526  -0.700   2.030  1.00  0.00     0.021 C 
ENDROOT
BRANCH   1   2
ATOM      2  C   UNL     1      -1.950  -1.729   1.052  1.00  0.00     0.116 C 
BRANCH   2   3
ATOM      3  N   UNL     1      -1.902  -1.206  -0.297  1.00  0.00    -0.356 N 
ATOM      4  C   UNL     1      -0.850  -0.919  -1.107  1.00  0.00     0.224 C 
ATOM      5  O   UNL     1      -1.114  -0.404  -2.199  1.00  0.00    -0.275 OA
ATOM      6  H   UNL     1      -2.784  -1.028  -0.697  1.00  0.00     0.163 HD
BRANCH   4   7
ATOM      7  C   UNL     1       0.611  -1.217  -0.746  1.00  0.00     0.095 C 
ATOM      8  C   UNL     1       0.889  -2.707  -0.550  1.00  0.00     0.020 C 
BRANCH   7   9
ATOM      9  C   UNL     1       1.217  -0.207   0.258  1.00  0.00     0.132 C 
BRANCH   9  10
ATOM     10  N   UNL     1       1.603  -0.735   1.577  1.00  0.00    -0.341 N 
ATOM     11  C   UNL     1       2.991  -1.131   1.773  1.00  0.00     0.147 C 
BRANCH  10  12
ATOM     12  C   UNL     1       0.843  -0.390   2.688  1.00  0.00     0.256 C 
ATOM     13  O   UNL     1       0.111   0.596   2.725  1.00  0.00    -0.269 OA
BRANCH  12  14
ATOM     14  C   UNL     1       0.841  -1.270   3.882  1.00  0.00     0.079 A 
ATOM     15  C   UNL     1       0.814  -0.670   5.149  1.00  0.00     0.020 A 
ATOM     16  C   UNL     1       0.616  -2.646   3.770  1.00  0.00     0.174 A 
ATOM     17  C   UNL     1       0.565  -1.444   6.286  1.00  0.00     0.043 A 
ATOM     18  C   UNL     1       0.347  -3.407   4.901  1.00  0.00     0.195 A 
ATOM     19  F   UNL     1       0.567  -3.249   2.576  1.00  0.00    -0.203 F 
ATOM     20  C   UNL     1       0.315  -2.807   6.151  1.00  0.00     0.161 A 
ATOM     21  F   UNL     1       0.051  -4.709   4.774  1.00  0.00    -0.200 F 
ATOM     22  F   UNL     1      -0.002  -3.526   7.235  1.00  0.00    -0.204 F 
ENDBRANCH  12  14
ENDBRANCH  10  12
ENDBRANCH   9  10
ENDBRANCH   7   9
ENDBRANCH   4   7
ENDBRANCH   2   3
ENDBRANCH   1   2
BRANCH   1  23
ATOM     23  C   UNL     1      -3.997  -0.895   2.413  1.00  0.00     0.002 C 
BRANCH  23  24
ATOM     24  C   UNL     1      -4.305  -2.136   3.264  1.00  0.00     0.002 C 
BRANCH  24  25
ATOM     25  C   UNL     1      -3.419  -2.361   4.496  1.00  0.00     0.021 C 
BRANCH  25  26
ATOM     26  C   UNL     1      -3.398  -1.227   5.521  1.00  0.00     0.116 C 
BRANCH  26  27
ATOM     27  N   UNL     1      -4.659  -1.107   6.230  1.00  0.00    -0.352 N 
ATOM     28  C   UNL     1      -4.990  -1.391   7.532  1.00  0.00     0.251 C 
ATOM     29  H   UNL     1      -5.403  -0.763   5.685  1.00  0.00     0.163 HD
ATOM     30  O   UNL     1      -6.175  -1.431   7.851  1.00  0.00    -0.269 OA
BRANCH  28  31
ATOM     31  C   UNL     1      -3.959  -1.654   8.569  1.00  0.00     0.039 A 
ATOM     32  C   UNL     1      -4.235  -2.621   9.543  1.00  0.00     0.014 A 
ATOM     33  C   UNL     1      -2.787  -0.899   8.667  1.00  0.00     0.014 A 
ATOM     34  C   UNL     1      -3.331  -2.852  10.585  1.00  0.00     0.010 A 
ATOM     35  C   UNL     1      -1.854  -1.173   9.674  1.00  0.00     0.010 A 
ATOM     36  C   UNL     1      -2.120  -2.145  10.652  1.00  0.00    -0.014 A 
BRANCH  36  37
ATOM     37  C   UNL     1      -1.145  -2.406  11.747  1.00  0.00     0.031 A 
ATOM     38  C   UNL     1      -0.832  -1.348  12.770  1.00  0.00     0.074 A 
ATOM     39  C   UNL     1      -0.526  -3.601  11.821  1.00  0.00     0.049 A 
ATOM     40  N   UNL     1       0.006  -1.391  13.777  1.00  0.00    -0.248 NA
ATOM     41  C   UNL     1      -1.541  -0.067  12.636  1.00  0.00     0.031 C 
ATOM     42  C   UNL     1      -0.720  -4.706  10.884  1.00  0.00     0.029 A 
ATOM     43  N   UNL     1       0.386  -4.087  12.727  1.00  0.00    -0.354 N 
ATOM     44  C   UNL     1      -0.075  -0.149  14.393  1.00  0.00     0.074 A 
ATOM     45  C   UNL     1      -0.999   0.647  13.613  1.00  0.00     0.031 C 
ATOM     46  C   UNL     1       0.017  -5.754  11.284  1.00  0.00     0.029 A 
ATOM     47  C   UNL     1       0.770  -5.382  12.480  1.00  0.00     0.049 A 
ATOM     48  H   UNL     1       0.731  -3.557  13.481  1.00  0.00     0.167 HD
ATOM     49  C   UNL     1       0.540   0.281  15.522  1.00  0.00     0.037 A 
ATOM     50  C   UNL     1       1.631  -6.184  13.137  1.00  0.00     0.037 A 
ATOM     51  C   UNL     1       1.449  -0.512  16.309  1.00  0.00     0.049 A 
ATOM     52  C   UNL     1       2.332  -5.675  14.366  1.00  0.00     0.074 A 
ATOM     53  C   UNL     1       2.103  -0.166  17.479  1.00  0.00     0.029 A 
ATOM     54  N   UNL     1       1.831  -1.812  16.009  1.00  0.00    -0.354 N 
ATOM     55  N   UNL     1       2.229  -4.506  14.950  1.00  0.00    -0.248 NA
ATOM     56  C   UNL     1       3.268  -6.595  15.029  1.00  0.00     0.031 C 
ATOM     57  C   UNL     1       2.916  -1.237  17.862  1.00  0.00     0.029 A 
ATOM     58  C   UNL     1       2.728  -2.273  16.961  1.00  0.00     0.049 A 
ATOM     59  H   UNL     1       1.513  -2.330  15.235  1.00  0.00     0.167 HD
ATOM     60  C   UNL     1       3.070  -4.554  16.054  1.00  0.00     0.074 A 
ATOM     61  C   UNL     1       3.666  -5.873  16.068  1.00  0.00     0.031 C 
ATOM     62  C   UNL     1       3.322  -3.587  16.969  1.00  0.00     0.037 A 
BRANCH  49  63
ATOM     63  C   UNL     1       0.243   1.679  15.987  1.00  0.00     0.064 A 
ATOM     64  C   UNL     1       1.236   2.670  15.961  1.00  0.00     0.173 A 
ATOM     65  C   UNL     1      -1.012   2.024  16.512  1.00  0.00     0.173 A 
ATOM     66  F   UNL     1       2.457   2.393  15.479  1.00  0.00    -0.203 F 
ATOM     67  C   UNL     1       0.985   3.950  16.449  1.00  0.00     0.198 A 
ATOM     68  C   UNL     1      -1.270   3.314  16.969  1.00  0.00     0.198 A 
ATOM     69  F   UNL     1      -2.000   1.116  16.552  1.00  0.00    -0.203 F 
ATOM     70  F   UNL     1       1.958   4.872  16.440  1.00  0.00    -0.200 F 
ATOM     71  C   UNL     1      -0.269   4.273  16.945  1.00  0.00     0.200 A 
ATOM     72  F   UNL     1      -2.490   3.631  17.423  1.00  0.00    -0.200 F 
ATOM     73  F   UNL     1      -0.515   5.511  17.396  1.00  0.00    -0.200 F 
ENDBRANCH  49  63
BRANCH  50  74
ATOM     74  C   UNL     1       1.838  -7.572  12.652  1.00  0.00     0.064 A 
ATOM     75  C   UNL     1       2.508  -7.833  11.448  1.00  0.00     0.173 A 
ATOM     76  C   UNL     1       1.313  -8.663  13.358  1.00  0.00     0.173 A 
ATOM     77  F   UNL     1       3.028  -6.822  10.736  1.00  0.00    -0.203 F 
ATOM     78  C   UNL     1       2.615  -9.130  10.951  1.00  0.00     0.198 A 
ATOM     79  C   UNL     1       1.442  -9.963  12.873  1.00  0.00     0.198 A 
ATOM     80  F   UNL     1       0.685  -8.465  14.526  1.00  0.00    -0.203 F 
ATOM     81  F   UNL     1       3.220  -9.348   9.776  1.00  0.00    -0.200 F 
ATOM     82  C   UNL     1       2.082 -10.194  11.664  1.00  0.00     0.200 A 
ATOM     83  F   UNL     1       0.946 -10.990  13.575  1.00  0.00    -0.200 F 
ATOM     84  F   UNL     1       2.184 -11.442  11.186  1.00  0.00    -0.200 F 
ENDBRANCH  50  74
BRANCH  62  85
ATOM     85  C   UNL     1       4.279  -3.907  18.081  1.00  0.00     0.064 A 
ATOM     86  C   UNL     1       3.820  -4.034  19.402  1.00  0.00     0.173 A 
ATOM     87  C   UNL     1       5.660  -4.002  17.855  1.00  0.00     0.173 A 
ATOM     88  F   UNL     1       2.510  -3.943  19.674  1.00  0.00    -0.203 F 
ATOM     89  C   UNL     1       4.710  -4.226  20.456  1.00  0.00     0.198 A 
ATOM     90  C   UNL     1       6.545  -4.221  18.908  1.00  0.00     0.198 A 
ATOM     91  F   UNL     1       6.149  -3.898  16.610  1.00  0.00    -0.203 F 
ATOM     92  F   UNL     1       4.251  -4.307  21.712  1.00  0.00    -0.200 F 
ATOM     93  C   UNL     1       6.071  -4.322  20.208  1.00  0.00     0.200 A 
ATOM     94  F   UNL     1       7.858  -4.337  18.664  1.00  0.00    -0.200 F 
ATOM     95  F   UNL     1       6.926  -4.513  21.222  1.00  0.00    -0.200 F 
ENDBRANCH  62  85
ENDBRANCH  36  37
ENDBRANCH  28  31
ENDBRANCH  26  27
ENDBRANCH  25  26
ENDBRANCH  24  25
ENDBRANCH  23  24
ENDBRANCH   1  23
TORSDOF 17
