REMARK SMILES C[C@@H](CC(=O)NCCCCCCNC(=O)c1ccc(-c2c3nc(c(-c4c(F)c(F)c(F)c(F)c4F)c4ccc([nH]4)c(-c4c(F)c(F)c(F)c(F)c4F)c4nc(c(-c5c(F)c(F)c(F)c(F)c5F)c5ccc2[nH]5)C=C4)C=C3)cc1)NC(=O)[C@@H]1CCCN(C(N)=O)C1
REMARK SMILES IDX 8 1 7 2 6 3 4 4 5 5 3 7 2 8 1 9 79 10 80 11 81 13 82 14
REMARK SMILES IDX 83 15 90 16 84 17 86 18 85 19 87 20 88 21 89 22 9 25 10 26
REMARK SMILES IDX 11 27 12 28 13 29 14 30 15 32 16 33 17 34 78 35 18 36 77 37
REMARK SMILES IDX 19 38 20 39 21 40 71 41 22 42 76 43 70 44 72 45 23 46 75 47
REMARK SMILES IDX 69 48 68 49 24 51 56 52 36 53 55 54 37 55 40 56 54 57 73 58
REMARK SMILES IDX 38 59 39 60 53 62 74 63 41 64 25 65 26 66 34 67 27 68 28 69
REMARK SMILES IDX 32 70 35 71 29 72 30 73 33 74 31 75 57 76 58 77 66 78 59 79
REMARK SMILES IDX 60 80 64 81 67 82 61 83 62 84 65 85 63 86 42 87 43 88 51 89
REMARK SMILES IDX 44 90 45 91 49 92 52 93 46 94 47 95 50 96 48 97
REMARK H PARENT 6 6 79 12 88 23 88 24 13 31 72 50 40 61
REMARK Flexibility Score: inf
ROOT
ATOM      1  C   UNL     1       1.032   2.424   1.475  1.00  0.00     0.021 C 
ENDROOT
BRANCH   1   2
ATOM      2  C   UNL     1       1.577   1.233   2.271  1.00  0.00     0.116 C 
BRANCH   2   3
ATOM      3  N   UNL     1       0.581   0.751   3.214  1.00  0.00    -0.356 N 
ATOM      4  C   UNL     1      -0.164  -0.391   3.208  1.00  0.00     0.222 C 
ATOM      5  O   UNL     1      -1.085  -0.499   4.017  1.00  0.00    -0.275 OA
ATOM      6  H   UNL     1       0.417   1.346   3.981  1.00  0.00     0.163 HD
BRANCH   4   7
ATOM      7  C   UNL     1       0.176  -1.514   2.260  1.00  0.00     0.124 C 
BRANCH   7   8
ATOM      8  C   UNL     1      -0.453  -1.477   0.867  1.00  0.00     0.088 C 
ATOM      9  C   UNL     1      -0.739  -0.122   0.246  1.00  0.00     0.031 C 
BRANCH   8  10
ATOM     10  N   UNL     1      -1.636  -2.303   0.701  1.00  0.00    -0.353 N 
ATOM     11  C   UNL     1      -2.021  -2.955  -0.434  1.00  0.00     0.225 C 
ATOM     12  H   UNL     1      -2.219  -2.402   1.488  1.00  0.00     0.163 HD
ATOM     13  O   UNL     1      -3.235  -3.119  -0.597  1.00  0.00    -0.275 OA
BRANCH  11  14
ATOM     14  C   UNL     1      -1.034  -3.588  -1.437  1.00  0.00     0.098 C 
ATOM     15  C   UNL     1      -0.448  -4.884  -0.876  1.00  0.00     0.017 C 
ATOM     16  C   UNL     1       0.006  -2.709  -2.147  1.00  0.00     0.134 C 
ATOM     17  C   UNL     1       0.845  -4.656  -0.112  1.00  0.00     0.022 C 
ATOM     18  N   UNL     1       1.343  -2.659  -1.530  1.00  0.00    -0.324 N 
ATOM     19  C   UNL     1       1.866  -3.902  -0.957  1.00  0.00     0.121 C 
BRANCH  18  20
ATOM     20  C   UNL     1       2.172  -1.556  -1.523  1.00  0.00     0.314 C 
ATOM     21  N   UNL     1       1.774  -0.483  -2.242  1.00  0.00    -0.351 N 
ATOM     22  O   UNL     1       3.215  -1.473  -0.881  1.00  0.00    -0.249 OA
ATOM     23  H   UNL     1       0.941  -0.523  -2.765  1.00  0.00     0.161 HD
ATOM     24  H   UNL     1       2.317   0.338  -2.242  1.00  0.00     0.161 HD
ENDBRANCH  18  20
ENDBRANCH  11  14
ENDBRANCH   8  10
ENDBRANCH   7   8
ENDBRANCH   4   7
ENDBRANCH   2   3
ENDBRANCH   1   2
BRANCH   1  25
ATOM     25  C   UNL     1       0.797   3.687   2.301  1.00  0.00     0.002 C 
BRANCH  25  26
ATOM     26  C   UNL     1       2.072   4.421   2.704  1.00  0.00     0.002 C 
BRANCH  26  27
ATOM     27  C   UNL     1       2.974   4.830   1.537  1.00  0.00     0.021 C 
BRANCH  27  28
ATOM     28  C   UNL     1       2.262   5.559   0.400  1.00  0.00     0.116 C 
BRANCH  28  29
ATOM     29  N   UNL     1       1.634   6.791   0.851  1.00  0.00    -0.352 N 
ATOM     30  C   UNL     1       1.883   8.077   0.456  1.00  0.00     0.251 C 
ATOM     31  H   UNL     1       0.933   6.685   1.535  1.00  0.00     0.163 HD
ATOM     32  O   UNL     1       1.425   9.029   1.088  1.00  0.00    -0.269 OA
BRANCH  30  33
ATOM     33  C   UNL     1       2.718   8.319  -0.734  1.00  0.00     0.039 A 
ATOM     34  C   UNL     1       3.769   9.234  -0.653  1.00  0.00     0.014 A 
ATOM     35  C   UNL     1       2.462   7.633  -1.925  1.00  0.00     0.014 A 
ATOM     36  C   UNL     1       4.599   9.426  -1.758  1.00  0.00     0.010 A 
ATOM     37  C   UNL     1       3.330   7.775  -3.002  1.00  0.00     0.010 A 
ATOM     38  C   UNL     1       4.403   8.678  -2.931  1.00  0.00    -0.014 A 
BRANCH  38  39
ATOM     39  C   UNL     1       5.301   8.835  -4.101  1.00  0.00     0.031 A 
ATOM     40  C   UNL     1       4.763   9.389  -5.390  1.00  0.00     0.074 A 
ATOM     41  C   UNL     1       6.581   8.425  -4.019  1.00  0.00     0.049 A 
ATOM     42  N   UNL     1       5.364   9.536  -6.543  1.00  0.00    -0.248 NA
ATOM     43  C   UNL     1       3.353   9.811  -5.390  1.00  0.00     0.031 C 
ATOM     44  C   UNL     1       7.206   7.834  -2.834  1.00  0.00     0.029 A 
ATOM     45  N   UNL     1       7.585   8.433  -4.954  1.00  0.00    -0.354 N 
ATOM     46  C   UNL     1       4.407  10.055  -7.404  1.00  0.00     0.074 A 
ATOM     47  C   UNL     1       3.170  10.145  -6.659  1.00  0.00     0.031 C 
ATOM     48  C   UNL     1       8.491   7.556  -3.107  1.00  0.00     0.029 A 
ATOM     49  C   UNL     1       8.770   7.912  -4.495  1.00  0.00     0.049 A 
ATOM     50  H   UNL     1       7.467   8.778  -5.869  1.00  0.00     0.167 HD
ATOM     51  C   UNL     1       4.553  10.445  -8.693  1.00  0.00     0.037 A 
ATOM     52  C   UNL     1       9.946   7.737  -5.127  1.00  0.00     0.037 A 
ATOM     53  C   UNL     1       5.791  10.374  -9.423  1.00  0.00     0.049 A 
ATOM     54  C   UNL     1      10.076   8.165  -6.564  1.00  0.00     0.074 A 
ATOM     55  C   UNL     1       6.055  10.788 -10.717  1.00  0.00     0.029 A 
ATOM     56  N   UNL     1       6.975   9.856  -8.919  1.00  0.00    -0.354 N 
ATOM     57  N   UNL     1       9.180   8.711  -7.350  1.00  0.00    -0.248 NA
ATOM     58  C   UNL     1      11.384   7.958  -7.200  1.00  0.00     0.031 C 
ATOM     59  C   UNL     1       7.387  10.480 -11.011  1.00  0.00     0.029 A 
ATOM     60  C   UNL     1       7.967   9.921  -9.883  1.00  0.00     0.049 A 
ATOM     61  H   UNL     1       7.092   9.495  -8.011  1.00  0.00     0.167 HD
ATOM     62  C   UNL     1       9.822   8.941  -8.559  1.00  0.00     0.074 A 
ATOM     63  C   UNL     1      11.188   8.489  -8.399  1.00  0.00     0.031 C 
ATOM     64  C   UNL     1       9.326   9.479  -9.700  1.00  0.00     0.037 A 
BRANCH  51  65
ATOM     65  C   UNL     1       3.344  10.991  -9.395  1.00  0.00     0.064 A 
ATOM     66  C   UNL     1       2.799  12.239  -9.056  1.00  0.00     0.173 A 
ATOM     67  C   UNL     1       2.746  10.279 -10.446  1.00  0.00     0.173 A 
ATOM     68  F   UNL     1       3.326  12.954  -8.050  1.00  0.00    -0.203 F 
ATOM     69  C   UNL     1       1.687  12.742  -9.725  1.00  0.00     0.198 A 
ATOM     70  C   UNL     1       1.652  10.799 -11.133  1.00  0.00     0.198 A 
ATOM     71  F   UNL     1       3.229   9.083 -10.814  1.00  0.00    -0.203 F 
ATOM     72  F   UNL     1       1.156  13.915  -9.351  1.00  0.00    -0.200 F 
ATOM     73  C   UNL     1       1.119  12.026 -10.768  1.00  0.00     0.200 A 
ATOM     74  F   UNL     1       1.112  10.111 -12.149  1.00  0.00    -0.200 F 
ATOM     75  F   UNL     1       0.053  12.515 -11.417  1.00  0.00    -0.200 F 
ENDBRANCH  51  65
BRANCH  52  76
ATOM     76  C   UNL     1      11.103   7.149  -4.401  1.00  0.00     0.064 A 
ATOM     77  C   UNL     1      12.229   7.926  -4.095  1.00  0.00     0.173 A 
ATOM     78  C   UNL     1      11.116   5.801  -4.015  1.00  0.00     0.173 A 
ATOM     79  F   UNL     1      12.272   9.215  -4.462  1.00  0.00    -0.203 F 
ATOM     80  C   UNL     1      13.334   7.371  -3.452  1.00  0.00     0.198 A 
ATOM     81  C   UNL     1      12.209   5.255  -3.346  1.00  0.00     0.198 A 
ATOM     82  F   UNL     1      10.061   5.016  -4.279  1.00  0.00    -0.203 F 
ATOM     83  F   UNL     1      14.417   8.124  -3.218  1.00  0.00    -0.200 F 
ATOM     84  C   UNL     1      13.321   6.037  -3.074  1.00  0.00     0.200 A 
ATOM     85  F   UNL     1      12.187   3.969  -2.969  1.00  0.00    -0.200 F 
ATOM     86  F   UNL     1      14.384   5.504  -2.456  1.00  0.00    -0.200 F 
ENDBRANCH  52  76
BRANCH  64  87
ATOM     87  C   UNL     1      10.274   9.646 -10.851  1.00  0.00     0.064 A 
ATOM     88  C   UNL     1      10.739   8.548 -11.589  1.00  0.00     0.173 A 
ATOM     89  C   UNL     1      10.688  10.928 -11.246  1.00  0.00     0.173 A 
ATOM     90  F   UNL     1      10.384   7.302 -11.241  1.00  0.00    -0.203 F 
ATOM     91  C   UNL     1      11.605   8.725 -12.665  1.00  0.00     0.198 A 
ATOM     92  C   UNL     1      11.529  11.103 -12.341  1.00  0.00     0.198 A 
ATOM     93  F   UNL     1      10.266  12.011 -10.578  1.00  0.00    -0.203 F 
ATOM     94  F   UNL     1      12.075   7.658 -13.326  1.00  0.00    -0.200 F 
ATOM     95  C   UNL     1      11.992  10.002 -13.045  1.00  0.00     0.200 A 
ATOM     96  F   UNL     1      11.891  12.338 -12.716  1.00  0.00    -0.200 F 
ATOM     97  F   UNL     1      12.819  10.170 -14.087  1.00  0.00    -0.200 F 
ENDBRANCH  64  87
ENDBRANCH  38  39
ENDBRANCH  30  33
ENDBRANCH  28  29
ENDBRANCH  27  28
ENDBRANCH  26  27
ENDBRANCH  25  26
ENDBRANCH   1  25
TORSDOF 17
