REMARK SMILES O=C(NCCCCCCNC(=O)[C@H]1CS[C@@H](c2cccc(OCc3ccc(Cl)cc3Cl)c2)[NH2+]1)c1ccc(-c2c3nc(c(-c4c(F)c(F)c(F)c(F)c4F)c4ccc([nH]4)c(-c4c(F)c(F)c(F)c(F)c4F)c4nc(c(-c5c(F)c(F)c(F)c(F)c5F)c5ccc2[nH]5)C=C4)C=C3)cc1
REMARK SMILES IDX 7 1 6 2 5 3 4 4 3 5 1 6 2 7 34 9 35 10 96 11 36 12 95 13
REMARK SMILES IDX 37 14 38 15 39 16 89 17 40 18 94 19 88 20 90 21 41 22 93 23
REMARK SMILES IDX 87 24 86 25 42 27 74 28 54 29 73 30 55 31 58 32 72 33 91 34
REMARK SMILES IDX 56 35 57 36 71 38 92 39 59 40 43 41 44 42 52 43 45 44 46 45
REMARK SMILES IDX 50 46 53 47 47 48 48 49 51 50 49 51 75 52 76 53 84 54 77 55
REMARK SMILES IDX 78 56 82 57 85 58 79 59 80 60 83 61 81 62 60 63 61 64 69 65
REMARK SMILES IDX 62 66 63 67 67 68 70 69 64 70 65 71 68 72 66 73 8 74 9 75
REMARK SMILES IDX 10 76 11 77 12 79 13 80 14 81 33 82 15 83 16 84 17 87 18 88
REMARK SMILES IDX 32 89 19 90 21 91 20 92 22 93 23 94 24 95 25 96 30 97 26 98
REMARK SMILES IDX 29 99 31 100 27 101 28 102
REMARK H PARENT 3 8 90 26 58 37 10 78 33 85 33 86
REMARK Flexibility Score: inf
ROOT
ATOM      1  C   UNL     1       4.801  -4.297  -0.335  1.00  0.00     0.002 C 
ENDROOT
BRANCH   1   2
ATOM      2  C   UNL     1       4.049  -3.699   0.861  1.00  0.00     0.002 C 
BRANCH   2   3
ATOM      3  C   UNL     1       4.502  -2.295   1.261  1.00  0.00     0.021 C 
BRANCH   3   4
ATOM      4  C   UNL     1       4.343  -1.258   0.158  1.00  0.00     0.116 C 
BRANCH   4   5
ATOM      5  N   UNL     1       2.943  -1.008  -0.148  1.00  0.00    -0.352 N 
ATOM      6  O   UNL     1       1.013   0.164  -0.126  1.00  0.00    -0.269 OA
ATOM      7  C   UNL     1       2.233   0.164  -0.051  1.00  0.00     0.251 C 
ATOM      8  H   UNL     1       2.433  -1.787  -0.470  1.00  0.00     0.163 HD
BRANCH   7   9
ATOM      9  C   UNL     1       2.964   1.431   0.156  1.00  0.00     0.039 A 
ATOM     10  C   UNL     1       4.116   1.707  -0.586  1.00  0.00     0.014 A 
ATOM     11  C   UNL     1       2.489   2.353   1.092  1.00  0.00     0.014 A 
ATOM     12  C   UNL     1       4.867   2.836  -0.296  1.00  0.00     0.010 A 
ATOM     13  C   UNL     1       3.196   3.537   1.313  1.00  0.00     0.010 A 
ATOM     14  C   UNL     1       4.402   3.777   0.637  1.00  0.00    -0.014 A 
BRANCH  14  15
ATOM     15  C   UNL     1       5.155   5.041   0.823  1.00  0.00     0.031 A 
ATOM     16  C   UNL     1       5.796   5.384   2.135  1.00  0.00     0.074 A 
ATOM     17  C   UNL     1       5.267   5.877  -0.228  1.00  0.00     0.049 A 
ATOM     18  N   UNL     1       6.495   6.443   2.460  1.00  0.00    -0.248 NA
ATOM     19  C   UNL     1       5.625   4.419   3.231  1.00  0.00     0.031 C 
ATOM     20  C   UNL     1       4.675   5.648  -1.548  1.00  0.00     0.029 A 
ATOM     21  N   UNL     1       5.923   7.072  -0.361  1.00  0.00    -0.354 N 
ATOM     22  C   UNL     1       6.832   6.282   3.797  1.00  0.00     0.074 A 
ATOM     23  C   UNL     1       6.234   5.037   4.233  1.00  0.00     0.031 C 
ATOM     24  C   UNL     1       5.034   6.643  -2.370  1.00  0.00     0.029 A 
ATOM     25  C   UNL     1       5.819   7.614  -1.618  1.00  0.00     0.049 A 
ATOM     26  H   UNL     1       6.421   7.500   0.372  1.00  0.00     0.167 HD
ATOM     27  C   UNL     1       7.578   7.098   4.582  1.00  0.00     0.037 A 
ATOM     28  C   UNL     1       6.283   8.778  -2.107  1.00  0.00     0.037 A 
ATOM     29  C   UNL     1       8.168   8.334   4.132  1.00  0.00     0.049 A 
ATOM     30  C   UNL     1       7.068   9.682  -1.203  1.00  0.00     0.074 A 
ATOM     31  C   UNL     1       8.971   9.214   4.836  1.00  0.00     0.029 A 
ATOM     32  N   UNL     1       8.006   8.874   2.862  1.00  0.00    -0.354 N 
ATOM     33  N   UNL     1       7.417   9.501   0.048  1.00  0.00    -0.248 NA
ATOM     34  C   UNL     1       7.520  10.955  -1.777  1.00  0.00     0.031 C 
ATOM     35  C   UNL     1       9.243  10.314   4.015  1.00  0.00     0.029 A 
ATOM     36  C   UNL     1       8.667  10.090   2.775  1.00  0.00     0.049 A 
ATOM     37  H   UNL     1       7.497   8.454   2.131  1.00  0.00     0.167 HD
ATOM     38  C   UNL     1       8.147  10.624   0.406  1.00  0.00     0.074 A 
ATOM     39  C   UNL     1       8.207  11.472  -0.768  1.00  0.00     0.031 C 
ATOM     40  C   UNL     1       8.715  10.925   1.599  1.00  0.00     0.037 A 
BRANCH  27  41
ATOM     41  C   UNL     1       7.772   6.695   6.017  1.00  0.00     0.064 A 
ATOM     42  C   UNL     1       8.546   5.581   6.378  1.00  0.00     0.173 A 
ATOM     43  C   UNL     1       7.197   7.451   7.051  1.00  0.00     0.173 A 
ATOM     44  F   UNL     1       9.112   4.816   5.432  1.00  0.00    -0.203 F 
ATOM     45  C   UNL     1       8.705   5.218   7.714  1.00  0.00     0.198 A 
ATOM     46  C   UNL     1       7.386   7.106   8.387  1.00  0.00     0.198 A 
ATOM     47  F   UNL     1       6.455   8.532   6.766  1.00  0.00    -0.203 F 
ATOM     48  F   UNL     1       9.400   4.117   8.030  1.00  0.00    -0.200 F 
ATOM     49  C   UNL     1       8.130   5.984   8.717  1.00  0.00     0.200 A 
ATOM     50  F   UNL     1       6.842   7.856   9.355  1.00  0.00    -0.200 F 
ATOM     51  F   UNL     1       8.286   5.635  10.002  1.00  0.00    -0.200 F 
ENDBRANCH  27  41
BRANCH  28  52
ATOM     52  C   UNL     1       6.013   9.139  -3.522  1.00  0.00     0.064 A 
ATOM     53  C   UNL     1       7.048   9.183  -4.465  1.00  0.00     0.173 A 
ATOM     54  C   UNL     1       4.711   9.418  -3.967  1.00  0.00     0.173 A 
ATOM     55  F   UNL     1       8.310   8.939  -4.085  1.00  0.00    -0.203 F 
ATOM     56  C   UNL     1       6.793   9.505  -5.797  1.00  0.00     0.198 A 
ATOM     57  C   UNL     1       4.453   9.706  -5.304  1.00  0.00     0.198 A 
ATOM     58  F   UNL     1       3.684   9.379  -3.105  1.00  0.00    -0.203 F 
ATOM     59  F   UNL     1       7.806   9.576  -6.671  1.00  0.00    -0.200 F 
ATOM     60  C   UNL     1       5.496   9.757  -6.217  1.00  0.00     0.200 A 
ATOM     61  F   UNL     1       3.196   9.928  -5.709  1.00  0.00    -0.200 F 
ATOM     62  F   UNL     1       5.250  10.052  -7.500  1.00  0.00    -0.200 F 
ENDBRANCH  28  52
BRANCH  40  63
ATOM     63  C   UNL     1       9.482  12.214   1.683  1.00  0.00     0.064 A 
ATOM     64  C   UNL     1       8.838  13.460   1.655  1.00  0.00     0.173 A 
ATOM     65  C   UNL     1      10.879  12.200   1.818  1.00  0.00     0.173 A 
ATOM     66  F   UNL     1       7.506  13.530   1.509  1.00  0.00    -0.203 F 
ATOM     67  C   UNL     1       9.567  14.645   1.728  1.00  0.00     0.198 A 
ATOM     68  C   UNL     1      11.601  13.385   1.926  1.00  0.00     0.198 A 
ATOM     69  F   UNL     1      11.543  11.036   1.855  1.00  0.00    -0.203 F 
ATOM     70  F   UNL     1       8.936  15.824   1.641  1.00  0.00    -0.200 F 
ATOM     71  C   UNL     1      10.946  14.606   1.871  1.00  0.00     0.200 A 
ATOM     72  F   UNL     1      12.931  13.345   2.079  1.00  0.00    -0.200 F 
ATOM     73  F   UNL     1      11.645  15.746   1.948  1.00  0.00    -0.200 F 
ENDBRANCH  40  63
ENDBRANCH  14  15
ENDBRANCH   7   9
ENDBRANCH   4   5
ENDBRANCH   3   4
ENDBRANCH   2   3
ENDBRANCH   1   2
BRANCH   1  74
ATOM     74  C   UNL     1       6.332  -4.279  -0.209  1.00  0.00     0.021 C 
BRANCH  74  75
ATOM     75  C   UNL     1       6.853  -5.070   0.995  1.00  0.00     0.116 C 
BRANCH  75  76
ATOM     76  N   UNL     1       6.782  -6.489   0.720  1.00  0.00    -0.351 N 
ATOM     77  C   UNL     1       7.715  -7.376   0.283  1.00  0.00     0.279 C 
ATOM     78  H   UNL     1       5.894  -6.885   0.879  1.00  0.00     0.163 HD
ATOM     79  O   UNL     1       7.287  -8.472  -0.097  1.00  0.00    -0.268 OA
BRANCH  77  80
ATOM     80  C   UNL     1       9.236  -7.130   0.387  1.00  0.00     0.283 C 
ATOM     81  C   UNL     1       9.802  -5.793  -0.099  1.00  0.00     0.151 C 
ATOM     82  N   UNL     1       9.652  -7.422   1.782  1.00  0.00    -0.321 N 
ATOM     83  S   UNL     1      10.697  -5.101   1.328  1.00  0.00    -0.088 SA
ATOM     84  C   UNL     1      10.917  -6.734   2.033  1.00  0.00     0.274 C 
ATOM     85  H   UNL     1       9.777  -8.427   1.902  1.00  0.00     0.348 HD
ATOM     86  H   UNL     1       8.940  -7.101   2.438  1.00  0.00     0.348 HD
BRANCH  84  87
ATOM     87  C   UNL     1      11.278  -6.877   3.494  1.00  0.00     0.024 A 
ATOM     88  C   UNL     1      11.016  -5.926   4.489  1.00  0.00     0.011 A 
ATOM     89  C   UNL     1      11.753  -8.146   3.890  1.00  0.00     0.057 A 
ATOM     90  C   UNL     1      11.231  -6.237   5.835  1.00  0.00     0.004 A 
ATOM     91  C   UNL     1      11.864  -8.492   5.234  1.00  0.00     0.120 A 
ATOM     92  C   UNL     1      11.647  -7.517   6.204  1.00  0.00     0.046 A 
BRANCH  91  93
ATOM     93  O   UNL     1      12.037  -9.760   5.713  1.00  0.00    -0.489 OA
BRANCH  93  94
ATOM     94  C   UNL     1      11.939 -10.876   4.813  1.00  0.00     0.267 C 
BRANCH  94  95
ATOM     95  C   UNL     1      10.532 -11.333   4.431  1.00  0.00     0.008 A 
ATOM     96  C   UNL     1       9.450 -10.436   4.360  1.00  0.00     0.010 A 
ATOM     97  C   UNL     1      10.286 -12.663   4.035  1.00  0.00     0.049 A 
ATOM     98  C   UNL     1       8.192 -10.832   3.896  1.00  0.00     0.021 A 
ATOM     99  C   UNL     1       9.018 -13.072   3.602  1.00  0.00     0.041 A 
ATOM    100  Cl  UNL     1      11.530 -13.867   4.042  1.00  0.00    -0.084 Cl
ATOM    101  C   UNL     1       7.980 -12.151   3.524  1.00  0.00     0.042 A 
ATOM    102  Cl  UNL     1       6.430 -12.642   2.965  1.00  0.00    -0.084 Cl
ENDBRANCH  94  95
ENDBRANCH  93  94
ENDBRANCH  91  93
ENDBRANCH  84  87
ENDBRANCH  77  80
ENDBRANCH  75  76
ENDBRANCH  74  75
ENDBRANCH   1  74
TORSDOF 17
