REMARK SMILES CCCCCCNC(=O)Oc1cccc(-c2ccc([C@@H](C)C(=O)NCCCCCCNC(=O)c3ccc(-c4c5nc(c(-c6c(F)c(F)c(F)c(F)c6F)c6ccc([nH]6)c(-c6c(F)c(F)c(F)c(F)c6F)c6nc(c(-c7c(F)c(F)c(F)c(F)c7F)c7ccc4[nH]7)C=C6)C=C5)cc3)cc2)c1
REMARK SMILES IDX 22 1 23 2 24 3 20 5 21 6 19 7 16 8 17 9 98 10 18 11 97 12
REMARK SMILES IDX 15 13 11 14 12 15 99 16 13 17 14 18 10 19 8 20 7 21 9 23
REMARK SMILES IDX 6 24 5 25 4 26 3 27 2 28 1 29 25 30 26 31 27 32 28 33 29 34
REMARK SMILES IDX 30 35 31 36 32 37 33 39 34 40 35 41 96 42 36 43 95 44 37 45
REMARK SMILES IDX 38 46 39 47 89 48 40 49 94 50 88 51 90 52 41 53 93 54 87 55
REMARK SMILES IDX 86 56 42 58 74 59 54 60 73 61 55 62 58 63 72 64 91 65 56 66
REMARK SMILES IDX 57 67 71 69 92 70 59 71 43 72 44 73 52 74 45 75 46 76 50 77
REMARK SMILES IDX 53 78 47 79 48 80 51 81 49 82 75 83 76 84 84 85 77 86 78 87
REMARK SMILES IDX 82 88 85 89 79 90 80 91 83 92 81 93 60 94 61 95 69 96 62 97
REMARK SMILES IDX 63 98 67 99 70 100 64 101 65 102 68 103 66 104
REMARK H PARENT 24 4 7 22 31 38 90 57 58 68
REMARK Flexibility Score: inf
ROOT
ATOM      1  C   UNL     1      -3.888  10.270   9.899  1.00  0.00     0.227 C 
ATOM      2  O   UNL     1      -2.916  10.877   9.434  1.00  0.00    -0.274 OA
ATOM      3  N   UNL     1      -3.800   9.900  11.206  1.00  0.00    -0.356 N 
ATOM      4  H   UNL     1      -2.991  10.224  11.664  1.00  0.00     0.163 HD
ENDROOT
BRANCH   1   5
ATOM      5  C   UNL     1      -5.113   9.995   9.015  1.00  0.00     0.105 C 
ATOM      6  C   UNL     1      -6.400  10.651   9.517  1.00  0.00     0.023 C 
BRANCH   5   7
ATOM      7  C   UNL     1      -5.237   8.546   8.570  1.00  0.00    -0.036 A 
ATOM      8  C   UNL     1      -5.326   5.813   7.721  1.00  0.00    -0.018 A 
ATOM      9  C   UNL     1      -5.976   6.248   8.887  1.00  0.00     0.009 A 
ATOM     10  C   UNL     1      -4.646   6.790   6.977  1.00  0.00     0.009 A 
ATOM     11  C   UNL     1      -5.962   7.590   9.283  1.00  0.00     0.005 A 
ATOM     12  C   UNL     1      -4.584   8.125   7.403  1.00  0.00     0.005 A 
BRANCH   8  13
ATOM     13  C   UNL     1      -5.367   4.390   7.310  1.00  0.00    -0.015 A 
ATOM     14  C   UNL     1      -4.362   2.439   6.260  1.00  0.00     0.133 A 
ATOM     15  C   UNL     1      -5.477   1.659   6.550  1.00  0.00     0.047 A 
ATOM     16  C   UNL     1      -4.297   3.785   6.629  1.00  0.00     0.056 A 
ATOM     17  C   UNL     1      -6.544   2.234   7.226  1.00  0.00     0.004 A 
ATOM     18  C   UNL     1      -6.492   3.584   7.588  1.00  0.00     0.009 A 
BRANCH  14  19
ATOM     19  O   UNL     1      -3.378   1.844   5.453  1.00  0.00    -0.410 OA
BRANCH  19  20
ATOM     20  C   UNL     1      -2.046   1.924   5.826  1.00  0.00     0.412 C 
ATOM     21  N   UNL     1      -1.206   1.374   4.897  1.00  0.00    -0.321 N 
ATOM     22  H   UNL     1      -0.245   1.379   5.109  1.00  0.00     0.167 HD
ATOM     23  O   UNL     1      -1.615   2.410   6.864  1.00  0.00    -0.224 OA
BRANCH  21  24
ATOM     24  C   UNL     1      -1.591   0.783   3.630  1.00  0.00     0.119 C 
BRANCH  24  25
ATOM     25  C   UNL     1      -0.999   1.541   2.443  1.00  0.00     0.021 C 
BRANCH  25  26
ATOM     26  C   UNL     1       0.531   1.486   2.348  1.00  0.00     0.002 C 
BRANCH  26  27
ATOM     27  C   UNL     1       1.136   0.080   2.264  1.00  0.00    -0.000 C 
BRANCH  27  28
ATOM     28  C   UNL     1       0.641  -0.780   1.099  1.00  0.00    -0.003 C 
ATOM     29  C   UNL     1       0.989  -0.203  -0.264  1.00  0.00     0.004 C 
ENDBRANCH  27  28
ENDBRANCH  26  27
ENDBRANCH  25  26
ENDBRANCH  24  25
ENDBRANCH  21  24
ENDBRANCH  19  20
ENDBRANCH  14  19
ENDBRANCH   8  13
ENDBRANCH   5   7
ENDBRANCH   1   5
BRANCH   3  30
ATOM     30  C   UNL     1      -4.682   9.117  12.044  1.00  0.00     0.116 C 
BRANCH  30  31
ATOM     31  C   UNL     1      -4.181   7.681  12.211  1.00  0.00     0.021 C 
BRANCH  31  32
ATOM     32  C   UNL     1      -3.228   7.492  13.396  1.00  0.00     0.002 C 
BRANCH  32  33
ATOM     33  C   UNL     1      -3.844   7.756  14.776  1.00  0.00     0.002 C 
BRANCH  33  34
ATOM     34  C   UNL     1      -5.109   6.955  15.099  1.00  0.00     0.021 C 
BRANCH  34  35
ATOM     35  C   UNL     1      -4.928   5.440  15.079  1.00  0.00     0.116 C 
BRANCH  35  36
ATOM     36  N   UNL     1      -3.989   4.993  16.096  1.00  0.00    -0.352 N 
ATOM     37  C   UNL     1      -4.180   4.146  17.158  1.00  0.00     0.251 C 
ATOM     38  H   UNL     1      -3.077   5.354  16.009  1.00  0.00     0.163 HD
ATOM     39  O   UNL     1      -3.334   4.066  18.043  1.00  0.00    -0.269 OA
BRANCH  37  40
ATOM     40  C   UNL     1      -5.410   3.329  17.247  1.00  0.00     0.039 A 
ATOM     41  C   UNL     1      -6.053   3.209  18.483  1.00  0.00     0.014 A 
ATOM     42  C   UNL     1      -5.904   2.651  16.130  1.00  0.00     0.014 A 
ATOM     43  C   UNL     1      -7.221   2.451  18.586  1.00  0.00     0.010 A 
ATOM     44  C   UNL     1      -7.104   1.950  16.219  1.00  0.00     0.010 A 
ATOM     45  C   UNL     1      -7.771   1.838  17.449  1.00  0.00    -0.014 A 
BRANCH  45  46
ATOM     46  C   UNL     1      -9.039   1.070  17.527  1.00  0.00     0.031 A 
ATOM     47  C   UNL     1      -9.042  -0.411  17.268  1.00  0.00     0.074 A 
ATOM     48  C   UNL     1     -10.195   1.716  17.771  1.00  0.00     0.049 A 
ATOM     49  N   UNL     1     -10.053  -1.241  17.215  1.00  0.00    -0.248 NA
ATOM     50  C   UNL     1      -7.737  -1.038  17.007  1.00  0.00     0.031 C 
ATOM     51  C   UNL     1     -10.326   3.156  18.000  1.00  0.00     0.029 A 
ATOM     52  N   UNL     1     -11.482   1.247  17.857  1.00  0.00    -0.354 N 
ATOM     53  C   UNL     1      -9.509  -2.480  16.905  1.00  0.00     0.074 A 
ATOM     54  C   UNL     1      -8.086  -2.285  16.729  1.00  0.00     0.031 C 
ATOM     55  C   UNL     1     -11.618   3.450  18.220  1.00  0.00     0.029 A 
ATOM     56  C   UNL     1     -12.409   2.228  18.110  1.00  0.00     0.049 A 
ATOM     57  H   UNL     1     -11.719   0.298  17.747  1.00  0.00     0.167 HD
ATOM     58  C   UNL     1     -10.136  -3.676  16.800  1.00  0.00     0.037 A 
ATOM     59  C   UNL     1     -13.748   2.150  18.234  1.00  0.00     0.037 A 
ATOM     60  C   UNL     1     -11.549  -3.871  16.998  1.00  0.00     0.049 A 
ATOM     61  C   UNL     1     -14.421   0.811  18.100  1.00  0.00     0.074 A 
ATOM     62  C   UNL     1     -12.272  -5.050  16.964  1.00  0.00     0.029 A 
ATOM     63  N   UNL     1     -12.454  -2.855  17.269  1.00  0.00    -0.354 N 
ATOM     64  N   UNL     1     -13.888  -0.364  17.866  1.00  0.00    -0.248 NA
ATOM     65  C   UNL     1     -15.882   0.787  18.254  1.00  0.00     0.031 C 
ATOM     66  C   UNL     1     -13.621  -4.743  17.173  1.00  0.00     0.029 A 
ATOM     67  C   UNL     1     -13.732  -3.378  17.385  1.00  0.00     0.049 A 
ATOM     68  H   UNL     1     -12.223  -1.903  17.365  1.00  0.00     0.167 HD
ATOM     69  C   UNL     1     -14.941  -1.268  17.874  1.00  0.00     0.074 A 
ATOM     70  C   UNL     1     -16.143  -0.509  18.150  1.00  0.00     0.031 C 
ATOM     71  C   UNL     1     -14.915  -2.608  17.671  1.00  0.00     0.037 A 
BRANCH  58  72
ATOM     72  C   UNL     1      -9.296  -4.872  16.458  1.00  0.00     0.064 A 
ATOM     73  C   UNL     1      -8.380  -5.412  17.375  1.00  0.00     0.173 A 
ATOM     74  C   UNL     1      -9.431  -5.509  15.216  1.00  0.00     0.173 A 
ATOM     75  F   UNL     1      -8.204  -4.834  18.573  1.00  0.00    -0.203 F 
ATOM     76  C   UNL     1      -7.611  -6.526  17.049  1.00  0.00     0.198 A 
ATOM     77  C   UNL     1      -8.682  -6.641  14.904  1.00  0.00     0.198 A 
ATOM     78  F   UNL     1     -10.296  -5.039  14.305  1.00  0.00    -0.203 F 
ATOM     79  F   UNL     1      -6.708  -6.994  17.923  1.00  0.00    -0.200 F 
ATOM     80  C   UNL     1      -7.767  -7.144  15.818  1.00  0.00     0.200 A 
ATOM     81  F   UNL     1      -8.843  -7.245  13.719  1.00  0.00    -0.200 F 
ATOM     82  F   UNL     1      -7.031  -8.220  15.508  1.00  0.00    -0.200 F 
ENDBRANCH  58  72
BRANCH  59  83
ATOM     83  C   UNL     1     -14.540   3.373  18.524  1.00  0.00     0.064 A 
ATOM     84  C   UNL     1     -15.161   3.547  19.769  1.00  0.00     0.173 A 
ATOM     85  C   UNL     1     -14.701   4.386  17.567  1.00  0.00     0.173 A 
ATOM     86  F   UNL     1     -15.053   2.597  20.709  1.00  0.00    -0.203 F 
ATOM     87  C   UNL     1     -15.930   4.677  20.038  1.00  0.00     0.198 A 
ATOM     88  C   UNL     1     -15.448   5.528  17.847  1.00  0.00     0.198 A 
ATOM     89  F   UNL     1     -14.124   4.269  16.362  1.00  0.00    -0.203 F 
ATOM     90  F   UNL     1     -16.551   4.796  21.220  1.00  0.00    -0.200 F 
ATOM     91  C   UNL     1     -16.069   5.669  19.079  1.00  0.00     0.200 A 
ATOM     92  F   UNL     1     -15.568   6.491  16.923  1.00  0.00    -0.200 F 
ATOM     93  F   UNL     1     -16.807   6.756  19.339  1.00  0.00    -0.200 F 
ENDBRANCH  59  83
BRANCH  71  94
ATOM     94  C   UNL     1     -16.219  -3.344  17.776  1.00  0.00     0.064 A 
ATOM     95  C   UNL     1     -17.209  -3.233  16.789  1.00  0.00     0.173 A 
ATOM     96  C   UNL     1     -16.464  -4.200  18.861  1.00  0.00     0.173 A 
ATOM     97  F   UNL     1     -17.028  -2.415  15.741  1.00  0.00    -0.203 F 
ATOM     98  C   UNL     1     -18.407  -3.933  16.897  1.00  0.00     0.198 A 
ATOM     99  C   UNL     1     -17.651  -4.921  18.951  1.00  0.00     0.198 A 
ATOM    100  F   UNL     1     -15.546  -4.346  19.828  1.00  0.00    -0.203 F 
ATOM    101  F   UNL     1     -19.359  -3.775  15.966  1.00  0.00    -0.200 F 
ATOM    102  C   UNL     1     -18.625  -4.781  17.973  1.00  0.00     0.200 A 
ATOM    103  F   UNL     1     -17.854  -5.750  19.984  1.00  0.00    -0.200 F 
ATOM    104  F   UNL     1     -19.776  -5.459  18.071  1.00  0.00    -0.200 F 
ENDBRANCH  71  94
ENDBRANCH  45  46
ENDBRANCH  37  40
ENDBRANCH  35  36
ENDBRANCH  34  35
ENDBRANCH  33  34
ENDBRANCH  32  33
ENDBRANCH  31  32
ENDBRANCH  30  31
ENDBRANCH   3  30
TORSDOF 22
