REMARK SMILES COc1cc(C(=O)NCCCCCCNC(=O)c2ccc(-c3c4nc(c(-c5c(F)c(F)c(F)c(F)c5F)c5ccc([nH]5)c(-c5c(F)c(F)c(F)c(F)c5F)c5nc(c(-c6c(F)c(F)c(F)c(F)c6F)c6ccc3[nH]6)C=C5)C=C4)cc2)c([N+](=O)[O-])cc1OCC[NH+](C)C
REMARK SMILES IDX 10 1 9 2 8 3 6 4 7 5 5 7 3 8 4 9 86 10 85 11 81 12 2 13 1 14
REMARK SMILES IDX 87 15 88 16 89 17 90 18 91 19 92 20 82 22 83 23 84 24 11 25
REMARK SMILES IDX 12 26 13 27 14 28 15 29 16 30 17 32 18 33 19 34 80 35 20 36
REMARK SMILES IDX 79 37 21 38 22 39 23 40 73 41 24 42 78 43 72 44 74 45 25 46
REMARK SMILES IDX 77 47 71 48 70 49 26 51 58 52 38 53 57 54 39 55 42 56 56 57
REMARK SMILES IDX 75 58 40 59 41 60 55 62 76 63 43 64 27 65 28 66 36 67 29 68
REMARK SMILES IDX 30 69 34 70 37 71 31 72 32 73 35 74 33 75 59 76 60 77 68 78
REMARK SMILES IDX 61 79 62 80 66 81 69 82 63 83 64 84 67 85 65 86 44 87 45 88
REMARK SMILES IDX 53 89 46 90 47 91 51 92 54 93 48 94 49 95 52 96 50 97
REMARK H PARENT 8 6 90 21 15 31 74 50 42 61
REMARK Flexibility Score: inf
ROOT
ATOM      1  C   UNL     1       1.690  -5.752   6.729  1.00  0.00     0.021 C 
ENDROOT
BRANCH   1   2
ATOM      2  C   UNL     1       1.415  -5.534   5.249  1.00  0.00     0.116 C 
BRANCH   2   3
ATOM      3  N   UNL     1       0.065  -5.107   4.929  1.00  0.00    -0.352 N 
ATOM      4  C   UNL     1      -0.385  -4.200   3.996  1.00  0.00     0.258 C 
ATOM      5  O   UNL     1      -1.590  -3.985   3.888  1.00  0.00    -0.269 OA
ATOM      6  H   UNL     1      -0.642  -5.535   5.465  1.00  0.00     0.163 HD
BRANCH   4   7
ATOM      7  C   UNL     1       0.557  -3.411   3.165  1.00  0.00     0.121 A 
ATOM      8  C   UNL     1       1.230  -1.208   2.343  1.00  0.00     0.162 A 
ATOM      9  C   UNL     1       0.353  -2.019   3.086  1.00  0.00     0.071 A 
ATOM     10  C   UNL     1       2.342  -1.784   1.716  1.00  0.00     0.168 A 
ATOM     11  C   UNL     1       2.578  -3.151   1.834  1.00  0.00     0.136 A 
ATOM     12  C   UNL     1       1.636  -3.959   2.472  1.00  0.00     0.286 A 
BRANCH   8  13
ATOM     13  O   UNL     1       1.072   0.152   2.358  1.00  0.00    -0.493 OA
ATOM     14  C   UNL     1      -0.030   0.598   1.564  1.00  0.00     0.278 C 
ENDBRANCH   8  13
BRANCH  10  15
ATOM     15  O   UNL     1       3.255  -1.144   0.929  1.00  0.00    -0.484 OA
BRANCH  15  16
ATOM     16  C   UNL     1       2.729  -0.442  -0.203  1.00  0.00     0.291 C 
BRANCH  16  17
ATOM     17  C   UNL     1       1.933  -1.253  -1.268  1.00  0.00     0.303 C 
BRANCH  17  18
ATOM     18  N   UNL     1       0.676  -1.876  -0.804  1.00  0.00    -0.337 N 
ATOM     19  C   UNL     1      -0.493  -1.413  -1.556  1.00  0.00     0.332 C 
ATOM     20  C   UNL     1       0.727  -3.340  -0.893  1.00  0.00     0.332 C 
ATOM     21  H   UNL     1       0.580  -1.591   0.171  1.00  0.00     0.347 HD
ENDBRANCH  17  18
ENDBRANCH  16  17
ENDBRANCH  15  16
ENDBRANCH  10  15
BRANCH  12  22
ATOM     22  N   UNL     1       1.750  -5.386   2.245  1.00  0.00     0.063 N 
ATOM     23  O   UNL     1       0.743  -5.989   1.856  1.00  0.00    -0.258 OA
ATOM     24  O   UNL     1       2.865  -5.897   2.424  1.00  0.00    -0.258 OA
ENDBRANCH  12  22
ENDBRANCH   4   7
ENDBRANCH   2   3
ENDBRANCH   1   2
BRANCH   1  25
ATOM     25  C   UNL     1       0.924  -6.893   7.399  1.00  0.00     0.002 C 
BRANCH  25  26
ATOM     26  C   UNL     1       0.975  -8.262   6.713  1.00  0.00     0.002 C 
BRANCH  26  27
ATOM     27  C   UNL     1       2.361  -8.814   6.370  1.00  0.00     0.021 C 
BRANCH  27  28
ATOM     28  C   UNL     1       3.376  -8.835   7.506  1.00  0.00     0.116 C 
BRANCH  28  29
ATOM     29  N   UNL     1       2.932  -9.600   8.659  1.00  0.00    -0.352 N 
ATOM     30  C   UNL     1       3.586 -10.573   9.369  1.00  0.00     0.251 C 
ATOM     31  H   UNL     1       2.025  -9.387   8.977  1.00  0.00     0.163 HD
ATOM     32  O   UNL     1       2.992 -11.196  10.250  1.00  0.00    -0.269 OA
BRANCH  30  33
ATOM     33  C   UNL     1       4.994 -10.905   9.066  1.00  0.00     0.039 A 
ATOM     34  C   UNL     1       5.365 -12.251   8.997  1.00  0.00     0.014 A 
ATOM     35  C   UNL     1       5.949  -9.906   8.858  1.00  0.00     0.014 A 
ATOM     36  C   UNL     1       6.676 -12.595   8.659  1.00  0.00     0.010 A 
ATOM     37  C   UNL     1       7.234 -10.249   8.444  1.00  0.00     0.010 A 
ATOM     38  C   UNL     1       7.612 -11.597   8.344  1.00  0.00    -0.014 A 
BRANCH  38  39
ATOM     39  C   UNL     1       8.985 -11.948   7.897  1.00  0.00     0.031 A 
ATOM     40  C   UNL     1      10.179 -11.546   8.715  1.00  0.00     0.074 A 
ATOM     41  C   UNL     1       9.159 -12.573   6.717  1.00  0.00     0.049 A 
ATOM     42  N   UNL     1      11.453 -11.715   8.463  1.00  0.00    -0.248 NA
ATOM     43  C   UNL     1       9.905 -10.831   9.970  1.00  0.00     0.031 C 
ATOM     44  C   UNL     1       8.085 -12.966   5.805  1.00  0.00     0.029 A 
ATOM     45  N   UNL     1      10.305 -12.974   6.075  1.00  0.00    -0.354 N 
ATOM     46  C   UNL     1      12.130 -11.116   9.517  1.00  0.00     0.074 A 
ATOM     47  C   UNL     1      11.128 -10.528  10.380  1.00  0.00     0.031 C 
ATOM     48  C   UNL     1       8.619 -13.569   4.731  1.00  0.00     0.029 A 
ATOM     49  C   UNL     1      10.073 -13.567   4.858  1.00  0.00     0.049 A 
ATOM     50  H   UNL     1      11.206 -12.848   6.451  1.00  0.00     0.167 HD
ATOM     51  C   UNL     1      13.463 -11.077   9.754  1.00  0.00     0.037 A 
ATOM     52  C   UNL     1      10.935 -14.046   3.941  1.00  0.00     0.037 A 
ATOM     53  C   UNL     1      14.454 -11.674   8.895  1.00  0.00     0.049 A 
ATOM     54  C   UNL     1      12.412 -13.988   4.220  1.00  0.00     0.074 A 
ATOM     55  C   UNL     1      15.822 -11.755   9.082  1.00  0.00     0.029 A 
ATOM     56  N   UNL     1      14.181 -12.281   7.676  1.00  0.00    -0.354 N 
ATOM     57  N   UNL     1      13.039 -13.495   5.260  1.00  0.00    -0.248 NA
ATOM     58  C   UNL     1      13.301 -14.561   3.200  1.00  0.00     0.031 C 
ATOM     59  C   UNL     1      16.384 -12.351   7.947  1.00  0.00     0.029 A 
ATOM     60  C   UNL     1      15.361 -12.705   7.083  1.00  0.00     0.049 A 
ATOM     61  H   UNL     1      13.283 -12.394   7.290  1.00  0.00     0.167 HD
ATOM     62  C   UNL     1      14.390 -13.716   5.034  1.00  0.00     0.074 A 
ATOM     63  C   UNL     1      14.491 -14.404   3.763  1.00  0.00     0.031 C 
ATOM     64  C   UNL     1      15.450 -13.382   5.812  1.00  0.00     0.037 A 
BRANCH  51  65
ATOM     65  C   UNL     1      13.926 -10.346  10.984  1.00  0.00     0.064 A 
ATOM     66  C   UNL     1      13.635 -10.810  12.277  1.00  0.00     0.173 A 
ATOM     67  C   UNL     1      14.677  -9.166  10.869  1.00  0.00     0.173 A 
ATOM     68  F   UNL     1      12.914 -11.929  12.447  1.00  0.00    -0.203 F 
ATOM     69  C   UNL     1      14.034 -10.095  13.404  1.00  0.00     0.198 A 
ATOM     70  C   UNL     1      15.107  -8.474  11.999  1.00  0.00     0.198 A 
ATOM     71  F   UNL     1      14.994  -8.680   9.660  1.00  0.00    -0.203 F 
ATOM     72  F   UNL     1      13.681 -10.521  14.625  1.00  0.00    -0.200 F 
ATOM     73  C   UNL     1      14.774  -8.931  13.264  1.00  0.00     0.200 A 
ATOM     74  F   UNL     1      15.837  -7.359  11.862  1.00  0.00    -0.200 F 
ATOM     75  F   UNL     1      15.156  -8.244  14.349  1.00  0.00    -0.200 F 
ENDBRANCH  51  65
BRANCH  52  76
ATOM     76  C   UNL     1      10.409 -14.639   2.684  1.00  0.00     0.064 A 
ATOM     77  C   UNL     1      10.484 -16.019   2.451  1.00  0.00     0.173 A 
ATOM     78  C   UNL     1       9.790 -13.844   1.709  1.00  0.00     0.173 A 
ATOM     79  F   UNL     1      11.084 -16.818   3.345  1.00  0.00    -0.203 F 
ATOM     80  C   UNL     1       9.966 -16.580   1.285  1.00  0.00     0.198 A 
ATOM     81  C   UNL     1       9.246 -14.410   0.557  1.00  0.00     0.198 A 
ATOM     82  F   UNL     1       9.688 -12.519   1.888  1.00  0.00    -0.203 F 
ATOM     83  F   UNL     1      10.079 -17.898   1.071  1.00  0.00    -0.200 F 
ATOM     84  C   UNL     1       9.339 -15.777   0.344  1.00  0.00     0.200 A 
ATOM     85  F   UNL     1       8.627 -13.632  -0.341  1.00  0.00    -0.200 F 
ATOM     86  F   UNL     1       8.827 -16.319  -0.769  1.00  0.00    -0.200 F 
ENDBRANCH  52  76
BRANCH  64  87
ATOM     87  C   UNL     1      16.816 -13.776   5.323  1.00  0.00     0.064 A 
ATOM     88  C   UNL     1      17.413 -13.154   4.216  1.00  0.00     0.173 A 
ATOM     89  C   UNL     1      17.554 -14.761   5.997  1.00  0.00     0.173 A 
ATOM     90  F   UNL     1      16.746 -12.216   3.527  1.00  0.00    -0.203 F 
ATOM     91  C   UNL     1      18.686 -13.522   3.788  1.00  0.00     0.198 A 
ATOM     92  C   UNL     1      18.840 -15.102   5.587  1.00  0.00     0.198 A 
ATOM     93  F   UNL     1      17.034 -15.383   7.066  1.00  0.00    -0.203 F 
ATOM     94  F   UNL     1      19.216 -12.950   2.697  1.00  0.00    -0.200 F 
ATOM     95  C   UNL     1      19.401 -14.489   4.478  1.00  0.00     0.200 A 
ATOM     96  F   UNL     1      19.535 -16.025   6.266  1.00  0.00    -0.200 F 
ATOM     97  F   UNL     1      20.630 -14.835   4.070  1.00  0.00    -0.200 F 
ENDBRANCH  64  87
ENDBRANCH  38  39
ENDBRANCH  30  33
ENDBRANCH  28  29
ENDBRANCH  27  28
ENDBRANCH  26  27
ENDBRANCH  25  26
ENDBRANCH   1  25
TORSDOF 19
