REMARK SMILES C[C@@H](C(=O)NCCCCCCNC(=O)c1ccc(-c2c3nc(c(-c4c(F)c(F)c(F)c(F)c4F)c4ccc([nH]4)c(-c4c(F)c(F)c(F)c(F)c4F)c4nc(c(-c5c(F)c(F)c(F)c(F)c5F)c5ccc2[nH]5)C=C4)C=C3)cc1)c1ccc(N[C@H]2CCC[C@@H]2O)cc1F
REMARK SMILES IDX 7 1 6 2 5 3 3 4 4 5 2 7 1 8 78 9 79 10 90 11 80 12 89 13
REMARK SMILES IDX 91 14 81 15 82 16 83 18 84 19 87 20 85 21 86 22 88 23 8 25
REMARK SMILES IDX 9 26 10 27 11 28 12 29 13 30 14 32 15 33 16 34 77 35 17 36
REMARK SMILES IDX 76 37 18 38 19 39 20 40 70 41 21 42 75 43 69 44 71 45 22 46
REMARK SMILES IDX 74 47 68 48 67 49 23 51 55 52 35 53 54 54 36 55 39 56 53 57
REMARK SMILES IDX 72 58 37 59 38 60 52 62 73 63 40 64 24 65 25 66 33 67 26 68
REMARK SMILES IDX 27 69 31 70 34 71 28 72 29 73 32 74 30 75 56 76 57 77 65 78
REMARK SMILES IDX 58 79 59 80 63 81 66 82 60 83 61 84 64 85 62 86 41 87 42 88
REMARK SMILES IDX 50 89 43 90 44 91 48 92 51 93 45 94 46 95 49 96 47 97
REMARK H PARENT 5 6 82 17 88 24 12 31 71 50 39 61
REMARK Flexibility Score: inf
ROOT
ATOM      1  C   UNL     1       4.231  -0.681  -1.276  1.00  0.00     0.021 C 
ENDROOT
BRANCH   1   2
ATOM      2  C   UNL     1       3.392   0.483  -1.802  1.00  0.00     0.116 C 
BRANCH   2   3
ATOM      3  N   UNL     1       2.299   0.004  -2.619  1.00  0.00    -0.356 N 
ATOM      4  C   UNL     1       0.967  -0.098  -2.341  1.00  0.00     0.227 C 
ATOM      5  O   UNL     1       0.259  -0.582  -3.226  1.00  0.00    -0.274 OA
ATOM      6  H   UNL     1       2.557  -0.296  -3.521  1.00  0.00     0.163 HD
BRANCH   4   7
ATOM      7  C   UNL     1       0.417   0.448  -1.013  1.00  0.00     0.108 C 
ATOM      8  C   UNL     1       0.861  -0.358   0.211  1.00  0.00     0.023 C 
BRANCH   7   9
ATOM      9  C   UNL     1      -1.097   0.570  -1.028  1.00  0.00     0.000 A 
ATOM     10  C   UNL     1      -1.706   1.825  -0.972  1.00  0.00     0.009 A 
ATOM     11  C   UNL     1      -1.924  -0.553  -1.092  1.00  0.00     0.129 A 
ATOM     12  C   UNL     1      -3.102   1.939  -0.973  1.00  0.00     0.026 A 
ATOM     13  C   UNL     1      -3.312  -0.433  -1.110  1.00  0.00     0.065 A 
ATOM     14  F   UNL     1      -1.392  -1.783  -1.123  1.00  0.00    -0.207 F 
ATOM     15  C   UNL     1      -3.935   0.818  -1.047  1.00  0.00     0.037 A 
BRANCH  15  16
ATOM     16  N   UNL     1      -5.312   0.868  -1.073  1.00  0.00    -0.380 N 
ATOM     17  H   UNL     1      -5.761  -0.005  -1.147  1.00  0.00     0.160 HD
BRANCH  16  18
ATOM     18  C   UNL     1      -6.201   2.021  -1.006  1.00  0.00     0.107 C 
ATOM     19  C   UNL     1      -6.073   2.849   0.275  1.00  0.00     0.027 C 
ATOM     20  C   UNL     1      -6.053   3.006  -2.177  1.00  0.00     0.136 C 
ATOM     21  C   UNL     1      -6.085   4.311  -0.178  1.00  0.00     0.005 C 
ATOM     22  C   UNL     1      -6.629   4.290  -1.600  1.00  0.00     0.034 C 
BRANCH  20  23
ATOM     23  O   UNL     1      -6.779   2.582  -3.321  1.00  0.00    -0.391 OA
ATOM     24  H   UNL     1      -7.714   2.471  -3.088  1.00  0.00     0.211 HD
ENDBRANCH  20  23
ENDBRANCH  16  18
ENDBRANCH  15  16
ENDBRANCH   7   9
ENDBRANCH   4   7
ENDBRANCH   2   3
ENDBRANCH   1   2
BRANCH   1  25
ATOM     25  C   UNL     1       4.944  -1.490  -2.367  1.00  0.00     0.002 C 
BRANCH  25  26
ATOM     26  C   UNL     1       5.863  -0.680  -3.286  1.00  0.00     0.002 C 
BRANCH  26  27
ATOM     27  C   UNL     1       6.916   0.169  -2.570  1.00  0.00     0.021 C 
BRANCH  27  28
ATOM     28  C   UNL     1       7.853  -0.611  -1.655  1.00  0.00     0.116 C 
BRANCH  28  29
ATOM     29  N   UNL     1       8.672  -1.562  -2.386  1.00  0.00    -0.352 N 
ATOM     30  C   UNL     1      10.017  -1.801  -2.288  1.00  0.00     0.251 C 
ATOM     31  H   UNL     1       8.192  -2.113  -3.046  1.00  0.00     0.163 HD
ATOM     32  O   UNL     1      10.574  -2.530  -3.110  1.00  0.00    -0.269 OA
BRANCH  30  33
ATOM     33  C   UNL     1      10.812  -1.178  -1.209  1.00  0.00     0.039 A 
ATOM     34  C   UNL     1      12.072  -0.657  -1.519  1.00  0.00     0.014 A 
ATOM     35  C   UNL     1      10.344  -1.142   0.109  1.00  0.00     0.014 A 
ATOM     36  C   UNL     1      12.849  -0.075  -0.516  1.00  0.00     0.010 A 
ATOM     37  C   UNL     1      11.092  -0.503   1.095  1.00  0.00     0.010 A 
ATOM     38  C   UNL     1      12.360   0.018   0.796  1.00  0.00    -0.014 A 
BRANCH  38  39
ATOM     39  C   UNL     1      13.184   0.619   1.875  1.00  0.00     0.031 A 
ATOM     40  C   UNL     1      13.694  -0.242   2.997  1.00  0.00     0.074 A 
ATOM     41  C   UNL     1      13.437   1.941   1.867  1.00  0.00     0.049 A 
ATOM     42  N   UNL     1      14.401   0.097   4.046  1.00  0.00    -0.248 NA
ATOM     43  C   UNL     1      13.340  -1.669   2.949  1.00  0.00     0.031 C 
ATOM     44  C   UNL     1      12.960   2.887   0.858  1.00  0.00     0.029 A 
ATOM     45  N   UNL     1      14.157   2.717   2.740  1.00  0.00    -0.354 N 
ATOM     46  C   UNL     1      14.553  -1.066   4.790  1.00  0.00     0.074 A 
ATOM     47  C   UNL     1      13.829  -2.110   4.098  1.00  0.00     0.031 C 
ATOM     48  C   UNL     1      13.424   4.112   1.153  1.00  0.00     0.029 A 
ATOM     49  C   UNL     1      14.207   4.042   2.384  1.00  0.00     0.049 A 
ATOM     50  H   UNL     1      14.596   2.359   3.545  1.00  0.00     0.167 HD
ATOM     51  C   UNL     1      15.253  -1.251   5.935  1.00  0.00     0.037 A 
ATOM     52  C   UNL     1      14.822   5.080   2.981  1.00  0.00     0.037 A 
ATOM     53  C   UNL     1      16.010  -0.222   6.597  1.00  0.00     0.049 A 
ATOM     54  C   UNL     1      15.615   4.841   4.237  1.00  0.00     0.074 A 
ATOM     55  C   UNL     1      16.813  -0.326   7.719  1.00  0.00     0.029 A 
ATOM     56  N   UNL     1      16.058   1.103   6.191  1.00  0.00    -0.354 N 
ATOM     57  N   UNL     1      15.813   3.724   4.891  1.00  0.00    -0.248 NA
ATOM     58  C   UNL     1      16.280   6.010   4.830  1.00  0.00     0.031 C 
ATOM     59  C   UNL     1      17.320   0.945   8.013  1.00  0.00     0.029 A 
ATOM     60  C   UNL     1      16.865   1.831   7.050  1.00  0.00     0.049 A 
ATOM     61  H   UNL     1      15.589   1.472   5.408  1.00  0.00     0.167 HD
ATOM     62  C   UNL     1      16.651   4.045   5.951  1.00  0.00     0.074 A 
ATOM     63  C   UNL     1      16.930   5.462   5.847  1.00  0.00     0.031 C 
ATOM     64  C   UNL     1      17.145   3.238   6.922  1.00  0.00     0.037 A 
BRANCH  51  65
ATOM     65  C   UNL     1      15.232  -2.623   6.544  1.00  0.00     0.064 A 
ATOM     66  C   UNL     1      15.903  -3.703   5.951  1.00  0.00     0.173 A 
ATOM     67  C   UNL     1      14.554  -2.854   7.750  1.00  0.00     0.173 A 
ATOM     68  F   UNL     1      16.556  -3.537   4.791  1.00  0.00    -0.203 F 
ATOM     69  C   UNL     1      15.869  -4.971   6.526  1.00  0.00     0.198 A 
ATOM     70  C   UNL     1      14.546  -4.117   8.337  1.00  0.00     0.198 A 
ATOM     71  F   UNL     1      13.900  -1.855   8.362  1.00  0.00    -0.203 F 
ATOM     72  F   UNL     1      16.474  -5.998   5.914  1.00  0.00    -0.200 F 
ATOM     73  C   UNL     1      15.196  -5.176   7.721  1.00  0.00     0.200 A 
ATOM     74  F   UNL     1      13.904  -4.311   9.498  1.00  0.00    -0.200 F 
ATOM     75  F   UNL     1      15.166  -6.396   8.274  1.00  0.00    -0.200 F 
ENDBRANCH  51  65
BRANCH  52  76
ATOM     76  C   UNL     1      14.755   6.432   2.371  1.00  0.00     0.064 A 
ATOM     77  C   UNL     1      15.884   6.999   1.764  1.00  0.00     0.173 A 
ATOM     78  C   UNL     1      13.572   7.184   2.383  1.00  0.00     0.173 A 
ATOM     79  F   UNL     1      17.043   6.325   1.747  1.00  0.00    -0.203 F 
ATOM     80  C   UNL     1      15.838   8.275   1.207  1.00  0.00     0.198 A 
ATOM     81  C   UNL     1      13.520   8.450   1.804  1.00  0.00     0.198 A 
ATOM     82  F   UNL     1      12.463   6.683   2.948  1.00  0.00    -0.203 F 
ATOM     83  F   UNL     1      16.942   8.809   0.669  1.00  0.00    -0.200 F 
ATOM     84  C   UNL     1      14.654   8.998   1.223  1.00  0.00     0.200 A 
ATOM     85  F   UNL     1      12.372   9.141   1.811  1.00  0.00    -0.200 F 
ATOM     86  F   UNL     1      14.609  10.224   0.686  1.00  0.00    -0.200 F 
ENDBRANCH  52  76
BRANCH  64  87
ATOM     87  C   UNL     1      18.074   3.860   7.922  1.00  0.00     0.064 A 
ATOM     88  C   UNL     1      17.607   4.724   8.922  1.00  0.00     0.173 A 
ATOM     89  C   UNL     1      19.444   3.559   7.897  1.00  0.00     0.173 A 
ATOM     90  F   UNL     1      16.308   5.053   8.977  1.00  0.00    -0.203 F 
ATOM     91  C   UNL     1      18.483   5.286   9.847  1.00  0.00     0.198 A 
ATOM     92  C   UNL     1      20.313   4.101   8.839  1.00  0.00     0.198 A 
ATOM     93  F   UNL     1      19.938   2.733   6.963  1.00  0.00    -0.203 F 
ATOM     94  F   UNL     1      18.023   6.146  10.766  1.00  0.00    -0.200 F 
ATOM     95  C   UNL     1      19.833   4.970   9.808  1.00  0.00     0.200 A 
ATOM     96  F   UNL     1      21.615   3.786   8.808  1.00  0.00    -0.200 F 
ATOM     97  F   UNL     1      20.674   5.509  10.701  1.00  0.00    -0.200 F 
ENDBRANCH  64  87
ENDBRANCH  38  39
ENDBRANCH  30  33
ENDBRANCH  28  29
ENDBRANCH  27  28
ENDBRANCH  26  27
ENDBRANCH  25  26
ENDBRANCH   1  25
TORSDOF 17
