REMARK SMILES O=C(NCCCCCCNC(=O)c1ccc2nc(C3CCCCC3)[nH]c2c1)c1ccc(-c2c3nc(c(-c4c(F)c(F)c(F)c(F)c4F)c4ccc([nH]4)c(-c4c(F)c(F)c(F)c(F)c4F)c4nc(c(-c5c(F)c(F)c(F)c(F)c5F)c5ccc2[nH]5)C=C4)C=C3)cc1
REMARK SMILES IDX 6 1 5 2 4 3 3 4 1 5 2 6 28 8 29 9 90 10 30 11 89 12 31 13
REMARK SMILES IDX 32 14 33 15 83 16 34 17 88 18 82 19 84 20 35 21 87 22 81 23
REMARK SMILES IDX 80 24 36 26 68 27 48 28 67 29 49 30 52 31 66 32 85 33 50 34
REMARK SMILES IDX 51 35 65 37 86 38 53 39 37 40 38 41 46 42 39 43 40 44 44 45
REMARK SMILES IDX 47 46 41 47 42 48 45 49 43 50 69 51 70 52 78 53 71 54 72 55
REMARK SMILES IDX 76 56 79 57 73 58 74 59 77 60 75 61 54 62 55 63 63 64 56 65
REMARK SMILES IDX 57 66 61 67 64 68 58 69 59 70 62 71 60 72 7 73 8 74 9 75
REMARK SMILES IDX 10 76 11 77 12 79 13 80 14 81 27 82 15 83 26 84 16 85 25 86
REMARK SMILES IDX 17 87 18 88 19 90 20 91 24 92 21 93 23 94 22 95
REMARK H PARENT 3 7 84 25 52 36 10 78 25 89
REMARK Flexibility Score: inf
ROOT
ATOM      1  C   UNL     1       4.202  -1.862   3.324  1.00  0.00     0.002 C 
ENDROOT
BRANCH   1   2
ATOM      2  C   UNL     1       4.686  -0.671   2.495  1.00  0.00     0.021 C 
BRANCH   2   3
ATOM      3  C   UNL     1       4.422  -0.788   0.998  1.00  0.00     0.116 C 
BRANCH   3   4
ATOM      4  N   UNL     1       3.002  -0.861   0.696  1.00  0.00    -0.352 N 
ATOM      5  O   UNL     1       1.006  -0.124  -0.052  1.00  0.00    -0.269 OA
ATOM      6  C   UNL     1       2.231  -0.022  -0.065  1.00  0.00     0.251 C 
ATOM      7  H   UNL     1       2.525  -1.623   1.097  1.00  0.00     0.163 HD
BRANCH   6   8
ATOM      8  C   UNL     1       2.871   1.021  -0.891  1.00  0.00     0.039 A 
ATOM      9  C   UNL     1       3.981   0.725  -1.688  1.00  0.00     0.014 A 
ATOM     10  C   UNL     1       2.329   2.308  -0.887  1.00  0.00     0.014 A 
ATOM     11  C   UNL     1       4.619   1.742  -2.393  1.00  0.00     0.010 A 
ATOM     12  C   UNL     1       2.927   3.311  -1.651  1.00  0.00     0.010 A 
ATOM     13  C   UNL     1       4.090   3.040  -2.392  1.00  0.00    -0.014 A 
BRANCH  13  14
ATOM     14  C   UNL     1       4.717   4.109  -3.206  1.00  0.00     0.031 A 
ATOM     15  C   UNL     1       5.325   5.313  -2.547  1.00  0.00     0.074 A 
ATOM     16  C   UNL     1       4.690   4.012  -4.547  1.00  0.00     0.049 A 
ATOM     17  N   UNL     1       5.811   6.399  -3.093  1.00  0.00    -0.248 NA
ATOM     18  C   UNL     1       5.381   5.299  -1.079  1.00  0.00     0.031 C 
ATOM     19  C   UNL     1       4.126   2.889  -5.297  1.00  0.00     0.029 A 
ATOM     20  N   UNL     1       5.125   4.878  -5.518  1.00  0.00    -0.354 N 
ATOM     21  C   UNL     1       6.208   7.208  -2.037  1.00  0.00     0.074 A 
ATOM     22  C   UNL     1       5.881   6.498  -0.818  1.00  0.00     0.031 C 
ATOM     23  C   UNL     1       4.249   3.133  -6.609  1.00  0.00     0.029 A 
ATOM     24  C   UNL     1       4.838   4.455  -6.792  1.00  0.00     0.049 A 
ATOM     25  H   UNL     1       5.596   5.720  -5.320  1.00  0.00     0.167 HD
ATOM     26  C   UNL     1       6.793   8.430  -2.087  1.00  0.00     0.037 A 
ATOM     27  C   UNL     1       4.991   5.079  -7.975  1.00  0.00     0.037 A 
ATOM     28  C   UNL     1       7.110   9.123  -3.309  1.00  0.00     0.049 A 
ATOM     29  C   UNL     1       5.595   6.453  -8.005  1.00  0.00     0.074 A 
ATOM     30  C   UNL     1       7.739  10.345  -3.470  1.00  0.00     0.029 A 
ATOM     31  N   UNL     1       6.805   8.661  -4.583  1.00  0.00    -0.354 N 
ATOM     32  N   UNL     1       6.003   7.197  -7.006  1.00  0.00    -0.248 NA
ATOM     33  C   UNL     1       5.763   7.076  -9.325  1.00  0.00     0.031 C 
ATOM     34  C   UNL     1       7.754  10.653  -4.835  1.00  0.00     0.029 A 
ATOM     35  C   UNL     1       7.204   9.589  -5.532  1.00  0.00     0.049 A 
ATOM     36  H   UNL     1       6.370   7.801  -4.782  1.00  0.00     0.167 HD
ATOM     37  C   UNL     1       6.505   8.360  -7.574  1.00  0.00     0.074 A 
ATOM     38  C   UNL     1       6.348   8.223  -9.008  1.00  0.00     0.031 C 
ATOM     39  C   UNL     1       7.054   9.436  -6.959  1.00  0.00     0.037 A 
BRANCH  26  40
ATOM     40  C   UNL     1       7.087   9.111  -0.779  1.00  0.00     0.064 A 
ATOM     41  C   UNL     1       8.055   8.624   0.113  1.00  0.00     0.173 A 
ATOM     42  C   UNL     1       6.393  10.275  -0.415  1.00  0.00     0.173 A 
ATOM     43  F   UNL     1       8.745   7.511  -0.179  1.00  0.00    -0.203 F 
ATOM     44  C   UNL     1       8.283   9.249   1.338  1.00  0.00     0.198 A 
ATOM     45  C   UNL     1       6.648  10.918   0.793  1.00  0.00     0.198 A 
ATOM     46  F   UNL     1       5.464  10.793  -1.233  1.00  0.00    -0.203 F 
ATOM     47  F   UNL     1       9.163   8.725   2.202  1.00  0.00    -0.200 F 
ATOM     48  C   UNL     1       7.582  10.397   1.675  1.00  0.00     0.200 A 
ATOM     49  F   UNL     1       5.982  12.038   1.109  1.00  0.00    -0.200 F 
ATOM     50  F   UNL     1       7.800  10.995   2.854  1.00  0.00    -0.200 F 
ENDBRANCH  26  40
BRANCH  27  51
ATOM     51  C   UNL     1       4.549   4.393  -9.215  1.00  0.00     0.064 A 
ATOM     52  C   UNL     1       5.479   3.901 -10.138  1.00  0.00     0.173 A 
ATOM     53  C   UNL     1       3.188   4.165  -9.472  1.00  0.00     0.173 A 
ATOM     54  F   UNL     1       6.790   4.107  -9.943  1.00  0.00    -0.203 F 
ATOM     55  C   UNL     1       5.066   3.208 -11.274  1.00  0.00     0.198 A 
ATOM     56  C   UNL     1       2.777   3.448 -10.592  1.00  0.00     0.198 A 
ATOM     57  F   UNL     1       2.259   4.609  -8.612  1.00  0.00    -0.203 F 
ATOM     58  F   UNL     1       5.974   2.769 -12.156  1.00  0.00    -0.200 F 
ATOM     59  C   UNL     1       3.716   2.974 -11.495  1.00  0.00     0.200 A 
ATOM     60  F   UNL     1       1.474   3.205 -10.790  1.00  0.00    -0.200 F 
ATOM     61  F   UNL     1       3.321   2.289 -12.577  1.00  0.00    -0.200 F 
ENDBRANCH  27  51
BRANCH  39  62
ATOM     62  C   UNL     1       7.585  10.538  -7.829  1.00  0.00     0.064 A 
ATOM     63  C   UNL     1       6.736  11.418  -8.514  1.00  0.00     0.173 A 
ATOM     64  C   UNL     1       8.969  10.762  -7.911  1.00  0.00     0.173 A 
ATOM     65  F   UNL     1       5.407  11.238  -8.483  1.00  0.00    -0.203 F 
ATOM     66  C   UNL     1       7.253  12.478  -9.256  1.00  0.00     0.198 A 
ATOM     67  C   UNL     1       9.480  11.839  -8.627  1.00  0.00     0.198 A 
ATOM     68  F   UNL     1       9.823   9.950  -7.270  1.00  0.00    -0.203 F 
ATOM     69  F   UNL     1       6.426  13.289  -9.930  1.00  0.00    -0.200 F 
ATOM     70  C   UNL     1       8.623  12.695  -9.302  1.00  0.00     0.200 A 
ATOM     71  F   UNL     1      10.803  12.055  -8.656  1.00  0.00    -0.200 F 
ATOM     72  F   UNL     1       9.117  13.728  -9.998  1.00  0.00    -0.200 F 
ENDBRANCH  39  62
ENDBRANCH  13  14
ENDBRANCH   6   8
ENDBRANCH   3   4
ENDBRANCH   2   3
ENDBRANCH   1   2
BRANCH   1  73
ATOM     73  C   UNL     1       4.735  -3.227   2.878  1.00  0.00     0.002 C 
BRANCH  73  74
ATOM     74  C   UNL     1       6.260  -3.332   2.781  1.00  0.00     0.021 C 
BRANCH  74  75
ATOM     75  C   UNL     1       7.009  -2.972   4.061  1.00  0.00     0.116 C 
BRANCH  75  76
ATOM     76  N   UNL     1       6.684  -3.876   5.152  1.00  0.00    -0.352 N 
ATOM     77  C   UNL     1       7.529  -4.648   5.905  1.00  0.00     0.251 C 
ATOM     78  H   UNL     1       5.729  -3.942   5.380  1.00  0.00     0.163 HD
ATOM     79  O   UNL     1       7.084  -5.508   6.661  1.00  0.00    -0.269 OA
BRANCH  77  80
ATOM     80  C   UNL     1       8.988  -4.461   5.780  1.00  0.00     0.042 A 
ATOM     81  C   UNL     1       9.555  -3.187   5.936  1.00  0.00     0.016 A 
ATOM     82  C   UNL     1       9.772  -5.590   5.508  1.00  0.00     0.042 A 
ATOM     83  C   UNL     1      10.928  -2.993   5.748  1.00  0.00     0.031 A 
ATOM     84  C   UNL     1      11.138  -5.361   5.338  1.00  0.00     0.066 A 
ATOM     85  C   UNL     1      11.724  -4.104   5.437  1.00  0.00     0.089 A 
ATOM     86  N   UNL     1      12.184  -6.200   5.063  1.00  0.00    -0.342 N 
ATOM     87  N   UNL     1      13.073  -4.175   5.208  1.00  0.00    -0.233 NA
ATOM     88  C   UNL     1      13.334  -5.449   4.999  1.00  0.00     0.110 A 
ATOM     89  H   UNL     1      12.124  -7.174   4.933  1.00  0.00     0.168 HD
BRANCH  88  90
ATOM     90  C   UNL     1      14.689  -6.047   4.772  1.00  0.00     0.055 C 
ATOM     91  C   UNL     1      15.093  -6.935   5.959  1.00  0.00     0.011 C 
ATOM     92  C   UNL     1      14.759  -6.814   3.444  1.00  0.00     0.011 C 
ATOM     93  C   UNL     1      16.455  -7.585   5.741  1.00  0.00     0.001 C 
ATOM     94  C   UNL     1      16.125  -7.465   3.243  1.00  0.00     0.001 C 
ATOM     95  C   UNL     1      16.501  -8.355   4.424  1.00  0.00     0.000 C 
ENDBRANCH  88  90
ENDBRANCH  77  80
ENDBRANCH  75  76
ENDBRANCH  74  75
ENDBRANCH  73  74
ENDBRANCH   1  73
TORSDOF 14
