REMARK SMILES Cc1c(C[NH2+]C2CCCCC2)c(C(=O)NCCCCCCNC(=O)c2ccc(-c3c4nc(c(-c5c(F)c(F)c(F)c(F)c5F)c5ccc([nH]5)c(-c5c(F)c(F)c(F)c(F)c5F)c5nc(c(-c6c(F)c(F)c(F)c(F)c6F)c6ccc3[nH]6)C=C5)C=C4)cc2)c(C)n1Cc1ccccc1
REMARK SMILES IDX 18 1 17 2 16 3 15 4 13 5 14 6 12 8 1 9 2 10 3 11 90 12 88 13
REMARK SMILES IDX 89 14 4 15 5 16 6 19 7 20 11 21 8 22 10 23 9 24 91 25 92 26
REMARK SMILES IDX 93 27 97 28 94 29 96 30 95 31 19 32 20 33 21 34 22 35 23 36
REMARK SMILES IDX 24 38 25 39 26 40 87 41 27 42 86 43 28 44 29 45 30 46 80 47
REMARK SMILES IDX 31 48 85 49 79 50 81 51 32 52 84 53 78 54 77 55 33 57 65 58
REMARK SMILES IDX 45 59 64 60 46 61 49 62 63 63 82 64 47 65 48 66 62 68 83 69
REMARK SMILES IDX 50 70 34 71 35 72 43 73 36 74 37 75 41 76 44 77 38 78 39 79
REMARK SMILES IDX 42 80 40 81 66 82 67 83 75 84 68 85 69 86 73 87 76 88 70 89
REMARK SMILES IDX 71 90 74 91 72 92 51 93 52 94 60 95 53 96 54 97 58 98 61 99
REMARK SMILES IDX 55 100 56 101 59 102 57 103
REMARK H PARENT 15 7 5 17 5 18 22 37 81 56 49 67
REMARK Flexibility Score: inf
ROOT
ATOM      1  C   UNL     1       0.643   8.811  -3.003  1.00  0.00     0.002 C 
ENDROOT
BRANCH   1   2
ATOM      2  C   UNL     1       1.076   7.369  -2.744  1.00  0.00     0.021 C 
BRANCH   2   3
ATOM      3  C   UNL     1       0.210   6.535  -1.811  1.00  0.00     0.116 C 
BRANCH   3   4
ATOM      4  N   UNL     1      -0.879   5.821  -2.436  1.00  0.00    -0.352 N 
ATOM      5  C   UNL     1      -1.259   4.508  -2.297  1.00  0.00     0.253 C 
ATOM      6  O   UNL     1      -2.205   4.149  -3.039  1.00  0.00    -0.269 OA
ATOM      7  H   UNL     1      -1.431   6.353  -3.054  1.00  0.00     0.163 HD
BRANCH   5   8
ATOM      8  C   UNL     1      -0.534   3.556  -1.437  1.00  0.00     0.069 A 
ATOM      9  C   UNL     1       0.872   0.224  -0.398  1.00  0.00     0.065 C 
ATOM     10  C   UNL     1       0.451   1.624  -0.695  1.00  0.00     0.025 A 
ATOM     11  C   UNL     1      -0.519   2.108  -1.575  1.00  0.00     0.040 A 
ATOM     12  N   UNL     1       1.022   2.723  -0.073  1.00  0.00    -0.343 N 
ATOM     13  C   UNL     1       0.138   3.780  -0.226  1.00  0.00     0.028 A 
ATOM     14  C   UNL     1       0.002   4.860   0.794  1.00  0.00     0.065 C 
BRANCH  11  15
ATOM     15  C   UNL     1      -1.378   1.286  -2.515  1.00  0.00     0.300 C 
BRANCH  15  16
ATOM     16  N   UNL     1      -2.771   1.306  -2.056  1.00  0.00    -0.340 N 
ATOM     17  H   UNL     1      -3.095   2.273  -2.047  1.00  0.00     0.346 HD
ATOM     18  H   UNL     1      -2.788   0.886  -1.127  1.00  0.00     0.346 HD
BRANCH  16  19
ATOM     19  C   UNL     1      -3.675   0.519  -2.906  1.00  0.00     0.182 C 
ATOM     20  C   UNL     1      -3.598  -0.984  -2.582  1.00  0.00     0.065 C 
ATOM     21  C   UNL     1      -5.119   1.027  -2.720  1.00  0.00     0.065 C 
ATOM     22  C   UNL     1      -4.613  -1.800  -3.383  1.00  0.00     0.006 C 
ATOM     23  C   UNL     1      -6.130   0.201  -3.520  1.00  0.00     0.006 C 
ATOM     24  C   UNL     1      -6.034  -1.284  -3.187  1.00  0.00     0.000 C 
ENDBRANCH  16  19
ENDBRANCH  15  16
ENDBRANCH  11  15
BRANCH  12  25
ATOM     25  C   UNL     1       2.205   2.706   0.803  1.00  0.00     0.157 C 
BRANCH  25  26
ATOM     26  C   UNL     1       3.468   3.314   0.207  1.00  0.00    -0.028 A 
ATOM     27  C   UNL     1       4.656   2.564   0.154  1.00  0.00     0.005 A 
ATOM     28  C   UNL     1       3.542   4.662  -0.180  1.00  0.00     0.005 A 
ATOM     29  C   UNL     1       5.862   3.143  -0.265  1.00  0.00     0.000 A 
ATOM     30  C   UNL     1       4.743   5.241  -0.603  1.00  0.00     0.000 A 
ATOM     31  C   UNL     1       5.907   4.482  -0.641  1.00  0.00     0.000 A 
ENDBRANCH  25  26
ENDBRANCH  12  25
ENDBRANCH   5   8
ENDBRANCH   3   4
ENDBRANCH   2   3
ENDBRANCH   1   2
BRANCH   1  32
ATOM     32  C   UNL     1       0.514   9.759  -1.801  1.00  0.00     0.002 C 
BRANCH  32  33
ATOM     33  C   UNL     1       1.580   9.737  -0.682  1.00  0.00     0.021 C 
BRANCH  33  34
ATOM     34  C   UNL     1       3.074   9.576  -1.039  1.00  0.00     0.116 C 
BRANCH  34  35
ATOM     35  N   UNL     1       3.851  10.798  -1.057  1.00  0.00    -0.352 N 
ATOM     36  C   UNL     1       5.222  10.955  -0.913  1.00  0.00     0.251 C 
ATOM     37  H   UNL     1       3.338  11.628  -1.189  1.00  0.00     0.163 HD
ATOM     38  O   UNL     1       5.701  12.075  -1.096  1.00  0.00    -0.269 OA
BRANCH  36  39
ATOM     39  C   UNL     1       6.141   9.842  -0.461  1.00  0.00     0.039 A 
ATOM     40  C   UNL     1       6.446   9.749   0.891  1.00  0.00     0.014 A 
ATOM     41  C   UNL     1       6.952   9.089  -1.331  1.00  0.00     0.014 A 
ATOM     42  C   UNL     1       7.494   8.893   1.354  1.00  0.00     0.010 A 
ATOM     43  C   UNL     1       8.067   8.273  -0.859  1.00  0.00     0.010 A 
ATOM     44  C   UNL     1       8.396   8.154   0.509  1.00  0.00    -0.014 A 
BRANCH  44  45
ATOM     45  C   UNL     1       9.864   7.892   1.113  1.00  0.00     0.031 A 
ATOM     46  C   UNL     1      10.241   9.252   1.601  1.00  0.00     0.074 A 
ATOM     47  C   UNL     1      10.868   6.930   1.250  1.00  0.00     0.049 A 
ATOM     48  N   UNL     1      10.238  10.271   0.785  1.00  0.00    -0.248 NA
ATOM     49  C   UNL     1      10.229   9.603   3.022  1.00  0.00     0.031 C 
ATOM     50  C   UNL     1      10.889   5.557   0.720  1.00  0.00     0.029 A 
ATOM     51  N   UNL     1      12.139   6.943   1.921  1.00  0.00    -0.354 N 
ATOM     52  C   UNL     1      10.545  11.365   1.554  1.00  0.00     0.074 A 
ATOM     53  C   UNL     1      10.266  10.936   2.917  1.00  0.00     0.031 C 
ATOM     54  C   UNL     1      11.970   4.851   1.172  1.00  0.00     0.029 A 
ATOM     55  C   UNL     1      12.840   5.682   2.005  1.00  0.00     0.049 A 
ATOM     56  H   UNL     1      12.514   7.769   2.304  1.00  0.00     0.167 HD
ATOM     57  C   UNL     1      11.602  12.105   1.110  1.00  0.00     0.037 A 
ATOM     58  C   UNL     1      14.044   5.329   2.617  1.00  0.00     0.037 A 
ATOM     59  C   UNL     1      12.805  11.831   1.846  1.00  0.00     0.049 A 
ATOM     60  C   UNL     1      14.841   6.554   2.747  1.00  0.00     0.074 A 
ATOM     61  C   UNL     1      13.073  11.641   3.187  1.00  0.00     0.029 A 
ATOM     62  N   UNL     1      13.844  11.251   1.153  1.00  0.00    -0.354 N 
ATOM     63  N   UNL     1      15.489   7.050   1.739  1.00  0.00    -0.248 NA
ATOM     64  C   UNL     1      15.082   7.206   4.031  1.00  0.00     0.031 C 
ATOM     65  C   UNL     1      13.918  10.511   3.218  1.00  0.00     0.029 A 
ATOM     66  C   UNL     1      14.440  10.301   1.948  1.00  0.00     0.049 A 
ATOM     67  H   UNL     1      14.117  11.481   0.236  1.00  0.00     0.167 HD
ATOM     68  C   UNL     1      15.740   8.320   2.140  1.00  0.00     0.074 A 
ATOM     69  C   UNL     1      15.758   8.269   3.589  1.00  0.00     0.031 C 
ATOM     70  C   UNL     1      15.243   9.280   1.326  1.00  0.00     0.037 A 
BRANCH  57  71
ATOM     71  C   UNL     1      11.581  12.391  -0.364  1.00  0.00     0.064 A 
ATOM     72  C   UNL     1      11.374  13.702  -0.798  1.00  0.00     0.173 A 
ATOM     73  C   UNL     1      11.680  11.388  -1.352  1.00  0.00     0.173 A 
ATOM     74  F   UNL     1      11.357  14.709   0.089  1.00  0.00    -0.203 F 
ATOM     75  C   UNL     1      11.204  13.989  -2.152  1.00  0.00     0.198 A 
ATOM     76  C   UNL     1      11.439  11.665  -2.692  1.00  0.00     0.198 A 
ATOM     77  F   UNL     1      12.055  10.139  -1.031  1.00  0.00    -0.203 F 
ATOM     78  F   UNL     1      11.050  15.259  -2.551  1.00  0.00    -0.200 F 
ATOM     79  C   UNL     1      11.197  12.967  -3.092  1.00  0.00     0.200 A 
ATOM     80  F   UNL     1      11.463  10.673  -3.593  1.00  0.00    -0.200 F 
ATOM     81  F   UNL     1      10.995  13.241  -4.388  1.00  0.00    -0.200 F 
ENDBRANCH  57  71
BRANCH  58  82
ATOM     82  C   UNL     1      14.941   4.136   3.054  1.00  0.00     0.064 A 
ATOM     83  C   UNL     1      16.378   4.230   3.004  1.00  0.00     0.173 A 
ATOM     84  C   UNL     1      14.480   3.142   3.927  1.00  0.00     0.173 A 
ATOM     85  F   UNL     1      16.992   5.097   2.188  1.00  0.00    -0.203 F 
ATOM     86  C   UNL     1      17.244   3.505   3.840  1.00  0.00     0.198 A 
ATOM     87  C   UNL     1      15.361   2.376   4.737  1.00  0.00     0.198 A 
ATOM     88  F   UNL     1      13.164   2.959   4.093  1.00  0.00    -0.203 F 
ATOM     89  F   UNL     1      18.563   3.761   3.834  1.00  0.00    -0.200 F 
ATOM     90  C   UNL     1      16.732   2.586   4.723  1.00  0.00     0.200 A 
ATOM     91  F   UNL     1      14.863   1.477   5.599  1.00  0.00    -0.200 F 
ATOM     92  F   UNL     1      17.544   1.935   5.571  1.00  0.00    -0.200 F 
ENDBRANCH  58  82
BRANCH  70  93
ATOM     93  C   UNL     1      15.414   9.067  -0.170  1.00  0.00     0.064 A 
ATOM     94  C   UNL     1      15.064   7.916  -0.920  1.00  0.00     0.173 A 
ATOM     95  C   UNL     1      16.058  10.087  -0.883  1.00  0.00     0.173 A 
ATOM     96  F   UNL     1      14.343   6.914  -0.398  1.00  0.00    -0.203 F 
ATOM     97  C   UNL     1      15.425   7.773  -2.263  1.00  0.00     0.198 A 
ATOM     98  C   UNL     1      16.364   9.966  -2.238  1.00  0.00     0.198 A 
ATOM     99  F   UNL     1      16.377  11.234  -0.263  1.00  0.00    -0.203 F 
ATOM    100  F   UNL     1      15.138   6.639  -2.921  1.00  0.00    -0.200 F 
ATOM    101  C   UNL     1      16.073   8.800  -2.922  1.00  0.00     0.200 A 
ATOM    102  F   UNL     1      16.941  10.992  -2.878  1.00  0.00    -0.200 F 
ATOM    103  F   UNL     1      16.398   8.677  -4.216  1.00  0.00    -0.200 F 
ENDBRANCH  70  93
ENDBRANCH  44  45
ENDBRANCH  36  39
ENDBRANCH  34  35
ENDBRANCH  33  34
ENDBRANCH  32  33
ENDBRANCH   1  32
TORSDOF 18
