REMARK SMILES O=C(NCCCCCCNC(=O)c1ccc(-c2c3nc(c(-c4c(F)c(F)c(F)c(F)c4F)c4ccc([nH]4)c(-c4c(F)c(F)c(F)c(F)c4F)c4nc(c(-c5c(F)c(F)c(F)c(F)c5F)c5ccc2[nH]5)C=C4)C=C3)cc1)C1=Cc2cc(Cl)cc(-c3ccc(Cl)cc3)c2O[C@@H]1C(F)(F)F
REMARK SMILES IDX 7 1 6 2 5 3 4 4 3 5 1 6 2 7 76 9 77 10 93 11 78 12 92 13
REMARK SMILES IDX 79 14 91 15 80 16 83 17 81 18 82 19 94 20 95 21 96 22 97 23
REMARK SMILES IDX 84 24 85 25 90 26 86 27 89 28 87 29 88 30 8 31 9 32 10 33
REMARK SMILES IDX 11 34 12 36 13 37 14 38 75 39 15 40 74 41 16 42 17 43 18 44
REMARK SMILES IDX 68 45 19 46 73 47 67 48 69 49 20 50 72 51 66 52 65 53 21 55
REMARK SMILES IDX 53 56 33 57 52 58 34 59 37 60 51 61 70 62 35 63 36 64 50 66
REMARK SMILES IDX 71 67 38 68 22 69 23 70 31 71 24 72 25 73 29 74 32 75 26 76
REMARK SMILES IDX 27 77 30 78 28 79 54 80 55 81 63 82 56 83 57 84 61 85 64 86
REMARK SMILES IDX 58 87 59 88 62 89 60 90 39 91 40 92 48 93 41 94 42 95 46 96
REMARK SMILES IDX 49 97 43 98 44 99 47 100 45 101
REMARK H PARENT 3 8 10 35 69 54 37 65
REMARK Flexibility Score: inf
ROOT
ATOM      1  C   UNL     1       4.483   3.302   3.442  1.00  0.00     0.002 C 
ENDROOT
BRANCH   1   2
ATOM      2  C   UNL     1       3.873   3.988   2.213  1.00  0.00     0.002 C 
BRANCH   2   3
ATOM      3  C   UNL     1       4.297   3.457   0.843  1.00  0.00     0.021 C 
BRANCH   3   4
ATOM      4  C   UNL     1       4.085   1.966   0.589  1.00  0.00     0.116 C 
BRANCH   4   5
ATOM      5  N   UNL     1       2.768   1.606   0.092  1.00  0.00    -0.352 N 
ATOM      6  O   UNL     1       1.142   0.308  -0.745  1.00  0.00    -0.270 OA
ATOM      7  C   UNL     1       2.341   0.454  -0.511  1.00  0.00     0.251 C 
ATOM      8  H   UNL     1       2.077   2.297   0.207  1.00  0.00     0.163 HD
BRANCH   7   9
ATOM      9  C   UNL     1       3.260  -0.684  -0.822  1.00  0.00     0.067 C 
ATOM     10  C   UNL     1       4.526  -0.491  -1.227  1.00  0.00     0.025 C 
ATOM     11  C   UNL     1       2.967  -1.897   0.032  1.00  0.00     0.314 C 
ATOM     12  C   UNL     1       5.516  -0.824  -0.172  1.00  0.00     0.019 A 
ATOM     13  O   UNL     1       3.821  -1.907   1.206  1.00  0.00    -0.475 OA
ATOM     14  C   UNL     1       6.803  -0.295  -0.302  1.00  0.00     0.032 A 
ATOM     15  C   UNL     1       5.086  -1.381   1.053  1.00  0.00     0.135 A 
ATOM     16  C   UNL     1       7.633  -0.250   0.809  1.00  0.00     0.042 A 
ATOM     17  C   UNL     1       5.899  -1.275   2.198  1.00  0.00     0.026 A 
ATOM     18  Cl  UNL     1       9.158   0.538   0.700  1.00  0.00    -0.084 Cl
ATOM     19  C   UNL     1       7.187  -0.721   2.044  1.00  0.00     0.033 A 
BRANCH  11  20
ATOM     20  C   UNL     1       3.052  -3.207  -0.775  1.00  0.00     0.429 C 
ATOM     21  F   UNL     1       2.669  -4.272  -0.033  1.00  0.00    -0.167 F 
ATOM     22  F   UNL     1       2.245  -3.172  -1.863  1.00  0.00    -0.167 F 
ATOM     23  F   UNL     1       4.305  -3.463  -1.223  1.00  0.00    -0.167 F 
ENDBRANCH  11  20
BRANCH  17  24
ATOM     24  C   UNL     1       5.387  -1.512   3.564  1.00  0.00    -0.015 A 
ATOM     25  C   UNL     1       5.367  -0.443   4.480  1.00  0.00     0.010 A 
ATOM     26  C   UNL     1       4.899  -2.748   4.002  1.00  0.00     0.010 A 
ATOM     27  C   UNL     1       4.898  -0.588   5.785  1.00  0.00     0.021 A 
ATOM     28  C   UNL     1       4.430  -2.906   5.316  1.00  0.00     0.021 A 
ATOM     29  C   UNL     1       4.436  -1.828   6.200  1.00  0.00     0.041 A 
ATOM     30  Cl  UNL     1       3.875  -2.026   7.813  1.00  0.00    -0.084 Cl
ENDBRANCH  17  24
ENDBRANCH   7   9
ENDBRANCH   4   5
ENDBRANCH   3   4
ENDBRANCH   2   3
ENDBRANCH   1   2
BRANCH   1  31
ATOM     31  C   UNL     1       6.001   3.099   3.437  1.00  0.00     0.021 C 
BRANCH  31  32
ATOM     32  C   UNL     1       6.852   4.357   3.336  1.00  0.00     0.116 C 
BRANCH  32  33
ATOM     33  N   UNL     1       6.728   5.195   4.516  1.00  0.00    -0.352 N 
ATOM     34  C   UNL     1       7.660   5.585   5.447  1.00  0.00     0.251 C 
ATOM     35  H   UNL     1       5.822   5.543   4.676  1.00  0.00     0.163 HD
ATOM     36  O   UNL     1       7.279   6.124   6.482  1.00  0.00    -0.269 OA
BRANCH  34  37
ATOM     37  C   UNL     1       9.114   5.366   5.237  1.00  0.00     0.039 A 
ATOM     38  C   UNL     1       9.921   5.115   6.354  1.00  0.00     0.014 A 
ATOM     39  C   UNL     1       9.706   5.474   3.978  1.00  0.00     0.014 A 
ATOM     40  C   UNL     1      11.300   4.934   6.202  1.00  0.00     0.010 A 
ATOM     41  C   UNL     1      11.064   5.203   3.813  1.00  0.00     0.010 A 
ATOM     42  C   UNL     1      11.882   4.952   4.925  1.00  0.00    -0.014 A 
BRANCH  42  43
ATOM     43  C   UNL     1      13.342   4.750   4.732  1.00  0.00     0.031 A 
ATOM     44  C   UNL     1      14.183   5.850   4.138  1.00  0.00     0.074 A 
ATOM     45  C   UNL     1      13.902   3.561   5.027  1.00  0.00     0.049 A 
ATOM     46  N   UNL     1      15.450   5.840   3.805  1.00  0.00    -0.248 NA
ATOM     47  C   UNL     1      13.501   7.122   3.851  1.00  0.00     0.031 C 
ATOM     48  C   UNL     1      13.191   2.401   5.568  1.00  0.00     0.029 A 
ATOM     49  N   UNL     1      15.199   3.125   4.904  1.00  0.00    -0.354 N 
ATOM     50  C   UNL     1      15.704   7.085   3.243  1.00  0.00     0.074 A 
ATOM     51  C   UNL     1      14.452   7.810   3.237  1.00  0.00     0.031 C 
ATOM     52  C   UNL     1      14.062   1.397   5.754  1.00  0.00     0.029 A 
ATOM     53  C   UNL     1      15.385   1.825   5.309  1.00  0.00     0.049 A 
ATOM     54  H   UNL     1      15.926   3.691   4.559  1.00  0.00     0.167 HD
ATOM     55  C   UNL     1      16.878   7.587   2.792  1.00  0.00     0.037 A 
ATOM     56  C   UNL     1      16.496   1.065   5.313  1.00  0.00     0.037 A 
ATOM     57  C   UNL     1      18.132   6.883   2.848  1.00  0.00     0.049 A 
ATOM     58  C   UNL     1      17.791   1.652   4.819  1.00  0.00     0.074 A 
ATOM     59  C   UNL     1      19.392   7.335   2.497  1.00  0.00     0.029 A 
ATOM     60  N   UNL     1      18.283   5.576   3.287  1.00  0.00    -0.354 N 
ATOM     61  N   UNL     1      18.031   2.855   4.356  1.00  0.00    -0.248 NA
ATOM     62  C   UNL     1      18.970   0.776   4.851  1.00  0.00     0.031 C 
ATOM     63  C   UNL     1      20.300   6.287   2.681  1.00  0.00     0.029 A 
ATOM     64  C   UNL     1      19.613   5.198   3.193  1.00  0.00     0.049 A 
ATOM     65  H   UNL     1      17.554   5.002   3.616  1.00  0.00     0.167 HD
ATOM     66  C   UNL     1      19.390   2.890   4.075  1.00  0.00     0.074 A 
ATOM     67  C   UNL     1      19.925   1.593   4.430  1.00  0.00     0.031 C 
ATOM     68  C   UNL     1      20.130   3.907   3.567  1.00  0.00     0.037 A 
BRANCH  55  69
ATOM     69  C   UNL     1      16.870   8.968   2.201  1.00  0.00     0.064 A 
ATOM     70  C   UNL     1      16.672  10.110   2.993  1.00  0.00     0.173 A 
ATOM     71  C   UNL     1      17.107   9.155   0.831  1.00  0.00     0.173 A 
ATOM     72  F   UNL     1      16.431   9.986   4.307  1.00  0.00    -0.203 F 
ATOM     73  C   UNL     1      16.685  11.384   2.431  1.00  0.00     0.198 A 
ATOM     74  C   UNL     1      17.149  10.432   0.277  1.00  0.00     0.198 A 
ATOM     75  F   UNL     1      17.308   8.099   0.029  1.00  0.00    -0.203 F 
ATOM     76  F   UNL     1      16.446  12.456   3.199  1.00  0.00    -0.200 F 
ATOM     77  C   UNL     1      16.931  11.544   1.076  1.00  0.00     0.200 A 
ATOM     78  F   UNL     1      17.400  10.587  -1.030  1.00  0.00    -0.200 F 
ATOM     79  F   UNL     1      16.951  12.772   0.538  1.00  0.00    -0.200 F 
ENDBRANCH  55  69
BRANCH  56  80
ATOM     80  C   UNL     1      16.445  -0.329   5.830  1.00  0.00     0.064 A 
ATOM     81  C   UNL     1      17.087  -0.672   7.028  1.00  0.00     0.173 A 
ATOM     82  C   UNL     1      15.771  -1.344   5.138  1.00  0.00     0.173 A 
ATOM     83  F   UNL     1      17.764   0.260   7.715  1.00  0.00    -0.203 F 
ATOM     84  C   UNL     1      17.078  -1.982   7.501  1.00  0.00     0.198 A 
ATOM     85  C   UNL     1      15.737  -2.649   5.627  1.00  0.00     0.198 A 
ATOM     86  F   UNL     1      15.136  -1.068   3.989  1.00  0.00    -0.203 F 
ATOM     87  F   UNL     1      17.743  -2.292   8.623  1.00  0.00    -0.200 F 
ATOM     88  C   UNL     1      16.398  -2.969   6.803  1.00  0.00     0.200 A 
ATOM     89  F   UNL     1      15.068  -3.597   4.956  1.00  0.00    -0.200 F 
ATOM     90  F   UNL     1      16.389  -4.229   7.259  1.00  0.00    -0.200 F 
ENDBRANCH  56  80
BRANCH  68  91
ATOM     91  C   UNL     1      21.603   3.672   3.406  1.00  0.00     0.064 A 
ATOM     92  C   UNL     1      22.109   2.829   2.405  1.00  0.00     0.173 A 
ATOM     93  C   UNL     1      22.520   4.332   4.237  1.00  0.00     0.173 A 
ATOM     94  F   UNL     1      21.272   2.164   1.595  1.00  0.00    -0.203 F 
ATOM     95  C   UNL     1      23.480   2.637   2.260  1.00  0.00     0.198 A 
ATOM     96  C   UNL     1      23.891   4.161   4.070  1.00  0.00     0.198 A 
ATOM     97  F   UNL     1      22.087   5.154   5.205  1.00  0.00    -0.203 F 
ATOM     98  F   UNL     1      23.941   1.791   1.328  1.00  0.00    -0.200 F 
ATOM     99  C   UNL     1      24.370   3.308   3.087  1.00  0.00     0.200 A 
ATOM    100  F   UNL     1      24.749   4.821   4.860  1.00  0.00    -0.200 F 
ATOM    101  F   UNL     1      25.689   3.127   2.939  1.00  0.00    -0.200 F 
ENDBRANCH  68  91
ENDBRANCH  42  43
ENDBRANCH  34  37
ENDBRANCH  32  33
ENDBRANCH  31  32
ENDBRANCH   1  31
TORSDOF 15
