REMARK SMILES O=C(COc1cc(-c2ccccc2)nc(Nc2ccccc2Br)n1)NCCCCCCNC(=O)c1ccc(-c2c3nc(c(-c4c(F)c(F)c(F)c(F)c4F)c4ccc([nH]4)c(-c4c(F)c(F)c(F)c(F)c4F)c4nc(c(-c5c(F)c(F)c(F)c(F)c5F)c5ccc2[nH]5)C=C4)C=C3)cc1
REMARK SMILES IDX 27 1 26 2 25 3 1 4 2 5 3 7 4 8 5 9 6 10 24 11 7 12 15 13
REMARK SMILES IDX 14 14 8 15 9 16 13 17 10 18 12 19 11 20 16 21 17 23 18 24
REMARK SMILES IDX 22 25 19 26 21 27 23 28 20 29 28 30 29 31 30 32 31 33 32 34
REMARK SMILES IDX 33 35 34 37 35 38 36 39 97 40 37 41 96 42 38 43 39 44 40 45
REMARK SMILES IDX 90 46 41 47 95 48 89 49 91 50 42 51 94 52 88 53 87 54 43 56
REMARK SMILES IDX 75 57 55 58 74 59 56 60 59 61 73 62 92 63 57 64 58 65 72 67
REMARK SMILES IDX 93 68 60 69 44 70 45 71 53 72 46 73 47 74 51 75 54 76 48 77
REMARK SMILES IDX 49 78 52 79 50 80 76 81 77 82 85 83 78 84 79 85 83 86 86 87
REMARK SMILES IDX 80 88 81 89 84 90 82 91 61 92 62 93 70 94 63 95 64 96 68 97
REMARK SMILES IDX 71 98 65 99 66 100 69 101 67 102
REMARK H PARENT 25 6 16 22 32 36 91 55 59 66
REMARK Flexibility Score: inf
ROOT
ATOM      1  C   UNL     1       2.704   1.642   3.111  1.00  0.00     0.021 C 
ENDROOT
BRANCH   1   2
ATOM      2  C   UNL     1       2.108   1.666   1.708  1.00  0.00     0.116 C 
BRANCH   2   3
ATOM      3  N   UNL     1       2.774   0.749   0.809  1.00  0.00    -0.353 N 
ATOM      4  O   UNL     1       1.051  -0.762   0.612  1.00  0.00    -0.271 OA
ATOM      5  C   UNL     1       2.157  -0.362   0.267  1.00  0.00     0.258 C 
ATOM      6  H   UNL     1       3.713   0.925   0.572  1.00  0.00     0.163 HD
BRANCH   5   7
ATOM      7  C   UNL     1       2.983  -1.043  -0.829  1.00  0.00     0.331 C 
BRANCH   7   8
ATOM      8  O   UNL     1       3.813  -0.117  -1.536  1.00  0.00    -0.467 OA
BRANCH   8   9
ATOM      9  C   UNL     1       3.136   0.440  -2.594  1.00  0.00     0.219 A 
ATOM     10  C   UNL     1       2.211   1.427  -2.385  1.00  0.00     0.097 A 
ATOM     11  N   UNL     1       3.516   0.027  -3.804  1.00  0.00    -0.177 NA
ATOM     12  C   UNL     1       1.627   1.954  -3.512  1.00  0.00     0.080 A 
ATOM     13  C   UNL     1       2.905   0.591  -4.857  1.00  0.00     0.231 A 
ATOM     14  N   UNL     1       1.965   1.547  -4.752  1.00  0.00    -0.212 NA
BRANCH  12  15
ATOM     15  C   UNL     1       0.578   2.975  -3.396  1.00  0.00     0.000 A 
ATOM     16  C   UNL     1      -0.676   2.791  -3.999  1.00  0.00     0.010 A 
ATOM     17  C   UNL     1       0.770   4.127  -2.610  1.00  0.00     0.010 A 
ATOM     18  C   UNL     1      -1.711   3.708  -3.796  1.00  0.00     0.001 A 
ATOM     19  C   UNL     1      -0.262   5.047  -2.412  1.00  0.00     0.001 A 
ATOM     20  C   UNL     1      -1.505   4.831  -2.999  1.00  0.00     0.000 A 
ENDBRANCH  12  15
BRANCH  13  21
ATOM     21  N   UNL     1       3.285   0.253  -6.152  1.00  0.00    -0.323 N 
ATOM     22  H   UNL     1       2.848   0.770  -6.867  1.00  0.00     0.170 HD
BRANCH  21  23
ATOM     23  C   UNL     1       4.198  -0.716  -6.587  1.00  0.00     0.055 A 
ATOM     24  C   UNL     1       5.285  -0.289  -7.369  1.00  0.00     0.027 A 
ATOM     25  C   UNL     1       4.132  -2.079  -6.240  1.00  0.00     0.041 A 
ATOM     26  C   UNL     1       6.280  -1.181  -7.781  1.00  0.00     0.002 A 
ATOM     27  C   UNL     1       5.127  -2.973  -6.657  1.00  0.00     0.018 A 
ATOM     28  Br  UNL     1       2.642  -2.832  -5.322  1.00  0.00    -0.049 Br
ATOM     29  C   UNL     1       6.203  -2.523  -7.421  1.00  0.00     0.001 A 
ENDBRANCH  21  23
ENDBRANCH  13  21
ENDBRANCH   8   9
ENDBRANCH   7   8
ENDBRANCH   5   7
ENDBRANCH   2   3
ENDBRANCH   1   2
BRANCH   1  30
ATOM     30  C   UNL     1       4.200   1.973   3.181  1.00  0.00     0.002 C 
BRANCH  30  31
ATOM     31  C   UNL     1       4.611   3.331   2.603  1.00  0.00     0.002 C 
BRANCH  31  32
ATOM     32  C   UNL     1       3.921   4.551   3.217  1.00  0.00     0.021 C 
BRANCH  32  33
ATOM     33  C   UNL     1       4.041   4.685   4.733  1.00  0.00     0.116 C 
BRANCH  33  34
ATOM     34  N   UNL     1       5.418   4.803   5.184  1.00  0.00    -0.352 N 
ATOM     35  C   UNL     1       5.977   5.672   6.086  1.00  0.00     0.251 C 
ATOM     36  H   UNL     1       6.045   4.160   4.782  1.00  0.00     0.163 HD
ATOM     37  O   UNL     1       7.199   5.691   6.239  1.00  0.00    -0.269 OA
BRANCH  35  38
ATOM     38  C   UNL     1       5.134   6.615   6.855  1.00  0.00     0.039 A 
ATOM     39  C   UNL     1       5.580   7.932   7.011  1.00  0.00     0.014 A 
ATOM     40  C   UNL     1       3.928   6.216   7.439  1.00  0.00     0.014 A 
ATOM     41  C   UNL     1       4.788   8.860   7.692  1.00  0.00     0.010 A 
ATOM     42  C   UNL     1       3.109   7.157   8.061  1.00  0.00     0.010 A 
ATOM     43  C   UNL     1       3.529   8.489   8.191  1.00  0.00    -0.014 A 
BRANCH  43  44
ATOM     44  C   UNL     1       2.637   9.498   8.819  1.00  0.00     0.031 A 
ATOM     45  C   UNL     1       2.283   9.415  10.276  1.00  0.00     0.074 A 
ATOM     46  C   UNL     1       2.105  10.472   8.054  1.00  0.00     0.049 A 
ATOM     47  N   UNL     1       1.525  10.211  10.990  1.00  0.00    -0.248 NA
ATOM     48  C   UNL     1       2.829   8.275  11.026  1.00  0.00     0.031 C 
ATOM     49  C   UNL     1       2.323  10.628   6.615  1.00  0.00     0.029 A 
ATOM     50  N   UNL     1       1.273  11.514   8.380  1.00  0.00    -0.354 N 
ATOM     51  C   UNL     1       1.495   9.662  12.265  1.00  0.00     0.074 A 
ATOM     52  C   UNL     1       2.270   8.441  12.216  1.00  0.00     0.031 C 
ATOM     53  C   UNL     1       1.672  11.722   6.189  1.00  0.00     0.029 A 
ATOM     54  C   UNL     1       0.969  12.327   7.315  1.00  0.00     0.049 A 
ATOM     55  H   UNL     1       0.927  11.664   9.289  1.00  0.00     0.167 HD
ATOM     56  C   UNL     1       0.894  10.145  13.380  1.00  0.00     0.037 A 
ATOM     57  C   UNL     1       0.213  13.439   7.255  1.00  0.00     0.037 A 
ATOM     58  C   UNL     1       0.145  11.374  13.433  1.00  0.00     0.049 A 
ATOM     59  C   UNL     1      -0.434  13.959   8.509  1.00  0.00     0.074 A 
ATOM     60  C   UNL     1      -0.427  11.991  14.533  1.00  0.00     0.029 A 
ATOM     61  N   UNL     1      -0.144  12.171  12.335  1.00  0.00    -0.354 N 
ATOM     62  N   UNL     1      -0.380  13.482   9.728  1.00  0.00    -0.248 NA
ATOM     63  C   UNL     1      -1.243  15.178   8.376  1.00  0.00     0.031 C 
ATOM     64  C   UNL     1      -1.102  13.135  14.093  1.00  0.00     0.029 A 
ATOM     65  C   UNL     1      -0.912  13.258  12.726  1.00  0.00     0.049 A 
ATOM     66  H   UNL     1       0.153  11.992  11.414  1.00  0.00     0.167 HD
ATOM     67  C   UNL     1      -1.127  14.350  10.511  1.00  0.00     0.074 A 
ATOM     68  C   UNL     1      -1.608  15.396   9.631  1.00  0.00     0.031 C 
ATOM     69  C   UNL     1      -1.393  14.286  11.839  1.00  0.00     0.037 A 
BRANCH  56  70
ATOM     70  C   UNL     1       1.022   9.337  14.639  1.00  0.00     0.064 A 
ATOM     71  C   UNL     1       2.242   9.224  15.323  1.00  0.00     0.173 A 
ATOM     72  C   UNL     1      -0.097   8.690  15.186  1.00  0.00     0.173 A 
ATOM     73  F   UNL     1       3.345   9.815  14.837  1.00  0.00    -0.203 F 
ATOM     74  C   UNL     1       2.345   8.466  16.487  1.00  0.00     0.198 A 
ATOM     75  C   UNL     1       0.003   7.958  16.366  1.00  0.00     0.198 A 
ATOM     76  F   UNL     1      -1.290   8.771  14.578  1.00  0.00    -0.203 F 
ATOM     77  F   UNL     1       3.533   8.330  17.092  1.00  0.00    -0.200 F 
ATOM     78  C   UNL     1       1.225   7.839  17.010  1.00  0.00     0.200 A 
ATOM     79  F   UNL     1      -1.083   7.362  16.878  1.00  0.00    -0.200 F 
ATOM     80  F   UNL     1       1.325   7.112  18.132  1.00  0.00    -0.200 F 
ENDBRANCH  56  70
BRANCH  57  81
ATOM     81  C   UNL     1       0.068  14.164   5.968  1.00  0.00     0.064 A 
ATOM     82  C   UNL     1       0.691  15.404   5.771  1.00  0.00     0.173 A 
ATOM     83  C   UNL     1      -0.683  13.634   4.909  1.00  0.00     0.173 A 
ATOM     84  F   UNL     1       1.402  15.960   6.764  1.00  0.00    -0.203 F 
ATOM     85  C   UNL     1       0.557  16.095   4.569  1.00  0.00     0.198 A 
ATOM     86  C   UNL     1      -0.795  14.313   3.698  1.00  0.00     0.198 A 
ATOM     87  F   UNL     1      -1.294  12.448   5.046  1.00  0.00    -0.203 F 
ATOM     88  F   UNL     1       1.132  17.296   4.421  1.00  0.00    -0.200 F 
ATOM     89  C   UNL     1      -0.181  15.546   3.531  1.00  0.00     0.200 A 
ATOM     90  F   UNL     1      -1.498  13.774   2.692  1.00  0.00    -0.200 F 
ATOM     91  F   UNL     1      -0.304  16.206   2.372  1.00  0.00    -0.200 F 
ENDBRANCH  57  81
BRANCH  69  92
ATOM     92  C   UNL     1      -2.231  15.388  12.420  1.00  0.00     0.064 A 
ATOM     93  C   UNL     1      -3.603  15.489  12.146  1.00  0.00     0.173 A 
ATOM     94  C   UNL     1      -1.658  16.348  13.268  1.00  0.00     0.173 A 
ATOM     95  F   UNL     1      -4.194  14.607  11.326  1.00  0.00    -0.203 F 
ATOM     96  C   UNL     1      -4.364  16.528  12.674  1.00  0.00     0.198 A 
ATOM     97  C   UNL     1      -2.429  17.368  13.819  1.00  0.00     0.198 A 
ATOM     98  F   UNL     1      -0.351  16.294  13.566  1.00  0.00    -0.203 F 
ATOM     99  F   UNL     1      -5.661  16.636  12.353  1.00  0.00    -0.200 F 
ATOM    100  C   UNL     1      -3.778  17.463  13.514  1.00  0.00     0.200 A 
ATOM    101  F   UNL     1      -1.863  18.265  14.639  1.00  0.00    -0.200 F 
ATOM    102  F   UNL     1      -4.512  18.464  14.021  1.00  0.00    -0.200 F 
ENDBRANCH  69  92
ENDBRANCH  43  44
ENDBRANCH  35  38
ENDBRANCH  33  34
ENDBRANCH  32  33
ENDBRANCH  31  32
ENDBRANCH  30  31
ENDBRANCH   1  30
TORSDOF 18
