REMARK SMILES CCc1ccc(S(=O)(=O)CC(=O)NCCCCCCNC(=O)c2ccc(-c3c4nc(c(-c5c(F)c(F)c(F)c(F)c5F)c5ccc([nH]5)c(-c5c(F)c(F)c(F)c(F)c5F)c5nc(c(-c6c(F)c(F)c(F)c(F)c6F)c6ccc3[nH]6)C=C5)C=C4)cc2)cc1
REMARK SMILES IDX 16 1 15 2 14 3 13 4 11 5 12 6 10 8 7 9 8 10 9 11 6 12 3 13
REMARK SMILES IDX 4 14 87 15 5 16 86 17 2 18 1 19 17 20 18 21 19 22 20 23
REMARK SMILES IDX 21 24 22 26 23 27 24 28 85 29 25 30 84 31 26 32 27 33 28 34
REMARK SMILES IDX 78 35 29 36 83 37 77 38 79 39 30 40 82 41 76 42 75 43 31 45
REMARK SMILES IDX 63 46 43 47 62 48 44 49 47 50 61 51 80 52 45 53 46 54 60 56
REMARK SMILES IDX 81 57 48 58 32 59 33 60 41 61 34 62 35 63 39 64 42 65 36 66
REMARK SMILES IDX 37 67 40 68 38 69 64 70 65 71 73 72 66 73 67 74 71 75 74 76
REMARK SMILES IDX 68 77 69 78 72 79 70 80 49 81 50 82 58 83 51 84 52 85 56 86
REMARK SMILES IDX 59 87 53 88 54 89 57 90 55 91
REMARK H PARENT 13 7 20 25 79 44 47 55
REMARK Flexibility Score: inf
ROOT
ATOM      1  C   UNL     1       6.645  -3.405   4.635  1.00  0.00     0.002 C 
ENDROOT
BRANCH   1   2
ATOM      2  C   UNL     1       5.347  -3.926   5.269  1.00  0.00     0.021 C 
BRANCH   2   3
ATOM      3  C   UNL     1       4.976  -3.229   6.579  1.00  0.00     0.116 C 
BRANCH   3   4
ATOM      4  N   UNL     1       4.561  -1.865   6.319  1.00  0.00    -0.355 N 
ATOM      5  C   UNL     1       3.320  -1.318   6.343  1.00  0.00     0.235 C 
ATOM      6  O   UNL     1       3.208  -0.153   5.952  1.00  0.00    -0.274 OA
ATOM      7  H   UNL     1       5.289  -1.242   6.090  1.00  0.00     0.163 HD
BRANCH   5   8
ATOM      8  C   UNL     1       2.155  -2.035   6.941  1.00  0.00     0.241 C 
BRANCH   8   9
ATOM      9  S   UNL     1       1.362  -3.204   5.902  1.00  0.00     0.187 S 
ATOM     10  O   UNL     1       0.012  -3.370   6.412  1.00  0.00    -0.223 OA
ATOM     11  O   UNL     1       2.227  -4.369   5.806  1.00  0.00    -0.223 OA
BRANCH   9  12
ATOM     12  C   UNL     1       1.171  -2.590   4.253  1.00  0.00     0.067 A 
ATOM     13  C   UNL     1       0.773  -1.742   1.602  1.00  0.00    -0.048 A 
ATOM     14  C   UNL     1       0.846  -3.108   1.912  1.00  0.00     0.005 A 
ATOM     15  C   UNL     1       0.893  -0.813   2.646  1.00  0.00     0.005 A 
ATOM     16  C   UNL     1       1.057  -3.532   3.224  1.00  0.00     0.020 A 
ATOM     17  C   UNL     1       1.078  -1.232   3.969  1.00  0.00     0.020 A 
BRANCH  13  18
ATOM     18  C   UNL     1       0.468  -1.340   0.176  1.00  0.00     0.032 C 
ATOM     19  C   UNL     1       0.931   0.048  -0.245  1.00  0.00     0.009 C 
ENDBRANCH  13  18
ENDBRANCH   9  12
ENDBRANCH   8   9
ENDBRANCH   5   8
ENDBRANCH   3   4
ENDBRANCH   2   3
ENDBRANCH   1   2
BRANCH   1  20
ATOM     20  C   UNL     1       7.892  -3.528   5.516  1.00  0.00     0.002 C 
BRANCH  20  21
ATOM     21  C   UNL     1       8.158  -4.931   6.066  1.00  0.00     0.021 C 
BRANCH  21  22
ATOM     22  C   UNL     1       8.319  -6.008   4.998  1.00  0.00     0.116 C 
BRANCH  22  23
ATOM     23  N   UNL     1       9.481  -5.769   4.157  1.00  0.00    -0.352 N 
ATOM     24  C   UNL     1      10.554  -6.582   3.898  1.00  0.00     0.251 C 
ATOM     25  H   UNL     1       9.500  -4.893   3.708  1.00  0.00     0.163 HD
ATOM     26  O   UNL     1      11.546  -6.131   3.333  1.00  0.00    -0.269 OA
BRANCH  24  27
ATOM     27  C   UNL     1      10.528  -8.002   4.311  1.00  0.00     0.039 A 
ATOM     28  C   UNL     1      11.678  -8.559   4.875  1.00  0.00     0.014 A 
ATOM     29  C   UNL     1       9.390  -8.791   4.118  1.00  0.00     0.014 A 
ATOM     30  C   UNL     1      11.671  -9.892   5.290  1.00  0.00     0.010 A 
ATOM     31  C   UNL     1       9.360 -10.097   4.600  1.00  0.00     0.010 A 
ATOM     32  C   UNL     1      10.503 -10.665   5.182  1.00  0.00    -0.014 A 
BRANCH  32  33
ATOM     33  C   UNL     1      10.471 -12.069   5.666  1.00  0.00     0.031 A 
ATOM     34  C   UNL     1      10.259 -13.201   4.698  1.00  0.00     0.074 A 
ATOM     35  C   UNL     1      10.591 -12.320   6.985  1.00  0.00     0.049 A 
ATOM     36  N   UNL     1      10.171 -14.486   4.934  1.00  0.00    -0.248 NA
ATOM     37  C   UNL     1      10.104 -12.843   3.279  1.00  0.00     0.031 C 
ATOM     38  C   UNL     1      10.752 -11.305   8.027  1.00  0.00     0.029 A 
ATOM     39  N   UNL     1      10.589 -13.507   7.676  1.00  0.00    -0.354 N 
ATOM     40  C   UNL     1       9.937 -15.083   3.702  1.00  0.00     0.074 A 
ATOM     41  C   UNL     1       9.847 -14.019   2.726  1.00  0.00     0.031 C 
ATOM     42  C   UNL     1      10.860 -11.912   9.220  1.00  0.00     0.029 A 
ATOM     43  C   UNL     1      10.736 -13.355   9.033  1.00  0.00     0.049 A 
ATOM     44  H   UNL     1      10.491 -14.384   7.239  1.00  0.00     0.167 HD
ATOM     45  C   UNL     1       9.832 -16.401   3.409  1.00  0.00     0.037 A 
ATOM     46  C   UNL     1      10.762 -14.275  10.016  1.00  0.00     0.037 A 
ATOM     47  C   UNL     1       9.953 -17.458   4.378  1.00  0.00     0.049 A 
ATOM     48  C   UNL     1      10.636 -15.733   9.658  1.00  0.00     0.074 A 
ATOM     49  C   UNL     1       9.931 -18.826   4.168  1.00  0.00     0.029 A 
ATOM     50  N   UNL     1      10.117 -17.265   5.742  1.00  0.00    -0.354 N 
ATOM     51  N   UNL     1      10.501 -16.288   8.478  1.00  0.00    -0.248 NA
ATOM     52  C   UNL     1      10.674 -16.693  10.770  1.00  0.00     0.031 C 
ATOM     53  C   UNL     1      10.026 -19.461   5.410  1.00  0.00     0.029 A 
ATOM     54  C   UNL     1      10.169 -18.490   6.388  1.00  0.00     0.049 A 
ATOM     55  H   UNL     1      10.185 -16.389   6.184  1.00  0.00     0.167 HD
ATOM     56  C   UNL     1      10.475 -17.658   8.702  1.00  0.00     0.074 A 
ATOM     57  C   UNL     1      10.624 -17.852  10.129  1.00  0.00     0.031 C 
ATOM     58  C   UNL     1      10.336 -18.667   7.807  1.00  0.00     0.037 A 
BRANCH  45  59
ATOM     59  C   UNL     1       9.579 -16.785   1.980  1.00  0.00     0.064 A 
ATOM     60  C   UNL     1      10.566 -16.642   0.993  1.00  0.00     0.173 A 
ATOM     61  C   UNL     1       8.359 -17.371   1.607  1.00  0.00     0.173 A 
ATOM     62  F   UNL     1      11.746 -16.079   1.295  1.00  0.00    -0.203 F 
ATOM     63  C   UNL     1      10.335 -17.053  -0.317  1.00  0.00     0.198 A 
ATOM     64  C   UNL     1       8.143 -17.808   0.303  1.00  0.00     0.198 A 
ATOM     65  F   UNL     1       7.384 -17.537   2.512  1.00  0.00    -0.203 F 
ATOM     66  F   UNL     1      11.279 -16.872  -1.251  1.00  0.00    -0.200 F 
ATOM     67  C   UNL     1       9.128 -17.645  -0.659  1.00  0.00     0.200 A 
ATOM     68  F   UNL     1       6.982 -18.395  -0.022  1.00  0.00    -0.200 F 
ATOM     69  F   UNL     1       8.914 -18.057  -1.916  1.00  0.00    -0.200 F 
ENDBRANCH  45  59
BRANCH  46  70
ATOM     70  C   UNL     1      10.928 -13.857  11.434  1.00  0.00     0.064 A 
ATOM     71  C   UNL     1      12.084 -14.191  12.154  1.00  0.00     0.173 A 
ATOM     72  C   UNL     1       9.923 -13.149  12.109  1.00  0.00     0.173 A 
ATOM     73  F   UNL     1      13.066 -14.886  11.560  1.00  0.00    -0.203 F 
ATOM     74  C   UNL     1      12.213 -13.866  13.503  1.00  0.00     0.198 A 
ATOM     75  C   UNL     1      10.068 -12.794  13.449  1.00  0.00     0.198 A 
ATOM     76  F   UNL     1       8.800 -12.798  11.466  1.00  0.00    -0.203 F 
ATOM     77  F   UNL     1      13.300 -14.255  14.183  1.00  0.00    -0.200 F 
ATOM     78  C   UNL     1      11.206 -13.164  14.148  1.00  0.00     0.200 A 
ATOM     79  F   UNL     1       9.099 -12.102  14.064  1.00  0.00    -0.200 F 
ATOM     80  F   UNL     1      11.327 -12.855  15.446  1.00  0.00    -0.200 F 
ENDBRANCH  46  70
BRANCH  58  81
ATOM     81  C   UNL     1      10.389 -20.071   8.335  1.00  0.00     0.064 A 
ATOM     82  C   UNL     1       9.349 -20.609   9.108  1.00  0.00     0.173 A 
ATOM     83  C   UNL     1      11.477 -20.902   8.029  1.00  0.00     0.173 A 
ATOM     84  F   UNL     1       8.293 -19.852   9.440  1.00  0.00    -0.203 F 
ATOM     85  C   UNL     1       9.411 -21.918   9.579  1.00  0.00     0.198 A 
ATOM     86  C   UNL     1      11.520 -22.221   8.473  1.00  0.00     0.198 A 
ATOM     87  F   UNL     1      12.495 -20.440   7.287  1.00  0.00    -0.203 F 
ATOM     88  F   UNL     1       8.431 -22.394  10.359  1.00  0.00    -0.200 F 
ATOM     89  C   UNL     1      10.492 -22.725   9.254  1.00  0.00     0.200 A 
ATOM     90  F   UNL     1      12.557 -23.003   8.145  1.00  0.00    -0.200 F 
ATOM     91  F   UNL     1      10.545 -23.987   9.701  1.00  0.00    -0.200 F 
ENDBRANCH  58  81
ENDBRANCH  32  33
ENDBRANCH  24  27
ENDBRANCH  22  23
ENDBRANCH  21  22
ENDBRANCH  20  21
ENDBRANCH   1  20
TORSDOF 16
