REMARK SMILES N#Cc1ccc(C(=O)NCCCCCCNC(=O)c2ccc(-c3c4nc(c(-c5c(F)c(F)c(F)c(F)c5F)c5ccc([nH]5)c(-c5c(F)c(F)c(F)c(F)c5F)c5nc(c(-c6c(F)c(F)c(F)c(F)c6F)c6ccc3[nH]6)C=C5)C=C4)cc2)nc1/C=C/c1ccc(O)c(Cl)c1
REMARK SMILES IDX 12 1 11 2 10 3 9 4 7 5 8 6 6 8 3 9 4 10 83 11 5 12 82 13
REMARK SMILES IDX 2 14 1 15 84 16 85 17 86 18 87 19 93 20 88 21 91 22 89 23
REMARK SMILES IDX 92 24 90 25 13 27 14 28 15 29 16 30 17 31 18 33 19 34 20 35
REMARK SMILES IDX 81 36 21 37 80 38 22 39 23 40 24 41 74 42 25 43 79 44 73 45
REMARK SMILES IDX 75 46 26 47 78 48 72 49 71 50 27 52 59 53 39 54 58 55 40 56
REMARK SMILES IDX 43 57 57 58 76 59 41 60 42 61 56 63 77 64 44 65 28 66 29 67
REMARK SMILES IDX 37 68 30 69 31 70 35 71 38 72 32 73 33 74 36 75 34 76 60 77
REMARK SMILES IDX 61 78 69 79 62 80 63 81 67 82 70 83 64 84 65 85 68 86 66 87
REMARK SMILES IDX 45 88 46 89 54 90 47 91 48 92 52 93 55 94 49 95 50 96 53 97
REMARK SMILES IDX 51 98
REMARK H PARENT 9 7 90 26 16 32 75 51 43 62
REMARK Flexibility Score: inf
ROOT
ATOM      1  C   UNL     1      -5.836   3.665  -1.439  1.00  0.00     0.002 C 
ENDROOT
BRANCH   1   2
ATOM      2  C   UNL     1      -4.354   3.329  -1.591  1.00  0.00     0.021 C 
BRANCH   2   3
ATOM      3  C   UNL     1      -3.694   2.685  -0.379  1.00  0.00     0.116 C 
BRANCH   3   4
ATOM      4  N   UNL     1      -4.107   1.315  -0.152  1.00  0.00    -0.351 N 
ATOM      5  C   UNL     1      -3.397   0.153   0.077  1.00  0.00     0.269 C 
ATOM      6  O   UNL     1      -4.055  -0.882   0.190  1.00  0.00    -0.268 OA
ATOM      7  H   UNL     1      -5.083   1.188  -0.162  1.00  0.00     0.163 HD
BRANCH   5   8
ATOM      8  C   UNL     1      -1.891   0.098   0.161  1.00  0.00     0.128 A 
ATOM      9  C   UNL     1       0.856  -0.159   0.076  1.00  0.00     0.078 A 
ATOM     10  C   UNL     1       0.285   1.073   0.388  1.00  0.00     0.024 A 
ATOM     11  C   UNL     1       0.007  -1.256  -0.076  1.00  0.00     0.082 A 
ATOM     12  C   UNL     1      -1.098   1.182   0.505  1.00  0.00     0.035 A 
ATOM     13  N   UNL     1      -1.345  -1.123  -0.090  1.00  0.00    -0.242 NA
BRANCH   9  14
ATOM     14  C   UNL     1       2.279  -0.257  -0.012  1.00  0.00     0.101 C 
ATOM     15  N   UNL     1       3.437  -0.319  -0.085  1.00  0.00    -0.192 NA
ENDBRANCH   9  14
BRANCH  11  16
ATOM     16  C   UNL     1       0.528  -2.636  -0.080  1.00  0.00     0.030 C 
ATOM     17  C   UNL     1      -0.223  -3.741   0.067  1.00  0.00     0.010 C 
BRANCH  17  18
ATOM     18  C   UNL     1       0.399  -5.058   0.259  1.00  0.00    -0.024 A 
ATOM     19  C   UNL     1      -0.046  -6.161  -0.478  1.00  0.00     0.012 A 
ATOM     20  C   UNL     1       1.420  -5.235   1.209  1.00  0.00     0.032 A 
ATOM     21  C   UNL     1       0.550  -7.414  -0.305  1.00  0.00     0.048 A 
ATOM     22  C   UNL     1       2.013  -6.484   1.378  1.00  0.00     0.083 A 
ATOM     23  C   UNL     1       1.582  -7.568   0.615  1.00  0.00     0.134 A 
ATOM     24  Cl  UNL     1       3.282  -6.672   2.531  1.00  0.00    -0.080 Cl
BRANCH  23  25
ATOM     25  O   UNL     1       2.145  -8.808   0.735  1.00  0.00    -0.506 OA
ATOM     26  H   UNL     1       1.834  -9.517   0.208  1.00  0.00     0.293 HD
ENDBRANCH  23  25
ENDBRANCH  17  18
ENDBRANCH  11  16
ENDBRANCH   5   8
ENDBRANCH   3   4
ENDBRANCH   2   3
ENDBRANCH   1   2
BRANCH   1  27
ATOM     27  C   UNL     1      -6.200   4.524  -0.224  1.00  0.00     0.002 C 
BRANCH  27  28
ATOM     28  C   UNL     1      -5.380   5.806  -0.051  1.00  0.00     0.021 C 
BRANCH  28  29
ATOM     29  C   UNL     1      -5.393   6.741  -1.255  1.00  0.00     0.116 C 
BRANCH  29  30
ATOM     30  N   UNL     1      -6.734   7.200  -1.575  1.00  0.00    -0.352 N 
ATOM     31  C   UNL     1      -7.222   8.479  -1.655  1.00  0.00     0.251 C 
ATOM     32  H   UNL     1      -7.388   6.488  -1.763  1.00  0.00     0.163 HD
ATOM     33  O   UNL     1      -8.431   8.676  -1.716  1.00  0.00    -0.269 OA
BRANCH  31  34
ATOM     34  C   UNL     1      -6.287   9.623  -1.648  1.00  0.00     0.039 A 
ATOM     35  C   UNL     1      -6.601  10.745  -0.878  1.00  0.00     0.014 A 
ATOM     36  C   UNL     1      -5.112   9.595  -2.404  1.00  0.00     0.014 A 
ATOM     37  C   UNL     1      -5.707  11.815  -0.823  1.00  0.00     0.010 A 
ATOM     38  C   UNL     1      -4.182  10.622  -2.278  1.00  0.00     0.010 A 
ATOM     39  C   UNL     1      -4.472  11.747  -1.492  1.00  0.00    -0.014 A 
BRANCH  39  40
ATOM     40  C   UNL     1      -3.478  12.844  -1.376  1.00  0.00     0.031 A 
ATOM     41  C   UNL     1      -3.055  13.617  -2.595  1.00  0.00     0.074 A 
ATOM     42  C   UNL     1      -2.923  13.114  -0.177  1.00  0.00     0.049 A 
ATOM     43  N   UNL     1      -2.165  14.572  -2.701  1.00  0.00    -0.248 NA
ATOM     44  C   UNL     1      -3.698  13.254  -3.868  1.00  0.00     0.031 C 
ATOM     45  C   UNL     1      -3.222  12.408   1.070  1.00  0.00     0.029 A 
ATOM     46  N   UNL     1      -1.987  14.049   0.188  1.00  0.00    -0.354 N 
ATOM     47  C   UNL     1      -2.143  14.920  -4.045  1.00  0.00     0.074 A 
ATOM     48  C   UNL     1      -3.057  14.031  -4.728  1.00  0.00     0.031 C 
ATOM     49  C   UNL     1      -2.508  12.953   2.067  1.00  0.00     0.029 A 
ATOM     50  C   UNL     1      -1.661  14.010   1.523  1.00  0.00     0.049 A 
ATOM     51  H   UNL     1      -1.588  14.688  -0.446  1.00  0.00     0.167 HD
ATOM     52  C   UNL     1      -1.444  15.909  -4.650  1.00  0.00     0.037 A 
ATOM     53  C   UNL     1      -0.767  14.733   2.225  1.00  0.00     0.037 A 
ATOM     54  C   UNL     1      -0.540  16.796  -3.964  1.00  0.00     0.049 A 
ATOM     55  C   UNL     1       0.031  15.795   1.515  1.00  0.00     0.074 A 
ATOM     56  C   UNL     1       0.185  17.855  -4.480  1.00  0.00     0.029 A 
ATOM     57  N   UNL     1      -0.231  16.721  -2.613  1.00  0.00    -0.354 N 
ATOM     58  N   UNL     1      -0.006  16.159   0.256  1.00  0.00    -0.248 NA
ATOM     59  C   UNL     1       0.993  16.552   2.328  1.00  0.00     0.031 C 
ATOM     60  C   UNL     1       0.986  18.375  -3.460  1.00  0.00     0.029 A 
ATOM     61  C   UNL     1       0.700  17.695  -2.288  1.00  0.00     0.049 A 
ATOM     62  H   UNL     1      -0.615  16.073  -1.980  1.00  0.00     0.167 HD
ATOM     63  C   UNL     1       0.896  17.207   0.134  1.00  0.00     0.074 A 
ATOM     64  C   UNL     1       1.451  17.434   1.452  1.00  0.00     0.031 C 
ATOM     65  C   UNL     1       1.237  17.918  -0.969  1.00  0.00     0.037 A 
BRANCH  52  66
ATOM     66  C   UNL     1      -1.623  16.089  -6.131  1.00  0.00     0.064 A 
ATOM     67  C   UNL     1      -2.832  16.545  -6.678  1.00  0.00     0.173 A 
ATOM     68  C   UNL     1      -0.554  15.859  -7.011  1.00  0.00     0.173 A 
ATOM     69  F   UNL     1      -3.890  16.773  -5.885  1.00  0.00    -0.203 F 
ATOM     70  C   UNL     1      -2.973  16.737  -8.051  1.00  0.00     0.198 A 
ATOM     71  C   UNL     1      -0.686  16.087  -8.378  1.00  0.00     0.198 A 
ATOM     72  F   UNL     1       0.627  15.428  -6.543  1.00  0.00    -0.203 F 
ATOM     73  F   UNL     1      -4.152  17.125  -8.554  1.00  0.00    -0.200 F 
ATOM     74  C   UNL     1      -1.897  16.518  -8.898  1.00  0.00     0.200 A 
ATOM     75  F   UNL     1       0.361  15.893  -9.192  1.00  0.00    -0.200 F 
ATOM     76  F   UNL     1      -2.029  16.718 -10.216  1.00  0.00    -0.200 F 
ENDBRANCH  52  66
BRANCH  53  77
ATOM     77  C   UNL     1      -0.572  14.479   3.679  1.00  0.00     0.064 A 
ATOM     78  C   UNL     1      -0.885  15.457   4.634  1.00  0.00     0.173 A 
ATOM     79  C   UNL     1      -0.033  13.269   4.141  1.00  0.00     0.173 A 
ATOM     80  F   UNL     1      -1.387  16.638   4.245  1.00  0.00    -0.203 F 
ATOM     81  C   UNL     1      -0.628  15.250   5.989  1.00  0.00     0.198 A 
ATOM     82  C   UNL     1       0.185  13.048   5.499  1.00  0.00     0.198 A 
ATOM     83  F   UNL     1       0.278  12.295   3.272  1.00  0.00    -0.203 F 
ATOM     84  F   UNL     1      -0.870  16.229   6.870  1.00  0.00    -0.200 F 
ATOM     85  C   UNL     1      -0.098  14.044   6.420  1.00  0.00     0.200 A 
ATOM     86  F   UNL     1       0.678  11.872   5.912  1.00  0.00    -0.200 F 
ATOM     87  F   UNL     1       0.152  13.846   7.722  1.00  0.00    -0.200 F 
ENDBRANCH  53  77
BRANCH  65  88
ATOM     88  C   UNL     1       2.218  19.043  -0.793  1.00  0.00     0.064 A 
ATOM     89  C   UNL     1       3.566  18.813  -0.478  1.00  0.00     0.173 A 
ATOM     90  C   UNL     1       1.809  20.374  -0.980  1.00  0.00     0.173 A 
ATOM     91  F   UNL     1       4.008  17.562  -0.277  1.00  0.00    -0.203 F 
ATOM     92  C   UNL     1       4.456  19.872  -0.322  1.00  0.00     0.198 A 
ATOM     93  C   UNL     1       2.711  21.427  -0.864  1.00  0.00     0.198 A 
ATOM     94  F   UNL     1       0.534  20.652  -1.292  1.00  0.00    -0.203 F 
ATOM     95  F   UNL     1       5.723  19.630   0.041  1.00  0.00    -0.200 F 
ATOM     96  C   UNL     1       4.031  21.176  -0.524  1.00  0.00     0.200 A 
ATOM     97  F   UNL     1       2.302  22.684  -1.082  1.00  0.00    -0.200 F 
ATOM     98  F   UNL     1       4.892  22.193  -0.383  1.00  0.00    -0.200 F 
ENDBRANCH  65  88
ENDBRANCH  39  40
ENDBRANCH  31  34
ENDBRANCH  29  30
ENDBRANCH  28  29
ENDBRANCH  27  28
ENDBRANCH   1  27
TORSDOF 17
