REMARK SMILES O=C(NCCCCCCNC(=O)[C@H](S)c1ccccc1)c1ccc(-c2c3nc(c(-c4c(F)c(F)c(F)c(F)c4F)c4ccc([nH]4)c(-c4c(F)c(F)c(F)c(F)c4F)c4nc(c(-c5c(F)c(F)c(F)c(F)c5F)c5ccc2[nH]5)C=C4)C=C3)cc1
REMARK SMILES IDX 6 1 5 2 4 3 3 4 1 5 2 6 21 8 22 9 83 10 23 11 82 12 24 13
REMARK SMILES IDX 25 14 26 15 76 16 27 17 81 18 75 19 77 20 28 21 80 22 74 23
REMARK SMILES IDX 73 24 29 26 61 27 41 28 60 29 42 30 45 31 59 32 78 33 43 34
REMARK SMILES IDX 44 35 58 37 79 38 46 39 30 40 31 41 39 42 32 43 33 44 37 45
REMARK SMILES IDX 40 46 34 47 35 48 38 49 36 50 62 51 63 52 71 53 64 54 65 55
REMARK SMILES IDX 69 56 72 57 66 58 67 59 70 60 68 61 47 62 48 63 56 64 49 65
REMARK SMILES IDX 50 66 54 67 57 68 51 69 52 70 55 71 53 72 7 73 8 74 9 75
REMARK SMILES IDX 10 76 11 77 12 79 13 80 15 81 16 82 20 83 17 84 19 85 18 86
REMARK SMILES IDX 14 87
REMARK H PARENT 3 7 77 25 45 36 10 78 14 88
REMARK Flexibility Score: inf
ROOT
ATOM      1  C   UNL     1       7.878  -9.181   0.050  1.00  0.00     0.002 C 
ENDROOT
BRANCH   1   2
ATOM      2  C   UNL     1       7.207 -10.457   0.559  1.00  0.00     0.021 C 
BRANCH   2   3
ATOM      3  C   UNL     1       5.748 -10.606   0.142  1.00  0.00     0.116 C 
BRANCH   3   4
ATOM      4  N   UNL     1       5.608 -10.742  -1.298  1.00  0.00    -0.352 N 
ATOM      5  O   UNL     1       5.273 -11.845  -3.240  1.00  0.00    -0.269 OA
ATOM      6  C   UNL     1       5.115 -11.796  -2.022  1.00  0.00     0.251 C 
ATOM      7  H   UNL     1       5.909  -9.969  -1.828  1.00  0.00     0.163 HD
BRANCH   6   8
ATOM      8  C   UNL     1       4.404 -12.888  -1.329  1.00  0.00     0.039 A 
ATOM      9  C   UNL     1       3.430 -12.604  -0.367  1.00  0.00     0.014 A 
ATOM     10  C   UNL     1       4.707 -14.211  -1.658  1.00  0.00     0.014 A 
ATOM     11  C   UNL     1       2.847 -13.640   0.354  1.00  0.00     0.010 A 
ATOM     12  C   UNL     1       4.063 -15.251  -0.989  1.00  0.00     0.010 A 
ATOM     13  C   UNL     1       3.146 -14.974   0.039  1.00  0.00    -0.014 A 
BRANCH  13  14
ATOM     14  C   UNL     1       2.461 -16.080   0.750  1.00  0.00     0.031 A 
ATOM     15  C   UNL     1       3.238 -17.042   1.600  1.00  0.00     0.074 A 
ATOM     16  C   UNL     1       1.133 -16.232   0.594  1.00  0.00     0.049 A 
ATOM     17  N   UNL     1       2.828 -18.122   2.215  1.00  0.00    -0.248 NA
ATOM     18  C   UNL     1       4.671 -16.759   1.772  1.00  0.00     0.031 C 
ATOM     19  C   UNL     1       0.275 -15.357  -0.206  1.00  0.00     0.029 A 
ATOM     20  N   UNL     1       0.275 -17.182   1.086  1.00  0.00    -0.354 N 
ATOM     21  C   UNL     1       3.951 -18.661   2.827  1.00  0.00     0.074 A 
ATOM     22  C   UNL     1       5.067 -17.804   2.485  1.00  0.00     0.031 C 
ATOM     23  C   UNL     1      -0.987 -15.804  -0.143  1.00  0.00     0.029 A 
ATOM     24  C   UNL     1      -1.015 -17.032   0.643  1.00  0.00     0.049 A 
ATOM     25  H   UNL     1       0.557 -17.901   1.697  1.00  0.00     0.167 HD
ATOM     26  C   UNL     1       4.038 -19.768   3.604  1.00  0.00     0.037 A 
ATOM     27  C   UNL     1      -2.094 -17.817   0.817  1.00  0.00     0.037 A 
ATOM     28  C   UNL     1       2.917 -20.612   3.933  1.00  0.00     0.049 A 
ATOM     29  C   UNL     1      -1.964 -19.067   1.638  1.00  0.00     0.074 A 
ATOM     30  C   UNL     1       2.891 -21.737   4.739  1.00  0.00     0.029 A 
ATOM     31  N   UNL     1       1.624 -20.432   3.459  1.00  0.00    -0.354 N 
ATOM     32  N   UNL     1      -0.906 -19.552   2.241  1.00  0.00    -0.248 NA
ATOM     33  C   UNL     1      -3.176 -19.878   1.806  1.00  0.00     0.031 C 
ATOM     34  C   UNL     1       1.599 -22.273   4.700  1.00  0.00     0.029 A 
ATOM     35  C   UNL     1       0.800 -21.442   3.931  1.00  0.00     0.049 A 
ATOM     36  H   UNL     1       1.335 -19.695   2.873  1.00  0.00     0.167 HD
ATOM     37  C   UNL     1      -1.329 -20.705   2.886  1.00  0.00     0.074 A 
ATOM     38  C   UNL     1      -2.743 -20.846   2.603  1.00  0.00     0.031 C 
ATOM     39  C   UNL     1      -0.610 -21.563   3.651  1.00  0.00     0.037 A 
BRANCH  26  40
ATOM     40  C   UNL     1       5.398 -20.151   4.117  1.00  0.00     0.064 A 
ATOM     41  C   UNL     1       6.083 -19.372   5.063  1.00  0.00     0.173 A 
ATOM     42  C   UNL     1       6.022 -21.325   3.665  1.00  0.00     0.173 A 
ATOM     43  F   UNL     1       5.538 -18.236   5.525  1.00  0.00    -0.203 F 
ATOM     44  C   UNL     1       7.356 -19.730   5.502  1.00  0.00     0.198 A 
ATOM     45  C   UNL     1       7.280 -21.698   4.133  1.00  0.00     0.198 A 
ATOM     46  F   UNL     1       5.412 -22.114   2.769  1.00  0.00    -0.203 F 
ATOM     47  F   UNL     1       8.016 -18.934   6.355  1.00  0.00    -0.200 F 
ATOM     48  C   UNL     1       7.951 -20.894   5.041  1.00  0.00     0.200 A 
ATOM     49  F   UNL     1       7.845 -22.832   3.699  1.00  0.00    -0.200 F 
ATOM     50  F   UNL     1       9.176 -21.235   5.463  1.00  0.00    -0.200 F 
ENDBRANCH  26  40
BRANCH  27  51
ATOM     51  C   UNL     1      -3.382 -17.430   0.187  1.00  0.00     0.064 A 
ATOM     52  C   UNL     1      -4.461 -16.989   0.964  1.00  0.00     0.173 A 
ATOM     53  C   UNL     1      -3.545 -17.451  -1.207  1.00  0.00     0.173 A 
ATOM     54  F   UNL     1      -4.358 -16.966   2.301  1.00  0.00    -0.203 F 
ATOM     55  C   UNL     1      -5.657 -16.591   0.371  1.00  0.00     0.198 A 
ATOM     56  C   UNL     1      -4.731 -17.024  -1.799  1.00  0.00     0.198 A 
ATOM     57  F   UNL     1      -2.538 -17.856  -1.995  1.00  0.00    -0.203 F 
ATOM     58  F   UNL     1      -6.685 -16.203   1.139  1.00  0.00    -0.200 F 
ATOM     59  C   UNL     1      -5.788 -16.600  -1.010  1.00  0.00     0.200 A 
ATOM     60  F   UNL     1      -4.844 -17.014  -3.134  1.00  0.00    -0.200 F 
ATOM     61  F   UNL     1      -6.933 -16.200  -1.579  1.00  0.00    -0.200 F 
ENDBRANCH  27  51
BRANCH  39  62
ATOM     62  C   UNL     1      -1.347 -22.704   4.292  1.00  0.00     0.064 A 
ATOM     63  C   UNL     1      -1.816 -23.797   3.549  1.00  0.00     0.173 A 
ATOM     64  C   UNL     1      -1.528 -22.729   5.684  1.00  0.00     0.173 A 
ATOM     65  F   UNL     1      -1.683 -23.814   2.215  1.00  0.00    -0.203 F 
ATOM     66  C   UNL     1      -2.454 -24.866   4.176  1.00  0.00     0.198 A 
ATOM     67  C   UNL     1      -2.136 -23.813   6.309  1.00  0.00     0.198 A 
ATOM     68  F   UNL     1      -1.094 -21.710   6.441  1.00  0.00    -0.203 F 
ATOM     69  F   UNL     1      -2.930 -25.881   3.443  1.00  0.00    -0.200 F 
ATOM     70  C   UNL     1      -2.603 -24.878   5.555  1.00  0.00     0.200 A 
ATOM     71  F   UNL     1      -2.264 -23.830   7.643  1.00  0.00    -0.200 F 
ATOM     72  F   UNL     1      -3.200 -25.916   6.157  1.00  0.00    -0.200 F 
ENDBRANCH  39  62
ENDBRANCH  13  14
ENDBRANCH   6   8
ENDBRANCH   3   4
ENDBRANCH   2   3
ENDBRANCH   1   2
BRANCH   1  73
ATOM     73  C   UNL     1       7.180  -7.883   0.463  1.00  0.00     0.002 C 
BRANCH  73  74
ATOM     74  C   UNL     1       6.942  -7.725   1.971  1.00  0.00     0.021 C 
BRANCH  74  75
ATOM     75  C   UNL     1       8.220  -7.750   2.816  1.00  0.00     0.116 C 
BRANCH  75  76
ATOM     76  N   UNL     1       9.058  -6.608   2.521  1.00  0.00    -0.355 N 
ATOM     77  C   UNL     1       9.247  -5.428   3.187  1.00  0.00     0.237 C 
ATOM     78  H   UNL     1       9.585  -6.695   1.694  1.00  0.00     0.163 HD
ATOM     79  O   UNL     1       9.985  -4.619   2.615  1.00  0.00    -0.273 OA
BRANCH  77  80
ATOM     80  C   UNL     1       8.637  -5.191   4.590  1.00  0.00     0.162 C 
BRANCH  80  81
ATOM     81  C   UNL     1       9.119  -3.925   5.295  1.00  0.00    -0.026 A 
ATOM     82  C   UNL     1       9.454  -3.958   6.660  1.00  0.00     0.005 A 
ATOM     83  C   UNL     1       9.095  -2.677   4.646  1.00  0.00     0.005 A 
ATOM     84  C   UNL     1       9.730  -2.776   7.353  1.00  0.00     0.000 A 
ATOM     85  C   UNL     1       9.376  -1.500   5.338  1.00  0.00     0.000 A 
ATOM     86  C   UNL     1       9.682  -1.548   6.694  1.00  0.00     0.000 A 
ENDBRANCH  80  81
BRANCH  80  87
ATOM     87  S   UNL     1       6.792  -5.080   4.508  1.00  0.00    -0.161 SA
ATOM     88  H   UNL     1       6.435  -3.986   3.782  1.00  0.00     0.103 HD
ENDBRANCH  80  87
ENDBRANCH  77  80
ENDBRANCH  75  76
ENDBRANCH  74  75
ENDBRANCH  73  74
ENDBRANCH   1  73
TORSDOF 15
