REMARK SMILES COc1cc(NC(=O)/C=C/c2cccc([N+](=O)[O-])c2)c(C(=O)NCCCCCCNC(=O)c2ccc(-c3c4nc(c(-c5c(F)c(F)c(F)c(F)c5F)c5ccc([nH]5)c(-c5c(F)c(F)c(F)c(F)c5F)c5nc(c(-c6c(F)c(F)c(F)c(F)c6F)c6ccc3[nH]6)C=C5)C=C4)cc2)cc1OC
REMARK SMILES IDX 25 1 24 2 23 3 21 4 22 5 20 7 3 8 4 9 97 10 5 11 96 12 2 13
REMARK SMILES IDX 1 14 98 15 99 16 6 17 7 18 8 20 9 21 10 22 11 23 12 24 19 25
REMARK SMILES IDX 13 26 15 27 14 28 16 29 17 30 18 31 26 32 27 33 28 34 29 35
REMARK SMILES IDX 30 36 31 37 32 39 33 40 34 41 95 42 35 43 94 44 36 45 37 46
REMARK SMILES IDX 38 47 88 48 39 49 93 50 87 51 89 52 40 53 92 54 86 55 85 56
REMARK SMILES IDX 41 58 73 59 53 60 72 61 54 62 57 63 71 64 90 65 55 66 56 67
REMARK SMILES IDX 70 69 91 70 58 71 42 72 43 73 51 74 44 75 45 76 49 77 52 78
REMARK SMILES IDX 46 79 47 80 50 81 48 82 74 83 75 84 83 85 76 86 77 87 81 88
REMARK SMILES IDX 84 89 78 90 79 91 82 92 80 93 59 94 60 95 68 96 61 97 62 98
REMARK SMILES IDX 66 99 69 100 63 101 64 102 67 103 65 104
REMARK H PARENT 23 6 6 19 30 38 89 57 57 68
REMARK Flexibility Score: inf
ROOT
ATOM      1  C   UNL     1       5.098  -5.826  -3.274  1.00  0.00     0.021 C 
ENDROOT
BRANCH   1   2
ATOM      2  C   UNL     1       3.925  -5.075  -3.906  1.00  0.00     0.116 C 
BRANCH   2   3
ATOM      3  N   UNL     1       2.710  -5.849  -3.728  1.00  0.00    -0.352 N 
ATOM      4  C   UNL     1       1.675  -5.721  -2.838  1.00  0.00     0.253 C 
ATOM      5  O   UNL     1       0.771  -6.556  -2.873  1.00  0.00    -0.269 OA
ATOM      6  H   UNL     1       2.612  -6.599  -4.359  1.00  0.00     0.163 HD
BRANCH   4   7
ATOM      7  C   UNL     1       1.560  -4.546  -1.930  1.00  0.00     0.067 A 
ATOM      8  C   UNL     1       1.432  -2.122  -0.535  1.00  0.00     0.162 A 
ATOM      9  C   UNL     1       0.288  -2.681  -1.125  1.00  0.00     0.077 A 
ATOM     10  C   UNL     1       2.636  -2.819  -0.577  1.00  0.00     0.161 A 
ATOM     11  C   UNL     1       0.303  -3.945  -1.719  1.00  0.00     0.058 A 
ATOM     12  C   UNL     1       2.686  -4.028  -1.275  1.00  0.00     0.066 A 
BRANCH   8  13
ATOM     13  O   UNL     1       1.293  -1.018   0.263  1.00  0.00    -0.493 OA
ATOM     14  C   UNL     1       0.919   0.169  -0.431  1.00  0.00     0.278 C 
ENDBRANCH   8  13
BRANCH  10  15
ATOM     15  O   UNL     1       3.824  -2.473   0.006  1.00  0.00    -0.493 OA
ATOM     16  C   UNL     1       4.065  -1.084   0.190  1.00  0.00     0.278 C 
ENDBRANCH  10  15
BRANCH  11  17
ATOM     17  N   UNL     1      -0.871  -4.681  -2.036  1.00  0.00    -0.322 N 
ATOM     18  C   UNL     1      -2.197  -4.574  -1.725  1.00  0.00     0.248 C 
ATOM     19  H   UNL     1      -0.683  -5.452  -2.619  1.00  0.00     0.170 HD
ATOM     20  O   UNL     1      -2.999  -5.411  -2.136  1.00  0.00    -0.270 OA
BRANCH  18  21
ATOM     21  C   UNL     1      -2.718  -3.435  -0.949  1.00  0.00     0.072 C 
ATOM     22  C   UNL     1      -2.372  -3.209   0.329  1.00  0.00     0.014 C 
BRANCH  22  23
ATOM     23  C   UNL     1      -2.690  -1.949   1.019  1.00  0.00    -0.019 A 
ATOM     24  C   UNL     1      -2.613  -0.717   0.342  1.00  0.00     0.008 A 
ATOM     25  C   UNL     1      -2.928  -1.947   2.395  1.00  0.00     0.093 A 
ATOM     26  C   UNL     1      -2.753   0.496   1.018  1.00  0.00     0.008 A 
ATOM     27  C   UNL     1      -3.092  -0.725   3.067  1.00  0.00     0.270 A 
ATOM     28  C   UNL     1      -2.991   0.496   2.388  1.00  0.00     0.085 A 
BRANCH  27  29
ATOM     29  N   UNL     1      -3.366  -0.722   4.507  1.00  0.00     0.062 N 
ATOM     30  O   UNL     1      -3.259   0.355   5.110  1.00  0.00    -0.258 OA
ATOM     31  O   UNL     1      -3.694  -1.795   5.033  1.00  0.00    -0.258 OA
ENDBRANCH  27  29
ENDBRANCH  22  23
ENDBRANCH  18  21
ENDBRANCH  11  17
ENDBRANCH   4   7
ENDBRANCH   2   3
ENDBRANCH   1   2
BRANCH   1  32
ATOM     32  C   UNL     1       5.644  -6.938  -4.177  1.00  0.00     0.002 C 
BRANCH  32  33
ATOM     33  C   UNL     1       6.281  -6.439  -5.479  1.00  0.00     0.002 C 
BRANCH  33  34
ATOM     34  C   UNL     1       7.384  -5.395  -5.292  1.00  0.00     0.021 C 
BRANCH  34  35
ATOM     35  C   UNL     1       8.552  -5.875  -4.439  1.00  0.00     0.116 C 
BRANCH  35  36
ATOM     36  N   UNL     1       9.259  -6.976  -5.077  1.00  0.00    -0.352 N 
ATOM     37  C   UNL     1      10.591  -7.087  -5.359  1.00  0.00     0.251 C 
ATOM     38  H   UNL     1       8.703  -7.744  -5.341  1.00  0.00     0.163 HD
ATOM     39  O   UNL     1      10.997  -7.973  -6.118  1.00  0.00    -0.269 OA
BRANCH  37  40
ATOM     40  C   UNL     1      11.550  -6.143  -4.756  1.00  0.00     0.039 A 
ATOM     41  C   UNL     1      12.570  -5.609  -5.547  1.00  0.00     0.014 A 
ATOM     42  C   UNL     1      11.455  -5.808  -3.401  1.00  0.00     0.014 A 
ATOM     43  C   UNL     1      13.483  -4.716  -4.984  1.00  0.00     0.010 A 
ATOM     44  C   UNL     1      12.318  -4.861  -2.861  1.00  0.00     0.010 A 
ATOM     45  C   UNL     1      13.355  -4.327  -3.640  1.00  0.00    -0.014 A 
BRANCH  45  46
ATOM     46  C   UNL     1      14.332  -3.406  -3.013  1.00  0.00     0.031 A 
ATOM     47  C   UNL     1      15.227  -3.906  -1.914  1.00  0.00     0.074 A 
ATOM     48  C   UNL     1      14.379  -2.117  -3.395  1.00  0.00     0.049 A 
ATOM     49  N   UNL     1      16.115  -3.256  -1.205  1.00  0.00    -0.248 NA
ATOM     50  C   UNL     1      15.080  -5.322  -1.540  1.00  0.00     0.031 C 
ATOM     51  C   UNL     1      13.536  -1.510  -4.424  1.00  0.00     0.029 A 
ATOM     52  N   UNL     1      15.171  -1.087  -2.958  1.00  0.00    -0.354 N 
ATOM     53  C   UNL     1      16.616  -4.177  -0.294  1.00  0.00     0.074 A 
ATOM     54  C   UNL     1      15.888  -5.411  -0.496  1.00  0.00     0.031 C 
ATOM     55  C   UNL     1      13.882  -0.220  -4.567  1.00  0.00     0.029 A 
ATOM     56  C   UNL     1      14.945   0.096  -3.618  1.00  0.00     0.049 A 
ATOM     57  H   UNL     1      15.838  -1.185  -2.241  1.00  0.00     0.167 HD
ATOM     58  C   UNL     1      17.611  -4.018   0.610  1.00  0.00     0.037 A 
ATOM     59  C   UNL     1      15.539   1.295  -3.474  1.00  0.00     0.037 A 
ATOM     60  C   UNL     1      18.348  -2.794   0.787  1.00  0.00     0.049 A 
ATOM     61  C   UNL     1      16.635   1.453  -2.456  1.00  0.00     0.074 A 
ATOM     62  C   UNL     1      19.411  -2.538   1.635  1.00  0.00     0.029 A 
ATOM     63  N   UNL     1      18.092  -1.616   0.099  1.00  0.00    -0.354 N 
ATOM     64  N   UNL     1      17.146   0.561  -1.643  1.00  0.00    -0.248 NA
ATOM     65  C   UNL     1      17.241   2.786  -2.344  1.00  0.00     0.031 C 
ATOM     66  C   UNL     1      19.769  -1.193   1.492  1.00  0.00     0.029 A 
ATOM     67  C   UNL     1      18.964  -0.624   0.517  1.00  0.00     0.049 A 
ATOM     68  H   UNL     1      17.394  -1.502  -0.586  1.00  0.00     0.167 HD
ATOM     69  C   UNL     1      18.158   1.211  -0.950  1.00  0.00     0.074 A 
ATOM     70  C   UNL     1      18.190   2.574  -1.443  1.00  0.00     0.031 C 
ATOM     71  C   UNL     1      18.989   0.723   0.005  1.00  0.00     0.037 A 
BRANCH  58  72
ATOM     72  C   UNL     1      17.946  -5.199   1.476  1.00  0.00     0.064 A 
ATOM     73  C   UNL     1      18.524  -6.364   0.946  1.00  0.00     0.173 A 
ATOM     74  C   UNL     1      17.673  -5.174   2.852  1.00  0.00     0.173 A 
ATOM     75  F   UNL     1      18.794  -6.446  -0.366  1.00  0.00    -0.203 F 
ATOM     76  C   UNL     1      18.767  -7.475   1.748  1.00  0.00     0.198 A 
ATOM     77  C   UNL     1      17.951  -6.275   3.659  1.00  0.00     0.198 A 
ATOM     78  F   UNL     1      17.127  -4.086   3.415  1.00  0.00    -0.203 F 
ATOM     79  F   UNL     1      19.249  -8.601   1.203  1.00  0.00    -0.200 F 
ATOM     80  C   UNL     1      18.484  -7.429   3.104  1.00  0.00     0.200 A 
ATOM     81  F   UNL     1      17.688  -6.225   4.972  1.00  0.00    -0.200 F 
ATOM     82  F   UNL     1      18.712  -8.501   3.875  1.00  0.00    -0.200 F 
ENDBRANCH  58  72
BRANCH  59  83
ATOM     83  C   UNL     1      15.151   2.420  -4.362  1.00  0.00     0.064 A 
ATOM     84  C   UNL     1      16.023   2.866  -5.366  1.00  0.00     0.173 A 
ATOM     85  C   UNL     1      13.908   3.057  -4.246  1.00  0.00     0.173 A 
ATOM     86  F   UNL     1      17.230   2.298  -5.503  1.00  0.00    -0.203 F 
ATOM     87  C   UNL     1      15.671   3.915  -6.211  1.00  0.00     0.198 A 
ATOM     88  C   UNL     1      13.547   4.090  -5.108  1.00  0.00     0.198 A 
ATOM     89  F   UNL     1      13.036   2.662  -3.306  1.00  0.00    -0.203 F 
ATOM     90  F   UNL     1      16.537   4.344  -7.139  1.00  0.00    -0.200 F 
ATOM     91  C   UNL     1      14.431   4.522  -6.086  1.00  0.00     0.200 A 
ATOM     92  F   UNL     1      12.342   4.665  -4.994  1.00  0.00    -0.200 F 
ATOM     93  F   UNL     1      14.089   5.526  -6.905  1.00  0.00    -0.200 F 
ENDBRANCH  59  83
BRANCH  71  94
ATOM     94  C   UNL     1      20.037   1.654   0.542  1.00  0.00     0.064 A 
ATOM     95  C   UNL     1      19.713   2.723   1.390  1.00  0.00     0.173 A 
ATOM     96  C   UNL     1      21.390   1.448   0.229  1.00  0.00     0.173 A 
ATOM     97  F   UNL     1      18.433   2.970   1.705  1.00  0.00    -0.203 F 
ATOM     98  C   UNL     1      20.703   3.569   1.883  1.00  0.00     0.198 A 
ATOM     99  C   UNL     1      22.379   2.278   0.749  1.00  0.00     0.198 A 
ATOM    100  F   UNL     1      21.753   0.436  -0.573  1.00  0.00    -0.203 F 
ATOM    101  F   UNL     1      20.366   4.615   2.650  1.00  0.00    -0.200 F 
ATOM    102  C   UNL     1      22.035   3.342   1.568  1.00  0.00     0.200 A 
ATOM    103  F   UNL     1      23.666   2.049   0.454  1.00  0.00    -0.200 F 
ATOM    104  F   UNL     1      22.986   4.154   2.049  1.00  0.00    -0.200 F 
ENDBRANCH  71  94
ENDBRANCH  45  46
ENDBRANCH  37  40
ENDBRANCH  35  36
ENDBRANCH  34  35
ENDBRANCH  33  34
ENDBRANCH  32  33
ENDBRANCH   1  32
TORSDOF 19
