REMARK SMILES O=C(NCCCCCCNC(=O)c1cc(S[C@H]2CCO[C@@]3(CCOC3)C2)cs1)c1ccc(-c2c3nc(c(-c4c(F)c(F)c(F)c(F)c4F)c4ccc([nH]4)c(-c4c(F)c(F)c(F)c(F)c4F)c4nc(c(-c5c(F)c(F)c(F)c(F)c5F)c5ccc2[nH]5)C=C4)C=C3)cc1
REMARK SMILES IDX 6 1 5 2 4 3 3 4 1 5 2 6 29 8 30 9 91 10 31 11 90 12 32 13
REMARK SMILES IDX 33 14 34 15 84 16 35 17 89 18 83 19 85 20 36 21 88 22 82 23
REMARK SMILES IDX 81 24 37 26 69 27 49 28 68 29 50 30 53 31 67 32 86 33 51 34
REMARK SMILES IDX 52 35 66 37 87 38 54 39 38 40 39 41 47 42 40 43 41 44 45 45
REMARK SMILES IDX 48 46 42 47 43 48 46 49 44 50 70 51 71 52 79 53 72 54 73 55
REMARK SMILES IDX 77 56 80 57 74 58 75 59 78 60 76 61 55 62 56 63 64 64 57 65
REMARK SMILES IDX 58 66 62 67 65 68 59 69 60 70 63 71 61 72 7 73 8 74 9 75
REMARK SMILES IDX 10 76 11 77 12 79 13 80 14 81 28 82 15 83 27 84 16 85 17 86
REMARK SMILES IDX 18 87 26 88 19 89 21 90 20 91 22 92 25 93 23 94 24 95
REMARK H PARENT 3 7 85 25 53 36 10 78
REMARK Flexibility Score: inf
ROOT
ATOM      1  C   UNL     1      11.461  -3.053  11.875  1.00  0.00     0.002 C 
ENDROOT
BRANCH   1   2
ATOM      2  C   UNL     1      11.841  -4.020  10.751  1.00  0.00     0.021 C 
BRANCH   2   3
ATOM      3  C   UNL     1      13.088  -4.867  10.993  1.00  0.00     0.116 C 
BRANCH   3   4
ATOM      4  N   UNL     1      12.965  -5.733  12.151  1.00  0.00    -0.352 N 
ATOM      5  O   UNL     1      12.889  -7.663  13.306  1.00  0.00    -0.269 OA
ATOM      6  C   UNL     1      13.173  -7.084  12.261  1.00  0.00     0.251 C 
ATOM      7  H   UNL     1      12.690  -5.283  12.982  1.00  0.00     0.163 HD
BRANCH   6   8
ATOM      8  C   UNL     1      13.714  -7.860  11.124  1.00  0.00     0.039 A 
ATOM      9  C   UNL     1      14.827  -7.420  10.399  1.00  0.00     0.014 A 
ATOM     10  C   UNL     1      13.119  -9.086  10.814  1.00  0.00     0.014 A 
ATOM     11  C   UNL     1      15.286  -8.159   9.309  1.00  0.00     0.010 A 
ATOM     12  C   UNL     1      13.609  -9.851   9.754  1.00  0.00     0.010 A 
ATOM     13  C   UNL     1      14.684  -9.384   8.981  1.00  0.00    -0.014 A 
BRANCH  13  14
ATOM     14  C   UNL     1      15.205 -10.207   7.863  1.00  0.00     0.031 A 
ATOM     15  C   UNL     1      14.391 -10.414   6.620  1.00  0.00     0.074 A 
ATOM     16  C   UNL     1      16.400 -10.812   7.995  1.00  0.00     0.049 A 
ATOM     17  N   UNL     1      14.642 -11.173   5.583  1.00  0.00    -0.248 NA
ATOM     18  C   UNL     1      13.121  -9.678   6.535  1.00  0.00     0.031 C 
ATOM     19  C   UNL     1      17.274 -10.701   9.163  1.00  0.00     0.029 A 
ATOM     20  N   UNL     1      17.075 -11.657   7.150  1.00  0.00    -0.354 N 
ATOM     21  C   UNL     1      13.554 -11.026   4.734  1.00  0.00     0.074 A 
ATOM     22  C   UNL     1      12.632 -10.117   5.383  1.00  0.00     0.031 C 
ATOM     23  C   UNL     1      18.368 -11.451   8.964  1.00  0.00     0.029 A 
ATOM     24  C   UNL     1      18.251 -12.129   7.677  1.00  0.00     0.049 A 
ATOM     25  H   UNL     1      16.748 -11.899   6.254  1.00  0.00     0.167 HD
ATOM     26  C   UNL     1      13.348 -11.597   3.523  1.00  0.00     0.037 A 
ATOM     27  C   UNL     1      19.123 -13.033   7.193  1.00  0.00     0.037 A 
ATOM     28  C   UNL     1      14.276 -12.486   2.874  1.00  0.00     0.049 A 
ATOM     29  C   UNL     1      18.868 -13.663   5.855  1.00  0.00     0.074 A 
ATOM     30  C   UNL     1      14.185 -13.063   1.619  1.00  0.00     0.029 A 
ATOM     31  N   UNL     1      15.464 -12.933   3.434  1.00  0.00    -0.354 N 
ATOM     32  N   UNL     1      17.859 -13.481   5.038  1.00  0.00    -0.248 NA
ATOM     33  C   UNL     1      19.869 -14.623   5.370  1.00  0.00     0.031 C 
ATOM     34  C   UNL     1      15.299 -13.891   1.436  1.00  0.00     0.029 A 
ATOM     35  C   UNL     1      16.103 -13.799   2.561  1.00  0.00     0.049 A 
ATOM     36  H   UNL     1      15.803 -12.673   4.321  1.00  0.00     0.167 HD
ATOM     37  C   UNL     1      18.108 -14.289   3.939  1.00  0.00     0.074 A 
ATOM     38  C   UNL     1      19.368 -14.958   4.188  1.00  0.00     0.031 C 
ATOM     39  C   UNL     1      17.357 -14.457   2.824  1.00  0.00     0.037 A 
BRANCH  26  40
ATOM     40  C   UNL     1      12.055 -11.293   2.827  1.00  0.00     0.064 A 
ATOM     41  C   UNL     1      11.810 -10.043   2.240  1.00  0.00     0.173 A 
ATOM     42  C   UNL     1      11.058 -12.275   2.723  1.00  0.00     0.173 A 
ATOM     43  F   UNL     1      12.728  -9.068   2.321  1.00  0.00    -0.203 F 
ATOM     44  C   UNL     1      10.604  -9.779   1.595  1.00  0.00     0.198 A 
ATOM     45  C   UNL     1       9.863 -12.015   2.058  1.00  0.00     0.198 A 
ATOM     46  F   UNL     1      11.246 -13.489   3.263  1.00  0.00    -0.203 F 
ATOM     47  F   UNL     1      10.374  -8.565   1.078  1.00  0.00    -0.200 F 
ATOM     48  C   UNL     1       9.634 -10.766   1.501  1.00  0.00     0.200 A 
ATOM     49  F   UNL     1       8.930 -12.973   1.960  1.00  0.00    -0.200 F 
ATOM     50  F   UNL     1       8.474 -10.510   0.880  1.00  0.00    -0.200 F 
ENDBRANCH  26  40
BRANCH  27  51
ATOM     51  C   UNL     1      20.314 -13.388   8.002  1.00  0.00     0.064 A 
ATOM     52  C   UNL     1      21.585 -12.912   7.661  1.00  0.00     0.173 A 
ATOM     53  C   UNL     1      20.191 -14.159   9.168  1.00  0.00     0.173 A 
ATOM     54  F   UNL     1      21.751 -12.185   6.547  1.00  0.00    -0.203 F 
ATOM     55  C   UNL     1      22.693 -13.192   8.459  1.00  0.00     0.198 A 
ATOM     56  C   UNL     1      21.294 -14.420   9.976  1.00  0.00     0.198 A 
ATOM     57  F   UNL     1      18.991 -14.632   9.536  1.00  0.00    -0.203 F 
ATOM     58  F   UNL     1      23.902 -12.738   8.105  1.00  0.00    -0.200 F 
ATOM     59  C   UNL     1      22.544 -13.937   9.620  1.00  0.00     0.200 A 
ATOM     60  F   UNL     1      21.144 -15.127  11.104  1.00  0.00    -0.200 F 
ATOM     61  F   UNL     1      23.607 -14.188  10.397  1.00  0.00    -0.200 F 
ENDBRANCH  27  51
BRANCH  39  62
ATOM     62  C   UNL     1      17.886 -15.386   1.773  1.00  0.00     0.064 A 
ATOM     63  C   UNL     1      17.802 -16.777   1.920  1.00  0.00     0.173 A 
ATOM     64  C   UNL     1      18.426 -14.877   0.583  1.00  0.00     0.173 A 
ATOM     65  F   UNL     1      17.308 -17.309   3.048  1.00  0.00    -0.203 F 
ATOM     66  C   UNL     1      18.249 -17.628   0.912  1.00  0.00     0.198 A 
ATOM     67  C   UNL     1      18.853 -15.730  -0.430  1.00  0.00     0.198 A 
ATOM     68  F   UNL     1      18.523 -13.552   0.397  1.00  0.00    -0.203 F 
ATOM     69  F   UNL     1      18.184 -18.956   1.082  1.00  0.00    -0.200 F 
ATOM     70  C   UNL     1      18.766 -17.105  -0.264  1.00  0.00     0.200 A 
ATOM     71  F   UNL     1      19.345 -15.223  -1.569  1.00  0.00    -0.200 F 
ATOM     72  F   UNL     1      19.186 -17.925  -1.236  1.00  0.00    -0.200 F 
ENDBRANCH  39  62
ENDBRANCH  13  14
ENDBRANCH   6   8
ENDBRANCH   3   4
ENDBRANCH   2   3
ENDBRANCH   1   2
BRANCH   1  73
ATOM     73  C   UNL     1      12.566  -2.108  12.359  1.00  0.00     0.002 C 
BRANCH  73  74
ATOM     74  C   UNL     1      13.292  -1.312  11.271  1.00  0.00     0.021 C 
BRANCH  74  75
ATOM     75  C   UNL     1      12.412  -0.360  10.466  1.00  0.00     0.116 C 
BRANCH  75  76
ATOM     76  N   UNL     1      12.034   0.817  11.232  1.00  0.00    -0.351 N 
ATOM     77  C   UNL     1      12.154   2.150  10.894  1.00  0.00     0.261 C 
ATOM     78  H   UNL     1      11.637   0.638  12.115  1.00  0.00     0.163 HD
ATOM     79  O   UNL     1      11.976   2.980  11.789  1.00  0.00    -0.268 OA
BRANCH  77  80
ATOM     80  C   UNL     1      12.433   2.496   9.514  1.00  0.00     0.093 A 
ATOM     81  C   UNL     1      11.900   1.924   8.377  1.00  0.00     0.040 A 
ATOM     82  S   UNL     1      13.477   3.786   9.111  1.00  0.00    -0.137 S 
ATOM     83  C   UNL     1      12.411   2.472   7.167  1.00  0.00     0.019 A 
ATOM     84  C   UNL     1      13.288   3.502   7.425  1.00  0.00     0.080 A 
BRANCH  83  85
ATOM     85  S   UNL     1      11.988   1.915   5.535  1.00  0.00    -0.122 SA
BRANCH  85  86
ATOM     86  C   UNL     1      10.581   0.805   5.872  1.00  0.00     0.057 C 
ATOM     87  C   UNL     1       9.332   1.611   6.226  1.00  0.00     0.043 C 
ATOM     88  C   UNL     1      10.238  -0.187   4.754  1.00  0.00     0.053 C 
ATOM     89  C   UNL     1       8.263   0.643   6.696  1.00  0.00     0.162 C 
ATOM     90  C   UNL     1       9.086  -1.105   5.241  1.00  0.00     0.095 C 
ATOM     91  O   UNL     1       7.974  -0.310   5.680  1.00  0.00    -0.372 OA
ATOM     92  C   UNL     1       8.564  -2.017   4.142  1.00  0.00     0.066 C 
ATOM     93  C   UNL     1       9.540  -2.129   6.302  1.00  0.00     0.195 C 
ATOM     94  C   UNL     1       9.395  -3.268   4.282  1.00  0.00     0.163 C 
ATOM     95  O   UNL     1       9.681  -3.413   5.674  1.00  0.00    -0.378 OA
ENDBRANCH  85  86
ENDBRANCH  83  85
ENDBRANCH  77  80
ENDBRANCH  75  76
ENDBRANCH  74  75
ENDBRANCH  73  74
ENDBRANCH   1  73
TORSDOF 15
