REMARK SMILES Cc1cc(C(=O)NCCCCCCNC(=O)c2ccc(-c3c4nc(c(-c5c(F)c(F)c(F)c(F)c5F)c5ccc([nH]5)c(-c5c(F)c(F)c(F)c(F)c5F)c5nc(c(-c6c(F)c(F)c(F)c(F)c6F)c6ccc3[nH]6)C=C5)C=C4)cc2)c(NC(=O)c2nc(C(C)(C)C)n[nH]2)s1
REMARK SMILES IDX 10 1 9 2 8 3 7 4 5 5 6 6 4 8 1 9 2 10 3 11 93 12 80 13 81 14
REMARK SMILES IDX 82 15 83 17 84 18 85 19 92 20 86 21 91 22 87 24 88 25 89 26
REMARK SMILES IDX 90 27 11 28 12 29 13 30 14 31 15 32 16 34 17 35 18 36 79 37
REMARK SMILES IDX 19 38 78 39 20 40 21 41 22 42 72 43 23 44 77 45 71 46 73 47
REMARK SMILES IDX 24 48 76 49 70 50 69 51 25 53 57 54 37 55 56 56 38 57 41 58
REMARK SMILES IDX 55 59 74 60 39 61 40 62 54 64 75 65 42 66 26 67 27 68 35 69
REMARK SMILES IDX 28 70 29 71 33 72 36 73 30 74 31 75 34 76 32 77 58 78 59 79
REMARK SMILES IDX 67 80 60 81 61 82 65 83 68 84 62 85 63 86 66 87 64 88 43 89
REMARK SMILES IDX 44 90 52 91 45 92 46 93 50 94 53 95 47 96 48 97 51 98 49 99
REMARK H PARENT 7 7 81 16 92 23 14 33 73 52 41 63
REMARK Flexibility Score: inf
ROOT
ATOM      1  C   UNL     1      -1.530  -6.276   1.102  1.00  0.00     0.002 C 
ENDROOT
BRANCH   1   2
ATOM      2  C   UNL     1      -0.684  -4.999   1.089  1.00  0.00     0.021 C 
BRANCH   2   3
ATOM      3  C   UNL     1      -0.735  -4.225  -0.225  1.00  0.00     0.116 C 
BRANCH   3   4
ATOM      4  N   UNL     1      -1.897  -3.370  -0.328  1.00  0.00    -0.352 N 
ATOM      5  C   UNL     1      -2.094  -2.017  -0.246  1.00  0.00     0.254 C 
ATOM      6  O   UNL     1      -3.267  -1.643  -0.343  1.00  0.00    -0.269 OA
ATOM      7  H   UNL     1      -2.729  -3.871  -0.492  1.00  0.00     0.163 HD
BRANCH   5   8
ATOM      8  C   UNL     1      -1.016  -1.040  -0.018  1.00  0.00     0.074 A 
ATOM      9  C   UNL     1       2.584   0.175   0.251  1.00  0.00     0.056 C 
ATOM     10  C   UNL     1       1.112  -0.048   0.248  1.00  0.00     0.004 A 
ATOM     11  C   UNL     1       0.412  -1.166  -0.151  1.00  0.00     0.031 A 
ATOM     12  S   UNL     1       0.056   1.165   0.771  1.00  0.00    -0.122 S 
ATOM     13  C   UNL     1      -1.313   0.295   0.271  1.00  0.00     0.108 A 
BRANCH  13  14
ATOM     14  N   UNL     1      -2.573   0.875   0.262  1.00  0.00    -0.310 N 
ATOM     15  C   UNL     1      -2.995   2.191   0.291  1.00  0.00     0.293 C 
ATOM     16  H   UNL     1      -3.310   0.223   0.229  1.00  0.00     0.171 HD
ATOM     17  O   UNL     1      -4.208   2.390   0.390  1.00  0.00    -0.265 OA
BRANCH  15  18
ATOM     18  C   UNL     1      -2.059   3.270   0.102  1.00  0.00     0.214 A 
ATOM     19  N   UNL     1      -1.793   4.214   0.983  1.00  0.00    -0.207 NA
ATOM     20  N   UNL     1      -1.305   3.490  -1.013  1.00  0.00    -0.255 N 
ATOM     21  C   UNL     1      -0.786   4.936   0.390  1.00  0.00     0.156 A 
ATOM     22  N   UNL     1      -0.473   4.533  -0.850  1.00  0.00    -0.158 NA
ATOM     23  H   UNL     1      -1.364   2.953  -1.836  1.00  0.00     0.192 HD
BRANCH  21  24
ATOM     24  C   UNL     1      -0.121   6.089   1.099  1.00  0.00     0.024 C 
ATOM     25  C   UNL     1      -0.993   7.347   0.944  1.00  0.00     0.019 C 
ATOM     26  C   UNL     1       0.034   5.768   2.600  1.00  0.00     0.019 C 
ATOM     27  C   UNL     1       1.284   6.380   0.534  1.00  0.00     0.019 C 
ENDBRANCH  21  24
ENDBRANCH  15  18
ENDBRANCH  13  14
ENDBRANCH   5   8
ENDBRANCH   3   4
ENDBRANCH   2   3
ENDBRANCH   1   2
BRANCH   1  28
ATOM     28  C   UNL     1      -1.247  -7.270  -0.034  1.00  0.00     0.002 C 
BRANCH  28  29
ATOM     29  C   UNL     1       0.227  -7.635  -0.243  1.00  0.00     0.021 C 
BRANCH  29  30
ATOM     30  C   UNL     1       0.898  -8.293   0.958  1.00  0.00     0.116 C 
BRANCH  30  31
ATOM     31  N   UNL     1       0.289  -9.571   1.287  1.00  0.00    -0.352 N 
ATOM     32  C   UNL     1       0.861 -10.814   1.385  1.00  0.00     0.251 C 
ATOM     33  H   UNL     1      -0.679  -9.540   1.465  1.00  0.00     0.163 HD
ATOM     34  O   UNL     1       0.152 -11.812   1.460  1.00  0.00    -0.269 OA
BRANCH  32  35
ATOM     35  C   UNL     1       2.332 -10.957   1.390  1.00  0.00     0.039 A 
ATOM     36  C   UNL     1       2.912 -11.985   0.640  1.00  0.00     0.014 A 
ATOM     37  C   UNL     1       3.136 -10.108   2.156  1.00  0.00     0.014 A 
ATOM     38  C   UNL     1       4.301 -12.129   0.619  1.00  0.00     0.010 A 
ATOM     39  C   UNL     1       4.522 -10.210   2.080  1.00  0.00     0.010 A 
ATOM     40  C   UNL     1       5.118 -11.225   1.317  1.00  0.00    -0.014 A 
BRANCH  40  41
ATOM     41  C   UNL     1       6.598 -11.331   1.265  1.00  0.00     0.031 A 
ATOM     42  C   UNL     1       7.376 -11.655   2.510  1.00  0.00     0.074 A 
ATOM     43  C   UNL     1       7.243 -11.072   0.112  1.00  0.00     0.049 A 
ATOM     44  N   UNL     1       8.672 -11.720   2.683  1.00  0.00    -0.248 NA
ATOM     45  C   UNL     1       6.594 -11.914   3.728  1.00  0.00     0.031 C 
ATOM     46  C   UNL     1       6.601 -10.704  -1.151  1.00  0.00     0.029 A 
ATOM     47  N   UNL     1       8.583 -11.066  -0.183  1.00  0.00    -0.354 N 
ATOM     48  C   UNL     1       8.859 -12.011   4.028  1.00  0.00     0.074 A 
ATOM     49  C   UNL     1       7.547 -12.060   4.637  1.00  0.00     0.031 C 
ATOM     50  C   UNL     1       7.545 -10.529  -2.089  1.00  0.00     0.029 A 
ATOM     51  C   UNL     1       8.859 -10.734  -1.487  1.00  0.00     0.049 A 
ATOM     52  H   UNL     1       9.281 -11.280   0.478  1.00  0.00     0.167 HD
ATOM     53  C   UNL     1      10.019 -12.237   4.690  1.00  0.00     0.037 A 
ATOM     54  C   UNL     1      10.039 -10.604  -2.122  1.00  0.00     0.037 A 
ATOM     55  C   UNL     1      11.320 -12.215   4.074  1.00  0.00     0.049 A 
ATOM     56  C   UNL     1      11.313 -10.859  -1.362  1.00  0.00     0.074 A 
ATOM     57  C   UNL     1      12.550 -12.494   4.643  1.00  0.00     0.029 A 
ATOM     58  N   UNL     1      11.558 -11.893   2.745  1.00  0.00    -0.354 N 
ATOM     59  N   UNL     1      11.474 -11.199  -0.107  1.00  0.00    -0.248 NA
ATOM     60  C   UNL     1      12.569 -10.718  -2.112  1.00  0.00     0.031 C 
ATOM     61  C   UNL     1      13.537 -12.296   3.671  1.00  0.00     0.029 A 
ATOM     62  C   UNL     1      12.918 -11.944   2.483  1.00  0.00     0.049 A 
ATOM     63  H   UNL     1      10.864 -11.662   2.087  1.00  0.00     0.167 HD
ATOM     64  C   UNL     1      12.842 -11.342   0.077  1.00  0.00     0.074 A 
ATOM     65  C   UNL     1      13.466 -11.064  -1.200  1.00  0.00     0.031 C 
ATOM     66  C   UNL     1      13.521 -11.673   1.203  1.00  0.00     0.037 A 
BRANCH  53  67
ATOM     67  C   UNL     1       9.934 -12.532   6.160  1.00  0.00     0.064 A 
ATOM     68  C   UNL     1       9.400 -13.738   6.640  1.00  0.00     0.173 A 
ATOM     69  C   UNL     1      10.428 -11.614   7.099  1.00  0.00     0.173 A 
ATOM     70  F   UNL     1       8.905 -14.645   5.784  1.00  0.00    -0.203 F 
ATOM     71  C   UNL     1       9.336 -14.001   8.006  1.00  0.00     0.198 A 
ATOM     72  C   UNL     1      10.390 -11.894   8.463  1.00  0.00     0.198 A 
ATOM     73  F   UNL     1      10.954 -10.449   6.695  1.00  0.00    -0.203 F 
ATOM     74  F   UNL     1       8.776 -15.137   8.442  1.00  0.00    -0.200 F 
ATOM     75  C   UNL     1       9.837 -13.082   8.916  1.00  0.00     0.200 A 
ATOM     76  F   UNL     1      10.886 -11.010   9.341  1.00  0.00    -0.200 F 
ATOM     77  F   UNL     1       9.781 -13.339  10.230  1.00  0.00    -0.200 F 
ENDBRANCH  53  67
BRANCH  54  78
ATOM     78  C   UNL     1      10.070 -10.238  -3.561  1.00  0.00     0.064 A 
ATOM     79  C   UNL     1      10.471 -11.169  -4.530  1.00  0.00     0.173 A 
ATOM     80  C   UNL     1       9.704  -8.957  -3.999  1.00  0.00     0.173 A 
ATOM     81  F   UNL     1      10.849 -12.401  -4.158  1.00  0.00    -0.203 F 
ATOM     82  C   UNL     1      10.525 -10.826  -5.879  1.00  0.00     0.198 A 
ATOM     83  C   UNL     1       9.731  -8.624  -5.351  1.00  0.00     0.198 A 
ATOM     84  F   UNL     1       9.307  -8.032  -3.113  1.00  0.00    -0.203 F 
ATOM     85  F   UNL     1      10.955 -11.721  -6.779  1.00  0.00    -0.200 F 
ATOM     86  C   UNL     1      10.149  -9.556  -6.290  1.00  0.00     0.200 A 
ATOM     87  F   UNL     1       9.353  -7.400  -5.745  1.00  0.00    -0.200 F 
ATOM     88  F   UNL     1      10.197  -9.227  -7.588  1.00  0.00    -0.200 F 
ENDBRANCH  54  78
BRANCH  66  89
ATOM     89  C   UNL     1      15.014 -11.789   1.097  1.00  0.00     0.064 A 
ATOM     90  C   UNL     1      15.832 -10.659   0.954  1.00  0.00     0.173 A 
ATOM     91  C   UNL     1      15.635 -13.044   1.179  1.00  0.00     0.173 A 
ATOM     92  F   UNL     1      15.285  -9.438   0.854  1.00  0.00    -0.203 F 
ATOM     93  C   UNL     1      17.216 -10.784   0.872  1.00  0.00     0.198 A 
ATOM     94  C   UNL     1      17.021 -13.163   1.127  1.00  0.00     0.198 A 
ATOM     95  F   UNL     1      14.898 -14.156   1.322  1.00  0.00    -0.203 F 
ATOM     96  F   UNL     1      17.975  -9.695   0.688  1.00  0.00    -0.200 F 
ATOM     97  C   UNL     1      17.809 -12.034   0.966  1.00  0.00     0.200 A 
ATOM     98  F   UNL     1      17.593 -14.370   1.232  1.00  0.00    -0.200 F 
ATOM     99  F   UNL     1      19.142 -12.151   0.895  1.00  0.00    -0.200 F 
ENDBRANCH  66  89
ENDBRANCH  40  41
ENDBRANCH  32  35
ENDBRANCH  30  31
ENDBRANCH  29  30
ENDBRANCH  28  29
ENDBRANCH   1  28
TORSDOF 16
