REMARK SMILES O=C(NCCCCCCNC(=O)c1c(C2CC2)nn(-c2ccc(Cl)c(F)c2)c1Cl)c1ccc(-c2c3nc(c(-c4c(F)c(F)c(F)c(F)c4F)c4ccc([nH]4)c(-c4c(F)c(F)c(F)c(F)c4F)c4nc(c(-c5c(F)c(F)c(F)c(F)c5F)c5ccc2[nH]5)C=C4)C=C3)cc1
REMARK SMILES IDX 6 1 5 2 4 3 3 4 1 5 2 6 30 8 31 9 92 10 32 11 91 12 33 13
REMARK SMILES IDX 34 14 35 15 85 16 36 17 90 18 84 19 86 20 37 21 89 22 83 23
REMARK SMILES IDX 82 24 38 26 70 27 50 28 69 29 51 30 54 31 68 32 87 33 52 34
REMARK SMILES IDX 53 35 67 37 88 38 55 39 39 40 40 41 48 42 41 43 42 44 46 45
REMARK SMILES IDX 49 46 43 47 44 48 47 49 45 50 71 51 72 52 80 53 73 54 74 55
REMARK SMILES IDX 78 56 81 57 75 58 76 59 79 60 77 61 56 62 57 63 65 64 58 65
REMARK SMILES IDX 59 66 63 67 66 68 60 69 61 70 64 71 62 72 7 73 8 74 9 75
REMARK SMILES IDX 10 76 11 77 12 79 13 80 14 81 28 82 18 83 19 84 29 85 15 86
REMARK SMILES IDX 16 87 17 88 20 89 21 90 27 91 22 92 25 93 23 94 26 95 24 96
REMARK H PARENT 3 7 86 25 54 36 10 78
REMARK Flexibility Score: inf
ROOT
ATOM      1  C   UNL     1       4.342  -1.649   3.262  1.00  0.00     0.002 C 
ENDROOT
BRANCH   1   2
ATOM      2  C   UNL     1       4.909  -0.625   2.270  1.00  0.00     0.021 C 
BRANCH   2   3
ATOM      3  C   UNL     1       4.778  -0.993   0.793  1.00  0.00     0.116 C 
BRANCH   3   4
ATOM      4  N   UNL     1       3.421  -1.237   0.350  1.00  0.00    -0.352 N 
ATOM      5  O   UNL     1       1.314  -1.039  -0.290  1.00  0.00    -0.269 OA
ATOM      6  C   UNL     1       2.331  -0.453   0.090  1.00  0.00     0.251 C 
ATOM      7  H   UNL     1       3.240  -2.193   0.200  1.00  0.00     0.163 HD
BRANCH   6   8
ATOM      8  C   UNL     1       2.275   1.028   0.259  1.00  0.00     0.039 A 
ATOM      9  C   UNL     1       3.373   1.886   0.275  1.00  0.00     0.014 A 
ATOM     10  C   UNL     1       0.991   1.597   0.348  1.00  0.00     0.014 A 
ATOM     11  C   UNL     1       3.199   3.268   0.426  1.00  0.00     0.010 A 
ATOM     12  C   UNL     1       0.812   2.978   0.472  1.00  0.00     0.010 A 
ATOM     13  C   UNL     1       1.919   3.826   0.535  1.00  0.00    -0.014 A 
BRANCH  13  14
ATOM     14  C   UNL     1       1.796   5.289   0.651  1.00  0.00     0.031 A 
ATOM     15  C   UNL     1       2.270   6.141  -0.483  1.00  0.00     0.074 A 
ATOM     16  C   UNL     1       1.113   5.937   1.618  1.00  0.00     0.049 A 
ATOM     17  N   UNL     1       3.067   7.167  -0.447  1.00  0.00    -0.248 NA
ATOM     18  C   UNL     1       1.726   5.850  -1.818  1.00  0.00     0.031 C 
ATOM     19  C   UNL     1       0.238   5.358   2.636  1.00  0.00     0.029 A 
ATOM     20  N   UNL     1       0.980   7.291   1.812  1.00  0.00    -0.354 N 
ATOM     21  C   UNL     1       3.041   7.722  -1.722  1.00  0.00     0.074 A 
ATOM     22  C   UNL     1       2.221   6.858  -2.538  1.00  0.00     0.031 C 
ATOM     23  C   UNL     1      -0.484   6.346   3.205  1.00  0.00     0.029 A 
ATOM     24  C   UNL     1      -0.033   7.630   2.686  1.00  0.00     0.049 A 
ATOM     25  H   UNL     1       1.554   7.957   1.369  1.00  0.00     0.167 HD
ATOM     26  C   UNL     1       3.588   8.926  -2.038  1.00  0.00     0.037 A 
ATOM     27  C   UNL     1      -0.519   8.862   2.957  1.00  0.00     0.037 A 
ATOM     28  C   UNL     1       4.439   9.478  -1.029  1.00  0.00     0.049 A 
ATOM     29  C   UNL     1       0.451   9.901   2.546  1.00  0.00     0.074 A 
ATOM     30  C   UNL     1       5.672   9.172  -0.496  1.00  0.00     0.029 A 
ATOM     31  N   UNL     1       3.926  10.486  -0.258  1.00  0.00    -0.354 N 
ATOM     32  N   UNL     1       1.567  10.170   3.163  1.00  0.00    -0.248 NA
ATOM     33  C   UNL     1       0.250  10.607   1.284  1.00  0.00     0.031 C 
ATOM     34  C   UNL     1       5.712   9.787   0.789  1.00  0.00     0.029 A 
ATOM     35  C   UNL     1       4.469  10.382   0.997  1.00  0.00     0.049 A 
ATOM     36  H   UNL     1       3.280  11.168  -0.553  1.00  0.00     0.167 HD
ATOM     37  C   UNL     1       2.356  10.780   2.206  1.00  0.00     0.074 A 
ATOM     38  C   UNL     1       1.444  11.186   1.153  1.00  0.00     0.031 C 
ATOM     39  C   UNL     1       3.705  10.600   2.203  1.00  0.00     0.037 A 
BRANCH  26  40
ATOM     40  C   UNL     1       3.164   9.747  -3.215  1.00  0.00     0.064 A 
ATOM     41  C   UNL     1       4.084  10.567  -3.888  1.00  0.00     0.173 A 
ATOM     42  C   UNL     1       1.805   9.920  -3.542  1.00  0.00     0.173 A 
ATOM     43  F   UNL     1       5.391  10.506  -3.592  1.00  0.00    -0.203 F 
ATOM     44  C   UNL     1       3.668  11.498  -4.842  1.00  0.00     0.198 A 
ATOM     45  C   UNL     1       1.395  10.827  -4.518  1.00  0.00     0.198 A 
ATOM     46  F   UNL     1       0.849   9.267  -2.864  1.00  0.00    -0.203 F 
ATOM     47  F   UNL     1       4.567  12.303  -5.426  1.00  0.00    -0.200 F 
ATOM     48  C   UNL     1       2.326  11.622  -5.161  1.00  0.00     0.200 A 
ATOM     49  F   UNL     1       0.091  10.961  -4.794  1.00  0.00    -0.200 F 
ATOM     50  F   UNL     1       1.925  12.531  -6.060  1.00  0.00    -0.200 F 
ENDBRANCH  26  40
BRANCH  27  51
ATOM     51  C   UNL     1      -1.847   9.220   3.498  1.00  0.00     0.064 A 
ATOM     52  C   UNL     1      -2.044  10.396   4.237  1.00  0.00     0.173 A 
ATOM     53  C   UNL     1      -3.001   8.506   3.127  1.00  0.00     0.173 A 
ATOM     54  F   UNL     1      -1.001  11.166   4.577  1.00  0.00    -0.203 F 
ATOM     55  C   UNL     1      -3.323  10.825   4.598  1.00  0.00     0.198 A 
ATOM     56  C   UNL     1      -4.276   8.925   3.503  1.00  0.00     0.198 A 
ATOM     57  F   UNL     1      -2.914   7.429   2.331  1.00  0.00    -0.203 F 
ATOM     58  F   UNL     1      -3.476  11.975   5.268  1.00  0.00    -0.200 F 
ATOM     59  C   UNL     1      -4.437  10.087   4.234  1.00  0.00     0.200 A 
ATOM     60  F   UNL     1      -5.348   8.220   3.115  1.00  0.00    -0.200 F 
ATOM     61  F   UNL     1      -5.666  10.513   4.557  1.00  0.00    -0.200 F 
ENDBRANCH  27  51
BRANCH  39  62
ATOM     62  C   UNL     1       4.338  10.232   3.505  1.00  0.00     0.064 A 
ATOM     63  C   UNL     1       4.168   8.978   4.110  1.00  0.00     0.173 A 
ATOM     64  C   UNL     1       5.212  11.143   4.112  1.00  0.00     0.173 A 
ATOM     65  F   UNL     1       3.410   8.035   3.530  1.00  0.00    -0.203 F 
ATOM     66  C   UNL     1       4.813   8.668   5.304  1.00  0.00     0.198 A 
ATOM     67  C   UNL     1       5.878  10.820   5.290  1.00  0.00     0.198 A 
ATOM     68  F   UNL     1       5.448  12.335   3.539  1.00  0.00    -0.203 F 
ATOM     69  F   UNL     1       4.628   7.469   5.876  1.00  0.00    -0.200 F 
ATOM     70  C   UNL     1       5.670   9.587   5.891  1.00  0.00     0.200 A 
ATOM     71  F   UNL     1       6.738  11.693   5.834  1.00  0.00    -0.200 F 
ATOM     72  F   UNL     1       6.314   9.277   7.025  1.00  0.00    -0.200 F 
ENDBRANCH  39  62
ENDBRANCH  13  14
ENDBRANCH   6   8
ENDBRANCH   3   4
ENDBRANCH   2   3
ENDBRANCH   1   2
BRANCH   1  73
ATOM     73  C   UNL     1       4.798  -3.102   3.088  1.00  0.00     0.002 C 
BRANCH  73  74
ATOM     74  C   UNL     1       6.311  -3.342   3.036  1.00  0.00     0.021 C 
BRANCH  74  75
ATOM     75  C   UNL     1       7.093  -2.905   4.271  1.00  0.00     0.116 C 
BRANCH  75  76
ATOM     76  N   UNL     1       6.791  -3.708   5.444  1.00  0.00    -0.352 N 
ATOM     77  C   UNL     1       7.646  -4.153   6.425  1.00  0.00     0.256 C 
ATOM     78  H   UNL     1       5.848  -3.969   5.551  1.00  0.00     0.163 HD
ATOM     79  O   UNL     1       7.188  -4.776   7.381  1.00  0.00    -0.269 OA
BRANCH  77  80
ATOM     80  C   UNL     1       9.051  -3.850   6.301  1.00  0.00     0.100 A 
ATOM     81  C   UNL     1      10.169  -4.683   6.065  1.00  0.00     0.080 A 
ATOM     82  C   UNL     1       9.609  -2.594   6.433  1.00  0.00     0.145 A 
ATOM     83  N   UNL     1      11.296  -3.981   5.900  1.00  0.00    -0.170 NA
ATOM     84  N   UNL     1      10.951  -2.689   6.131  1.00  0.00    -0.221 N 
ATOM     85  Cl  UNL     1       8.821  -1.103   6.720  1.00  0.00    -0.061 Cl
BRANCH  81  86
ATOM     86  C   UNL     1      10.260  -6.197   5.913  1.00  0.00     0.041 C 
ATOM     87  C   UNL     1       9.245  -7.147   6.501  1.00  0.00     0.011 C 
ATOM     88  C   UNL     1       9.274  -6.922   5.027  1.00  0.00     0.011 C 
ENDBRANCH  81  86
BRANCH  84  89
ATOM     89  C   UNL     1      11.940  -1.681   5.951  1.00  0.00     0.069 A 
ATOM     90  C   UNL     1      12.930  -1.885   4.971  1.00  0.00     0.030 A 
ATOM     91  C   UNL     1      11.948  -0.503   6.701  1.00  0.00     0.069 A 
ATOM     92  C   UNL     1      13.876  -0.891   4.702  1.00  0.00     0.026 A 
ATOM     93  C   UNL     1      12.913   0.471   6.441  1.00  0.00     0.143 A 
ATOM     94  C   UNL     1      13.863   0.292   5.438  1.00  0.00     0.076 A 
ATOM     95  F   UNL     1      12.908   1.587   7.184  1.00  0.00    -0.205 F 
ATOM     96  Cl  UNL     1      15.024   1.514   5.096  1.00  0.00    -0.081 Cl
ENDBRANCH  84  89
ENDBRANCH  77  80
ENDBRANCH  75  76
ENDBRANCH  74  75
ENDBRANCH  73  74
ENDBRANCH   1  73
TORSDOF 15
