REMARK SMILES O=C(NCCCCCCNC(=O)[C@H]1Cc2c([nH]c3ccccc23)[C@@H](c2ccc(OC(F)(F)F)cc2)[NH2+]1)c1ccc(-c2c3nc(c(-c4c(F)c(F)c(F)c(F)c4F)c4ccc([nH]4)c(-c4c(F)c(F)c(F)c(F)c4F)c4nc(c(-c5c(F)c(F)c(F)c(F)c5F)c5ccc2[nH]5)C=C4)C=C3)cc1
REMARK SMILES IDX 7 1 6 2 5 3 4 4 3 5 1 6 2 7 37 9 38 10 99 11 39 12 98 13
REMARK SMILES IDX 40 14 41 15 42 16 92 17 43 18 97 19 91 20 93 21 44 22 96 23
REMARK SMILES IDX 90 24 89 25 45 27 77 28 57 29 76 30 58 31 61 32 75 33 94 34
REMARK SMILES IDX 59 35 60 36 74 38 95 39 62 40 46 41 47 42 55 43 48 44 49 45
REMARK SMILES IDX 53 46 56 47 50 48 51 49 54 50 52 51 78 52 79 53 87 54 80 55
REMARK SMILES IDX 81 56 85 57 88 58 82 59 83 60 86 61 84 62 63 63 64 64 72 65
REMARK SMILES IDX 65 66 66 67 70 68 73 69 67 70 68 71 71 72 69 73 8 74 9 75
REMARK SMILES IDX 10 76 11 77 12 79 13 80 14 81 36 82 15 83 24 84 16 87 23 88
REMARK SMILES IDX 17 89 18 90 22 91 19 93 21 94 20 95 25 96 26 97 35 98 27 99
REMARK SMILES IDX 34 100 28 101 29 102 30 103 31 104 32 105 33 106
REMARK H PARENT 3 8 93 26 61 37 10 78 36 85 36 86 17 92
REMARK Flexibility Score: inf
ROOT
ATOM      1  C   UNL     1       4.589   4.022  -1.611  1.00  0.00     0.002 C 
ENDROOT
BRANCH   1   2
ATOM      2  C   UNL     1       4.088   2.963  -2.598  1.00  0.00     0.002 C 
BRANCH   2   3
ATOM      3  C   UNL     1       4.551   1.532  -2.331  1.00  0.00     0.021 C 
BRANCH   3   4
ATOM      4  C   UNL     1       4.298   1.018  -0.921  1.00  0.00     0.116 C 
BRANCH   4   5
ATOM      5  N   UNL     1       2.888   0.910  -0.592  1.00  0.00    -0.352 N 
ATOM      6  O   UNL     1       1.004  -0.112   0.127  1.00  0.00    -0.269 OA
ATOM      7  C   UNL     1       2.227  -0.129   0.018  1.00  0.00     0.251 C 
ATOM      8  H   UNL     1       2.332   1.683  -0.839  1.00  0.00     0.163 HD
BRANCH   7   9
ATOM      9  C   UNL     1       2.995  -1.290   0.520  1.00  0.00     0.039 A 
ATOM     10  C   UNL     1       4.168  -1.104   1.256  1.00  0.00     0.014 A 
ATOM     11  C   UNL     1       2.537  -2.582   0.247  1.00  0.00     0.014 A 
ATOM     12  C   UNL     1       4.949  -2.200   1.599  1.00  0.00     0.010 A 
ATOM     13  C   UNL     1       3.280  -3.689   0.670  1.00  0.00     0.010 A 
ATOM     14  C   UNL     1       4.504  -3.506   1.329  1.00  0.00    -0.014 A 
BRANCH  14  15
ATOM     15  C   UNL     1       5.304  -4.653   1.828  1.00  0.00     0.031 A 
ATOM     16  C   UNL     1       5.981  -5.608   0.888  1.00  0.00     0.074 A 
ATOM     17  C   UNL     1       5.449  -4.794   3.160  1.00  0.00     0.049 A 
ATOM     18  N   UNL     1       6.755  -6.628   1.168  1.00  0.00    -0.248 NA
ATOM     19  C   UNL     1       5.763  -5.402  -0.552  1.00  0.00     0.031 C 
ATOM     20  C   UNL     1       4.817  -3.937   4.167  1.00  0.00     0.029 A 
ATOM     21  N   UNL     1       6.185  -5.684   3.897  1.00  0.00    -0.354 N 
ATOM     22  C   UNL     1       7.105  -7.190  -0.052  1.00  0.00     0.074 A 
ATOM     23  C   UNL     1       6.441  -6.414  -1.078  1.00  0.00     0.031 C 
ATOM     24  C   UNL     1       5.233  -4.309   5.385  1.00  0.00     0.029 A 
ATOM     25  C   UNL     1       6.113  -5.463   5.251  1.00  0.00     0.049 A 
ATOM     26  H   UNL     1       6.715  -6.410   3.496  1.00  0.00     0.167 HD
ATOM     27  C   UNL     1       7.915  -8.251  -0.290  1.00  0.00     0.037 A 
ATOM     28  C   UNL     1       6.682  -6.125   6.274  1.00  0.00     0.037 A 
ATOM     29  C   UNL     1       8.582  -9.012   0.737  1.00  0.00     0.049 A 
ATOM     30  C   UNL     1       7.569  -7.299   5.976  1.00  0.00     0.074 A 
ATOM     31  C   UNL     1       9.438 -10.091   0.594  1.00  0.00     0.029 A 
ATOM     32  N   UNL     1       8.465  -8.775   2.099  1.00  0.00    -0.354 N 
ATOM     33  N   UNL     1       7.914  -7.800   4.816  1.00  0.00    -0.248 NA
ATOM     34  C   UNL     1       8.143  -8.001   7.131  1.00  0.00     0.031 C 
ATOM     35  C   UNL     1       9.811 -10.529   1.870  1.00  0.00     0.029 A 
ATOM     36  C   UNL     1       9.221  -9.697   2.807  1.00  0.00     0.049 A 
ATOM     37  H   UNL     1       7.925  -8.058   2.503  1.00  0.00     0.167 HD
ATOM     38  C   UNL     1       8.748  -8.871   5.098  1.00  0.00     0.074 A 
ATOM     39  C   UNL     1       8.885  -8.925   6.539  1.00  0.00     0.031 C 
ATOM     40  C   UNL     1       9.338  -9.739   4.241  1.00  0.00     0.037 A 
BRANCH  27  41
ATOM     41  C   UNL     1       8.131  -8.663  -1.717  1.00  0.00     0.064 A 
ATOM     42  C   UNL     1       8.942  -7.914  -2.582  1.00  0.00     0.173 A 
ATOM     43  C   UNL     1       7.585  -9.862  -2.202  1.00  0.00     0.173 A 
ATOM     44  F   UNL     1       9.480  -6.757  -2.169  1.00  0.00    -0.203 F 
ATOM     45  C   UNL     1       9.189  -8.344  -3.884  1.00  0.00     0.198 A 
ATOM     46  C   UNL     1       7.853 -10.300  -3.497  1.00  0.00     0.198 A 
ATOM     47  F   UNL     1       6.808 -10.619  -1.413  1.00  0.00    -0.203 F 
ATOM     48  F   UNL     1       9.946  -7.599  -4.701  1.00  0.00    -0.200 F 
ATOM     49  C   UNL     1       8.652  -9.540  -4.337  1.00  0.00     0.200 A 
ATOM     50  F   UNL     1       7.343 -11.462  -3.929  1.00  0.00    -0.200 F 
ATOM     51  F   UNL     1       8.905  -9.959  -5.585  1.00  0.00    -0.200 F 
ENDBRANCH  27  41
BRANCH  28  52
ATOM     52  C   UNL     1       6.420  -5.694   7.671  1.00  0.00     0.064 A 
ATOM     53  C   UNL     1       7.435  -5.132   8.457  1.00  0.00     0.173 A 
ATOM     54  C   UNL     1       5.148  -5.832   8.246  1.00  0.00     0.173 A 
ATOM     55  F   UNL     1       8.672  -4.996   7.957  1.00  0.00    -0.203 F 
ATOM     56  C   UNL     1       7.191  -4.742   9.772  1.00  0.00     0.198 A 
ATOM     57  C   UNL     1       4.898  -5.412   9.550  1.00  0.00     0.198 A 
ATOM     58  F   UNL     1       4.142  -6.358   7.532  1.00  0.00    -0.203 F 
ATOM     59  F   UNL     1       8.190  -4.249  10.517  1.00  0.00    -0.200 F 
ATOM     60  C   UNL     1       5.922  -4.876  10.315  1.00  0.00     0.200 A 
ATOM     61  F   UNL     1       3.666  -5.528  10.063  1.00  0.00    -0.200 F 
ATOM     62  F   UNL     1       5.688  -4.495  11.578  1.00  0.00    -0.200 F 
ENDBRANCH  28  52
BRANCH  40  63
ATOM     63  C   UNL     1      10.190 -10.812   4.851  1.00  0.00     0.064 A 
ATOM     64  C   UNL     1       9.621 -11.889   5.548  1.00  0.00     0.173 A 
ATOM     65  C   UNL     1      11.587 -10.765   4.736  1.00  0.00     0.173 A 
ATOM     66  F   UNL     1       8.290 -11.966   5.700  1.00  0.00    -0.203 F 
ATOM     67  C   UNL     1      10.423 -12.863   6.136  1.00  0.00     0.198 A 
ATOM     68  C   UNL     1      12.384 -11.756   5.302  1.00  0.00     0.198 A 
ATOM     69  F   UNL     1      12.178  -9.758   4.077  1.00  0.00    -0.203 F 
ATOM     70  F   UNL     1       9.861 -13.851   6.845  1.00  0.00    -0.200 F 
ATOM     71  C   UNL     1      11.802 -12.798   6.009  1.00  0.00     0.200 A 
ATOM     72  F   UNL     1      13.716 -11.697   5.172  1.00  0.00    -0.200 F 
ATOM     73  F   UNL     1      12.573 -13.734   6.580  1.00  0.00    -0.200 F 
ENDBRANCH  40  63
ENDBRANCH  14  15
ENDBRANCH   7   9
ENDBRANCH   4   5
ENDBRANCH   3   4
ENDBRANCH   2   3
ENDBRANCH   1   2
BRANCH   1  74
ATOM     74  C   UNL     1       6.104   4.070  -1.380  1.00  0.00     0.021 C 
BRANCH  74  75
ATOM     75  C   UNL     1       6.962   4.189  -2.636  1.00  0.00     0.116 C 
BRANCH  75  76
ATOM     76  N   UNL     1       6.641   5.367  -3.410  1.00  0.00    -0.351 N 
ATOM     77  C   UNL     1       7.465   6.204  -4.102  1.00  0.00     0.278 C 
ATOM     78  H   UNL     1       5.685   5.600  -3.442  1.00  0.00     0.163 HD
ATOM     79  O   UNL     1       6.940   7.190  -4.626  1.00  0.00    -0.268 OA
BRANCH  77  80
ATOM     80  C   UNL     1       8.988   5.950  -4.131  1.00  0.00     0.277 C 
ATOM     81  C   UNL     1       9.327   4.623  -4.854  1.00  0.00     0.114 C 
ATOM     82  N   UNL     1       9.635   7.083  -4.833  1.00  0.00    -0.325 N 
ATOM     83  C   UNL     1      10.808   4.503  -4.941  1.00  0.00    -0.006 A 
ATOM     84  C   UNL     1      11.101   7.060  -4.919  1.00  0.00     0.262 C 
ATOM     85  H   UNL     1       9.368   7.939  -4.347  1.00  0.00     0.347 HD
ATOM     86  H   UNL     1       9.310   7.019  -5.798  1.00  0.00     0.347 HD
ATOM     87  C   UNL     1      11.593   5.639  -4.956  1.00  0.00     0.083 A 
ATOM     88  C   UNL     1      11.660   3.374  -5.016  1.00  0.00     0.003 A 
ATOM     89  N   UNL     1      12.903   5.239  -4.986  1.00  0.00    -0.353 N 
ATOM     90  C   UNL     1      12.970   3.862  -5.055  1.00  0.00     0.046 A 
ATOM     91  C   UNL     1      11.450   1.983  -5.060  1.00  0.00     0.010 A 
ATOM     92  H   UNL     1      13.680   5.844  -4.962  1.00  0.00     0.166 HD
ATOM     93  C   UNL     1      14.082   3.016  -5.151  1.00  0.00     0.026 A 
ATOM     94  C   UNL     1      12.552   1.126  -5.156  1.00  0.00     0.001 A 
ATOM     95  C   UNL     1      13.847   1.638  -5.204  1.00  0.00     0.002 A 
BRANCH  84  96
ATOM     96  C   UNL     1      11.490   7.896  -6.139  1.00  0.00     0.016 A 
ATOM     97  C   UNL     1      11.905   7.326  -7.353  1.00  0.00     0.014 A 
ATOM     98  C   UNL     1      11.311   9.291  -6.101  1.00  0.00     0.014 A 
ATOM     99  C   UNL     1      12.139   8.122  -8.478  1.00  0.00     0.047 A 
ATOM    100  C   UNL     1      11.517  10.084  -7.238  1.00  0.00     0.047 A 
ATOM    101  C   UNL     1      11.924   9.499  -8.436  1.00  0.00     0.129 A 
BRANCH 101 102
ATOM    102  O   UNL     1      12.145  10.141  -9.620  1.00  0.00    -0.406 OA
BRANCH 102 103
ATOM    103  C   UNL     1      11.652  11.463  -9.747  1.00  0.00     0.573 C 
ATOM    104  F   UNL     1      10.329  11.526  -9.485  1.00  0.00    -0.132 F 
ATOM    105  F   UNL     1      12.316  12.309  -8.930  1.00  0.00    -0.132 F 
ATOM    106  F   UNL     1      11.847  11.875 -11.020  1.00  0.00    -0.132 F 
ENDBRANCH 102 103
ENDBRANCH 101 102
ENDBRANCH  84  96
ENDBRANCH  77  80
ENDBRANCH  75  76
ENDBRANCH  74  75
ENDBRANCH   1  74
TORSDOF 16
