REMARK SMILES CCCOC(=O)c1c(NC(=O)[C@@H]2CC=CC[C@H]2C(=O)NCCCCCCNC(=O)c2ccc(-c3c4nc(c(-c5c(F)c(F)c(F)c(F)c5F)c5ccc([nH]5)c(-c5c(F)c(F)c(F)c(F)c5F)c5nc(c(-c6c(F)c(F)c(F)c(F)c6F)c6ccc3[nH]6)C=C5)C=C4)cc2)sc2c1CCCC2
REMARK SMILES IDX 21 1 20 2 18 3 19 4 17 6 12 7 13 8 14 9 16 10 15 11 10 12
REMARK SMILES IDX 9 13 11 15 8 16 7 17 95 18 93 19 94 20 96 21 99 22 97 23
REMARK SMILES IDX 98 24 5 25 6 26 4 27 3 28 2 29 1 30 22 31 23 32 24 33 25 34
REMARK SMILES IDX 26 35 27 36 28 37 29 39 30 40 31 41 92 42 32 43 91 44 33 45
REMARK SMILES IDX 34 46 35 47 85 48 36 49 90 50 84 51 86 52 37 53 89 54 83 55
REMARK SMILES IDX 82 56 38 58 70 59 50 60 69 61 51 62 54 63 68 64 87 65 52 66
REMARK SMILES IDX 53 67 67 69 88 70 55 71 39 72 40 73 48 74 41 75 42 76 46 77
REMARK SMILES IDX 49 78 43 79 44 80 47 81 45 82 71 83 72 84 80 85 73 86 74 87
REMARK SMILES IDX 78 88 81 89 75 90 76 91 79 92 77 93 56 94 57 95 65 96 58 97
REMARK SMILES IDX 59 98 63 99 66 100 60 101 61 102 64 103 62 104
REMARK H PARENT 20 5 9 14 27 38 86 57 54 68
REMARK Flexibility Score: inf
ROOT
ATOM      1  C   UNL     1       0.818  -4.311  -0.547  1.00  0.00     0.116 C 
ENDROOT
BRANCH   1   2
ATOM      2  N   UNL     1       1.608  -2.960  -1.137  1.00  0.00    -0.356 N 
ATOM      3  C   UNL     1       1.823  -1.558  -1.234  1.00  0.00     0.224 C 
ATOM      4  O   UNL     1       2.917  -1.367  -1.815  1.00  0.00    -0.275 OA
ATOM      5  H   UNL     1       2.288  -3.338  -1.740  1.00  0.00     0.163 HD
BRANCH   3   6
ATOM      6  C   UNL     1       0.991  -0.036  -0.844  1.00  0.00     0.095 C 
ATOM      7  C   UNL     1       0.369   0.755  -2.017  1.00  0.00     0.095 C 
ATOM      8  C   UNL     1       0.256   2.293  -1.762  1.00  0.00     0.041 C 
ATOM      9  C   UNL     1      -0.353   2.663  -0.455  1.00  0.00    -0.030 C 
ATOM     10  C   UNL     1       0.020   0.351   0.354  1.00  0.00     0.041 C 
ATOM     11  C   UNL     1      -0.456   1.764   0.518  1.00  0.00    -0.030 C 
BRANCH   7  12
ATOM     12  C   UNL     1       1.080   0.622  -3.321  1.00  0.00     0.229 C 
ATOM     13  N   UNL     1       0.480  -0.175  -4.233  1.00  0.00    -0.317 N 
ATOM     14  H   UNL     1       0.482   0.158  -5.160  1.00  0.00     0.170 HD
ATOM     15  O   UNL     1       2.020   1.344  -3.650  1.00  0.00    -0.274 OA
BRANCH  13  16
ATOM     16  C   UNL     1      -0.131  -1.386  -4.035  1.00  0.00     0.110 A 
ATOM     17  C   UNL     1      -0.188  -2.348  -3.018  1.00  0.00     0.098 A 
ATOM     18  C   UNL     1       0.236  -3.594  -3.808  1.00  0.00    -0.017 A 
ATOM     19  S   UNL     1      -0.683  -1.959  -5.541  1.00  0.00    -0.122 S 
ATOM     20  C   UNL     1      -0.188  -3.511  -5.132  1.00  0.00     0.011 A 
ATOM     21  C   UNL     1       1.214  -4.732  -3.553  1.00  0.00     0.038 C 
ATOM     22  C   UNL     1      -0.052  -4.575  -6.180  1.00  0.00     0.047 C 
ATOM     23  C   UNL     1       1.157  -5.955  -4.500  1.00  0.00     0.005 C 
ATOM     24  C   UNL     1       0.009  -5.936  -5.499  1.00  0.00     0.006 C 
BRANCH  17  25
ATOM     25  C   UNL     1      -0.920  -2.050  -1.631  1.00  0.00     0.341 C 
ATOM     26  O   UNL     1      -2.091  -1.673  -1.735  1.00  0.00    -0.246 OA
BRANCH  25  27
ATOM     27  O   UNL     1      -0.455  -2.109  -0.274  1.00  0.00    -0.462 OA
BRANCH  27  28
ATOM     28  C   UNL     1       0.312  -2.233   1.241  1.00  0.00     0.233 C 
BRANCH  28  29
ATOM     29  C   UNL     1       1.890  -2.061   1.592  1.00  0.00     0.038 C 
ATOM     30  C   UNL     1       2.595  -0.704   1.850  1.00  0.00     0.007 C 
ENDBRANCH  28  29
ENDBRANCH  27  28
ENDBRANCH  25  27
ENDBRANCH  17  25
ENDBRANCH  13  16
ENDBRANCH   7  12
ENDBRANCH   3   6
ENDBRANCH   1   2
BRANCH   1  31
ATOM     31  C   UNL     1      -0.730  -4.802  -0.797  1.00  0.00     0.021 C 
BRANCH  31  32
ATOM     32  C   UNL     1      -1.041  -6.025  -1.712  1.00  0.00     0.002 C 
BRANCH  32  33
ATOM     33  C   UNL     1      -2.076  -7.038  -1.185  1.00  0.00     0.002 C 
BRANCH  33  34
ATOM     34  C   UNL     1      -3.565  -6.684  -1.264  1.00  0.00     0.021 C 
BRANCH  34  35
ATOM     35  C   UNL     1      -4.168  -6.446  -2.650  1.00  0.00     0.116 C 
BRANCH  35  36
ATOM     36  N   UNL     1      -3.868  -7.482  -3.632  1.00  0.00    -0.352 N 
ATOM     37  C   UNL     1      -4.729  -8.154  -4.486  1.00  0.00     0.251 C 
ATOM     38  H   UNL     1      -2.920  -7.741  -3.697  1.00  0.00     0.163 HD
ATOM     39  O   UNL     1      -4.344  -9.002  -5.249  1.00  0.00    -0.269 OA
BRANCH  37  40
ATOM     40  C   UNL     1      -6.164  -7.810  -4.400  1.00  0.00     0.039 A 
ATOM     41  C   UNL     1      -7.058  -8.763  -3.909  1.00  0.00     0.014 A 
ATOM     42  C   UNL     1      -6.570  -6.501  -4.664  1.00  0.00     0.014 A 
ATOM     43  C   UNL     1      -8.357  -8.371  -3.587  1.00  0.00     0.010 A 
ATOM     44  C   UNL     1      -7.841  -6.099  -4.275  1.00  0.00     0.010 A 
ATOM     45  C   UNL     1      -8.741  -7.026  -3.722  1.00  0.00    -0.014 A 
BRANCH  45  46
ATOM     46  C   UNL     1     -10.087  -6.571  -3.299  1.00  0.00     0.031 A 
ATOM     47  C   UNL     1     -11.045  -6.050  -4.330  1.00  0.00     0.074 A 
ATOM     48  C   UNL     1     -10.416  -6.565  -1.992  1.00  0.00     0.049 A 
ATOM     49  N   UNL     1     -12.244  -5.551  -4.172  1.00  0.00    -0.248 NA
ATOM     50  C   UNL     1     -10.578  -6.059  -5.726  1.00  0.00     0.031 C 
ATOM     51  C   UNL     1      -9.540  -6.982  -0.894  1.00  0.00     0.029 A 
ATOM     52  N   UNL     1     -11.576  -6.189  -1.362  1.00  0.00    -0.354 N 
ATOM     53  C   UNL     1     -12.661  -5.173  -5.440  1.00  0.00     0.074 A 
ATOM     54  C   UNL     1     -11.567  -5.436  -6.347  1.00  0.00     0.031 C 
ATOM     55  C   UNL     1     -10.204  -6.865   0.269  1.00  0.00     0.029 A 
ATOM     56  C   UNL     1     -11.540  -6.344   0.003  1.00  0.00     0.049 A 
ATOM     57  H   UNL     1     -12.361  -5.841  -1.844  1.00  0.00     0.167 HD
ATOM     58  C   UNL     1     -13.864  -4.684  -5.821  1.00  0.00     0.037 A 
ATOM     59  C   UNL     1     -12.488  -6.097   0.929  1.00  0.00     0.037 A 
ATOM     60  C   UNL     1     -14.961  -4.465  -4.919  1.00  0.00     0.049 A 
ATOM     61  C   UNL     1     -13.830  -5.586   0.474  1.00  0.00     0.074 A 
ATOM     62  C   UNL     1     -16.241  -4.025  -5.204  1.00  0.00     0.029 A 
ATOM     63  N   UNL     1     -14.904  -4.680  -3.549  1.00  0.00    -0.354 N 
ATOM     64  N   UNL     1     -14.241  -5.305  -0.740  1.00  0.00    -0.248 NA
ATOM     65  C   UNL     1     -14.845  -5.370   1.514  1.00  0.00     0.031 C 
ATOM     66  C   UNL     1     -16.952  -3.949  -4.002  1.00  0.00     0.029 A 
ATOM     67  C   UNL     1     -16.126  -4.378  -2.974  1.00  0.00     0.049 A 
ATOM     68  H   UNL     1     -14.113  -5.000  -3.060  1.00  0.00     0.167 HD
ATOM     69  C   UNL     1     -15.565  -4.910  -0.613  1.00  0.00     0.074 A 
ATOM     70  C   UNL     1     -15.896  -5.004   0.794  1.00  0.00     0.031 C 
ATOM     71  C   UNL     1     -16.432  -4.502  -1.572  1.00  0.00     0.037 A 
BRANCH  58  72
ATOM     72  C   UNL     1     -14.055  -4.380  -7.277  1.00  0.00     0.064 A 
ATOM     73  C   UNL     1     -14.127  -5.405  -8.234  1.00  0.00     0.173 A 
ATOM     74  C   UNL     1     -14.178  -3.057  -7.723  1.00  0.00     0.173 A 
ATOM     75  F   UNL     1     -13.998  -6.687  -7.861  1.00  0.00    -0.203 F 
ATOM     76  C   UNL     1     -14.282  -5.114  -9.586  1.00  0.00     0.198 A 
ATOM     77  C   UNL     1     -14.364  -2.771  -9.073  1.00  0.00     0.198 A 
ATOM     78  F   UNL     1     -14.119  -2.040  -6.850  1.00  0.00    -0.203 F 
ATOM     79  F   UNL     1     -14.291  -6.107 -10.486  1.00  0.00    -0.200 F 
ATOM     80  C   UNL     1     -14.406  -3.798 -10.004  1.00  0.00     0.200 A 
ATOM     81  F   UNL     1     -14.494  -1.499  -9.475  1.00  0.00    -0.200 F 
ATOM     82  F   UNL     1     -14.559  -3.519 -11.306  1.00  0.00    -0.200 F 
ENDBRANCH  58  72
BRANCH  59  83
ATOM     83  C   UNL     1     -12.226  -6.370   2.367  1.00  0.00     0.064 A 
ATOM     84  C   UNL     1     -12.884  -7.415   3.032  1.00  0.00     0.173 A 
ATOM     85  C   UNL     1     -11.338  -5.582   3.114  1.00  0.00     0.173 A 
ATOM     86  F   UNL     1     -13.758  -8.185   2.367  1.00  0.00    -0.203 F 
ATOM     87  C   UNL     1     -12.688  -7.643   4.393  1.00  0.00     0.198 A 
ATOM     88  C   UNL     1     -11.121  -5.829   4.469  1.00  0.00     0.198 A 
ATOM     89  F   UNL     1     -10.678  -4.574   2.527  1.00  0.00    -0.203 F 
ATOM     90  F   UNL     1     -13.371  -8.616   5.013  1.00  0.00    -0.200 F 
ATOM     91  C   UNL     1     -11.804  -6.852   5.110  1.00  0.00     0.200 A 
ATOM     92  F   UNL     1     -10.257  -5.070   5.156  1.00  0.00    -0.200 F 
ATOM     93  F   UNL     1     -11.617  -7.069   6.419  1.00  0.00    -0.200 F 
ENDBRANCH  59  83
BRANCH  71  94
ATOM     94  C   UNL     1     -17.827  -4.165  -1.139  1.00  0.00     0.064 A 
ATOM     95  C   UNL     1     -18.112  -2.989  -0.432  1.00  0.00     0.173 A 
ATOM     96  C   UNL     1     -18.897  -5.005  -1.484  1.00  0.00     0.173 A 
ATOM     97  F   UNL     1     -17.119  -2.163  -0.068  1.00  0.00    -0.203 F 
ATOM     98  C   UNL     1     -19.418  -2.674  -0.068  1.00  0.00     0.198 A 
ATOM     99  C   UNL     1     -20.204  -4.673  -1.143  1.00  0.00     0.198 A 
ATOM    100  F   UNL     1     -18.674  -6.138  -2.167  1.00  0.00    -0.203 F 
ATOM    101  F   UNL     1     -19.664  -1.565   0.643  1.00  0.00    -0.200 F 
ATOM    102  C   UNL     1     -20.463  -3.512  -0.431  1.00  0.00     0.200 A 
ATOM    103  F   UNL     1     -21.214  -5.476  -1.505  1.00  0.00    -0.200 F 
ATOM    104  F   UNL     1     -21.720  -3.202  -0.088  1.00  0.00    -0.200 F 
ENDBRANCH  71  94
ENDBRANCH  45  46
ENDBRANCH  37  40
ENDBRANCH  35  36
ENDBRANCH  34  35
ENDBRANCH  33  34
ENDBRANCH  32  33
ENDBRANCH  31  32
ENDBRANCH   1  31
TORSDOF 19
