REMARK SMILES Cc1ccccc1NC(=O)C[NH+]1CCC(CC(=O)NCCCCCCNC(=O)c2ccc(-c3c4nc(c(-c5c(F)c(F)c(F)c(F)c5F)c5ccc([nH]5)c(-c5c(F)c(F)c(F)c(F)c5F)c5nc(c(-c6c(F)c(F)c(F)c(F)c6F)c6ccc3[nH]6)C=C5)C=C4)cc2)CC1
REMARK SMILES IDX 21 1 20 2 19 3 17 4 18 5 16 7 15 8 12 9 13 10 93 11 14 13
REMARK SMILES IDX 92 14 11 15 9 16 8 17 10 19 7 20 1 21 2 22 3 23 4 24 6 25
REMARK SMILES IDX 5 26 22 27 23 28 24 29 25 30 26 31 27 32 28 34 29 35 30 36
REMARK SMILES IDX 91 37 31 38 90 39 32 40 33 41 34 42 84 43 35 44 89 45 83 46
REMARK SMILES IDX 85 47 36 48 88 49 82 50 81 51 37 53 69 54 49 55 68 56 50 57
REMARK SMILES IDX 53 58 67 59 86 60 51 61 52 62 66 64 87 65 54 66 38 67 39 68
REMARK SMILES IDX 47 69 40 70 41 71 45 72 48 73 42 74 43 75 46 76 44 77 70 78
REMARK SMILES IDX 71 79 79 80 72 81 73 82 77 83 80 84 74 85 75 86 78 87 76 88
REMARK SMILES IDX 55 89 56 90 64 91 57 92 58 93 62 94 65 95 59 96 60 97 63 98
REMARK SMILES IDX 61 99
REMARK H PARENT 19 6 12 12 8 18 26 33 85 52 53 63
REMARK Flexibility Score: inf
ROOT
ATOM      1  C   UNL     1      -1.290   4.879  -6.098  1.00  0.00     0.021 C 
ENDROOT
BRANCH   1   2
ATOM      2  C   UNL     1      -2.055   3.630  -6.553  1.00  0.00     0.116 C 
BRANCH   2   3
ATOM      3  N   UNL     1      -1.147   2.538  -6.856  1.00  0.00    -0.356 N 
ATOM      4  C   UNL     1      -0.951   1.358  -6.199  1.00  0.00     0.220 C 
ATOM      5  O   UNL     1      -0.050   0.610  -6.580  1.00  0.00    -0.275 OA
ATOM      6  H   UNL     1      -0.589   2.668  -7.656  1.00  0.00     0.163 HD
BRANCH   4   7
ATOM      7  C   UNL     1      -1.833   0.986  -5.023  1.00  0.00     0.104 C 
BRANCH   7   8
ATOM      8  C   UNL     1      -1.264   1.377  -3.651  1.00  0.00     0.009 C 
ATOM      9  N   UNL     1      -1.496   2.894  -1.136  1.00  0.00    -0.327 N 
ATOM     10  C   UNL     1      -0.481   3.275  -2.117  1.00  0.00     0.262 C 
ATOM     11  C   UNL     1      -1.782   1.462  -1.189  1.00  0.00     0.262 C 
ATOM     12  H   UNL     1      -2.360   3.366  -1.401  1.00  0.00     0.348 HD
ATOM     13  C   UNL     1      -0.912   2.861  -3.522  1.00  0.00     0.066 C 
ATOM     14  C   UNL     1      -2.277   1.014  -2.560  1.00  0.00     0.066 C 
BRANCH   9  15
ATOM     15  C   UNL     1      -1.202   3.398   0.229  1.00  0.00     0.363 C 
BRANCH  15  16
ATOM     16  C   UNL     1       0.270   3.353   0.675  1.00  0.00     0.279 C 
ATOM     17  N   UNL     1       0.918   2.203   1.032  1.00  0.00    -0.321 N 
ATOM     18  H   UNL     1       1.872   2.319   1.249  1.00  0.00     0.170 HD
ATOM     19  O   UNL     1       0.948   4.390   0.647  1.00  0.00    -0.268 OA
BRANCH  17  20
ATOM     20  C   UNL     1       0.450   0.886   1.138  1.00  0.00     0.044 A 
ATOM     21  C   UNL     1       2.603  -0.001   0.037  1.00  0.00     0.046 C 
ATOM     22  C   UNL     1       1.216  -0.166   0.597  1.00  0.00    -0.027 A 
ATOM     23  C   UNL     1       0.645  -1.450   0.530  1.00  0.00     0.005 A 
ATOM     24  C   UNL     1      -0.639  -1.693   1.015  1.00  0.00     0.000 A 
ATOM     25  C   UNL     1      -0.794   0.608   1.716  1.00  0.00     0.026 A 
ATOM     26  C   UNL     1      -1.347  -0.672   1.637  1.00  0.00     0.002 A 
ENDBRANCH  17  20
ENDBRANCH  15  16
ENDBRANCH   9  15
ENDBRANCH   7   8
ENDBRANCH   4   7
ENDBRANCH   2   3
ENDBRANCH   1   2
BRANCH   1  27
ATOM     27  C   UNL     1      -0.954   5.874  -7.208  1.00  0.00     0.002 C 
BRANCH  27  28
ATOM     28  C   UNL     1      -2.154   6.459  -7.963  1.00  0.00     0.002 C 
BRANCH  28  29
ATOM     29  C   UNL     1      -3.307   6.958  -7.091  1.00  0.00     0.021 C 
BRANCH  29  30
ATOM     30  C   UNL     1      -2.974   8.200  -6.276  1.00  0.00     0.116 C 
BRANCH  30  31
ATOM     31  N   UNL     1      -3.160   9.433  -7.025  1.00  0.00    -0.352 N 
ATOM     32  C   UNL     1      -2.993  10.754  -6.653  1.00  0.00     0.251 C 
ATOM     33  H   UNL     1      -3.455   9.306  -7.955  1.00  0.00     0.163 HD
ATOM     34  O   UNL     1      -3.347  11.640  -7.412  1.00  0.00    -0.269 OA
BRANCH  32  35
ATOM     35  C   UNL     1      -2.232  11.095  -5.424  1.00  0.00     0.039 A 
ATOM     36  C   UNL     1      -1.331  12.168  -5.512  1.00  0.00     0.014 A 
ATOM     37  C   UNL     1      -2.220  10.269  -4.307  1.00  0.00     0.014 A 
ATOM     38  C   UNL     1      -0.259  12.241  -4.628  1.00  0.00     0.010 A 
ATOM     39  C   UNL     1      -1.109  10.276  -3.492  1.00  0.00     0.010 A 
ATOM     40  C   UNL     1      -0.093  11.212  -3.709  1.00  0.00    -0.014 A 
BRANCH  40  41
ATOM     41  C   UNL     1       1.135  10.963  -2.974  1.00  0.00     0.031 A 
ATOM     42  C   UNL     1       1.209  11.283  -1.540  1.00  0.00     0.074 A 
ATOM     43  C   UNL     1       2.118  10.257  -3.574  1.00  0.00     0.049 A 
ATOM     44  N   UNL     1       2.294  11.273  -0.847  1.00  0.00    -0.248 NA
ATOM     45  C   UNL     1       0.044  11.712  -0.778  1.00  0.00     0.031 C 
ATOM     46  C   UNL     1       3.231   9.560  -2.935  1.00  0.00     0.029 A 
ATOM     47  N   UNL     1       2.417  10.205  -4.946  1.00  0.00    -0.354 N 
ATOM     48  C   UNL     1       1.946  11.382   0.479  1.00  0.00     0.074 A 
ATOM     49  C   UNL     1       0.559  11.777   0.453  1.00  0.00     0.031 C 
ATOM     50  C   UNL     1       4.222   9.423  -3.829  1.00  0.00     0.029 A 
ATOM     51  C   UNL     1       3.835  10.177  -5.007  1.00  0.00     0.049 A 
ATOM     52  H   UNL     1       1.784  10.192  -5.699  1.00  0.00     0.167 HD
ATOM     53  C   UNL     1       2.858  10.987   1.418  1.00  0.00     0.037 A 
ATOM     54  C   UNL     1       4.527  11.242  -5.512  1.00  0.00     0.037 A 
ATOM     55  C   UNL     1       4.176  10.770   0.802  1.00  0.00     0.049 A 
ATOM     56  C   UNL     1       5.466  11.919  -4.533  1.00  0.00     0.074 A 
ATOM     57  C   UNL     1       4.940   9.665   0.464  1.00  0.00     0.029 A 
ATOM     58  N   UNL     1       4.782  11.846   0.175  1.00  0.00    -0.354 N 
ATOM     59  N   UNL     1       5.559  11.620  -3.266  1.00  0.00    -0.248 NA
ATOM     60  C   UNL     1       6.309  13.059  -4.894  1.00  0.00     0.031 C 
ATOM     61  C   UNL     1       6.011  10.101  -0.376  1.00  0.00     0.029 A 
ATOM     62  C   UNL     1       5.900  11.469  -0.540  1.00  0.00     0.049 A 
ATOM     63  H   UNL     1       4.454  12.772   0.232  1.00  0.00     0.167 HD
ATOM     64  C   UNL     1       6.390  12.512  -2.642  1.00  0.00     0.074 A 
ATOM     65  C   UNL     1       6.835  13.397  -3.704  1.00  0.00     0.031 C 
ATOM     66  C   UNL     1       6.617  12.486  -1.295  1.00  0.00     0.037 A 
BRANCH  53  67
ATOM     67  C   UNL     1       2.534  10.590   2.851  1.00  0.00     0.064 A 
ATOM     68  C   UNL     1       3.467   9.846   3.610  1.00  0.00     0.173 A 
ATOM     69  C   UNL     1       1.313  10.820   3.518  1.00  0.00     0.173 A 
ATOM     70  F   UNL     1       4.709   9.617   3.166  1.00  0.00    -0.203 F 
ATOM     71  C   UNL     1       3.164   9.303   4.866  1.00  0.00     0.198 A 
ATOM     72  C   UNL     1       1.002  10.261   4.762  1.00  0.00     0.198 A 
ATOM     73  F   UNL     1       0.374  11.630   3.035  1.00  0.00    -0.203 F 
ATOM     74  F   UNL     1       4.089   8.587   5.520  1.00  0.00    -0.200 F 
ATOM     75  C   UNL     1       1.922   9.489   5.431  1.00  0.00     0.200 A 
ATOM     76  F   UNL     1      -0.205  10.486   5.303  1.00  0.00    -0.200 F 
ATOM     77  F   UNL     1       1.620   8.951   6.619  1.00  0.00    -0.200 F 
ENDBRANCH  53  67
BRANCH  54  78
ATOM     78  C   UNL     1       3.781  11.933  -6.599  1.00  0.00     0.064 A 
ATOM     79  C   UNL     1       3.486  11.208  -7.771  1.00  0.00     0.173 A 
ATOM     80  C   UNL     1       3.032  13.088  -6.346  1.00  0.00     0.173 A 
ATOM     81  F   UNL     1       4.174  10.091  -8.059  1.00  0.00    -0.203 F 
ATOM     82  C   UNL     1       2.405  11.550  -8.580  1.00  0.00     0.198 A 
ATOM     83  C   UNL     1       1.962  13.438  -7.171  1.00  0.00     0.198 A 
ATOM     84  F   UNL     1       3.252  13.810  -5.238  1.00  0.00    -0.203 F 
ATOM     85  F   UNL     1       2.074  10.771  -9.620  1.00  0.00    -0.200 F 
ATOM     86  C   UNL     1       1.625  12.649  -8.262  1.00  0.00     0.200 A 
ATOM     87  F   UNL     1       1.193  14.489  -6.851  1.00  0.00    -0.200 F 
ATOM     88  F   UNL     1       0.529  12.926  -8.980  1.00  0.00    -0.200 F 
ENDBRANCH  54  78
BRANCH  66  89
ATOM     89  C   UNL     1       7.517  13.452  -0.569  1.00  0.00     0.064 A 
ATOM     90  C   UNL     1       8.768  13.847  -1.068  1.00  0.00     0.173 A 
ATOM     91  C   UNL     1       7.191  13.935   0.719  1.00  0.00     0.173 A 
ATOM     92  F   UNL     1       9.219  13.382  -2.242  1.00  0.00    -0.203 F 
ATOM     93  C   UNL     1       9.603  14.716  -0.358  1.00  0.00     0.198 A 
ATOM     94  C   UNL     1       8.051  14.754   1.450  1.00  0.00     0.198 A 
ATOM     95  F   UNL     1       6.018  13.653   1.302  1.00  0.00    -0.203 F 
ATOM     96  F   UNL     1      10.761  15.117  -0.901  1.00  0.00    -0.200 F 
ATOM     97  C   UNL     1       9.249  15.160   0.904  1.00  0.00     0.200 A 
ATOM     98  F   UNL     1       7.701  15.152   2.682  1.00  0.00    -0.200 F 
ATOM     99  F   UNL     1      10.059  15.978   1.590  1.00  0.00    -0.200 F 
ENDBRANCH  66  89
ENDBRANCH  40  41
ENDBRANCH  32  35
ENDBRANCH  30  31
ENDBRANCH  29  30
ENDBRANCH  28  29
ENDBRANCH  27  28
ENDBRANCH   1  27
TORSDOF 17
