REMARK SMILES CN(C)S(=O)(=O)c1cccc(-c2cc(Cl)cc(C(=O)NCCCCCCNC(=O)c3ccc(-c4c5nc(c(-c6c(F)c(F)c(F)c(F)c6F)c6ccc([nH]6)c(-c6c(F)c(F)c(F)c(F)c6F)c6nc(c(-c7c(F)c(F)c(F)c(F)c7F)c7ccc4[nH]7)C=C6)C=C5)cc3)c2)c1
REMARK SMILES IDX 23 1 22 2 21 3 20 4 18 5 19 6 17 8 12 9 13 10 93 11 14 12
REMARK SMILES IDX 15 13 16 14 11 15 7 16 8 17 94 18 9 19 10 20 4 21 5 22 6 23
REMARK SMILES IDX 2 24 1 25 3 26 24 27 25 28 26 29 27 30 28 31 29 33 30 34
REMARK SMILES IDX 31 35 92 36 32 37 91 38 33 39 34 40 35 41 85 42 36 43 90 44
REMARK SMILES IDX 84 45 86 46 37 47 89 48 83 49 82 50 38 52 70 53 50 54 69 55
REMARK SMILES IDX 51 56 54 57 68 58 87 59 52 60 53 61 67 63 88 64 55 65 39 66
REMARK SMILES IDX 40 67 48 68 41 69 42 70 46 71 49 72 43 73 44 74 47 75 45 76
REMARK SMILES IDX 71 77 72 78 80 79 73 80 74 81 78 82 81 83 75 84 76 85 79 86
REMARK SMILES IDX 77 87 56 88 57 89 65 90 58 91 59 92 63 93 66 94 60 95 61 96
REMARK SMILES IDX 64 97 62 98
REMARK H PARENT 20 7 27 32 86 51 54 62
REMARK Flexibility Score: inf
ROOT
ATOM      1  C   UNL     1      -6.707   2.129  -2.263  1.00  0.00     0.002 C 
ENDROOT
BRANCH   1   2
ATOM      2  C   UNL     1      -5.670   2.805  -3.159  1.00  0.00     0.021 C 
BRANCH   2   3
ATOM      3  C   UNL     1      -4.576   1.916  -3.743  1.00  0.00     0.116 C 
BRANCH   3   4
ATOM      4  N   UNL     1      -5.052   0.857  -4.616  1.00  0.00    -0.352 N 
ATOM      5  C   UNL     1      -4.502   0.324  -5.763  1.00  0.00     0.251 C 
ATOM      6  O   UNL     1      -5.108  -0.564  -6.359  1.00  0.00    -0.269 OA
ATOM      7  H   UNL     1      -5.908   0.453  -4.345  1.00  0.00     0.163 HD
BRANCH   5   8
ATOM      8  C   UNL     1      -3.222   0.829  -6.330  1.00  0.00     0.041 A 
ATOM      9  C   UNL     1      -1.083   1.976  -6.048  1.00  0.00    -0.016 A 
ATOM     10  C   UNL     1      -0.963   2.053  -7.441  1.00  0.00     0.029 A 
ATOM     11  C   UNL     1      -2.176   1.269  -5.518  1.00  0.00     0.022 A 
ATOM     12  C   UNL     1      -1.944   1.493  -8.264  1.00  0.00     0.042 A 
ATOM     13  Cl  UNL     1      -1.781   1.607  -9.974  1.00  0.00    -0.084 Cl
ATOM     14  C   UNL     1      -3.084   0.904  -7.718  1.00  0.00     0.034 A 
BRANCH   9  15
ATOM     15  C   UNL     1      -0.241   2.761  -5.127  1.00  0.00    -0.017 A 
ATOM     16  C   UNL     1       0.775   3.035  -2.937  1.00  0.00     0.083 A 
ATOM     17  C   UNL     1       0.872   4.416  -3.132  1.00  0.00     0.022 A 
ATOM     18  C   UNL     1       0.261   2.205  -3.939  1.00  0.00     0.030 A 
ATOM     19  C   UNL     1       0.454   4.969  -4.337  1.00  0.00     0.002 A 
ATOM     20  C   UNL     1      -0.106   4.150  -5.320  1.00  0.00     0.009 A 
BRANCH  16  21
ATOM     21  S   UNL     1       1.234   2.386  -1.349  1.00  0.00     0.242 S 
ATOM     22  O   UNL     1       0.650   3.254  -0.344  1.00  0.00    -0.207 OA
ATOM     23  O   UNL     1       2.655   2.137  -1.405  1.00  0.00    -0.207 OA
BRANCH  21  24
ATOM     24  N   UNL     1       0.425   0.877  -1.218  1.00  0.00    -0.204 NA
ATOM     25  C   UNL     1       1.012   0.017  -0.159  1.00  0.00     0.124 C 
ATOM     26  C   UNL     1      -1.048   0.953  -1.075  1.00  0.00     0.124 C 
ENDBRANCH  21  24
ENDBRANCH  16  21
ENDBRANCH   9  15
ENDBRANCH   5   8
ENDBRANCH   3   4
ENDBRANCH   2   3
ENDBRANCH   1   2
BRANCH   1  27
ATOM     27  C   UNL     1      -6.178   1.291  -1.097  1.00  0.00     0.002 C 
BRANCH  27  28
ATOM     28  C   UNL     1      -5.166   1.960  -0.165  1.00  0.00     0.021 C 
BRANCH  28  29
ATOM     29  C   UNL     1      -5.569   3.308   0.424  1.00  0.00     0.116 C 
BRANCH  29  30
ATOM     30  N   UNL     1      -6.764   3.244   1.245  1.00  0.00    -0.352 N 
ATOM     31  C   UNL     1      -7.003   3.763   2.494  1.00  0.00     0.251 C 
ATOM     32  H   UNL     1      -7.519   2.754   0.846  1.00  0.00     0.163 HD
ATOM     33  O   UNL     1      -8.061   3.510   3.064  1.00  0.00    -0.269 OA
BRANCH  31  34
ATOM     34  C   UNL     1      -5.991   4.601   3.180  1.00  0.00     0.039 A 
ATOM     35  C   UNL     1      -5.771   4.395   4.546  1.00  0.00     0.014 A 
ATOM     36  C   UNL     1      -5.289   5.607   2.509  1.00  0.00     0.014 A 
ATOM     37  C   UNL     1      -4.816   5.158   5.225  1.00  0.00     0.010 A 
ATOM     38  C   UNL     1      -4.292   6.324   3.172  1.00  0.00     0.010 A 
ATOM     39  C   UNL     1      -4.051   6.113   4.538  1.00  0.00    -0.014 A 
BRANCH  39  40
ATOM     40  C   UNL     1      -3.015   6.916   5.239  1.00  0.00     0.031 A 
ATOM     41  C   UNL     1      -3.192   8.401   5.396  1.00  0.00     0.074 A 
ATOM     42  C   UNL     1      -1.893   6.322   5.686  1.00  0.00     0.049 A 
ATOM     43  N   UNL     1      -2.374   9.285   5.912  1.00  0.00    -0.248 NA
ATOM     44  C   UNL     1      -4.446   8.974   4.883  1.00  0.00     0.031 C 
ATOM     45  C   UNL     1      -1.582   4.898   5.560  1.00  0.00     0.029 A 
ATOM     46  N   UNL     1      -0.798   6.846   6.329  1.00  0.00    -0.354 N 
ATOM     47  C   UNL     1      -3.004  10.514   5.767  1.00  0.00     0.074 A 
ATOM     48  C   UNL     1      -4.252  10.270   5.077  1.00  0.00     0.031 C 
ATOM     49  C   UNL     1      -0.385   4.659   6.121  1.00  0.00     0.029 A 
ATOM     50  C   UNL     1       0.168   5.915   6.619  1.00  0.00     0.049 A 
ATOM     51  H   UNL     1      -0.714   7.800   6.559  1.00  0.00     0.167 HD
ATOM     52  C   UNL     1      -2.589  11.733   6.189  1.00  0.00     0.037 A 
ATOM     53  C   UNL     1       1.366   6.059   7.217  1.00  0.00     0.037 A 
ATOM     54  C   UNL     1      -1.363  11.972   6.905  1.00  0.00     0.049 A 
ATOM     55  C   UNL     1       1.795   7.420   7.693  1.00  0.00     0.074 A 
ATOM     56  C   UNL     1      -0.878  13.163   7.416  1.00  0.00     0.029 A 
ATOM     57  N   UNL     1      -0.429  10.994   7.216  1.00  0.00    -0.354 N 
ATOM     58  N   UNL     1       1.166   8.566   7.599  1.00  0.00    -0.248 NA
ATOM     59  C   UNL     1       3.097   7.505   8.370  1.00  0.00     0.031 C 
ATOM     60  C   UNL     1       0.364  12.912   8.009  1.00  0.00     0.029 A 
ATOM     61  C   UNL     1       0.633  11.557   7.905  1.00  0.00     0.049 A 
ATOM     62  H   UNL     1      -0.509  10.041   6.982  1.00  0.00     0.167 HD
ATOM     63  C   UNL     1       1.976   9.499   8.232  1.00  0.00     0.074 A 
ATOM     64  C   UNL     1       3.139   8.785   8.714  1.00  0.00     0.031 C 
ATOM     65  C   UNL     1       1.772  10.829   8.398  1.00  0.00     0.037 A 
BRANCH  52  66
ATOM     66  C   UNL     1      -3.476  12.906   5.890  1.00  0.00     0.064 A 
ATOM     67  C   UNL     1      -4.700  13.088   6.551  1.00  0.00     0.173 A 
ATOM     68  C   UNL     1      -3.084  13.876   4.955  1.00  0.00     0.173 A 
ATOM     69  F   UNL     1      -5.125  12.183   7.445  1.00  0.00    -0.203 F 
ATOM     70  C   UNL     1      -5.513  14.182   6.265  1.00  0.00     0.198 A 
ATOM     71  C   UNL     1      -3.886  14.983   4.692  1.00  0.00     0.198 A 
ATOM     72  F   UNL     1      -1.920  13.752   4.299  1.00  0.00    -0.203 F 
ATOM     73  F   UNL     1      -6.701  14.309   6.872  1.00  0.00    -0.200 F 
ATOM     74  C   UNL     1      -5.103  15.131   5.341  1.00  0.00     0.200 A 
ATOM     75  F   UNL     1      -3.484  15.906   3.807  1.00  0.00    -0.200 F 
ATOM     76  F   UNL     1      -5.885  16.185   5.069  1.00  0.00    -0.200 F 
ENDBRANCH  52  66
BRANCH  53  77
ATOM     77  C   UNL     1       2.233   4.872   7.436  1.00  0.00     0.064 A 
ATOM     78  C   UNL     1       2.428   4.354   8.724  1.00  0.00     0.173 A 
ATOM     79  C   UNL     1       2.885   4.236   6.370  1.00  0.00     0.173 A 
ATOM     80  F   UNL     1       1.841   4.943   9.777  1.00  0.00    -0.203 F 
ATOM     81  C   UNL     1       3.257   3.257   8.941  1.00  0.00     0.198 A 
ATOM     82  C   UNL     1       3.694   3.122   6.585  1.00  0.00     0.198 A 
ATOM     83  F   UNL     1       2.728   4.691   5.119  1.00  0.00    -0.203 F 
ATOM     84  F   UNL     1       3.460   2.808  10.187  1.00  0.00    -0.200 F 
ATOM     85  C   UNL     1       3.886   2.638   7.870  1.00  0.00     0.200 A 
ATOM     86  F   UNL     1       4.290   2.519   5.548  1.00  0.00    -0.200 F 
ATOM     87  F   UNL     1       4.681   1.580   8.079  1.00  0.00    -0.200 F 
ENDBRANCH  53  77
BRANCH  65  88
ATOM     88  C   UNL     1       2.804  11.589   9.178  1.00  0.00     0.064 A 
ATOM     89  C   UNL     1       4.064  11.888   8.639  1.00  0.00     0.173 A 
ATOM     90  C   UNL     1       2.512  12.056  10.468  1.00  0.00     0.173 A 
ATOM     91  F   UNL     1       4.395  11.451   7.415  1.00  0.00    -0.203 F 
ATOM     92  C   UNL     1       5.003  12.606   9.375  1.00  0.00     0.198 A 
ATOM     93  C   UNL     1       3.443  12.795  11.191  1.00  0.00     0.198 A 
ATOM     94  F   UNL     1       1.318  11.801  11.025  1.00  0.00    -0.203 F 
ATOM     95  F   UNL     1       6.217  12.842   8.858  1.00  0.00    -0.200 F 
ATOM     96  C   UNL     1       4.690  13.064  10.646  1.00  0.00     0.200 A 
ATOM     97  F   UNL     1       3.136  13.246  12.414  1.00  0.00    -0.200 F 
ATOM     98  F   UNL     1       5.594  13.758  11.351  1.00  0.00    -0.200 F 
ENDBRANCH  65  88
ENDBRANCH  39  40
ENDBRANCH  31  34
ENDBRANCH  29  30
ENDBRANCH  28  29
ENDBRANCH  27  28
ENDBRANCH   1  27
TORSDOF 16
