REMARK SMILES O=C1O[C@@H](c2ccc(O)c(O)c2)[C@H](C(=O)NCCCCCCNC(=O)c2ccc(-c3c4nc(c(-c5c(F)c(F)c(F)c(F)c5F)c5ccc([nH]5)c(-c5c(F)c(F)c(F)c(F)c5F)c5nc(c(-c6c(F)c(F)c(F)c(F)c6F)c6ccc3[nH]6)C=C5)C=C4)cc2)/C1=C\c1ccc(O)c(O)c1
REMARK SMILES IDX 19 1 18 2 17 3 16 4 14 5 15 6 13 8 1 9 2 10 3 11 89 12 4 13
REMARK SMILES IDX 90 14 5 15 6 16 12 17 7 18 10 19 8 20 11 21 9 23 91 25 92 26
REMARK SMILES IDX 98 27 93 28 96 29 94 30 97 31 95 33 20 35 21 36 22 37 23 38
REMARK SMILES IDX 24 39 25 41 26 42 27 43 88 44 28 45 87 46 29 47 30 48 31 49
REMARK SMILES IDX 81 50 32 51 86 52 80 53 82 54 33 55 85 56 79 57 78 58 34 60
REMARK SMILES IDX 66 61 46 62 65 63 47 64 50 65 64 66 83 67 48 68 49 69 63 71
REMARK SMILES IDX 84 72 51 73 35 74 36 75 44 76 37 77 38 78 42 79 45 80 39 81
REMARK SMILES IDX 40 82 43 83 41 84 67 85 68 86 76 87 69 88 70 89 74 90 77 91
REMARK SMILES IDX 71 92 72 93 75 94 73 95 52 96 53 97 61 98 54 99 55 100
REMARK SMILES IDX 59 101 62 102 56 103 57 104 60 105 58 106
REMARK H PARENT 16 7 11 22 9 24 97 32 95 34 23 40 82 59 50 70
REMARK Flexibility Score: inf
ROOT
ATOM      1  C   UNL     1       5.684   1.832   3.099  1.00  0.00     0.002 C 
ENDROOT
BRANCH   1   2
ATOM      2  C   UNL     1       5.153   1.681   1.673  1.00  0.00     0.021 C 
BRANCH   2   3
ATOM      3  C   UNL     1       4.022   0.673   1.525  1.00  0.00     0.116 C 
BRANCH   3   4
ATOM      4  N   UNL     1       2.794   1.083   2.171  1.00  0.00    -0.355 N 
ATOM      5  C   UNL     1       1.512   1.128   1.699  1.00  0.00     0.231 C 
ATOM      6  O   UNL     1       0.633   1.381   2.523  1.00  0.00    -0.274 OA
ATOM      7  H   UNL     1       2.899   1.379   3.104  1.00  0.00     0.163 HD
BRANCH   5   8
ATOM      8  C   UNL     1       1.225   0.963   0.201  1.00  0.00     0.161 C 
ATOM      9  O   UNL     1      -1.854  -0.821  -0.130  1.00  0.00    -0.247 OA
ATOM     10  C   UNL     1      -0.701  -0.427  -0.138  1.00  0.00     0.335 C 
ATOM     11  O   UNL     1       0.396  -1.216  -0.242  1.00  0.00    -0.453 OA
ATOM     12  C   UNL     1      -0.245   0.972  -0.058  1.00  0.00     0.054 C 
ATOM     13  C   UNL     1       1.591  -0.421  -0.328  1.00  0.00     0.224 C 
ATOM     14  C   UNL     1      -1.118   1.975  -0.232  1.00  0.00     0.020 C 
BRANCH  13  15
ATOM     15  C   UNL     1       2.183  -0.440  -1.742  1.00  0.00    -0.002 A 
ATOM     16  C   UNL     1       3.221   0.444  -2.118  1.00  0.00     0.012 A 
ATOM     17  C   UNL     1       1.778  -1.403  -2.680  1.00  0.00     0.057 A 
ATOM     18  C   UNL     1       3.850   0.358  -3.365  1.00  0.00     0.050 A 
ATOM     19  C   UNL     1       2.391  -1.467  -3.927  1.00  0.00     0.157 A 
ATOM     20  C   UNL     1       3.428  -0.604  -4.266  1.00  0.00     0.157 A 
BRANCH  19  21
ATOM     21  O   UNL     1       1.972  -2.405  -4.826  1.00  0.00    -0.504 OA
ATOM     22  H   UNL     1       2.376  -2.459  -5.670  1.00  0.00     0.293 HD
ENDBRANCH  19  21
BRANCH  20  23
ATOM     23  O   UNL     1       4.004  -0.744  -5.496  1.00  0.00    -0.504 OA
ATOM     24  H   UNL     1       4.705  -0.177  -5.753  1.00  0.00     0.293 HD
ENDBRANCH  20  23
ENDBRANCH  13  15
BRANCH  14  25
ATOM     25  C   UNL     1      -0.765   3.392  -0.183  1.00  0.00    -0.021 A 
ATOM     26  C   UNL     1       0.097   3.956  -1.138  1.00  0.00     0.012 A 
ATOM     27  C   UNL     1      -1.326   4.203   0.809  1.00  0.00     0.058 A 
ATOM     28  C   UNL     1       0.421   5.315  -1.089  1.00  0.00     0.051 A 
ATOM     29  C   UNL     1      -1.006   5.553   0.845  1.00  0.00     0.157 A 
ATOM     30  C   UNL     1      -0.135   6.106  -0.091  1.00  0.00     0.157 A 
BRANCH  29  31
ATOM     31  O   UNL     1      -1.559   6.344   1.810  1.00  0.00    -0.504 OA
ATOM     32  H   UNL     1      -1.351   7.257   1.845  1.00  0.00     0.293 HD
ENDBRANCH  29  31
BRANCH  30  33
ATOM     33  O   UNL     1       0.140   7.441   0.009  1.00  0.00    -0.504 OA
ATOM     34  H   UNL     1       0.722   7.847  -0.604  1.00  0.00     0.293 HD
ENDBRANCH  30  33
ENDBRANCH  14  25
ENDBRANCH   5   8
ENDBRANCH   3   4
ENDBRANCH   2   3
ENDBRANCH   1   2
BRANCH   1  35
ATOM     35  C   UNL     1       6.103   0.524   3.780  1.00  0.00     0.002 C 
BRANCH  35  36
ATOM     36  C   UNL     1       7.105  -0.330   3.000  1.00  0.00     0.021 C 
BRANCH  36  37
ATOM     37  C   UNL     1       8.405   0.380   2.643  1.00  0.00     0.116 C 
BRANCH  37  38
ATOM     38  N   UNL     1       9.141   0.804   3.822  1.00  0.00    -0.352 N 
ATOM     39  C   UNL     1      10.445   0.555   4.166  1.00  0.00     0.251 C 
ATOM     40  H   UNL     1       8.631   1.347   4.466  1.00  0.00     0.163 HD
ATOM     41  O   UNL     1      10.854   0.825   5.290  1.00  0.00    -0.269 OA
BRANCH  39  42
ATOM     42  C   UNL     1      11.356  -0.059   3.178  1.00  0.00     0.039 A 
ATOM     43  C   UNL     1      12.191  -1.102   3.582  1.00  0.00     0.014 A 
ATOM     44  C   UNL     1      11.384   0.396   1.857  1.00  0.00     0.014 A 
ATOM     45  C   UNL     1      13.018  -1.727   2.647  1.00  0.00     0.010 A 
ATOM     46  C   UNL     1      12.146  -0.280   0.910  1.00  0.00     0.010 A 
ATOM     47  C   UNL     1      12.978  -1.342   1.296  1.00  0.00    -0.014 A 
BRANCH  47  48
ATOM     48  C   UNL     1      13.811  -2.023   0.273  1.00  0.00     0.031 A 
ATOM     49  C   UNL     1      14.865  -1.251  -0.470  1.00  0.00     0.074 A 
ATOM     50  C   UNL     1      13.574  -3.313  -0.034  1.00  0.00     0.049 A 
ATOM     51  N   UNL     1      15.631  -1.634  -1.460  1.00  0.00    -0.248 NA
ATOM     52  C   UNL     1      15.065   0.150  -0.066  1.00  0.00     0.031 C 
ATOM     53  C   UNL     1      12.554  -4.157   0.591  1.00  0.00     0.029 A 
ATOM     54  N   UNL     1      14.166  -4.137  -0.958  1.00  0.00    -0.354 N 
ATOM     55  C   UNL     1      16.389  -0.522  -1.803  1.00  0.00     0.074 A 
ATOM     56  C   UNL     1      15.950   0.567  -0.959  1.00  0.00     0.031 C 
ATOM     57  C   UNL     1      12.607  -5.384   0.048  1.00  0.00     0.029 A 
ATOM     58  C   UNL     1      13.630  -5.401  -0.993  1.00  0.00     0.049 A 
ATOM     59  H   UNL     1      14.906  -3.849  -1.541  1.00  0.00     0.167 HD
ATOM     60  C   UNL     1      17.381  -0.426  -2.721  1.00  0.00     0.037 A 
ATOM     61  C   UNL     1      13.924  -6.450  -1.785  1.00  0.00     0.037 A 
ATOM     62  C   UNL     1      17.828  -1.519  -3.543  1.00  0.00     0.049 A 
ATOM     63  C   UNL     1      15.012  -6.309  -2.816  1.00  0.00     0.074 A 
ATOM     64  C   UNL     1      18.857  -1.538  -4.468  1.00  0.00     0.029 A 
ATOM     65  N   UNL     1      17.269  -2.789  -3.541  1.00  0.00    -0.354 N 
ATOM     66  N   UNL     1      15.764  -5.271  -3.090  1.00  0.00    -0.248 NA
ATOM     67  C   UNL     1      15.298  -7.489  -3.643  1.00  0.00     0.031 C 
ATOM     68  C   UNL     1      18.883  -2.801  -5.067  1.00  0.00     0.029 A 
ATOM     69  C   UNL     1      17.915  -3.591  -4.468  1.00  0.00     0.049 A 
ATOM     70  H   UNL     1      16.523  -3.078  -2.966  1.00  0.00     0.167 HD
ATOM     71  C   UNL     1      16.634  -5.682  -4.091  1.00  0.00     0.074 A 
ATOM     72  C   UNL     1      16.324  -7.069  -4.369  1.00  0.00     0.031 C 
ATOM     73  C   UNL     1      17.604  -4.976  -4.722  1.00  0.00     0.037 A 
BRANCH  60  74
ATOM     74  C   UNL     1      18.048   0.910  -2.886  1.00  0.00     0.064 A 
ATOM     75  C   UNL     1      18.858   1.461  -1.881  1.00  0.00     0.173 A 
ATOM     76  C   UNL     1      17.904   1.635  -4.080  1.00  0.00     0.173 A 
ATOM     77  F   UNL     1      19.020   0.817  -0.715  1.00  0.00    -0.203 F 
ATOM     78  C   UNL     1      19.469   2.701  -2.050  1.00  0.00     0.198 A 
ATOM     79  C   UNL     1      18.547   2.857  -4.260  1.00  0.00     0.198 A 
ATOM     80  F   UNL     1      17.146   1.154  -5.076  1.00  0.00    -0.203 F 
ATOM     81  F   UNL     1      20.190   3.232  -1.053  1.00  0.00    -0.200 F 
ATOM     82  C   UNL     1      19.320   3.393  -3.242  1.00  0.00     0.200 A 
ATOM     83  F   UNL     1      18.413   3.518  -5.418  1.00  0.00    -0.200 F 
ATOM     84  F   UNL     1      19.915   4.583  -3.407  1.00  0.00    -0.200 F 
ENDBRANCH  60  74
BRANCH  61  85
ATOM     85  C   UNL     1      13.189  -7.734  -1.625  1.00  0.00     0.064 A 
ATOM     86  C   UNL     1      13.839  -8.882  -1.150  1.00  0.00     0.173 A 
ATOM     87  C   UNL     1      11.830  -7.845  -1.955  1.00  0.00     0.173 A 
ATOM     88  F   UNL     1      15.142  -8.832  -0.840  1.00  0.00    -0.203 F 
ATOM     89  C   UNL     1      13.166 -10.097  -1.038  1.00  0.00     0.198 A 
ATOM     90  C   UNL     1      11.150  -9.052  -1.811  1.00  0.00     0.198 A 
ATOM     91  F   UNL     1      11.159  -6.775  -2.408  1.00  0.00    -0.203 F 
ATOM     92  F   UNL     1      13.826 -11.191  -0.634  1.00  0.00    -0.200 F 
ATOM     93  C   UNL     1      11.821 -10.180  -1.363  1.00  0.00     0.200 A 
ATOM     94  F   UNL     1       9.846  -9.123  -2.111  1.00  0.00    -0.200 F 
ATOM     95  F   UNL     1      11.173 -11.348  -1.254  1.00  0.00    -0.200 F 
ENDBRANCH  61  85
BRANCH  73  96
ATOM     96  C   UNL     1      18.440  -5.701  -5.738  1.00  0.00     0.064 A 
ATOM     97  C   UNL     1      17.920  -6.102  -6.978  1.00  0.00     0.173 A 
ATOM     98  C   UNL     1      19.797  -5.956  -5.483  1.00  0.00     0.173 A 
ATOM     99  F   UNL     1      16.626  -5.894  -7.266  1.00  0.00    -0.203 F 
ATOM    100  C   UNL     1      18.720  -6.754  -7.912  1.00  0.00     0.198 A 
ATOM    101  C   UNL     1      20.602  -6.576  -6.434  1.00  0.00     0.198 A 
ATOM    102  F   UNL     1      20.347  -5.586  -4.317  1.00  0.00    -0.203 F 
ATOM    103  F   UNL     1      18.188  -7.173  -9.069  1.00  0.00    -0.200 F 
ATOM    104  C   UNL     1      20.061  -6.982  -7.644  1.00  0.00     0.200 A 
ATOM    105  F   UNL     1      21.902  -6.779  -6.179  1.00  0.00    -0.200 F 
ATOM    106  F   UNL     1      20.832  -7.599  -8.550  1.00  0.00    -0.200 F 
ENDBRANCH  73  96
ENDBRANCH  47  48
ENDBRANCH  39  42
ENDBRANCH  37  38
ENDBRANCH  36  37
ENDBRANCH  35  36
ENDBRANCH   1  35
TORSDOF 19
