REMARK SMILES Cc1ccc(/C=C(\NC(=O)c2cccc(C)c2)C(=O)NCCCCCCNC(=O)c2ccc(-c3c4nc(c(-c5c(F)c(F)c(F)c(F)c5F)c5ccc([nH]5)c(-c5c(F)c(F)c(F)c(F)c5F)c5nc(c(-c6c(F)c(F)c(F)c(F)c6F)c6ccc3[nH]6)C=C5)C=C4)cc2)cc1
REMARK SMILES IDX 23 1 22 2 21 3 20 4 18 5 19 6 7 8 6 9 5 10 1 11 2 12 3 13
REMARK SMILES IDX 94 14 4 15 93 16 8 17 9 18 10 20 11 21 12 22 17 23 13 24
REMARK SMILES IDX 15 25 14 26 16 27 24 28 25 29 26 30 27 31 28 32 29 34 30 35
REMARK SMILES IDX 31 36 92 37 32 38 91 39 33 40 34 41 35 42 85 43 36 44 90 45
REMARK SMILES IDX 84 46 86 47 37 48 89 49 83 50 82 51 38 53 70 54 50 55 69 56
REMARK SMILES IDX 51 57 54 58 68 59 87 60 52 61 53 62 67 64 88 65 55 66 39 67
REMARK SMILES IDX 40 68 48 69 41 70 42 71 46 72 49 73 43 74 44 75 47 76 45 77
REMARK SMILES IDX 71 78 72 79 80 80 73 81 74 82 78 83 81 84 75 85 76 86 79 87
REMARK SMILES IDX 77 88 56 89 57 90 65 91 58 92 59 93 63 94 66 95 60 96 61 97
REMARK SMILES IDX 64 98 62 99
REMARK H PARENT 20 7 8 19 27 33 86 52 54 63
REMARK Flexibility Score: inf
ROOT
ATOM      1  C   UNL     1      -8.277  -4.545   1.487  1.00  0.00     0.002 C 
ENDROOT
BRANCH   1   2
ATOM      2  C   UNL     1      -6.866  -4.266   2.026  1.00  0.00     0.021 C 
BRANCH   2   3
ATOM      3  C   UNL     1      -5.844  -3.602   1.106  1.00  0.00     0.116 C 
BRANCH   3   4
ATOM      4  N   UNL     1      -6.182  -2.285   0.616  1.00  0.00    -0.351 N 
ATOM      5  C   UNL     1      -5.374  -1.340   0.037  1.00  0.00     0.267 C 
ATOM      6  O   UNL     1      -5.893  -0.290  -0.348  1.00  0.00    -0.268 OA
ATOM      7  H   UNL     1      -7.128  -2.029   0.711  1.00  0.00     0.163 HD
BRANCH   5   8
ATOM      8  C   UNL     1      -3.870  -1.548  -0.089  1.00  0.00     0.107 C 
ATOM      9  C   UNL     1      -3.104  -0.439   0.047  1.00  0.00     0.040 C 
BRANCH   9  10
ATOM     10  C   UNL     1      -1.625  -0.239  -0.037  1.00  0.00    -0.023 A 
ATOM     11  C   UNL     1       2.656   0.545  -0.005  1.00  0.00     0.044 C 
ATOM     12  C   UNL     1       1.177   0.304  -0.055  1.00  0.00    -0.051 A 
ATOM     13  C   UNL     1       0.694  -0.973  -0.334  1.00  0.00     0.004 A 
ATOM     14  C   UNL     1       0.256   1.321   0.197  1.00  0.00     0.004 A 
ATOM     15  C   UNL     1      -0.683  -1.228  -0.356  1.00  0.00     0.008 A 
ATOM     16  C   UNL     1      -1.122   1.051   0.208  1.00  0.00     0.008 A 
ENDBRANCH   9  10
BRANCH   8  17
ATOM     17  N   UNL     1      -3.297  -2.777  -0.276  1.00  0.00    -0.317 N 
ATOM     18  C   UNL     1      -3.556  -3.850  -1.092  1.00  0.00     0.255 C 
ATOM     19  H   UNL     1      -2.521  -2.926   0.311  1.00  0.00     0.170 HD
ATOM     20  O   UNL     1      -2.864  -4.857  -0.918  1.00  0.00    -0.269 OA
BRANCH  18  21
ATOM     21  C   UNL     1      -4.604  -3.874  -2.149  1.00  0.00     0.040 A 
ATOM     22  C   UNL     1      -5.062  -5.143  -2.539  1.00  0.00     0.014 A 
ATOM     23  C   UNL     1      -5.170  -2.742  -2.741  1.00  0.00     0.017 A 
ATOM     24  C   UNL     1      -6.122  -5.276  -3.433  1.00  0.00     0.001 A 
ATOM     25  C   UNL     1      -6.265  -2.866  -3.610  1.00  0.00    -0.050 A 
ATOM     26  C   UNL     1      -6.742  -4.140  -3.941  1.00  0.00     0.003 A 
ATOM     27  C   UNL     1      -6.966  -1.650  -4.141  1.00  0.00     0.044 C 
ENDBRANCH  18  21
ENDBRANCH   8  17
ENDBRANCH   5   8
ENDBRANCH   3   4
ENDBRANCH   2   3
ENDBRANCH   1   2
BRANCH   1  28
ATOM     28  C   UNL     1      -8.449  -5.108   0.070  1.00  0.00     0.002 C 
BRANCH  28  29
ATOM     29  C   UNL     1      -7.605  -6.315  -0.333  1.00  0.00     0.021 C 
BRANCH  29  30
ATOM     30  C   UNL     1      -7.892  -7.616   0.400  1.00  0.00     0.116 C 
BRANCH  30  31
ATOM     31  N   UNL     1      -8.595  -8.607  -0.416  1.00  0.00    -0.352 N 
ATOM     32  C   UNL     1      -8.805  -9.953  -0.145  1.00  0.00     0.251 C 
ATOM     33  H   UNL     1      -8.967  -8.278  -1.266  1.00  0.00     0.163 HD
ATOM     34  O   UNL     1      -9.475 -10.660  -0.874  1.00  0.00    -0.269 OA
BRANCH  32  35
ATOM     35  C   UNL     1      -8.278 -10.473   1.136  1.00  0.00     0.039 A 
ATOM     36  C   UNL     1      -9.208 -10.807   2.123  1.00  0.00     0.014 A 
ATOM     37  C   UNL     1      -6.935 -10.277   1.444  1.00  0.00     0.014 A 
ATOM     38  C   UNL     1      -8.843 -10.664   3.457  1.00  0.00     0.010 A 
ATOM     39  C   UNL     1      -6.598 -10.050   2.766  1.00  0.00     0.010 A 
ATOM     40  C   UNL     1      -7.577 -10.155   3.761  1.00  0.00    -0.014 A 
BRANCH  40  41
ATOM     41  C   UNL     1      -7.284  -9.525   5.047  1.00  0.00     0.031 A 
ATOM     42  C   UNL     1      -6.393 -10.166   6.033  1.00  0.00     0.074 A 
ATOM     43  C   UNL     1      -7.817  -8.316   5.346  1.00  0.00     0.049 A 
ATOM     44  N   UNL     1      -6.493  -9.974   7.307  1.00  0.00    -0.248 NA
ATOM     45  C   UNL     1      -5.331 -11.095   5.667  1.00  0.00     0.031 C 
ATOM     46  C   UNL     1      -7.480  -7.460   6.482  1.00  0.00     0.029 A 
ATOM     47  N   UNL     1      -8.951  -7.707   4.780  1.00  0.00    -0.354 N 
ATOM     48  C   UNL     1      -5.391 -10.533   7.899  1.00  0.00     0.074 A 
ATOM     49  C   UNL     1      -4.721 -11.266   6.846  1.00  0.00     0.031 C 
ATOM     50  C   UNL     1      -8.522  -6.657   6.740  1.00  0.00     0.029 A 
ATOM     51  C   UNL     1      -9.599  -7.041   5.849  1.00  0.00     0.049 A 
ATOM     52  H   UNL     1      -9.235  -7.737   3.837  1.00  0.00     0.167 HD
ATOM     53  C   UNL     1      -5.088 -10.236   9.194  1.00  0.00     0.037 A 
ATOM     54  C   UNL     1     -10.865  -7.376   6.228  1.00  0.00     0.037 A 
ATOM     55  C   UNL     1      -6.052  -9.333   9.808  1.00  0.00     0.049 A 
ATOM     56  C   UNL     1     -10.994  -7.878   7.651  1.00  0.00     0.074 A 
ATOM     57  C   UNL     1      -6.081  -7.974  10.075  1.00  0.00     0.029 A 
ATOM     58  N   UNL     1      -7.347  -9.780   9.995  1.00  0.00    -0.354 N 
ATOM     59  N   UNL     1      -9.997  -8.017   8.479  1.00  0.00    -0.248 NA
ATOM     60  C   UNL     1     -12.253  -8.375   8.211  1.00  0.00     0.031 C 
ATOM     61  C   UNL     1      -7.407  -7.618  10.448  1.00  0.00     0.029 A 
ATOM     62  C   UNL     1      -8.182  -8.761  10.403  1.00  0.00     0.049 A 
ATOM     63  H   UNL     1      -7.636 -10.711   9.855  1.00  0.00     0.167 HD
ATOM     64  C   UNL     1     -10.432  -8.667   9.605  1.00  0.00     0.074 A 
ATOM     65  C   UNL     1     -11.853  -8.863   9.396  1.00  0.00     0.031 C 
ATOM     66  C   UNL     1      -9.589  -9.049  10.606  1.00  0.00     0.037 A 
BRANCH  53  67
ATOM     67  C   UNL     1      -3.779 -10.627   9.816  1.00  0.00     0.064 A 
ATOM     68  C   UNL     1      -3.078  -9.745  10.661  1.00  0.00     0.173 A 
ATOM     69  C   UNL     1      -3.152 -11.863   9.575  1.00  0.00     0.173 A 
ATOM     70  F   UNL     1      -3.595  -8.565  11.024  1.00  0.00    -0.203 F 
ATOM     71  C   UNL     1      -1.800 -10.037  11.142  1.00  0.00     0.198 A 
ATOM     72  C   UNL     1      -1.852 -12.132  10.009  1.00  0.00     0.198 A 
ATOM     73  F   UNL     1      -3.793 -12.842   8.919  1.00  0.00    -0.203 F 
ATOM     74  F   UNL     1      -1.173  -9.158  11.936  1.00  0.00    -0.200 F 
ATOM     75  C   UNL     1      -1.172 -11.213  10.786  1.00  0.00     0.200 A 
ATOM     76  F   UNL     1      -1.257 -13.281   9.659  1.00  0.00    -0.200 F 
ATOM     77  F   UNL     1       0.078 -11.464  11.196  1.00  0.00    -0.200 F 
ENDBRANCH  53  67
BRANCH  54  78
ATOM     78  C   UNL     1     -11.712  -7.811   5.088  1.00  0.00     0.064 A 
ATOM     79  C   UNL     1     -11.974  -6.886   4.058  1.00  0.00     0.173 A 
ATOM     80  C   UNL     1     -11.957  -9.162   4.825  1.00  0.00     0.173 A 
ATOM     81  F   UNL     1     -11.749  -5.577   4.258  1.00  0.00    -0.203 F 
ATOM     82  C   UNL     1     -12.353  -7.308   2.787  1.00  0.00     0.198 A 
ATOM     83  C   UNL     1     -12.356  -9.579   3.555  1.00  0.00     0.198 A 
ATOM     84  F   UNL     1     -11.704 -10.092   5.756  1.00  0.00    -0.203 F 
ATOM     85  F   UNL     1     -12.481  -6.413   1.796  1.00  0.00    -0.200 F 
ATOM     86  C   UNL     1     -12.519  -8.658   2.530  1.00  0.00     0.200 A 
ATOM     87  F   UNL     1     -12.494 -10.887   3.300  1.00  0.00    -0.200 F 
ATOM     88  F   UNL     1     -12.797  -9.075   1.287  1.00  0.00    -0.200 F 
ENDBRANCH  54  78
BRANCH  66  89
ATOM     89  C   UNL     1     -10.033  -9.746  11.861  1.00  0.00     0.064 A 
ATOM     90  C   UNL     1     -11.156  -9.332  12.594  1.00  0.00     0.173 A 
ATOM     91  C   UNL     1      -9.265 -10.782  12.435  1.00  0.00     0.173 A 
ATOM     92  F   UNL     1     -11.914  -8.310  12.169  1.00  0.00    -0.203 F 
ATOM     93  C   UNL     1     -11.512  -9.945  13.797  1.00  0.00     0.198 A 
ATOM     94  C   UNL     1      -9.593 -11.357  13.661  1.00  0.00     0.198 A 
ATOM     95  F   UNL     1      -8.187 -11.281  11.813  1.00  0.00    -0.203 F 
ATOM     96  F   UNL     1     -12.621  -9.554  14.440  1.00  0.00    -0.200 F 
ATOM     97  C   UNL     1     -10.725 -10.948  14.336  1.00  0.00     0.200 A 
ATOM     98  F   UNL     1      -8.807 -12.311  14.179  1.00  0.00    -0.200 F 
ATOM     99  F   UNL     1     -11.056 -11.520  15.501  1.00  0.00    -0.200 F 
ENDBRANCH  66  89
ENDBRANCH  40  41
ENDBRANCH  32  35
ENDBRANCH  30  31
ENDBRANCH  29  30
ENDBRANCH  28  29
ENDBRANCH   1  28
TORSDOF 16
