REMARK SMILES C[C@@]([NH3+])(C(=O)N1CCCC[C@@H]1CCC(=O)NCCCCCCNC(=O)c1ccc(-c2c3nc(c(-c4c(F)c(F)c(F)c(F)c4F)c4ccc([nH]4)c(-c4c(F)c(F)c(F)c(F)c4F)c4nc(c(-c5c(F)c(F)c(F)c(F)c5F)c5ccc2[nH]5)C=C4)C=C3)cc1)C(F)(F)F
REMARK SMILES IDX 18 1 17 2 16 3 14 4 15 5 13 7 12 8 11 9 6 10 7 11 8 12 10 13
REMARK SMILES IDX 9 14 4 15 5 16 2 17 1 18 3 19 89 23 90 24 91 25 92 26 19 27
REMARK SMILES IDX 20 28 21 29 22 30 23 31 24 32 25 34 26 35 27 36 88 37 28 38
REMARK SMILES IDX 87 39 29 40 30 41 31 42 81 43 32 44 86 45 80 46 82 47 33 48
REMARK SMILES IDX 85 49 79 50 78 51 34 53 66 54 46 55 65 56 47 57 50 58 64 59
REMARK SMILES IDX 83 60 48 61 49 62 63 64 84 65 51 66 35 67 36 68 44 69 37 70
REMARK SMILES IDX 38 71 42 72 45 73 39 74 40 75 43 76 41 77 67 78 68 79 76 80
REMARK SMILES IDX 69 81 70 82 74 83 77 84 71 85 72 86 75 87 73 88 52 89 53 90
REMARK SMILES IDX 61 91 54 92 55 93 59 94 62 95 56 96 57 97 60 98 58 99
REMARK H PARENT 16 6 3 20 3 21 3 22 23 33 82 52 50 63
REMARK Flexibility Score: inf
ROOT
ATOM      1  C   UNL     1      -1.926  -1.083   4.629  1.00  0.00     0.021 C 
ENDROOT
BRANCH   1   2
ATOM      2  C   UNL     1      -1.672   0.414   4.839  1.00  0.00     0.116 C 
BRANCH   2   3
ATOM      3  N   UNL     1      -0.255   0.708   4.771  1.00  0.00    -0.356 N 
ATOM      4  C   UNL     1       0.465   1.368   3.824  1.00  0.00     0.220 C 
ATOM      5  O   UNL     1       1.686   1.448   3.967  1.00  0.00    -0.275 OA
ATOM      6  H   UNL     1       0.272   0.378   5.534  1.00  0.00     0.163 HD
BRANCH   4   7
ATOM      7  C   UNL     1      -0.219   1.989   2.622  1.00  0.00     0.102 C 
BRANCH   7   8
ATOM      8  C   UNL     1      -0.306   1.026   1.429  1.00  0.00     0.035 C 
BRANCH   8   9
ATOM      9  C   UNL     1      -1.607   0.231   1.321  1.00  0.00     0.085 C 
ATOM     10  N   UNL     1      -1.654  -0.919   0.393  1.00  0.00    -0.334 N 
ATOM     11  C   UNL     1      -2.873  -1.722   0.525  1.00  0.00     0.120 C 
ATOM     12  C   UNL     1      -4.155  -0.894   0.407  1.00  0.00     0.022 C 
ATOM     13  C   UNL     1      -2.827   1.137   1.058  1.00  0.00     0.025 C 
ATOM     14  C   UNL     1      -4.118   0.352   1.286  1.00  0.00     0.004 C 
BRANCH  10  15
ATOM     15  C   UNL     1      -1.027  -0.957  -0.857  1.00  0.00     0.293 C 
ATOM     16  O   UNL     1      -1.705  -0.869  -1.883  1.00  0.00    -0.267 OA
BRANCH  15  17
ATOM     17  C   UNL     1       0.502  -1.259  -0.910  1.00  0.00     0.267 C 
ATOM     18  C   UNL     1       1.346   0.011  -1.092  1.00  0.00     0.100 C 
BRANCH  17  19
ATOM     19  N   UNL     1       0.940  -1.968   0.354  1.00  0.00    -0.337 N 
ATOM     20  H   UNL     1       0.782  -1.359   1.157  1.00  0.00     0.345 HD
ATOM     21  H   UNL     1       1.932  -2.196   0.290  1.00  0.00     0.345 HD
ATOM     22  H   UNL     1       0.400  -2.826   0.467  1.00  0.00     0.345 HD
ENDBRANCH  17  19
BRANCH  17  23
ATOM     23  C   UNL     1       0.716  -2.133  -2.180  1.00  0.00     0.453 C 
ATOM     24  F   UNL     1       0.484  -1.482  -3.337  1.00  0.00    -0.164 F 
ATOM     25  F   UNL     1       2.015  -2.548  -2.224  1.00  0.00    -0.164 F 
ATOM     26  F   UNL     1      -0.033  -3.260  -2.152  1.00  0.00    -0.164 F 
ENDBRANCH  17  23
ENDBRANCH  15  17
ENDBRANCH  10  15
ENDBRANCH   8   9
ENDBRANCH   7   8
ENDBRANCH   4   7
ENDBRANCH   2   3
ENDBRANCH   1   2
BRANCH   1  27
ATOM     27  C   UNL     1      -2.176  -1.860   5.919  1.00  0.00     0.002 C 
BRANCH  27  28
ATOM     28  C   UNL     1      -3.474  -1.483   6.644  1.00  0.00     0.002 C 
BRANCH  28  29
ATOM     29  C   UNL     1      -4.753  -1.568   5.803  1.00  0.00     0.021 C 
BRANCH  29  30
ATOM     30  C   UNL     1      -5.007  -2.926   5.150  1.00  0.00     0.116 C 
BRANCH  30  31
ATOM     31  N   UNL     1      -5.107  -3.988   6.137  1.00  0.00    -0.352 N 
ATOM     32  C   UNL     1      -6.189  -4.736   6.515  1.00  0.00     0.251 C 
ATOM     33  H   UNL     1      -4.269  -4.203   6.606  1.00  0.00     0.163 HD
ATOM     34  O   UNL     1      -6.138  -5.407   7.551  1.00  0.00    -0.269 OA
BRANCH  32  35
ATOM     35  C   UNL     1      -7.419  -4.752   5.700  1.00  0.00     0.039 A 
ATOM     36  C   UNL     1      -8.659  -4.704   6.343  1.00  0.00     0.014 A 
ATOM     37  C   UNL     1      -7.356  -4.875   4.308  1.00  0.00     0.014 A 
ATOM     38  C   UNL     1      -9.835  -4.734   5.590  1.00  0.00     0.010 A 
ATOM     39  C   UNL     1      -8.528  -4.841   3.554  1.00  0.00     0.010 A 
ATOM     40  C   UNL     1      -9.778  -4.779   4.188  1.00  0.00    -0.014 A 
BRANCH  40  41
ATOM     41  C   UNL     1     -11.016  -4.780   3.369  1.00  0.00     0.031 A 
ATOM     42  C   UNL     1     -11.378  -5.987   2.549  1.00  0.00     0.074 A 
ATOM     43  C   UNL     1     -11.786  -3.676   3.323  1.00  0.00     0.049 A 
ATOM     44  N   UNL     1     -12.370  -6.153   1.710  1.00  0.00    -0.248 NA
ATOM     45  C   UNL     1     -10.492  -7.156   2.669  1.00  0.00     0.031 C 
ATOM     46  C   UNL     1     -11.522  -2.431   4.046  1.00  0.00     0.029 A 
ATOM     47  N   UNL     1     -12.940  -3.417   2.626  1.00  0.00    -0.354 N 
ATOM     48  C   UNL     1     -12.224  -7.437   1.201  1.00  0.00     0.074 A 
ATOM     49  C   UNL     1     -11.018  -7.987   1.782  1.00  0.00     0.031 C 
ATOM     50  C   UNL     1     -12.493  -1.547   3.767  1.00  0.00     0.029 A 
ATOM     51  C   UNL     1     -13.426  -2.147   2.819  1.00  0.00     0.049 A 
ATOM     52  H   UNL     1     -13.377  -4.080   2.044  1.00  0.00     0.167 HD
ATOM     53  C   UNL     1     -13.036  -8.105   0.347  1.00  0.00     0.037 A 
ATOM     54  C   UNL     1     -14.498  -1.535   2.282  1.00  0.00     0.037 A 
ATOM     55  C   UNL     1     -14.244  -7.561  -0.216  1.00  0.00     0.049 A 
ATOM     56  C   UNL     1     -15.373  -2.295   1.321  1.00  0.00     0.074 A 
ATOM     57  C   UNL     1     -15.151  -8.169  -1.067  1.00  0.00     0.029 A 
ATOM     58  N   UNL     1     -14.715  -6.278   0.019  1.00  0.00    -0.354 N 
ATOM     59  N   UNL     1     -15.252  -3.526   0.887  1.00  0.00    -0.248 NA
ATOM     60  C   UNL     1     -16.539  -1.581   0.781  1.00  0.00     0.031 C 
ATOM     61  C   UNL     1     -16.152  -7.242  -1.374  1.00  0.00     0.029 A 
ATOM     62  C   UNL     1     -15.893  -6.071  -0.680  1.00  0.00     0.049 A 
ATOM     63  H   UNL     1     -14.277  -5.613   0.598  1.00  0.00     0.167 HD
ATOM     64  C   UNL     1     -16.338  -3.743   0.050  1.00  0.00     0.074 A 
ATOM     65  C   UNL     1     -17.116  -2.522   0.048  1.00  0.00     0.031 C 
ATOM     66  C   UNL     1     -16.662  -4.854  -0.656  1.00  0.00     0.037 A 
BRANCH  53  67
ATOM     67  C   UNL     1     -12.649  -9.507  -0.023  1.00  0.00     0.064 A 
ATOM     68  C   UNL     1     -12.736 -10.558   0.903  1.00  0.00     0.173 A 
ATOM     69  C   UNL     1     -12.225  -9.815  -1.325  1.00  0.00     0.173 A 
ATOM     70  F   UNL     1     -13.125 -10.315   2.164  1.00  0.00    -0.203 F 
ATOM     71  C   UNL     1     -12.389 -11.858   0.548  1.00  0.00     0.198 A 
ATOM     72  C   UNL     1     -11.906 -11.122  -1.685  1.00  0.00     0.198 A 
ATOM     73  F   UNL     1     -12.130  -8.849  -2.251  1.00  0.00    -0.203 F 
ATOM     74  F   UNL     1     -12.438 -12.837   1.463  1.00  0.00    -0.200 F 
ATOM     75  C   UNL     1     -11.982 -12.141  -0.747  1.00  0.00     0.200 A 
ATOM     76  F   UNL     1     -11.525 -11.395  -2.940  1.00  0.00    -0.200 F 
ATOM     77  F   UNL     1     -11.656 -13.395  -1.090  1.00  0.00    -0.200 F 
ENDBRANCH  53  67
BRANCH  54  78
ATOM     78  C   UNL     1     -14.818  -0.132   2.651  1.00  0.00     0.064 A 
ATOM     79  C   UNL     1     -15.952   0.170   3.418  1.00  0.00     0.173 A 
ATOM     80  C   UNL     1     -14.011   0.936   2.231  1.00  0.00     0.173 A 
ATOM     81  F   UNL     1     -16.765  -0.816   3.826  1.00  0.00    -0.203 F 
ATOM     82  C   UNL     1     -16.282   1.487   3.728  1.00  0.00     0.198 A 
ATOM     83  C   UNL     1     -14.326   2.251   2.567  1.00  0.00     0.198 A 
ATOM     84  F   UNL     1     -12.912   0.701   1.500  1.00  0.00    -0.203 F 
ATOM     85  F   UNL     1     -17.400   1.751   4.419  1.00  0.00    -0.200 F 
ATOM     86  C   UNL     1     -15.467   2.526   3.306  1.00  0.00     0.200 A 
ATOM     87  F   UNL     1     -13.528   3.251   2.169  1.00  0.00    -0.200 F 
ATOM     88  F   UNL     1     -15.784   3.793   3.604  1.00  0.00    -0.200 F 
ENDBRANCH  54  78
BRANCH  66  89
ATOM     89  C   UNL     1     -17.932  -4.814  -1.455  1.00  0.00     0.064 A 
ATOM     90  C   UNL     1     -18.036  -4.062  -2.634  1.00  0.00     0.173 A 
ATOM     91  C   UNL     1     -19.046  -5.565  -1.052  1.00  0.00     0.173 A 
ATOM     92  F   UNL     1     -17.003  -3.314  -3.051  1.00  0.00    -0.203 F 
ATOM     93  C   UNL     1     -19.219  -4.044  -3.368  1.00  0.00     0.198 A 
ATOM     94  C   UNL     1     -20.218  -5.567  -1.803  1.00  0.00     0.198 A 
ATOM     95  F   UNL     1     -18.995  -6.305   0.066  1.00  0.00    -0.203 F 
ATOM     96  F   UNL     1     -19.312  -3.282  -4.466  1.00  0.00    -0.200 F 
ATOM     97  C   UNL     1     -20.305  -4.802  -2.956  1.00  0.00     0.200 A 
ATOM     98  F   UNL     1     -21.262  -6.309  -1.411  1.00  0.00    -0.200 F 
ATOM     99  F   UNL     1     -21.441  -4.787  -3.667  1.00  0.00    -0.200 F 
ENDBRANCH  66  89
ENDBRANCH  40  41
ENDBRANCH  32  35
ENDBRANCH  30  31
ENDBRANCH  29  30
ENDBRANCH  28  29
ENDBRANCH  27  28
ENDBRANCH   1  27
TORSDOF 19
