REMARK SMILES COC(=O)c1ccc([C@H]2CC(=O)Nc3c(C(=O)NCCCCCCNC(=O)c4ccc(-c5c6nc(c(-c7c(F)c(F)c(F)c(F)c7F)c7ccc([nH]7)c(-c7c(F)c(F)c(F)c(F)c7F)c7nc(c(-c8c(F)c(F)c(F)c(F)c8F)c8ccc5[nH]8)C=C7)C=C6)cc4)cn(-c4ccccc4)c32)cc1
REMARK SMILES IDX 21 1 20 2 19 3 18 4 16 5 17 6 15 8 9 9 10 10 99 11 11 12
REMARK SMILES IDX 14 13 92 14 12 15 13 16 91 17 8 19 5 20 6 21 101 22 7 23
REMARK SMILES IDX 100 24 3 25 4 26 2 27 1 28 93 29 94 30 98 31 95 32 97 33
REMARK SMILES IDX 96 34 22 35 23 36 24 37 25 38 26 39 27 41 28 42 29 43 90 44
REMARK SMILES IDX 30 45 89 46 31 47 32 48 33 49 83 50 34 51 88 52 82 53 84 54
REMARK SMILES IDX 35 55 87 56 81 57 80 58 36 60 68 61 48 62 67 63 49 64 52 65
REMARK SMILES IDX 66 66 85 67 50 68 51 69 65 71 86 72 53 73 37 74 38 75 46 76
REMARK SMILES IDX 39 77 40 78 44 79 47 80 41 81 42 82 45 83 43 84 69 85 70 86
REMARK SMILES IDX 78 87 71 88 72 89 76 90 79 91 73 92 74 93 77 94 75 95 54 96
REMARK SMILES IDX 55 97 63 98 56 99 57 100 61 101 64 102 58 103 59 104 62 105
REMARK SMILES IDX 60 106
REMARK H PARENT 18 7 13 18 25 40 84 59 52 70
REMARK Flexibility Score: inf
ROOT
ATOM      1  C   UNL     1      -8.231  -0.213  -8.974  1.00  0.00     0.002 C 
ENDROOT
BRANCH   1   2
ATOM      2  C   UNL     1      -6.769   0.095  -8.644  1.00  0.00     0.021 C 
BRANCH   2   3
ATOM      3  C   UNL     1      -6.135  -0.946  -7.712  1.00  0.00     0.116 C 
BRANCH   3   4
ATOM      4  N   UNL     1      -5.427  -1.929  -8.483  1.00  0.00    -0.352 N 
ATOM      5  C   UNL     1      -4.121  -2.064  -8.853  1.00  0.00     0.254 C 
ATOM      6  O   UNL     1      -3.878  -3.075  -9.519  1.00  0.00    -0.269 OA
ATOM      7  H   UNL     1      -6.003  -2.656  -8.813  1.00  0.00     0.163 HD
BRANCH   5   8
ATOM      8  C   UNL     1      -3.039  -1.139  -8.488  1.00  0.00     0.081 A 
ATOM      9  C   UNL     1      -0.971   1.871  -7.632  1.00  0.00     0.078 C 
ATOM     10  C   UNL     1      -2.072   2.936  -7.536  1.00  0.00     0.115 C 
ATOM     11  C   UNL     1      -1.541   0.503  -7.925  1.00  0.00     0.055 A 
ATOM     12  C   UNL     1      -3.458   2.432  -7.253  1.00  0.00     0.225 C 
ATOM     13  C   UNL     1      -2.887   0.207  -8.025  1.00  0.00     0.076 A 
ATOM     14  N   UNL     1      -0.828  -0.649  -8.206  1.00  0.00    -0.317 N 
ATOM     15  O   UNL     1      -4.324   3.155  -6.758  1.00  0.00    -0.275 OA
ATOM     16  N   UNL     1      -3.789   1.188  -7.698  1.00  0.00    -0.324 N 
ATOM     17  C   UNL     1      -1.729  -1.588  -8.638  1.00  0.00     0.107 A 
ATOM     18  H   UNL     1      -4.746   0.977  -7.791  1.00  0.00     0.170 HD
BRANCH   9  19
ATOM     19  C   UNL     1       0.058   2.396  -8.638  1.00  0.00    -0.038 A 
ATOM     20  C   UNL     1       2.043   3.354 -10.398  1.00  0.00     0.060 A 
ATOM     21  C   UNL     1       1.864   3.951  -9.146  1.00  0.00     0.016 A 
ATOM     22  C   UNL     1       1.191   2.320 -10.793  1.00  0.00     0.016 A 
ATOM     23  C   UNL     1       0.889   3.468  -8.270  1.00  0.00     0.005 A 
ATOM     24  C   UNL     1       0.183   1.878  -9.937  1.00  0.00     0.005 A 
BRANCH  20  25
ATOM     25  C   UNL     1       3.150   3.825 -11.264  1.00  0.00     0.337 C 
ATOM     26  O   UNL     1       4.031   4.591 -10.882  1.00  0.00    -0.246 OA
BRANCH  25  27
ATOM     27  O   UNL     1       3.041   3.293 -12.502  1.00  0.00    -0.465 OA
ATOM     28  C   UNL     1       4.085   3.663 -13.400  1.00  0.00     0.282 C 
ENDBRANCH  25  27
ENDBRANCH  20  25
ENDBRANCH   9  19
BRANCH  14  29
ATOM     29  C   UNL     1       0.578  -0.816  -8.228  1.00  0.00     0.045 A 
ATOM     30  C   UNL     1       1.363  -0.321  -7.184  1.00  0.00     0.026 A 
ATOM     31  C   UNL     1       1.175  -1.363  -9.372  1.00  0.00     0.026 A 
ATOM     32  C   UNL     1       2.751  -0.308  -7.317  1.00  0.00     0.002 A 
ATOM     33  C   UNL     1       2.562  -1.312  -9.510  1.00  0.00     0.002 A 
ATOM     34  C   UNL     1       3.346  -0.775  -8.489  1.00  0.00     0.000 A 
ENDBRANCH  14  29
ENDBRANCH   5   8
ENDBRANCH   3   4
ENDBRANCH   2   3
ENDBRANCH   1   2
BRANCH   1  35
ATOM     35  C   UNL     1      -9.164  -0.264  -7.752  1.00  0.00     0.002 C 
BRANCH  35  36
ATOM     36  C   UNL     1      -9.137   0.966  -6.829  1.00  0.00     0.021 C 
BRANCH  36  37
ATOM     37  C   UNL     1      -9.784   2.188  -7.455  1.00  0.00     0.116 C 
BRANCH  37  38
ATOM     38  N   UNL     1     -11.216   1.977  -7.693  1.00  0.00    -0.352 N 
ATOM     39  C   UNL     1     -12.128   2.791  -8.332  1.00  0.00     0.251 C 
ATOM     40  H   UNL     1     -11.579   1.131  -7.346  1.00  0.00     0.163 HD
ATOM     41  O   UNL     1     -13.333   2.649  -8.160  1.00  0.00    -0.269 OA
BRANCH  39  42
ATOM     42  C   UNL     1     -11.625   3.834  -9.235  1.00  0.00     0.039 A 
ATOM     43  C   UNL     1     -12.219   5.096  -9.317  1.00  0.00     0.014 A 
ATOM     44  C   UNL     1     -10.498   3.528  -9.987  1.00  0.00     0.014 A 
ATOM     45  C   UNL     1     -11.616   6.060 -10.119  1.00  0.00     0.010 A 
ATOM     46  C   UNL     1      -9.781   4.534 -10.563  1.00  0.00     0.010 A 
ATOM     47  C   UNL     1     -10.383   5.769 -10.727  1.00  0.00    -0.014 A 
BRANCH  47  48
ATOM     48  C   UNL     1      -9.652   6.763 -11.495  1.00  0.00     0.031 A 
ATOM     49  C   UNL     1      -9.398   8.029 -10.764  1.00  0.00     0.074 A 
ATOM     50  C   UNL     1      -9.078   6.480 -12.686  1.00  0.00     0.049 A 
ATOM     51  N   UNL     1      -9.892   9.193 -11.020  1.00  0.00    -0.248 NA
ATOM     52  C   UNL     1      -8.624   7.970  -9.513  1.00  0.00     0.031 C 
ATOM     53  C   UNL     1      -8.975   5.190 -13.382  1.00  0.00     0.029 A 
ATOM     54  N   UNL     1      -8.368   7.304 -13.501  1.00  0.00    -0.354 N 
ATOM     55  C   UNL     1      -9.342  10.059 -10.080  1.00  0.00     0.074 A 
ATOM     56  C   UNL     1      -8.720   9.229  -9.082  1.00  0.00     0.031 C 
ATOM     57  C   UNL     1      -8.058   5.273 -14.371  1.00  0.00     0.029 A 
ATOM     58  C   UNL     1      -7.650   6.657 -14.501  1.00  0.00     0.049 A 
ATOM     59  H   UNL     1      -8.362   8.282 -13.392  1.00  0.00     0.167 HD
ATOM     60  C   UNL     1      -9.241  11.391 -10.343  1.00  0.00     0.037 A 
ATOM     61  C   UNL     1      -6.766   7.231 -15.355  1.00  0.00     0.037 A 
ATOM     62  C   UNL     1     -10.098  11.763 -11.443  1.00  0.00     0.049 A 
ATOM     63  C   UNL     1      -7.055   8.688 -15.361  1.00  0.00     0.074 A 
ATOM     64  C   UNL     1     -11.461  11.716 -11.666  1.00  0.00     0.029 A 
ATOM     65  N   UNL     1      -9.526  11.894 -12.685  1.00  0.00    -0.354 N 
ATOM     66  N   UNL     1      -8.153   9.203 -15.841  1.00  0.00    -0.248 NA
ATOM     67  C   UNL     1      -6.347   9.512 -14.393  1.00  0.00     0.031 C 
ATOM     68  C   UNL     1     -11.598  11.319 -13.030  1.00  0.00     0.029 A 
ATOM     69  C   UNL     1     -10.320  11.225 -13.581  1.00  0.00     0.049 A 
ATOM     70  H   UNL     1      -8.696  12.381 -12.894  1.00  0.00     0.167 HD
ATOM     71  C   UNL     1      -8.504  10.192 -14.934  1.00  0.00     0.074 A 
ATOM     72  C   UNL     1      -7.316  10.384 -14.102  1.00  0.00     0.031 C 
ATOM     73  C   UNL     1      -9.809  10.550 -14.752  1.00  0.00     0.037 A 
BRANCH  60  74
ATOM     74  C   UNL     1      -8.104  12.271  -9.883  1.00  0.00     0.064 A 
ATOM     75  C   UNL     1      -8.166  13.655 -10.148  1.00  0.00     0.173 A 
ATOM     76  C   UNL     1      -6.840  11.787  -9.485  1.00  0.00     0.173 A 
ATOM     77  F   UNL     1      -9.315  14.225 -10.541  1.00  0.00    -0.203 F 
ATOM     78  C   UNL     1      -7.029  14.466 -10.113  1.00  0.00     0.198 A 
ATOM     79  C   UNL     1      -5.718  12.610  -9.399  1.00  0.00     0.198 A 
ATOM     80  F   UNL     1      -6.603  10.488  -9.274  1.00  0.00    -0.203 F 
ATOM     81  F   UNL     1      -7.112  15.743 -10.507  1.00  0.00    -0.200 F 
ATOM     82  C   UNL     1      -5.804  13.940  -9.748  1.00  0.00     0.200 A 
ATOM     83  F   UNL     1      -4.536  12.077  -9.059  1.00  0.00    -0.200 F 
ATOM     84  F   UNL     1      -4.700  14.697  -9.781  1.00  0.00    -0.200 F 
ENDBRANCH  60  74
BRANCH  61  85
ATOM     85  C   UNL     1      -5.502   6.667 -15.884  1.00  0.00     0.064 A 
ATOM     86  C   UNL     1      -4.849   7.256 -16.980  1.00  0.00     0.173 A 
ATOM     87  C   UNL     1      -4.759   5.724 -15.147  1.00  0.00     0.173 A 
ATOM     88  F   UNL     1      -5.470   8.196 -17.707  1.00  0.00    -0.203 F 
ATOM     89  C   UNL     1      -3.523   6.942 -17.300  1.00  0.00     0.198 A 
ATOM     90  C   UNL     1      -3.438   5.409 -15.470  1.00  0.00     0.198 A 
ATOM     91  F   UNL     1      -5.268   5.162 -14.041  1.00  0.00    -0.203 F 
ATOM     92  F   UNL     1      -2.913   7.572 -18.314  1.00  0.00    -0.200 F 
ATOM     93  C   UNL     1      -2.815   6.029 -16.537  1.00  0.00     0.200 A 
ATOM     94  F   UNL     1      -2.752   4.552 -14.700  1.00  0.00    -0.200 F 
ATOM     95  F   UNL     1      -1.525   5.777 -16.802  1.00  0.00    -0.200 F 
ENDBRANCH  61  85
BRANCH  73  96
ATOM     96  C   UNL     1     -10.825  10.021 -15.728  1.00  0.00     0.064 A 
ATOM     97  C   UNL     1     -11.133   8.658 -15.892  1.00  0.00     0.173 A 
ATOM     98  C   UNL     1     -11.619  10.943 -16.420  1.00  0.00     0.173 A 
ATOM     99  F   UNL     1     -10.488   7.715 -15.194  1.00  0.00    -0.203 F 
ATOM    100  C   UNL     1     -12.158   8.242 -16.741  1.00  0.00     0.198 A 
ATOM    101  C   UNL     1     -12.666  10.528 -17.239  1.00  0.00     0.198 A 
ATOM    102  F   UNL     1     -11.410  12.259 -16.262  1.00  0.00    -0.203 F 
ATOM    103  F   UNL     1     -12.423   6.934 -16.887  1.00  0.00    -0.200 F 
ATOM    104  C   UNL     1     -12.928   9.178 -17.408  1.00  0.00     0.200 A 
ATOM    105  F   UNL     1     -13.439  11.440 -17.844  1.00  0.00    -0.200 F 
ATOM    106  F   UNL     1     -13.940   8.783 -18.194  1.00  0.00    -0.200 F 
ENDBRANCH  73  96
ENDBRANCH  47  48
ENDBRANCH  39  42
ENDBRANCH  37  38
ENDBRANCH  36  37
ENDBRANCH  35  36
ENDBRANCH   1  35
TORSDOF 17
