REMARK SMILES Cc1nn(C(C)C)c(C)c1S(=O)(=O)Nc1cccc(C(=O)NCCCCCCNC(=O)c2ccc(-c3c4nc(c(-c5c(F)c(F)c(F)c(F)c5F)c5ccc([nH]5)c(-c5c(F)c(F)c(F)c(F)c5F)c5nc(c(-c6c(F)c(F)c(F)c(F)c6F)c6ccc3[nH]6)C=C5)C=C4)cc2)c1C
REMARK SMILES IDX 24 1 23 2 22 3 20 4 21 5 19 7 15 8 16 9 95 10 17 11 96 12
REMARK SMILES IDX 18 13 14 14 11 16 12 17 13 18 10 19 1 20 2 21 3 22 4 23 8 24
REMARK SMILES IDX 9 25 5 26 6 27 7 28 25 29 26 30 27 31 28 32 29 33 30 34
REMARK SMILES IDX 31 36 32 37 33 38 94 39 34 40 93 41 35 42 36 43 37 44 87 45
REMARK SMILES IDX 38 46 92 47 86 48 88 49 39 50 91 51 85 52 84 53 40 55 72 56
REMARK SMILES IDX 52 57 71 58 53 59 56 60 70 61 89 62 54 63 55 64 69 66 90 67
REMARK SMILES IDX 57 68 41 69 42 70 50 71 43 72 44 73 48 74 51 75 45 76 46 77
REMARK SMILES IDX 49 78 47 79 73 80 74 81 82 82 75 83 76 84 80 85 83 86 77 87
REMARK SMILES IDX 78 88 81 89 79 90 58 91 59 92 67 93 60 94 61 95 65 96 68 97
REMARK SMILES IDX 62 98 63 99 66 100 64 101
REMARK H PARENT 22 6 14 15 29 35 88 54 56 65
REMARK Flexibility Score: inf
ROOT
ATOM      1  C   UNL     1       3.539  -1.406   5.913  1.00  0.00     0.021 C 
ENDROOT
BRANCH   1   2
ATOM      2  C   UNL     1       2.496  -1.419   4.800  1.00  0.00     0.116 C 
BRANCH   2   3
ATOM      3  N   UNL     1       1.581  -0.299   4.839  1.00  0.00    -0.352 N 
ATOM      4  C   UNL     1       1.018   0.543   3.912  1.00  0.00     0.251 C 
ATOM      5  O   UNL     1      -0.049   1.033   4.291  1.00  0.00    -0.269 OA
ATOM      6  H   UNL     1       1.290  -0.090   5.756  1.00  0.00     0.163 HD
BRANCH   4   7
ATOM      7  C   UNL     1       1.562   0.898   2.543  1.00  0.00     0.044 A 
ATOM      8  C   UNL     1       1.276   2.062   0.402  1.00  0.00     0.053 A 
ATOM      9  C   UNL     1       2.405   1.443  -0.120  1.00  0.00     0.027 A 
ATOM     10  C   UNL     1       0.947   1.932   1.779  1.00  0.00    -0.014 A 
ATOM     11  C   UNL     1       3.078   0.515   0.650  1.00  0.00     0.003 A 
ATOM     12  C   UNL     1      -0.111   2.854   2.348  1.00  0.00     0.047 C 
ATOM     13  C   UNL     1       2.615   0.205   1.931  1.00  0.00     0.014 A 
BRANCH   8  14
ATOM     14  N   UNL     1       0.340   2.739  -0.433  1.00  0.00    -0.279 N 
ATOM     15  H   UNL     1      -0.244   3.410  -0.012  1.00  0.00     0.180 HD
BRANCH  14  16
ATOM     16  S   UNL     1       0.164   2.477  -2.071  1.00  0.00     0.265 S 
ATOM     17  O   UNL     1       1.398   2.844  -2.720  1.00  0.00    -0.201 OA
ATOM     18  O   UNL     1      -1.075   3.154  -2.429  1.00  0.00    -0.201 OA
BRANCH  16  19
ATOM     19  C   UNL     1      -0.104   0.851  -2.593  1.00  0.00     0.131 A 
ATOM     20  C   UNL     1      -0.129  -0.717  -0.440  1.00  0.00     0.070 C 
ATOM     21  C   UNL     1      -0.158  -0.374  -1.879  1.00  0.00     0.080 A 
ATOM     22  N   UNL     1      -0.261  -1.415  -2.717  1.00  0.00    -0.176 NA
ATOM     23  N   UNL     1      -0.397  -0.872  -3.935  1.00  0.00    -0.266 N 
ATOM     24  C   UNL     1      -0.342   0.496  -3.919  1.00  0.00     0.056 A 
ATOM     25  C   UNL     1      -0.534   1.334  -5.131  1.00  0.00     0.068 C 
BRANCH  23  26
ATOM     26  C   UNL     1      -0.593  -1.757  -5.083  1.00  0.00     0.101 C 
ATOM     27  C   UNL     1       0.711  -2.453  -5.470  1.00  0.00     0.033 C 
ATOM     28  C   UNL     1      -1.708  -2.774  -4.828  1.00  0.00     0.033 C 
ENDBRANCH  23  26
ENDBRANCH  16  19
ENDBRANCH  14  16
ENDBRANCH   8  14
ENDBRANCH   4   7
ENDBRANCH   2   3
ENDBRANCH   1   2
BRANCH   1  29
ATOM     29  C   UNL     1       3.057  -1.785   7.315  1.00  0.00     0.002 C 
BRANCH  29  30
ATOM     30  C   UNL     1       2.190  -3.046   7.463  1.00  0.00     0.002 C 
BRANCH  30  31
ATOM     31  C   UNL     1       2.598  -4.298   6.683  1.00  0.00     0.021 C 
BRANCH  31  32
ATOM     32  C   UNL     1       3.981  -4.842   6.999  1.00  0.00     0.116 C 
BRANCH  32  33
ATOM     33  N   UNL     1       4.002  -5.992   7.893  1.00  0.00    -0.352 N 
ATOM     34  C   UNL     1       5.105  -6.654   8.406  1.00  0.00     0.251 C 
ATOM     35  H   UNL     1       3.123  -6.342   8.166  1.00  0.00     0.163 HD
ATOM     36  O   UNL     1       4.974  -7.639   9.124  1.00  0.00    -0.269 OA
BRANCH  34  37
ATOM     37  C   UNL     1       6.446  -6.062   8.186  1.00  0.00     0.039 A 
ATOM     38  C   UNL     1       7.207  -5.753   9.317  1.00  0.00     0.014 A 
ATOM     39  C   UNL     1       6.797  -5.557   6.937  1.00  0.00     0.014 A 
ATOM     40  C   UNL     1       8.137  -4.721   9.245  1.00  0.00     0.010 A 
ATOM     41  C   UNL     1       7.644  -4.468   6.883  1.00  0.00     0.010 A 
ATOM     42  C   UNL     1       8.258  -4.007   8.052  1.00  0.00    -0.014 A 
BRANCH  42  43
ATOM     43  C   UNL     1       8.978  -2.745   7.959  1.00  0.00     0.031 A 
ATOM     44  C   UNL     1      10.360  -2.741   7.444  1.00  0.00     0.074 A 
ATOM     45  C   UNL     1       8.401  -1.583   8.341  1.00  0.00     0.049 A 
ATOM     46  N   UNL     1      11.271  -1.911   7.825  1.00  0.00    -0.248 NA
ATOM     47  C   UNL     1      10.837  -3.718   6.474  1.00  0.00     0.031 C 
ATOM     48  C   UNL     1       8.929  -0.235   8.146  1.00  0.00     0.029 A 
ATOM     49  N   UNL     1       7.279  -1.402   9.164  1.00  0.00    -0.354 N 
ATOM     50  C   UNL     1      12.355  -2.067   6.994  1.00  0.00     0.074 A 
ATOM     51  C   UNL     1      12.056  -3.241   6.206  1.00  0.00     0.031 C 
ATOM     52  C   UNL     1       8.354   0.591   9.033  1.00  0.00     0.029 A 
ATOM     53  C   UNL     1       7.516  -0.214   9.900  1.00  0.00     0.049 A 
ATOM     54  H   UNL     1       6.487  -1.983   9.219  1.00  0.00     0.167 HD
ATOM     55  C   UNL     1      13.327  -1.109   6.979  1.00  0.00     0.037 A 
ATOM     56  C   UNL     1       7.555  -0.211  11.265  1.00  0.00     0.037 A 
ATOM     57  C   UNL     1      13.045  -0.055   7.951  1.00  0.00     0.049 A 
ATOM     58  C   UNL     1       8.890   0.200  11.833  1.00  0.00     0.074 A 
ATOM     59  C   UNL     1      12.436   1.183   7.827  1.00  0.00     0.029 A 
ATOM     60  N   UNL     1      13.087  -0.338   9.313  1.00  0.00    -0.354 N 
ATOM     61  N   UNL     1       9.980   0.286  11.123  1.00  0.00    -0.248 NA
ATOM     62  C   UNL     1       9.118   0.485  13.247  1.00  0.00     0.031 C 
ATOM     63  C   UNL     1      12.059   1.620   9.120  1.00  0.00     0.029 A 
ATOM     64  C   UNL     1      12.454   0.658  10.034  1.00  0.00     0.049 A 
ATOM     65  H   UNL     1      13.507  -1.136   9.707  1.00  0.00     0.167 HD
ATOM     66  C   UNL     1      11.040   0.551  11.949  1.00  0.00     0.074 A 
ATOM     67  C   UNL     1      10.444   0.710  13.261  1.00  0.00     0.031 C 
ATOM     68  C   UNL     1      12.324   0.581  11.482  1.00  0.00     0.037 A 
BRANCH  55  69
ATOM     69  C   UNL     1      14.351  -0.981   5.871  1.00  0.00     0.064 A 
ATOM     70  C   UNL     1      14.818   0.285   5.456  1.00  0.00     0.173 A 
ATOM     71  C   UNL     1      14.865  -2.066   5.139  1.00  0.00     0.173 A 
ATOM     72  F   UNL     1      14.509   1.402   6.126  1.00  0.00    -0.203 F 
ATOM     73  C   UNL     1      15.621   0.456   4.325  1.00  0.00     0.198 A 
ATOM     74  C   UNL     1      15.619  -1.894   3.973  1.00  0.00     0.198 A 
ATOM     75  F   UNL     1      14.696  -3.327   5.558  1.00  0.00    -0.203 F 
ATOM     76  F   UNL     1      16.024   1.686   3.974  1.00  0.00    -0.200 F 
ATOM     77  C   UNL     1      15.986  -0.630   3.558  1.00  0.00     0.200 A 
ATOM     78  F   UNL     1      15.985  -2.965   3.253  1.00  0.00    -0.200 F 
ATOM     79  F   UNL     1      16.709  -0.463   2.442  1.00  0.00    -0.200 F 
ENDBRANCH  55  69
BRANCH  56  80
ATOM     80  C   UNL     1       6.644  -1.231  11.850  1.00  0.00     0.064 A 
ATOM     81  C   UNL     1       5.271  -1.088  11.570  1.00  0.00     0.173 A 
ATOM     82  C   UNL     1       7.115  -2.505  12.186  1.00  0.00     0.173 A 
ATOM     83  F   UNL     1       4.770   0.123  11.277  1.00  0.00    -0.203 F 
ATOM     84  C   UNL     1       4.456  -2.203  11.408  1.00  0.00     0.198 A 
ATOM     85  C   UNL     1       6.280  -3.616  12.065  1.00  0.00     0.198 A 
ATOM     86  F   UNL     1       8.407  -2.694  12.488  1.00  0.00    -0.203 F 
ATOM     87  F   UNL     1       3.205  -2.054  10.948  1.00  0.00    -0.200 F 
ATOM     88  C   UNL     1       4.976  -3.470  11.612  1.00  0.00     0.200 A 
ATOM     89  F   UNL     1       6.773  -4.842  12.289  1.00  0.00    -0.200 F 
ATOM     90  F   UNL     1       4.235  -4.549  11.323  1.00  0.00    -0.200 F 
ENDBRANCH  56  80
BRANCH  68  91
ATOM     91  C   UNL     1      13.557   0.647  12.346  1.00  0.00     0.064 A 
ATOM     92  C   UNL     1      13.636   0.103  13.639  1.00  0.00     0.173 A 
ATOM     93  C   UNL     1      14.763   1.179  11.832  1.00  0.00     0.173 A 
ATOM     94  F   UNL     1      12.604  -0.557  14.181  1.00  0.00    -0.203 F 
ATOM     95  C   UNL     1      14.806   0.174  14.400  1.00  0.00     0.198 A 
ATOM     96  C   UNL     1      15.945   1.193  12.571  1.00  0.00     0.198 A 
ATOM     97  F   UNL     1      14.832   1.680  10.590  1.00  0.00    -0.203 F 
ATOM     98  F   UNL     1      14.813  -0.305  15.652  1.00  0.00    -0.200 F 
ATOM     99  C   UNL     1      15.960   0.714  13.864  1.00  0.00     0.200 A 
ATOM    100  F   UNL     1      17.072   1.661  12.015  1.00  0.00    -0.200 F 
ATOM    101  F   UNL     1      17.089   0.750  14.585  1.00  0.00    -0.200 F 
ENDBRANCH  68  91
ENDBRANCH  42  43
ENDBRANCH  34  37
ENDBRANCH  32  33
ENDBRANCH  31  32
ENDBRANCH  30  31
ENDBRANCH  29  30
ENDBRANCH   1  29
TORSDOF 17
