REMARK SMILES NS(=O)(=O)c1ccc(-n2nc(C(F)(F)F)cc2-c2ccc(CC(=O)NCCCCCCNC(=O)c3ccc(-c4c5nc(c(-c6c(F)c(F)c(F)c(F)c6F)c6ccc([nH]6)c(-c6c(F)c(F)c(F)c(F)c6F)c6nc(c(-c7c(F)c(F)c(F)c(F)c7F)c7ccc4[nH]7)C=C6)C=C5)cc3)cc2)cc1
REMARK SMILES IDX 27 1 26 2 25 3 23 4 24 5 22 7 21 8 18 9 19 10 99 11 20 12
REMARK SMILES IDX 98 13 17 14 9 15 10 16 11 17 16 18 8 19 5 20 6 21 101 22
REMARK SMILES IDX 7 23 100 24 2 25 3 26 4 27 1 28 12 31 13 32 14 33 15 34
REMARK SMILES IDX 28 35 29 36 30 37 31 38 32 39 33 40 34 42 35 43 36 44 97 45
REMARK SMILES IDX 37 46 96 47 38 48 39 49 40 50 90 51 41 52 95 53 89 54 91 55
REMARK SMILES IDX 42 56 94 57 88 58 87 59 43 61 75 62 55 63 74 64 56 65 59 66
REMARK SMILES IDX 73 67 92 68 57 69 58 70 72 72 93 73 60 74 44 75 45 76 53 77
REMARK SMILES IDX 46 78 47 79 51 80 54 81 48 82 49 83 52 84 50 85 76 86 77 87
REMARK SMILES IDX 85 88 78 89 79 90 83 91 86 92 80 93 81 94 84 95 82 96 61 97
REMARK SMILES IDX 62 98 70 99 63 100 64 101 68 102 71 103 65 104 66 105 69 106
REMARK SMILES IDX 67 107
REMARK H PARENT 25 6 1 29 1 30 32 41 91 60 59 71
REMARK Flexibility Score: inf
ROOT
ATOM      1  C   UNL     1       4.234   0.995   3.397  1.00  0.00     0.021 C 
ENDROOT
BRANCH   1   2
ATOM      2  C   UNL     1       5.662   0.936   3.942  1.00  0.00     0.116 C 
BRANCH   2   3
ATOM      3  N   UNL     1       6.633   0.927   2.866  1.00  0.00    -0.356 N 
ATOM      4  C   UNL     1       7.517   1.895   2.487  1.00  0.00     0.224 C 
ATOM      5  O   UNL     1       8.174   1.718   1.459  1.00  0.00    -0.275 OA
ATOM      6  H   UNL     1       6.660   0.101   2.330  1.00  0.00     0.163 HD
BRANCH   4   7
ATOM      7  C   UNL     1       7.717   3.131   3.347  1.00  0.00     0.135 C 
BRANCH   7   8
ATOM      8  C   UNL     1       6.532   4.065   3.370  1.00  0.00    -0.039 A 
ATOM      9  C   UNL     1       4.228   5.653   3.424  1.00  0.00     0.000 A 
ATOM     10  C   UNL     1       4.870   5.382   2.210  1.00  0.00     0.010 A 
ATOM     11  C   UNL     1       4.778   5.183   4.617  1.00  0.00     0.010 A 
ATOM     12  C   UNL     1       6.013   4.586   2.181  1.00  0.00     0.005 A 
ATOM     13  C   UNL     1       5.931   4.407   4.590  1.00  0.00     0.005 A 
BRANCH   9  14
ATOM     14  C   UNL     1       2.991   6.415   3.460  1.00  0.00     0.075 A 
ATOM     15  N   UNL     1       1.869   6.130   2.705  1.00  0.00    -0.233 N 
ATOM     16  N   UNL     1       0.884   7.044   2.894  1.00  0.00    -0.163 NA
ATOM     17  C   UNL     1       1.377   7.923   3.785  1.00  0.00     0.167 A 
ATOM     18  C   UNL     1       2.692   7.566   4.162  1.00  0.00     0.064 A 
BRANCH  15  19
ATOM     19  C   UNL     1       1.649   5.000   1.878  1.00  0.00     0.065 A 
ATOM     20  C   UNL     1       1.046   2.825   0.246  1.00  0.00     0.082 A 
ATOM     21  C   UNL     1       1.279   2.630   1.611  1.00  0.00     0.024 A 
ATOM     22  C   UNL     1       1.154   4.099  -0.315  1.00  0.00     0.024 A 
ATOM     23  C   UNL     1       1.586   3.720   2.435  1.00  0.00     0.030 A 
ATOM     24  C   UNL     1       1.467   5.185   0.502  1.00  0.00     0.030 A 
BRANCH  20  25
ATOM     25  S   UNL     1       0.657   1.478  -0.833  1.00  0.00     0.238 S 
ATOM     26  O   UNL     1       1.398   1.637  -2.055  1.00  0.00    -0.207 OA
ATOM     27  O   UNL     1      -0.776   1.269  -0.808  1.00  0.00    -0.207 OA
BRANCH  25  28
ATOM     28  N   UNL     1       1.325   0.129  -0.082  1.00  0.00    -0.225 NA
ATOM     29  H   UNL     1       1.142  -0.700  -0.648  1.00  0.00     0.137 HD
ATOM     30  H   UNL     1       0.905   0.011   0.840  1.00  0.00     0.137 HD
ENDBRANCH  25  28
ENDBRANCH  20  25
ENDBRANCH  15  19
BRANCH  17  31
ATOM     31  C   UNL     1       0.593   9.110   4.278  1.00  0.00     0.435 C 
ATOM     32  F   UNL     1       0.231   9.950   3.273  1.00  0.00    -0.164 F 
ATOM     33  F   UNL     1      -0.553   8.744   4.915  1.00  0.00    -0.164 F 
ATOM     34  F   UNL     1       1.305   9.854   5.169  1.00  0.00    -0.164 F 
ENDBRANCH  17  31
ENDBRANCH   9  14
ENDBRANCH   7   8
ENDBRANCH   4   7
ENDBRANCH   2   3
ENDBRANCH   1   2
BRANCH   1  35
ATOM     35  C   UNL     1       3.781  -0.290   2.692  1.00  0.00     0.002 C 
BRANCH  35  36
ATOM     36  C   UNL     1       3.921  -1.589   3.501  1.00  0.00     0.002 C 
BRANCH  36  37
ATOM     37  C   UNL     1       3.256  -1.605   4.886  1.00  0.00     0.021 C 
BRANCH  37  38
ATOM     38  C   UNL     1       1.739  -1.513   4.844  1.00  0.00     0.116 C 
BRANCH  38  39
ATOM     39  N   UNL     1       1.114  -2.685   4.224  1.00  0.00    -0.352 N 
ATOM     40  C   UNL     1      -0.228  -2.922   3.984  1.00  0.00     0.251 C 
ATOM     41  H   UNL     1       1.731  -3.398   3.941  1.00  0.00     0.163 HD
ATOM     42  O   UNL     1      -0.647  -4.059   3.804  1.00  0.00    -0.269 OA
BRANCH  40  43
ATOM     43  C   UNL     1      -1.149  -1.774   3.923  1.00  0.00     0.039 A 
ATOM     44  C   UNL     1      -2.457  -1.826   4.414  1.00  0.00     0.014 A 
ATOM     45  C   UNL     1      -0.654  -0.605   3.360  1.00  0.00     0.014 A 
ATOM     46  C   UNL     1      -3.231  -0.665   4.383  1.00  0.00     0.010 A 
ATOM     47  C   UNL     1      -1.325   0.570   3.538  1.00  0.00     0.010 A 
ATOM     48  C   UNL     1      -2.648   0.534   3.945  1.00  0.00    -0.014 A 
BRANCH  48  49
ATOM     49  C   UNL     1      -3.347   1.812   3.967  1.00  0.00     0.031 A 
ATOM     50  C   UNL     1      -3.787   2.241   5.319  1.00  0.00     0.074 A 
ATOM     51  C   UNL     1      -3.338   2.653   2.905  1.00  0.00     0.049 A 
ATOM     52  N   UNL     1      -4.995   2.389   5.749  1.00  0.00    -0.248 NA
ATOM     53  C   UNL     1      -2.761   2.389   6.365  1.00  0.00     0.031 C 
ATOM     54  C   UNL     1      -2.651   2.493   1.619  1.00  0.00     0.029 A 
ATOM     55  N   UNL     1      -3.879   3.896   2.786  1.00  0.00    -0.354 N 
ATOM     56  C   UNL     1      -4.881   2.848   7.059  1.00  0.00     0.074 A 
ATOM     57  C   UNL     1      -3.511   2.634   7.441  1.00  0.00     0.031 C 
ATOM     58  C   UNL     1      -2.638   3.668   0.949  1.00  0.00     0.029 A 
ATOM     59  C   UNL     1      -3.459   4.622   1.669  1.00  0.00     0.049 A 
ATOM     60  H   UNL     1      -4.521   4.257   3.440  1.00  0.00     0.167 HD
ATOM     61  C   UNL     1      -5.866   3.603   7.622  1.00  0.00     0.037 A 
ATOM     62  C   UNL     1      -3.765   5.918   1.385  1.00  0.00     0.037 A 
ATOM     63  C   UNL     1      -7.091   3.491   6.867  1.00  0.00     0.049 A 
ATOM     64  C   UNL     1      -4.928   6.273   2.229  1.00  0.00     0.074 A 
ATOM     65  C   UNL     1      -7.924   2.443   6.523  1.00  0.00     0.029 A 
ATOM     66  N   UNL     1      -7.408   4.512   6.005  1.00  0.00    -0.354 N 
ATOM     67  N   UNL     1      -6.123   5.792   2.039  1.00  0.00    -0.248 NA
ATOM     68  C   UNL     1      -4.651   6.779   3.566  1.00  0.00     0.031 C 
ATOM     69  C   UNL     1      -8.316   2.712   5.178  1.00  0.00     0.029 A 
ATOM     70  C   UNL     1      -7.769   3.941   4.812  1.00  0.00     0.049 A 
ATOM     71  H   UNL     1      -7.382   5.475   6.206  1.00  0.00     0.167 HD
ATOM     72  C   UNL     1      -6.603   5.543   3.313  1.00  0.00     0.074 A 
ATOM     73  C   UNL     1      -5.684   6.236   4.216  1.00  0.00     0.031 C 
ATOM     74  C   UNL     1      -7.514   4.552   3.532  1.00  0.00     0.037 A 
BRANCH  61  75
ATOM     75  C   UNL     1      -5.634   4.731   8.602  1.00  0.00     0.064 A 
ATOM     76  C   UNL     1      -6.753   5.386   9.158  1.00  0.00     0.173 A 
ATOM     77  C   UNL     1      -4.398   5.389   8.787  1.00  0.00     0.173 A 
ATOM     78  F   UNL     1      -7.981   4.857   9.046  1.00  0.00    -0.203 F 
ATOM     79  C   UNL     1      -6.654   6.646   9.755  1.00  0.00     0.198 A 
ATOM     80  C   UNL     1      -4.296   6.621   9.432  1.00  0.00     0.198 A 
ATOM     81  F   UNL     1      -3.255   4.935   8.264  1.00  0.00    -0.203 F 
ATOM     82  F   UNL     1      -7.765   7.286  10.143  1.00  0.00    -0.200 F 
ATOM     83  C   UNL     1      -5.427   7.267   9.882  1.00  0.00     0.200 A 
ATOM     84  F   UNL     1      -3.096   7.210   9.538  1.00  0.00    -0.200 F 
ATOM     85  F   UNL     1      -5.336   8.500  10.395  1.00  0.00    -0.200 F 
ENDBRANCH  61  75
BRANCH  62  86
ATOM     86  C   UNL     1      -3.019   6.964   0.644  1.00  0.00     0.064 A 
ATOM     87  C   UNL     1      -3.630   8.133   0.165  1.00  0.00     0.173 A 
ATOM     88  C   UNL     1      -1.620   6.972   0.664  1.00  0.00     0.173 A 
ATOM     89  F   UNL     1      -4.966   8.233   0.145  1.00  0.00    -0.203 F 
ATOM     90  C   UNL     1      -2.881   9.247  -0.240  1.00  0.00     0.198 A 
ATOM     91  C   UNL     1      -0.868   8.079   0.253  1.00  0.00     0.198 A 
ATOM     92  F   UNL     1      -0.985   5.918   1.178  1.00  0.00    -0.203 F 
ATOM     93  F   UNL     1      -3.503  10.365  -0.640  1.00  0.00    -0.200 F 
ATOM     94  C   UNL     1      -1.501   9.223  -0.183  1.00  0.00     0.200 A 
ATOM     95  F   UNL     1       0.470   8.071   0.317  1.00  0.00    -0.200 F 
ATOM     96  F   UNL     1      -0.780  10.302  -0.518  1.00  0.00    -0.200 F 
ENDBRANCH  62  86
BRANCH  74  97
ATOM     97  C   UNL     1      -8.129   3.889   2.330  1.00  0.00     0.064 A 
ATOM     98  C   UNL     1      -7.412   3.102   1.411  1.00  0.00     0.173 A 
ATOM     99  C   UNL     1      -9.521   3.922   2.200  1.00  0.00     0.173 A 
ATOM    100  F   UNL     1      -6.089   2.945   1.523  1.00  0.00    -0.203 F 
ATOM    101  C   UNL     1      -8.061   2.404   0.393  1.00  0.00     0.198 A 
ATOM    102  C   UNL     1     -10.171   3.197   1.205  1.00  0.00     0.198 A 
ATOM    103  F   UNL     1     -10.260   4.615   3.081  1.00  0.00    -0.203 F 
ATOM    104  F   UNL     1      -7.355   1.659  -0.471  1.00  0.00    -0.200 F 
ATOM    105  C   UNL     1      -9.441   2.445   0.298  1.00  0.00     0.200 A 
ATOM    106  F   UNL     1     -11.509   3.201   1.148  1.00  0.00    -0.200 F 
ATOM    107  F   UNL     1     -10.073   1.736  -0.648  1.00  0.00    -0.200 F 
ENDBRANCH  74  97
ENDBRANCH  48  49
ENDBRANCH  40  43
ENDBRANCH  38  39
ENDBRANCH  37  38
ENDBRANCH  36  37
ENDBRANCH  35  36
ENDBRANCH   1  35
TORSDOF 19
