REMARK SMILES O=C(NCCCCCCNC(=O)C1(Cc2cc(F)cc(Br)c2)CCCCCC1)c1ccc(-c2c3nc(c(-c4c(F)c(F)c(F)c(F)c4F)c4ccc([nH]4)c(-c4c(F)c(F)c(F)c(F)c4F)c4nc(c(-c5c(F)c(F)c(F)c(F)c5F)c5ccc2[nH]5)C=C4)C=C3)cc1
REMARK SMILES IDX 7 1 6 2 5 3 4 4 3 5 1 6 2 7 29 9 30 10 91 11 31 12 90 13
REMARK SMILES IDX 32 14 33 15 34 16 84 17 35 18 89 19 83 20 85 21 36 22 88 23
REMARK SMILES IDX 82 24 81 25 37 27 69 28 49 29 68 30 50 31 53 32 67 33 86 34
REMARK SMILES IDX 51 35 52 36 66 38 87 39 54 40 38 41 39 42 47 43 40 44 41 45
REMARK SMILES IDX 45 46 48 47 42 48 43 49 46 50 44 51 70 52 71 53 79 54 72 55
REMARK SMILES IDX 73 56 77 57 80 58 74 59 75 60 78 61 76 62 55 63 56 64 64 65
REMARK SMILES IDX 57 66 58 67 62 68 65 69 59 70 60 71 63 72 61 73 8 74 9 75
REMARK SMILES IDX 10 76 11 77 12 79 13 80 14 81 15 82 16 83 22 84 17 85 20 86
REMARK SMILES IDX 18 87 19 88 21 89 23 90 24 91 25 92 28 94 27 95 26 96
REMARK H PARENT 3 8 85 26 53 37 10 78
REMARK Flexibility Score: 100.00
ROOT
ATOM      1  C   UNL     1       4.005   4.031   2.097  1.00  0.00     0.002 C 
ENDROOT
BRANCH   1   2
ATOM      2  C   UNL     1       3.700   3.843   0.608  1.00  0.00     0.002 C 
BRANCH   2   3
ATOM      3  C   UNL     1       4.403   2.665  -0.073  1.00  0.00     0.021 C 
BRANCH   3   4
ATOM      4  C   UNL     1       4.250   1.320   0.634  1.00  0.00     0.116 C 
BRANCH   4   5
ATOM      5  N   UNL     1       2.871   0.869   0.654  1.00  0.00    -0.352 N 
ATOM      6  O   UNL     1       1.027  -0.172  -0.112  1.00  0.00    -0.269 OA
ATOM      7  C   UNL     1       2.251  -0.091  -0.103  1.00  0.00     0.251 C 
ATOM      8  H   UNL     1       2.293   1.321   1.311  1.00  0.00     0.163 HD
BRANCH   7   9
ATOM      9  C   UNL     1       3.050  -1.037  -0.913  1.00  0.00     0.039 A 
ATOM     10  C   UNL     1       4.167  -1.680  -0.372  1.00  0.00     0.014 A 
ATOM     11  C   UNL     1       2.615  -1.357  -2.203  1.00  0.00     0.014 A 
ATOM     12  C   UNL     1       4.896  -2.578  -1.146  1.00  0.00     0.010 A 
ATOM     13  C   UNL     1       3.305  -2.312  -2.955  1.00  0.00     0.010 A 
ATOM     14  C   UNL     1       4.450  -2.930  -2.430  1.00  0.00    -0.014 A 
BRANCH  14  15
ATOM     15  C   UNL     1       5.106  -4.050  -3.149  1.00  0.00     0.031 A 
ATOM     16  C   UNL     1       5.875  -3.825  -4.417  1.00  0.00     0.074 A 
ATOM     17  C   UNL     1       4.973  -5.292  -2.642  1.00  0.00     0.049 A 
ATOM     18  N   UNL     1       6.482  -4.703  -5.175  1.00  0.00    -0.248 NA
ATOM     19  C   UNL     1       5.972  -2.442  -4.905  1.00  0.00     0.031 C 
ATOM     20  C   UNL     1       4.218  -5.628  -1.431  1.00  0.00     0.029 A 
ATOM     21  N   UNL     1       5.456  -6.500  -3.075  1.00  0.00    -0.354 N 
ATOM     22  C   UNL     1       7.019  -3.986  -6.235  1.00  0.00     0.074 A 
ATOM     23  C   UNL     1       6.654  -2.599  -6.033  1.00  0.00     0.031 C 
ATOM     24  C   UNL     1       4.304  -6.947  -1.209  1.00  0.00     0.029 A 
ATOM     25  C   UNL     1       5.069  -7.558  -2.290  1.00  0.00     0.049 A 
ATOM     26  H   UNL     1       6.026  -6.599  -3.872  1.00  0.00     0.167 HD
ATOM     27  C   UNL     1       7.751  -4.450  -7.275  1.00  0.00     0.037 A 
ATOM     28  C   UNL     1       5.277  -8.879  -2.439  1.00  0.00     0.037 A 
ATOM     29  C   UNL     1       8.127  -5.830  -7.452  1.00  0.00     0.049 A 
ATOM     30  C   UNL     1       6.072  -9.360  -3.619  1.00  0.00     0.074 A 
ATOM     31  C   UNL     1       8.946  -6.382  -8.423  1.00  0.00     0.029 A 
ATOM     32  N   UNL     1       7.699  -6.877  -6.650  1.00  0.00    -0.354 N 
ATOM     33  N   UNL     1       6.642  -8.661  -4.570  1.00  0.00    -0.248 NA
ATOM     34  C   UNL     1       6.245 -10.812  -3.752  1.00  0.00     0.031 C 
ATOM     35  C   UNL     1       8.967  -7.768  -8.242  1.00  0.00     0.029 A 
ATOM     36  C   UNL     1       8.200  -8.076  -7.131  1.00  0.00     0.049 A 
ATOM     37  H   UNL     1       7.124  -6.782  -5.856  1.00  0.00     0.167 HD
ATOM     38  C   UNL     1       7.244  -9.585  -5.410  1.00  0.00     0.074 A 
ATOM     39  C   UNL     1       6.998 -10.893  -4.840  1.00  0.00     0.031 C 
ATOM     40  C   UNL     1       7.932  -9.370  -6.558  1.00  0.00     0.037 A 
BRANCH  27  41
ATOM     41  C   UNL     1       8.197  -3.474  -8.323  1.00  0.00     0.064 A 
ATOM     42  C   UNL     1       9.247  -2.574  -8.091  1.00  0.00     0.173 A 
ATOM     43  C   UNL     1       7.637  -3.515  -9.609  1.00  0.00     0.173 A 
ATOM     44  F   UNL     1       9.812  -2.493  -6.878  1.00  0.00    -0.203 F 
ATOM     45  C   UNL     1       9.717  -1.747  -9.109  1.00  0.00     0.198 A 
ATOM     46  C   UNL     1       8.123  -2.702 -10.630  1.00  0.00     0.198 A 
ATOM     47  F   UNL     1       6.636  -4.364  -9.884  1.00  0.00    -0.203 F 
ATOM     48  F   UNL     1      10.711  -0.883  -8.863  1.00  0.00    -0.200 F 
ATOM     49  C   UNL     1       9.163  -1.819 -10.379  1.00  0.00     0.200 A 
ATOM     50  F   UNL     1       7.595  -2.782 -11.859  1.00  0.00    -0.200 F 
ATOM     51  F   UNL     1       9.631  -1.038 -11.362  1.00  0.00    -0.200 F 
ENDBRANCH  27  41
BRANCH  28  52
ATOM     52  C   UNL     1       4.692  -9.837  -1.466  1.00  0.00     0.064 A 
ATOM     53  C   UNL     1       5.506 -10.590  -0.610  1.00  0.00     0.173 A 
ATOM     54  C   UNL     1       3.304 -10.027  -1.383  1.00  0.00     0.173 A 
ATOM     55  F   UNL     1       6.839 -10.459  -0.667  1.00  0.00    -0.203 F 
ATOM     56  C   UNL     1       4.955 -11.512   0.277  1.00  0.00     0.198 A 
ATOM     57  C   UNL     1       2.753 -10.926  -0.473  1.00  0.00     0.198 A 
ATOM     58  F   UNL     1       2.481  -9.329  -2.179  1.00  0.00    -0.203 F 
ATOM     59  F   UNL     1       5.759 -12.257   1.049  1.00  0.00    -0.200 F 
ATOM     60  C   UNL     1       3.580 -11.675   0.349  1.00  0.00     0.200 A 
ATOM     61  F   UNL     1       1.423 -11.068  -0.397  1.00  0.00    -0.200 F 
ATOM     62  F   UNL     1       3.052 -12.562   1.204  1.00  0.00    -0.200 F 
ENDBRANCH  28  52
BRANCH  40  63
ATOM     63  C   UNL     1       8.460 -10.578  -7.270  1.00  0.00     0.064 A 
ATOM     64  C   UNL     1       7.603 -11.444  -7.966  1.00  0.00     0.173 A 
ATOM     65  C   UNL     1       9.834 -10.859  -7.282  1.00  0.00     0.173 A 
ATOM     66  F   UNL     1       6.279 -11.227  -7.965  1.00  0.00    -0.203 F 
ATOM     67  C   UNL     1       8.101 -12.560  -8.630  1.00  0.00     0.198 A 
ATOM     68  C   UNL     1      10.331 -11.961  -7.971  1.00  0.00     0.198 A 
ATOM     69  F   UNL     1      10.693 -10.059  -6.634  1.00  0.00    -0.203 F 
ATOM     70  F   UNL     1       7.260 -13.399  -9.250  1.00  0.00    -0.200 F 
ATOM     71  C   UNL     1       9.465 -12.814  -8.639  1.00  0.00     0.200 A 
ATOM     72  F   UNL     1      11.650 -12.199  -7.988  1.00  0.00    -0.200 F 
ATOM     73  F   UNL     1       9.944 -13.886  -9.285  1.00  0.00    -0.200 F 
ENDBRANCH  40  63
ENDBRANCH  14  15
ENDBRANCH   7   9
ENDBRANCH   4   5
ENDBRANCH   3   4
ENDBRANCH   2   3
ENDBRANCH   1   2
BRANCH   1  74
ATOM     74  C   UNL     1       5.489   4.029   2.468  1.00  0.00     0.021 C 
BRANCH  74  75
ATOM     75  C   UNL     1       6.282   5.256   2.005  1.00  0.00     0.116 C 
BRANCH  75  76
ATOM     76  N   UNL     1       6.541   6.141   3.130  1.00  0.00    -0.356 N 
ATOM     77  C   UNL     1       7.507   6.240   4.076  1.00  0.00     0.226 C 
ATOM     78  H   UNL     1       5.848   6.833   3.229  1.00  0.00     0.163 HD
ATOM     79  O   UNL     1       7.114   6.806   5.108  1.00  0.00    -0.274 OA
BRANCH  77  80
ATOM     80  C   UNL     1       9.024   5.905   3.919  1.00  0.00     0.053 C 
BRANCH  80  81
ATOM     81  C   UNL     1       9.430   4.841   2.858  1.00  0.00     0.052 C 
BRANCH  81  82
ATOM     82  C   UNL     1       9.118   3.367   3.030  1.00  0.00    -0.043 A 
ATOM     83  C   UNL     1       8.134   2.865   3.885  1.00  0.00     0.043 A 
ATOM     84  C   UNL     1       9.844   2.442   2.256  1.00  0.00     0.019 A 
ATOM     85  C   UNL     1       7.874   1.497   3.948  1.00  0.00     0.124 A 
ATOM     86  C   UNL     1       9.586   1.070   2.343  1.00  0.00     0.021 A 
ATOM     87  F   UNL     1       6.895   1.054   4.747  1.00  0.00    -0.207 F 
ATOM     88  C   UNL     1       8.592   0.590   3.185  1.00  0.00     0.055 A 
ATOM     89  Br  UNL     1      10.595  -0.143   1.302  1.00  0.00    -0.051 Br
ENDBRANCH  81  82
ENDBRANCH  80  81
BRANCH  80  90
ATOM     90  C   UNL     1       9.671   7.259   3.447  1.00  0.00     0.017 C 
BRANCH  90  91
ATOM     91  C   UNL     1      10.068   8.256   4.546  1.00  0.00     0.001 C 
BRANCH  91  92
ATOM     92  C   UNL     1      11.467   8.008   5.118  1.00  0.00     0.000 CG0
ATOM     93  G   UNL     1      11.600   6.812   6.055  1.00  0.00     0.000 G0
ENDBRANCH  91  92
ENDBRANCH  90  91
ENDBRANCH  80  90
BRANCH  80  94
ATOM     94  C   UNL     1       9.567   5.489   5.326  1.00  0.00     0.017 C 
BRANCH  94  95
ATOM     95  C   UNL     1      11.087   5.494   5.490  1.00  0.00     0.001 C 
BRANCH  95  96
ATOM     96  C   UNL     1      11.600   6.812   6.055  1.00  0.00     0.000 CG0
ATOM     97  G   UNL     1      11.467   8.008   5.118  1.00  0.00     0.000 G0
ENDBRANCH  95  96
ENDBRANCH  94  95
ENDBRANCH  80  94
ENDBRANCH  77  80
ENDBRANCH  75  76
ENDBRANCH  74  75
ENDBRANCH   1  74
TORSDOF 15
