REMARK SMILES C=CC[C@@]1(C(=O)NCCCCCCNC(=O)c2ccc(-c3c4nc(c(-c5c(F)c(F)c(F)c(F)c5F)c5ccc([nH]5)c(-c5c(F)c(F)c(F)c(F)c5F)c5nc(c(-c6c(F)c(F)c(F)c(F)c6F)c6ccc3[nH]6)C=C5)C=C4)cc2)CCCN(C(=O)c2ccc3c(c2)OCO3)C1
REMARK SMILES IDX 10 1 9 2 8 3 7 4 5 5 6 6 4 8 80 9 95 10 81 11 83 12 82 13
REMARK SMILES IDX 3 14 2 15 1 16 84 17 85 18 86 19 87 20 91 21 88 22 90 23
REMARK SMILES IDX 89 24 92 25 94 26 93 27 11 28 12 29 13 30 14 31 15 32 16 34
REMARK SMILES IDX 17 35 18 36 79 37 19 38 78 39 20 40 21 41 22 42 72 43 23 44
REMARK SMILES IDX 77 45 71 46 73 47 24 48 76 49 70 50 69 51 25 53 57 54 37 55
REMARK SMILES IDX 56 56 38 57 41 58 55 59 74 60 39 61 40 62 54 64 75 65 42 66
REMARK SMILES IDX 26 67 27 68 35 69 28 70 29 71 33 72 36 73 30 74 31 75 34 76
REMARK SMILES IDX 32 77 58 78 59 79 67 80 60 81 61 82 65 83 68 84 62 85 63 86
REMARK SMILES IDX 66 87 64 88 43 89 44 90 52 91 45 92 46 93 50 94 53 95 47 96
REMARK SMILES IDX 48 97 51 98 49 99
REMARK H PARENT 7 7 14 33 73 52 41 63
REMARK Flexibility Score: inf
ROOT
ATOM      1  C   UNL     1       1.790  -1.950   0.883  1.00  0.00     0.002 C 
ENDROOT
BRANCH   1   2
ATOM      2  C   UNL     1       0.809  -1.081   1.662  1.00  0.00     0.021 C 
BRANCH   2   3
ATOM      3  C   UNL     1       0.534   0.292   1.077  1.00  0.00     0.116 C 
BRANCH   3   4
ATOM      4  N   UNL     1      -0.258   0.309  -0.125  1.00  0.00    -0.356 N 
ATOM      5  C   UNL     1      -1.166   1.224  -0.561  1.00  0.00     0.228 C 
ATOM      6  O   UNL     1      -1.543   1.064  -1.731  1.00  0.00    -0.274 OA
ATOM      7  H   UNL     1      -0.122  -0.460  -0.724  1.00  0.00     0.163 HD
BRANCH   5   8
ATOM      8  C   UNL     1      -1.836   2.314   0.329  1.00  0.00     0.070 C 
ATOM      9  C   UNL     1      -2.274   3.475  -0.629  1.00  0.00     0.021 C 
ATOM     10  C   UNL     1      -0.986   3.030   1.400  1.00  0.00     0.137 C 
ATOM     11  C   UNL     1      -1.061   4.199  -1.234  1.00  0.00     0.023 C 
ATOM     12  N   UNL     1       0.200   3.669   0.846  1.00  0.00    -0.338 N 
ATOM     13  C   UNL     1      -0.071   4.685  -0.176  1.00  0.00     0.120 C 
BRANCH   8  14
ATOM     14  C   UNL     1      -3.112   1.720   1.009  1.00  0.00     0.045 C 
BRANCH  14  15
ATOM     15  C   UNL     1      -3.144   0.227   1.200  1.00  0.00    -0.034 C 
ATOM     16  C   UNL     1      -2.936  -0.415   2.356  1.00  0.00     0.004 C 
ENDBRANCH  14  15
ENDBRANCH   8  14
BRANCH  12  17
ATOM     17  C   UNL     1       1.429   3.472   1.476  1.00  0.00     0.254 C 
ATOM     18  O   UNL     1       1.619   2.732   2.436  1.00  0.00    -0.269 OA
BRANCH  17  19
ATOM     19  C   UNL     1       2.575   4.245   0.986  1.00  0.00     0.043 A 
ATOM     20  C   UNL     1       3.260   3.858  -0.185  1.00  0.00     0.018 A 
ATOM     21  C   UNL     1       2.859   5.435   1.657  1.00  0.00     0.064 A 
ATOM     22  C   UNL     1       4.207   4.721  -0.743  1.00  0.00     0.051 A 
ATOM     23  C   UNL     1       3.758   6.274   1.054  1.00  0.00     0.166 A 
ATOM     24  C   UNL     1       4.402   5.938  -0.119  1.00  0.00     0.165 A 
ATOM     25  O   UNL     1       4.056   7.535   1.468  1.00  0.00    -0.454 OA
ATOM     26  O   UNL     1       5.172   6.960  -0.582  1.00  0.00    -0.454 OA
ATOM     27  C   UNL     1       4.749   8.021   0.302  1.00  0.00     0.468 C 
ENDBRANCH  17  19
ENDBRANCH  12  17
ENDBRANCH   5   8
ENDBRANCH   3   4
ENDBRANCH   2   3
ENDBRANCH   1   2
BRANCH   1  28
ATOM     28  C   UNL     1       3.138  -1.306   0.546  1.00  0.00     0.002 C 
BRANCH  28  29
ATOM     29  C   UNL     1       3.901  -0.673   1.714  1.00  0.00     0.021 C 
BRANCH  29  30
ATOM     30  C   UNL     1       4.112  -1.571   2.928  1.00  0.00     0.116 C 
BRANCH  30  31
ATOM     31  N   UNL     1       4.785  -2.814   2.590  1.00  0.00    -0.352 N 
ATOM     32  C   UNL     1       5.913  -3.374   3.128  1.00  0.00     0.251 C 
ATOM     33  H   UNL     1       4.367  -3.332   1.865  1.00  0.00     0.163 HD
ATOM     34  O   UNL     1       6.434  -4.350   2.590  1.00  0.00    -0.269 OA
BRANCH  32  35
ATOM     35  C   UNL     1       6.521  -2.799   4.346  1.00  0.00     0.039 A 
ATOM     36  C   UNL     1       7.910  -2.656   4.400  1.00  0.00     0.014 A 
ATOM     37  C   UNL     1       5.733  -2.421   5.437  1.00  0.00     0.014 A 
ATOM     38  C   UNL     1       8.503  -2.082   5.525  1.00  0.00     0.010 A 
ATOM     39  C   UNL     1       6.318  -1.780   6.525  1.00  0.00     0.010 A 
ATOM     40  C   UNL     1       7.710  -1.609   6.583  1.00  0.00    -0.014 A 
BRANCH  40  41
ATOM     41  C   UNL     1       8.321  -0.933   7.755  1.00  0.00     0.031 A 
ATOM     42  C   UNL     1       8.215  -1.545   9.124  1.00  0.00     0.074 A 
ATOM     43  C   UNL     1       8.928   0.259   7.592  1.00  0.00     0.049 A 
ATOM     44  N   UNL     1       8.635  -1.081  10.274  1.00  0.00    -0.248 NA
ATOM     45  C   UNL     1       7.524  -2.841   9.217  1.00  0.00     0.031 C 
ATOM     46  C   UNL     1       9.057   0.974   6.321  1.00  0.00     0.029 A 
ATOM     47  N   UNL     1       9.542   1.085   8.501  1.00  0.00    -0.354 N 
ATOM     48  C   UNL     1       8.253  -2.020  11.223  1.00  0.00     0.074 A 
ATOM     49  C   UNL     1       7.517  -3.052  10.525  1.00  0.00     0.031 C 
ATOM     50  C   UNL     1       9.731   2.117   6.526  1.00  0.00     0.029 A 
ATOM     51  C   UNL     1      10.042   2.238   7.947  1.00  0.00     0.049 A 
ATOM     52  H   UNL     1       9.617   0.870   9.459  1.00  0.00     0.167 HD
ATOM     53  C   UNL     1       8.515  -2.033  12.552  1.00  0.00     0.037 A 
ATOM     54  C   UNL     1      10.670   3.281   8.523  1.00  0.00     0.037 A 
ATOM     55  C   UNL     1       9.260  -1.010  13.239  1.00  0.00     0.049 A 
ATOM     56  C   UNL     1      10.920   3.254  10.007  1.00  0.00     0.074 A 
ATOM     57  C   UNL     1       9.621  -0.955  14.573  1.00  0.00     0.029 A 
ATOM     58  N   UNL     1       9.753   0.142  12.644  1.00  0.00    -0.354 N 
ATOM     59  N   UNL     1      10.617   2.327  10.883  1.00  0.00    -0.248 NA
ATOM     60  C   UNL     1      11.607   4.418  10.582  1.00  0.00     0.031 C 
ATOM     61  C   UNL     1      10.283   0.256  14.798  1.00  0.00     0.029 A 
ATOM     62  C   UNL     1      10.391   0.928  13.591  1.00  0.00     0.049 A 
ATOM     63  H   UNL     1       9.663   0.369  11.690  1.00  0.00     0.167 HD
ATOM     64  C   UNL     1      11.102   2.780  12.103  1.00  0.00     0.074 A 
ATOM     65  C   UNL     1      11.737   4.056  11.850  1.00  0.00     0.031 C 
ATOM     66  C   UNL     1      11.027   2.193  13.322  1.00  0.00     0.037 A 
BRANCH  53  67
ATOM     67  C   UNL     1       7.995  -3.192  13.354  1.00  0.00     0.064 A 
ATOM     68  C   UNL     1       8.514  -4.487  13.199  1.00  0.00     0.173 A 
ATOM     69  C   UNL     1       6.997  -3.000  14.321  1.00  0.00     0.173 A 
ATOM     70  F   UNL     1       9.463  -4.729  12.281  1.00  0.00    -0.203 F 
ATOM     71  C   UNL     1       8.034  -5.550  13.960  1.00  0.00     0.198 A 
ATOM     72  C   UNL     1       6.543  -4.058  15.105  1.00  0.00     0.198 A 
ATOM     73  F   UNL     1       6.470  -1.782  14.517  1.00  0.00    -0.203 F 
ATOM     74  F   UNL     1       8.511  -6.786  13.759  1.00  0.00    -0.200 F 
ATOM     75  C   UNL     1       7.056  -5.333  14.918  1.00  0.00     0.200 A 
ATOM     76  F   UNL     1       5.609  -3.843  16.041  1.00  0.00    -0.200 F 
ATOM     77  F   UNL     1       6.603  -6.354  15.659  1.00  0.00    -0.200 F 
ENDBRANCH  53  67
BRANCH  54  78
ATOM     78  C   UNL     1      11.119   4.433   7.697  1.00  0.00     0.064 A 
ATOM     79  C   UNL     1      12.483   4.703   7.518  1.00  0.00     0.173 A 
ATOM     80  C   UNL     1      10.199   5.300   7.088  1.00  0.00     0.173 A 
ATOM     81  F   UNL     1      13.403   3.916   8.096  1.00  0.00    -0.203 F 
ATOM     82  C   UNL     1      12.909   5.811   6.789  1.00  0.00     0.198 A 
ATOM     83  C   UNL     1      10.627   6.388   6.331  1.00  0.00     0.198 A 
ATOM     84  F   UNL     1       8.882   5.086   7.224  1.00  0.00    -0.203 F 
ATOM     85  F   UNL     1      14.218   6.079   6.685  1.00  0.00    -0.200 F 
ATOM     86  C   UNL     1      11.981   6.650   6.192  1.00  0.00     0.200 A 
ATOM     87  F   UNL     1       9.726   7.188   5.743  1.00  0.00    -0.200 F 
ATOM     88  F   UNL     1      12.391   7.717   5.492  1.00  0.00    -0.200 F 
ENDBRANCH  54  78
BRANCH  66  89
ATOM     89  C   UNL     1      11.682   2.905  14.472  1.00  0.00     0.064 A 
ATOM     90  C   UNL     1      11.163   4.098  14.995  1.00  0.00     0.173 A 
ATOM     91  C   UNL     1      12.826   2.364  15.080  1.00  0.00     0.173 A 
ATOM     92  F   UNL     1      10.080   4.664  14.441  1.00  0.00    -0.203 F 
ATOM     93  C   UNL     1      11.782   4.739  16.065  1.00  0.00     0.198 A 
ATOM     94  C   UNL     1      13.421   2.989  16.172  1.00  0.00     0.198 A 
ATOM     95  F   UNL     1      13.360   1.221  14.624  1.00  0.00    -0.203 F 
ATOM     96  F   UNL     1      11.300   5.907  16.513  1.00  0.00    -0.200 F 
ATOM     97  C   UNL     1      12.905   4.181  16.658  1.00  0.00     0.200 A 
ATOM     98  F   UNL     1      14.495   2.439  16.754  1.00  0.00    -0.200 F 
ATOM     99  F   UNL     1      13.493   4.795  17.693  1.00  0.00    -0.200 F 
ENDBRANCH  66  89
ENDBRANCH  40  41
ENDBRANCH  32  35
ENDBRANCH  30  31
ENDBRANCH  29  30
ENDBRANCH  28  29
ENDBRANCH   1  28
TORSDOF 17
