REMARK SMILES CC(C)(C)OC(=O)N1C[C@@H](Oc2cccnc2)C[C@H]1C(=O)NCCCCCCNC(=O)c1ccc(-c2c3nc(c(-c4c(F)c(F)c(F)c(F)c4F)c4ccc([nH]4)c(-c4c(F)c(F)c(F)c(F)c4F)c4nc(c(-c5c(F)c(F)c(F)c(F)c5F)c5ccc2[nH]5)C=C4)C=C3)cc1
REMARK SMILES IDX 25 1 24 2 23 3 22 4 20 5 21 6 19 8 8 9 9 10 10 11 18 12 6 13
REMARK SMILES IDX 7 14 5 15 2 16 1 17 3 18 4 19 11 20 12 21 13 22 17 23 14 24
REMARK SMILES IDX 16 25 15 26 26 27 27 28 28 29 29 30 30 31 31 33 32 34 33 35
REMARK SMILES IDX 94 36 34 37 93 38 35 39 36 40 37 41 87 42 38 43 92 44 86 45
REMARK SMILES IDX 88 46 39 47 91 48 85 49 84 50 40 52 72 53 52 54 71 55 53 56
REMARK SMILES IDX 56 57 70 58 89 59 54 60 55 61 69 63 90 64 57 65 41 66 42 67
REMARK SMILES IDX 50 68 43 69 44 70 48 71 51 72 45 73 46 74 49 75 47 76 73 77
REMARK SMILES IDX 74 78 82 79 75 80 76 81 80 82 83 83 77 84 78 85 81 86 79 87
REMARK SMILES IDX 58 88 59 89 67 90 60 91 61 92 65 93 68 94 62 95 63 96 66 97
REMARK SMILES IDX 64 98
REMARK H PARENT 22 7 29 32 88 51 56 62
REMARK Flexibility Score: inf
ROOT
ATOM      1  C   UNL     1      -0.282  -6.972   0.191  1.00  0.00     0.002 C 
ENDROOT
BRANCH   1   2
ATOM      2  C   UNL     1      -0.247  -5.657  -0.593  1.00  0.00     0.021 C 
BRANCH   2   3
ATOM      3  C   UNL     1       0.911  -5.566  -1.587  1.00  0.00     0.116 C 
BRANCH   3   4
ATOM      4  N   UNL     1       0.524  -6.100  -2.874  1.00  0.00    -0.354 N 
ATOM      5  C   UNL     1       0.117  -5.517  -4.030  1.00  0.00     0.243 C 
ATOM      6  O   UNL     1      -0.356  -6.290  -4.875  1.00  0.00    -0.273 OA
ATOM      7  H   UNL     1       0.563  -7.082  -2.921  1.00  0.00     0.163 HD
BRANCH   5   8
ATOM      8  C   UNL     1       0.272  -4.014  -4.381  1.00  0.00     0.181 C 
ATOM      9  N   UNL     1       0.887  -3.097  -3.433  1.00  0.00    -0.292 N 
ATOM     10  C   UNL     1       2.283  -2.862  -3.748  1.00  0.00     0.169 C 
ATOM     11  C   UNL     1       2.341  -3.033  -5.262  1.00  0.00     0.195 C 
ATOM     12  C   UNL     1       1.141  -3.906  -5.653  1.00  0.00     0.082 C 
BRANCH   9  13
ATOM     13  C   UNL     1       0.160  -2.529  -2.412  1.00  0.00     0.411 C 
ATOM     14  O   UNL     1      -1.011  -2.809  -2.215  1.00  0.00    -0.224 OA
BRANCH  13  15
ATOM     15  O   UNL     1       0.915  -1.709  -1.638  1.00  0.00    -0.444 OA
BRANCH  15  16
ATOM     16  C   UNL     1       0.475  -1.171  -0.354  1.00  0.00     0.106 C 
ATOM     17  C   UNL     1       1.059   0.245  -0.274  1.00  0.00     0.056 C 
ATOM     18  C   UNL     1       1.116  -2.026   0.746  1.00  0.00     0.056 C 
ATOM     19  C   UNL     1      -1.041  -1.085  -0.135  1.00  0.00     0.056 C 
ENDBRANCH  15  16
ENDBRANCH  13  15
ENDBRANCH   9  13
BRANCH  11  20
ATOM     20  O   UNL     1       3.610  -3.368  -5.810  1.00  0.00    -0.487 OA
BRANCH  20  21
ATOM     21  C   UNL     1       4.173  -4.602  -5.747  1.00  0.00     0.138 A 
ATOM     22  C   UNL     1       3.755  -5.693  -4.997  1.00  0.00     0.050 A 
ATOM     23  C   UNL     1       5.311  -4.781  -6.531  1.00  0.00     0.157 A 
ATOM     24  C   UNL     1       4.451  -6.902  -5.082  1.00  0.00     0.024 A 
ATOM     25  N   UNL     1       6.019  -5.934  -6.626  1.00  0.00    -0.261 NA
ATOM     26  C   UNL     1       5.564  -6.975  -5.902  1.00  0.00     0.111 A 
ENDBRANCH  20  21
ENDBRANCH  11  20
ENDBRANCH   5   8
ENDBRANCH   3   4
ENDBRANCH   2   3
ENDBRANCH   1   2
BRANCH   1  27
ATOM     27  C   UNL     1       0.999  -7.298   0.972  1.00  0.00     0.002 C 
BRANCH  27  28
ATOM     28  C   UNL     1       1.515  -6.181   1.885  1.00  0.00     0.021 C 
BRANCH  28  29
ATOM     29  C   UNL     1       0.534  -5.753   2.972  1.00  0.00     0.116 C 
BRANCH  29  30
ATOM     30  N   UNL     1       0.215  -6.856   3.865  1.00  0.00    -0.352 N 
ATOM     31  C   UNL     1       0.434  -6.987   5.211  1.00  0.00     0.251 C 
ATOM     32  H   UNL     1      -0.226  -7.625   3.437  1.00  0.00     0.163 HD
ATOM     33  O   UNL     1       0.343  -8.088   5.745  1.00  0.00    -0.269 OA
BRANCH  31  34
ATOM     34  C   UNL     1       0.782  -5.803   6.024  1.00  0.00     0.039 A 
ATOM     35  C   UNL     1       1.758  -5.926   7.015  1.00  0.00     0.014 A 
ATOM     36  C   UNL     1       0.119  -4.586   5.839  1.00  0.00     0.014 A 
ATOM     37  C   UNL     1       2.105  -4.817   7.788  1.00  0.00     0.010 A 
ATOM     38  C   UNL     1       0.517  -3.463   6.558  1.00  0.00     0.010 A 
ATOM     39  C   UNL     1       1.508  -3.568   7.545  1.00  0.00    -0.014 A 
BRANCH  39  40
ATOM     40  C   UNL     1       1.907  -2.365   8.317  1.00  0.00     0.031 A 
ATOM     41  C   UNL     1       0.914  -1.670   9.206  1.00  0.00     0.074 A 
ATOM     42  C   UNL     1       3.150  -1.866   8.170  1.00  0.00     0.049 A 
ATOM     43  N   UNL     1       1.056  -0.574   9.908  1.00  0.00    -0.248 NA
ATOM     44  C   UNL     1      -0.425  -2.271   9.300  1.00  0.00     0.031 C 
ATOM     45  C   UNL     1       4.189  -2.428   7.306  1.00  0.00     0.029 A 
ATOM     46  N   UNL     1       3.748  -0.768   8.737  1.00  0.00    -0.354 N 
ATOM     47  C   UNL     1      -0.173  -0.351  10.515  1.00  0.00     0.074 A 
ATOM     48  C   UNL     1      -1.066  -1.392  10.055  1.00  0.00     0.031 C 
ATOM     49  C   UNL     1       5.303  -1.687   7.418  1.00  0.00     0.029 A 
ATOM     50  C   UNL     1       5.044  -0.574   8.325  1.00  0.00     0.049 A 
ATOM     51  H   UNL     1       3.291  -0.176   9.377  1.00  0.00     0.167 HD
ATOM     52  C   UNL     1      -0.518   0.621  11.393  1.00  0.00     0.037 A 
ATOM     53  C   UNL     1       5.921   0.400   8.637  1.00  0.00     0.037 A 
ATOM     54  C   UNL     1       0.382   1.644  11.861  1.00  0.00     0.049 A 
ATOM     55  C   UNL     1       5.503   1.481   9.597  1.00  0.00     0.074 A 
ATOM     56  C   UNL     1       0.146   2.640  12.793  1.00  0.00     0.029 A 
ATOM     57  N   UNL     1       1.689   1.806  11.426  1.00  0.00    -0.354 N 
ATOM     58  N   UNL     1       4.360   1.642  10.219  1.00  0.00    -0.248 NA
ATOM     59  C   UNL     1       6.502   2.514   9.904  1.00  0.00     0.031 C 
ATOM     60  C   UNL     1       1.290   3.440  12.877  1.00  0.00     0.029 A 
ATOM     61  C   UNL     1       2.262   2.904  12.048  1.00  0.00     0.049 A 
ATOM     62  H   UNL     1       2.143   1.226  10.772  1.00  0.00     0.167 HD
ATOM     63  C   UNL     1       4.512   2.770  11.013  1.00  0.00     0.074 A 
ATOM     64  C   UNL     1       5.864   3.245  10.807  1.00  0.00     0.031 C 
ATOM     65  C   UNL     1       3.613   3.360  11.839  1.00  0.00     0.037 A 
BRANCH  52  66
ATOM     66  C   UNL     1      -1.930   0.630  11.908  1.00  0.00     0.064 A 
ATOM     67  C   UNL     1      -2.408  -0.370  12.769  1.00  0.00     0.173 A 
ATOM     68  C   UNL     1      -2.803   1.676  11.572  1.00  0.00     0.173 A 
ATOM     69  F   UNL     1      -1.619  -1.399  13.114  1.00  0.00    -0.203 F 
ATOM     70  C   UNL     1      -3.715  -0.338  13.250  1.00  0.00     0.198 A 
ATOM     71  C   UNL     1      -4.097   1.723  12.082  1.00  0.00     0.198 A 
ATOM     72  F   UNL     1      -2.396   2.662  10.758  1.00  0.00    -0.203 F 
ATOM     73  F   UNL     1      -4.164  -1.331  14.030  1.00  0.00    -0.200 F 
ATOM     74  C   UNL     1      -4.555   0.713  12.914  1.00  0.00     0.200 A 
ATOM     75  F   UNL     1      -4.903   2.748  11.769  1.00  0.00    -0.200 F 
ATOM     76  F   UNL     1      -5.809   0.748  13.387  1.00  0.00    -0.200 F 
ENDBRANCH  52  66
BRANCH  53  77
ATOM     77  C   UNL     1       7.286   0.390   8.048  1.00  0.00     0.064 A 
ATOM     78  C   UNL     1       8.416   0.171   8.849  1.00  0.00     0.173 A 
ATOM     79  C   UNL     1       7.493   0.614   6.679  1.00  0.00     0.173 A 
ATOM     80  F   UNL     1       8.272  -0.029  10.168  1.00  0.00    -0.203 F 
ATOM     81  C   UNL     1       9.700   0.204   8.310  1.00  0.00     0.198 A 
ATOM     82  C   UNL     1       8.776   0.614   6.134  1.00  0.00     0.198 A 
ATOM     83  F   UNL     1       6.447   0.823   5.866  1.00  0.00    -0.203 F 
ATOM     84  F   UNL     1      10.764   0.047   9.109  1.00  0.00    -0.200 F 
ATOM     85  C   UNL     1       9.879   0.420   6.952  1.00  0.00     0.200 A 
ATOM     86  F   UNL     1       8.943   0.805   4.819  1.00  0.00    -0.200 F 
ATOM     87  F   UNL     1      11.114   0.451   6.433  1.00  0.00    -0.200 F 
ENDBRANCH  53  77
BRANCH  65  88
ATOM     88  C   UNL     1       4.074   4.560  12.617  1.00  0.00     0.064 A 
ATOM     89  C   UNL     1       4.333   5.791  11.995  1.00  0.00     0.173 A 
ATOM     90  C   UNL     1       4.222   4.486  14.011  1.00  0.00     0.173 A 
ATOM     91  F   UNL     1       4.221   5.911  10.664  1.00  0.00    -0.203 F 
ATOM     92  C   UNL     1       4.752   6.893  12.736  1.00  0.00     0.198 A 
ATOM     93  C   UNL     1       4.606   5.600  14.752  1.00  0.00     0.198 A 
ATOM     94  F   UNL     1       3.980   3.336  14.657  1.00  0.00    -0.203 F 
ATOM     95  F   UNL     1       5.046   8.043  12.113  1.00  0.00    -0.200 F 
ATOM     96  C   UNL     1       4.879   6.800  14.114  1.00  0.00     0.200 A 
ATOM     97  F   UNL     1       4.711   5.512  16.085  1.00  0.00    -0.200 F 
ATOM     98  F   UNL     1       5.273   7.864  14.825  1.00  0.00    -0.200 F 
ENDBRANCH  65  88
ENDBRANCH  39  40
ENDBRANCH  31  34
ENDBRANCH  29  30
ENDBRANCH  28  29
ENDBRANCH  27  28
ENDBRANCH   1  27
TORSDOF 18
