REMARK SMILES Cc1ccc([C@@H](C(=O)N(CC(=O)NCCCCCCNC(=O)c2ccc(-c3c4nc(c(-c5c(F)c(F)c(F)c(F)c5F)c5ccc([nH]5)c(-c5c(F)c(F)c(F)c(F)c5F)c5nc(c(-c6c(F)c(F)c(F)c(F)c6F)c6ccc3[nH]6)C=C5)C=C4)cc2)C2CC[NH+](C)CC2)[NH+](C)C)cc1
REMARK SMILES IDX 15 1 14 2 13 3 11 4 12 5 10 7 9 8 7 9 8 10 6 11 5 12 1 13
REMARK SMILES IDX 2 14 3 15 97 16 4 17 96 18 93 19 94 20 95 21 86 23 87 24
REMARK SMILES IDX 92 25 88 26 91 27 89 28 90 29 16 31 17 32 18 33 19 34 20 35
REMARK SMILES IDX 21 36 22 38 23 39 24 40 85 41 25 42 84 43 26 44 27 45 28 46
REMARK SMILES IDX 78 47 29 48 83 49 77 50 79 51 30 52 82 53 76 54 75 55 31 57
REMARK SMILES IDX 63 58 43 59 62 60 44 61 47 62 61 63 80 64 45 65 46 66 60 68
REMARK SMILES IDX 81 69 48 70 32 71 33 72 41 73 34 74 35 75 39 76 42 77 36 78
REMARK SMILES IDX 37 79 40 80 38 81 64 82 65 83 73 84 66 85 67 86 71 87 74 88
REMARK SMILES IDX 68 89 69 90 72 91 70 92 49 93 50 94 58 95 51 96 52 97 56 98
REMARK SMILES IDX 59 99 53 100 54 101 57 102 55 103
REMARK H PARENT 13 6 93 22 89 30 20 37 79 56 47 67
REMARK Flexibility Score: inf
ROOT
ATOM      1  C   UNL     1      -0.303  -2.675  -2.808  1.00  0.00     0.021 C 
ENDROOT
BRANCH   1   2
ATOM      2  C   UNL     1      -0.304  -1.193  -2.445  1.00  0.00     0.116 C 
BRANCH   2   3
ATOM      3  N   UNL     1      -0.442  -0.284  -3.555  1.00  0.00    -0.355 N 
ATOM      4  C   UNL     1      -1.254   0.815  -3.628  1.00  0.00     0.239 C 
ATOM      5  O   UNL     1      -0.938   1.711  -4.417  1.00  0.00    -0.273 OA
ATOM      6  H   UNL     1       0.108  -0.476  -4.349  1.00  0.00     0.163 HD
BRANCH   4   7
ATOM      7  C   UNL     1      -2.465   1.002  -2.686  1.00  0.00     0.219 C 
BRANCH   7   8
ATOM      8  N   UNL     1      -3.368  -0.139  -2.478  1.00  0.00    -0.324 N 
BRANCH   8   9
ATOM      9  C   UNL     1      -3.474  -0.811  -1.232  1.00  0.00     0.286 C 
ATOM     10  O   UNL     1      -3.788  -2.007  -1.225  1.00  0.00    -0.267 OA
BRANCH   9  11
ATOM     11  C   UNL     1      -3.283   0.008   0.123  1.00  0.00     0.305 C 
BRANCH  11  12
ATOM     12  C   UNL     1      -1.818   0.205   0.548  1.00  0.00     0.019 A 
ATOM     13  C   UNL     1       2.460   0.751   0.787  1.00  0.00     0.044 C 
ATOM     14  C   UNL     1       0.969   0.607   0.870  1.00  0.00    -0.051 A 
ATOM     15  C   UNL     1       0.397  -0.646   1.094  1.00  0.00     0.004 A 
ATOM     16  C   UNL     1       0.128   1.686   0.609  1.00  0.00     0.004 A 
ATOM     17  C   UNL     1      -0.971  -0.857   0.890  1.00  0.00     0.011 A 
ATOM     18  C   UNL     1      -1.254   1.495   0.511  1.00  0.00     0.011 A 
ENDBRANCH  11  12
BRANCH  11  19
ATOM     19  N   UNL     1      -4.167  -0.455   1.246  1.00  0.00    -0.326 N 
ATOM     20  C   UNL     1      -5.585  -0.318   0.914  1.00  0.00     0.333 C 
ATOM     21  C   UNL     1      -3.905  -1.794   1.771  1.00  0.00     0.333 C 
ATOM     22  H   UNL     1      -3.918   0.180   2.005  1.00  0.00     0.348 HD
ENDBRANCH  11  19
ENDBRANCH   9  11
ENDBRANCH   8   9
BRANCH   8  23
ATOM     23  C   UNL     1      -4.049  -0.760  -3.662  1.00  0.00     0.097 C 
ATOM     24  C   UNL     1      -3.801  -0.174  -5.071  1.00  0.00     0.086 C 
ATOM     25  C   UNL     1      -5.578  -0.791  -3.475  1.00  0.00     0.086 C 
ATOM     26  C   UNL     1      -4.500   1.163  -5.335  1.00  0.00     0.264 C 
ATOM     27  C   UNL     1      -6.188   0.598  -3.658  1.00  0.00     0.264 C 
ATOM     28  N   UNL     1      -5.927   1.138  -4.997  1.00  0.00    -0.337 N 
ATOM     29  C   UNL     1      -6.496   2.484  -5.117  1.00  0.00     0.332 C 
ATOM     30  H   UNL     1      -6.378   0.510  -5.662  1.00  0.00     0.347 HD
ENDBRANCH   8  23
ENDBRANCH   7   8
ENDBRANCH   4   7
ENDBRANCH   2   3
ENDBRANCH   1   2
BRANCH   1  31
ATOM     31  C   UNL     1       1.054  -3.274  -3.207  1.00  0.00     0.002 C 
BRANCH  31  32
ATOM     32  C   UNL     1       2.264  -2.955  -2.311  1.00  0.00     0.002 C 
BRANCH  32  33
ATOM     33  C   UNL     1       2.047  -3.086  -0.805  1.00  0.00     0.021 C 
BRANCH  33  34
ATOM     34  C   UNL     1       1.970  -4.506  -0.267  1.00  0.00     0.116 C 
BRANCH  34  35
ATOM     35  N   UNL     1       3.169  -4.937   0.446  1.00  0.00    -0.352 N 
ATOM     36  C   UNL     1       3.417  -6.151   1.079  1.00  0.00     0.251 C 
ATOM     37  H   UNL     1       3.901  -4.280   0.485  1.00  0.00     0.163 HD
ATOM     38  O   UNL     1       4.471  -6.376   1.624  1.00  0.00    -0.269 OA
BRANCH  36  39
ATOM     39  C   UNL     1       2.392  -7.217   0.945  1.00  0.00     0.039 A 
ATOM     40  C   UNL     1       2.782  -8.413   0.335  1.00  0.00     0.014 A 
ATOM     41  C   UNL     1       1.047  -6.919   1.136  1.00  0.00     0.014 A 
ATOM     42  C   UNL     1       1.824  -9.170  -0.333  1.00  0.00     0.010 A 
ATOM     43  C   UNL     1       0.116  -7.604   0.383  1.00  0.00     0.010 A 
ATOM     44  C   UNL     1       0.521  -8.680  -0.417  1.00  0.00    -0.014 A 
BRANCH  44  45
ATOM     45  C   UNL     1      -0.439  -9.142  -1.413  1.00  0.00     0.031 A 
ATOM     46  C   UNL     1      -1.614  -9.941  -1.014  1.00  0.00     0.074 A 
ATOM     47  C   UNL     1      -0.306  -8.751  -2.702  1.00  0.00     0.049 A 
ATOM     48  N   UNL     1      -2.304 -10.670  -1.824  1.00  0.00    -0.248 NA
ATOM     49  C   UNL     1      -2.085 -10.007   0.361  1.00  0.00     0.031 C 
ATOM     50  C   UNL     1      -1.294  -8.871  -3.772  1.00  0.00     0.029 A 
ATOM     51  N   UNL     1       0.867  -8.342  -3.361  1.00  0.00    -0.354 N 
ATOM     52  C   UNL     1      -3.441 -11.078  -1.166  1.00  0.00     0.074 A 
ATOM     53  C   UNL     1      -3.225 -10.688   0.209  1.00  0.00     0.031 C 
ATOM     54  C   UNL     1      -0.655  -8.871  -4.951  1.00  0.00     0.029 A 
ATOM     55  C   UNL     1       0.767  -8.885  -4.667  1.00  0.00     0.049 A 
ATOM     56  H   UNL     1       1.599  -7.797  -2.994  1.00  0.00     0.167 HD
ATOM     57  C   UNL     1      -4.475 -11.597  -1.893  1.00  0.00     0.037 A 
ATOM     58  C   UNL     1       1.651  -9.830  -5.102  1.00  0.00     0.037 A 
ATOM     59  C   UNL     1      -4.109 -11.764  -3.302  1.00  0.00     0.049 A 
ATOM     60  C   UNL     1       1.031 -11.166  -5.462  1.00  0.00     0.074 A 
ATOM     61  C   UNL     1      -4.371 -11.073  -4.474  1.00  0.00     0.029 A 
ATOM     62  N   UNL     1      -3.100 -12.658  -3.613  1.00  0.00    -0.354 N 
ATOM     63  N   UNL     1      -0.235 -11.452  -5.334  1.00  0.00    -0.248 NA
ATOM     64  C   UNL     1       1.819 -12.323  -5.892  1.00  0.00     0.031 C 
ATOM     65  C   UNL     1      -3.509 -11.575  -5.493  1.00  0.00     0.029 A 
ATOM     66  C   UNL     1      -2.722 -12.567  -4.937  1.00  0.00     0.049 A 
ATOM     67  H   UNL     1      -2.699 -13.284  -2.967  1.00  0.00     0.167 HD
ATOM     68  C   UNL     1      -0.424 -12.787  -5.573  1.00  0.00     0.074 A 
ATOM     69  C   UNL     1       0.888 -13.290  -5.928  1.00  0.00     0.031 C 
ATOM     70  C   UNL     1      -1.631 -13.401  -5.408  1.00  0.00     0.037 A 
BRANCH  57  71
ATOM     71  C   UNL     1      -5.893 -11.757  -1.382  1.00  0.00     0.064 A 
ATOM     72  C   UNL     1      -6.986 -11.750  -2.277  1.00  0.00     0.173 A 
ATOM     73  C   UNL     1      -6.256 -11.869  -0.027  1.00  0.00     0.173 A 
ATOM     74  F   UNL     1      -6.808 -11.777  -3.604  1.00  0.00    -0.203 F 
ATOM     75  C   UNL     1      -8.316 -11.719  -1.845  1.00  0.00     0.198 A 
ATOM     76  C   UNL     1      -7.582 -11.778   0.410  1.00  0.00     0.198 A 
ATOM     77  F   UNL     1      -5.354 -12.148   0.918  1.00  0.00    -0.203 F 
ATOM     78  F   UNL     1      -9.307 -11.706  -2.747  1.00  0.00    -0.200 F 
ATOM     79  C   UNL     1      -8.613 -11.689  -0.500  1.00  0.00     0.200 A 
ATOM     80  F   UNL     1      -7.849 -11.789   1.724  1.00  0.00    -0.200 F 
ATOM     81  F   UNL     1      -9.883 -11.611  -0.083  1.00  0.00    -0.200 F 
ENDBRANCH  57  71
BRANCH  58  82
ATOM     82  C   UNL     1       3.010  -9.646  -4.526  1.00  0.00     0.064 A 
ATOM     83  C   UNL     1       3.696  -8.446  -4.802  1.00  0.00     0.173 A 
ATOM     84  C   UNL     1       3.459 -10.415  -3.448  1.00  0.00     0.173 A 
ATOM     85  F   UNL     1       3.303  -7.669  -5.825  1.00  0.00    -0.203 F 
ATOM     86  C   UNL     1       4.700  -7.976  -3.961  1.00  0.00     0.198 A 
ATOM     87  C   UNL     1       4.482  -9.951  -2.619  1.00  0.00     0.198 A 
ATOM     88  F   UNL     1       2.834 -11.554  -3.118  1.00  0.00    -0.203 F 
ATOM     89  F   UNL     1       5.247  -6.772  -4.179  1.00  0.00    -0.200 F 
ATOM     90  C   UNL     1       5.074  -8.718  -2.853  1.00  0.00     0.200 A 
ATOM     91  F   UNL     1       4.825 -10.656  -1.532  1.00  0.00    -0.200 F 
ATOM     92  F   UNL     1       5.970  -8.227  -1.987  1.00  0.00    -0.200 F 
ENDBRANCH  58  82
BRANCH  70  93
ATOM     93  C   UNL     1      -1.866 -14.862  -5.663  1.00  0.00     0.064 A 
ATOM     94  C   UNL     1      -1.403 -15.506  -6.821  1.00  0.00     0.173 A 
ATOM     95  C   UNL     1      -2.673 -15.637  -4.802  1.00  0.00     0.173 A 
ATOM     96  F   UNL     1      -0.675 -14.841  -7.730  1.00  0.00    -0.203 F 
ATOM     97  C   UNL     1      -1.696 -16.847  -7.080  1.00  0.00     0.198 A 
ATOM     98  C   UNL     1      -3.008 -16.958  -5.089  1.00  0.00     0.198 A 
ATOM     99  F   UNL     1      -3.137 -15.143  -3.645  1.00  0.00    -0.203 F 
ATOM    100  F   UNL     1      -1.191 -17.439  -8.171  1.00  0.00    -0.200 F 
ATOM    101  C   UNL     1      -2.509 -17.568  -6.222  1.00  0.00     0.200 A 
ATOM    102  F   UNL     1      -3.812 -17.636  -4.258  1.00  0.00    -0.200 F 
ATOM    103  F   UNL     1      -2.808 -18.848  -6.484  1.00  0.00    -0.200 F 
ENDBRANCH  70  93
ENDBRANCH  44  45
ENDBRANCH  36  39
ENDBRANCH  34  35
ENDBRANCH  33  34
ENDBRANCH  32  33
ENDBRANCH  31  32
ENDBRANCH   1  31
TORSDOF 19
