REMARK SMILES C[NH+]1CCC([NH+]2CCC(Oc3ccc4ccccc4c3)(C(=O)NCCCCCCNC(=O)c3ccc(-c4c5nc(c(-c6c(F)c(F)c(F)c(F)c6F)c6ccc([nH]6)c(-c6c(F)c(F)c(F)c(F)c6F)c6nc(c(-c7c(F)c(F)c(F)c(F)c7F)c7ccc4[nH]7)C=C6)C=C5)cc3)CC2)CC1
REMARK SMILES IDX 26 1 25 2 24 3 23 4 21 5 22 6 9 8 6 9 7 10 97 11 8 13 96 14
REMARK SMILES IDX 5 15 1 16 2 17 3 18 99 19 4 21 98 22 10 23 11 24 12 25 20 26
REMARK SMILES IDX 13 27 19 28 14 29 18 30 15 31 17 32 16 33 27 34 28 35 29 36
REMARK SMILES IDX 30 37 31 38 32 40 33 41 34 42 95 43 35 44 94 45 36 46 37 47
REMARK SMILES IDX 38 48 88 49 39 50 93 51 87 52 89 53 40 54 92 55 86 56 85 57
REMARK SMILES IDX 41 59 73 60 53 61 72 62 54 63 57 64 71 65 90 66 55 67 56 68
REMARK SMILES IDX 70 70 91 71 58 72 42 73 43 74 51 75 44 76 45 77 49 78 52 79
REMARK SMILES IDX 46 80 47 81 50 82 48 83 74 84 75 85 83 86 76 87 77 88 81 89
REMARK SMILES IDX 84 90 78 91 79 92 82 93 80 94 59 95 60 96 68 97 61 98 62 99
REMARK SMILES IDX 66 100 69 101 63 102 64 103 67 104 65 105
REMARK H PARENT 23 7 6 12 2 20 30 39 89 58 57 69
REMARK Flexibility Score: inf
ROOT
ATOM      1  C   UNL     1       3.973  -2.516   6.255  1.00  0.00     0.002 C 
ENDROOT
BRANCH   1   2
ATOM      2  C   UNL     1       4.513  -1.329   5.449  1.00  0.00     0.021 C 
BRANCH   2   3
ATOM      3  C   UNL     1       5.709  -1.667   4.557  1.00  0.00     0.116 C 
BRANCH   3   4
ATOM      4  N   UNL     1       5.316  -2.545   3.474  1.00  0.00    -0.353 N 
ATOM      5  C   UNL     1       5.252  -2.325   2.127  1.00  0.00     0.264 C 
ATOM      6  O   UNL     1       4.931  -3.301   1.440  1.00  0.00    -0.270 OA
ATOM      7  H   UNL     1       5.051  -3.451   3.755  1.00  0.00     0.163 HD
BRANCH   5   8
ATOM      8  C   UNL     1       5.573  -0.931   1.508  1.00  0.00     0.197 C 
ATOM      9  N   UNL     1       3.075  -0.101   0.185  1.00  0.00    -0.332 N 
ATOM     10  C   UNL     1       3.186  -0.138   1.645  1.00  0.00     0.267 C 
ATOM     11  C   UNL     1       3.922  -1.130  -0.442  1.00  0.00     0.267 C 
ATOM     12  H   UNL     1       3.431   0.809  -0.108  1.00  0.00     0.348 HD
ATOM     13  C   UNL     1       4.626   0.150   2.040  1.00  0.00     0.120 C 
ATOM     14  C   UNL     1       5.401  -1.004  -0.026  1.00  0.00     0.120 C 
BRANCH   9  15
ATOM     15  C   UNL     1       1.674  -0.134  -0.307  1.00  0.00     0.195 C 
ATOM     16  C   UNL     1      -2.636   0.063  -0.267  1.00  0.00     0.332 C 
ATOM     17  N   UNL     1      -1.222   0.017   0.100  1.00  0.00    -0.337 N 
ATOM     18  C   UNL     1      -0.502   1.169  -0.458  1.00  0.00     0.268 C 
ATOM     19  C   UNL     1      -0.607  -1.240  -0.343  1.00  0.00     0.268 C 
ATOM     20  H   UNL     1      -1.158   0.062   1.117  1.00  0.00     0.347 HD
ATOM     21  C   UNL     1       0.945   1.183   0.031  1.00  0.00     0.126 C 
ATOM     22  C   UNL     1       0.836  -1.338   0.158  1.00  0.00     0.126 C 
ENDBRANCH   9  15
BRANCH   8  23
ATOM     23  O   UNL     1       6.958  -0.781   1.911  1.00  0.00    -0.477 OA
BRANCH  23  24
ATOM     24  C   UNL     1       7.673   0.294   1.479  1.00  0.00     0.121 A 
ATOM     25  C   UNL     1       7.453   1.577   1.965  1.00  0.00     0.047 A 
ATOM     26  C   UNL     1       8.773   0.041   0.659  1.00  0.00     0.055 A 
ATOM     27  C   UNL     1       8.265   2.632   1.548  1.00  0.00     0.012 A 
ATOM     28  C   UNL     1       9.622   1.085   0.257  1.00  0.00    -0.015 A 
ATOM     29  C   UNL     1       9.349   2.403   0.690  1.00  0.00    -0.018 A 
ATOM     30  C   UNL     1      10.742   0.851  -0.556  1.00  0.00     0.009 A 
ATOM     31  C   UNL     1      10.182   3.453   0.275  1.00  0.00     0.009 A 
ATOM     32  C   UNL     1      11.570   1.904  -0.950  1.00  0.00     0.001 A 
ATOM     33  C   UNL     1      11.286   3.204  -0.542  1.00  0.00     0.001 A 
ENDBRANCH  23  24
ENDBRANCH   8  23
ENDBRANCH   5   8
ENDBRANCH   3   4
ENDBRANCH   2   3
ENDBRANCH   1   2
BRANCH   1  34
ATOM     34  C   UNL     1       4.998  -3.213   7.155  1.00  0.00     0.002 C 
BRANCH  34  35
ATOM     35  C   UNL     1       5.768  -2.290   8.105  1.00  0.00     0.021 C 
BRANCH  35  36
ATOM     36  C   UNL     1       4.895  -1.493   9.068  1.00  0.00     0.116 C 
BRANCH  36  37
ATOM     37  N   UNL     1       4.184  -2.350  10.001  1.00  0.00    -0.352 N 
ATOM     38  C   UNL     1       4.061  -2.238  11.360  1.00  0.00     0.251 C 
ATOM     39  H   UNL     1       3.726  -3.123   9.598  1.00  0.00     0.163 HD
ATOM     40  O   UNL     1       3.567  -3.160  12.009  1.00  0.00    -0.269 OA
BRANCH  38  41
ATOM     41  C   UNL     1       4.527  -1.022  12.060  1.00  0.00     0.039 A 
ATOM     42  C   UNL     1       5.193  -1.166  13.281  1.00  0.00     0.014 A 
ATOM     43  C   UNL     1       4.267   0.255  11.552  1.00  0.00     0.014 A 
ATOM     44  C   UNL     1       5.618  -0.034  13.979  1.00  0.00     0.010 A 
ATOM     45  C   UNL     1       4.750   1.381  12.216  1.00  0.00     0.010 A 
ATOM     46  C   UNL     1       5.408   1.248  13.448  1.00  0.00    -0.014 A 
BRANCH  46  47
ATOM     47  C   UNL     1       5.821   2.460  14.199  1.00  0.00     0.031 A 
ATOM     48  C   UNL     1       4.777   3.401  14.736  1.00  0.00     0.074 A 
ATOM     49  C   UNL     1       7.128   2.732  14.370  1.00  0.00     0.049 A 
ATOM     50  N   UNL     1       4.931   4.525  15.390  1.00  0.00    -0.248 NA
ATOM     51  C   UNL     1       3.373   3.044  14.480  1.00  0.00     0.031 C 
ATOM     52  C   UNL     1       8.234   1.924  13.857  1.00  0.00     0.029 A 
ATOM     53  N   UNL     1       7.746   3.769  15.021  1.00  0.00    -0.354 N 
ATOM     54  C   UNL     1       3.649   5.015  15.605  1.00  0.00     0.074 A 
ATOM     55  C   UNL     1       2.732   4.095  14.968  1.00  0.00     0.031 C 
ATOM     56  C   UNL     1       9.396   2.483  14.232  1.00  0.00     0.029 A 
ATOM     57  C   UNL     1       9.117   3.699  14.991  1.00  0.00     0.049 A 
ATOM     58  H   UNL     1       7.253   4.496  15.468  1.00  0.00     0.167 HD
ATOM     59  C   UNL     1       3.268   6.119  16.293  1.00  0.00     0.037 A 
ATOM     60  C   UNL     1      10.041   4.520  15.523  1.00  0.00     0.037 A 
ATOM     61  C   UNL     1       4.179   7.013  16.956  1.00  0.00     0.049 A 
ATOM     62  C   UNL     1       9.591   5.719  16.314  1.00  0.00     0.074 A 
ATOM     63  C   UNL     1       3.893   8.132  17.719  1.00  0.00     0.029 A 
ATOM     64  N   UNL     1       5.560   6.885  16.939  1.00  0.00    -0.354 N 
ATOM     65  N   UNL     1       8.375   6.140  16.561  1.00  0.00    -0.248 NA
ATOM     66  C   UNL     1      10.646   6.547  16.914  1.00  0.00     0.031 C 
ATOM     67  C   UNL     1       5.102   8.697  18.140  1.00  0.00     0.029 A 
ATOM     68  C   UNL     1       6.140   7.907  17.673  1.00  0.00     0.049 A 
ATOM     69  H   UNL     1       6.056   6.172  16.474  1.00  0.00     0.167 HD
ATOM     70  C   UNL     1       8.515   7.261  17.368  1.00  0.00     0.074 A 
ATOM     71  C   UNL     1       9.936   7.445  17.582  1.00  0.00     0.031 C 
ATOM     72  C   UNL     1       7.555   8.066  17.885  1.00  0.00     0.037 A 
BRANCH  59  73
ATOM     73  C   UNL     1       1.798   6.412  16.366  1.00  0.00     0.064 A 
ATOM     74  C   UNL     1       0.927   5.616  17.125  1.00  0.00     0.173 A 
ATOM     75  C   UNL     1       1.256   7.514  15.687  1.00  0.00     0.173 A 
ATOM     76  F   UNL     1       1.393   4.543  17.782  1.00  0.00    -0.203 F 
ATOM     77  C   UNL     1      -0.437   5.892  17.176  1.00  0.00     0.198 A 
ATOM     78  C   UNL     1      -0.104   7.804  15.764  1.00  0.00     0.198 A 
ATOM     79  F   UNL     1       2.045   8.310  14.951  1.00  0.00    -0.203 F 
ATOM     80  F   UNL     1      -1.257   5.086  17.864  1.00  0.00    -0.200 F 
ATOM     81  C   UNL     1      -0.950   6.989  16.500  1.00  0.00     0.200 A 
ATOM     82  F   UNL     1      -0.598   8.871  15.120  1.00  0.00    -0.200 F 
ATOM     83  F   UNL     1      -2.263   7.255  16.552  1.00  0.00    -0.200 F 
ENDBRANCH  59  73
BRANCH  60  84
ATOM     84  C   UNL     1      11.485   4.212  15.367  1.00  0.00     0.064 A 
ATOM     85  C   UNL     1      12.249   3.777  16.460  1.00  0.00     0.173 A 
ATOM     86  C   UNL     1      12.132   4.352  14.131  1.00  0.00     0.173 A 
ATOM     87  F   UNL     1      11.677   3.648  17.666  1.00  0.00    -0.203 F 
ATOM     88  C   UNL     1      13.610   3.516  16.328  1.00  0.00     0.198 A 
ATOM     89  C   UNL     1      13.489   4.065  13.995  1.00  0.00     0.198 A 
ATOM     90  F   UNL     1      11.444   4.759  13.055  1.00  0.00    -0.203 F 
ATOM     91  F   UNL     1      14.326   3.147  17.398  1.00  0.00    -0.200 F 
ATOM     92  C   UNL     1      14.229   3.656  15.094  1.00  0.00     0.200 A 
ATOM     93  F   UNL     1      14.081   4.190  12.799  1.00  0.00    -0.200 F 
ATOM     94  F   UNL     1      15.539   3.404  14.967  1.00  0.00    -0.200 F 
ENDBRANCH  60  84
BRANCH  72  95
ATOM     95  C   UNL     1       8.011   9.193  18.765  1.00  0.00     0.064 A 
ATOM     96  C   UNL     1       8.660  10.321  18.243  1.00  0.00     0.173 A 
ATOM     97  C   UNL     1       7.777   9.150  20.148  1.00  0.00     0.173 A 
ATOM     98  F   UNL     1       8.919  10.402  16.929  1.00  0.00    -0.203 F 
ATOM     99  C   UNL     1       9.088  11.350  19.077  1.00  0.00     0.198 A 
ATOM    100  C   UNL     1       8.181  10.193  20.976  1.00  0.00     0.198 A 
ATOM    101  F   UNL     1       7.153   8.096  20.696  1.00  0.00    -0.203 F 
ATOM    102  F   UNL     1       9.755  12.393  18.563  1.00  0.00    -0.200 F 
ATOM    103  C   UNL     1       8.845  11.287  20.441  1.00  0.00     0.200 A 
ATOM    104  F   UNL     1       7.935  10.137  22.292  1.00  0.00    -0.200 F 
ATOM    105  F   UNL     1       9.259  12.278  21.242  1.00  0.00    -0.200 F 
ENDBRANCH  72  95
ENDBRANCH  46  47
ENDBRANCH  38  41
ENDBRANCH  36  37
ENDBRANCH  35  36
ENDBRANCH  34  35
ENDBRANCH   1  34
TORSDOF 16
