REMARK SMILES CCC(CC)([NH2+]CC(=O)Nc1ccc(C)cc1)C(=O)NCCCCCCNC(=O)c1ccc(-c2c3nc(c(-c4c(F)c(F)c(F)c(F)c4F)c4ccc([nH]4)c(-c4c(F)c(F)c(F)c(F)c4F)c4nc(c(-c5c(F)c(F)c(F)c(F)c5F)c5ccc2[nH]5)C=C4)C=C3)cc1
REMARK SMILES IDX 22 1 21 2 20 3 18 4 19 5 3 7 2 8 1 9 4 10 5 11 6 12 7 15
REMARK SMILES IDX 8 16 9 17 10 18 11 20 12 21 17 22 13 23 16 24 14 25 15 26
REMARK SMILES IDX 23 27 24 28 25 29 26 30 27 31 28 32 29 34 30 35 31 36 92 37
REMARK SMILES IDX 32 38 91 39 33 40 34 41 35 42 85 43 36 44 90 45 84 46 86 47
REMARK SMILES IDX 37 48 89 49 83 50 82 51 38 53 70 54 50 55 69 56 51 57 54 58
REMARK SMILES IDX 68 59 87 60 52 61 53 62 67 64 88 65 55 66 39 67 40 68 48 69
REMARK SMILES IDX 41 70 42 71 46 72 49 73 43 74 44 75 47 76 45 77 71 78 72 79
REMARK SMILES IDX 80 80 73 81 74 82 78 83 81 84 75 85 76 86 79 87 77 88 56 89
REMARK SMILES IDX 57 90 65 91 58 92 59 93 63 94 66 95 60 96 61 97 64 98 62 99
REMARK H PARENT 20 6 6 13 6 14 10 19 27 33 86 52 54 63
REMARK Flexibility Score: inf
ROOT
ATOM      1  C   UNL     1       3.922   0.685   5.663  1.00  0.00     0.021 C 
ENDROOT
BRANCH   1   2
ATOM      2  C   UNL     1       3.527   0.782   4.180  1.00  0.00     0.116 C 
BRANCH   2   3
ATOM      3  N   UNL     1       2.512  -0.199   3.763  1.00  0.00    -0.351 N 
ATOM      4  C   UNL     1       1.784  -0.068   2.572  1.00  0.00     0.281 C 
ATOM      5  O   UNL     1       2.365  -0.352   1.523  1.00  0.00    -0.268 OA
ATOM      6  H   UNL     1       2.338  -0.976   4.343  1.00  0.00     0.163 HD
BRANCH   4   7
ATOM      7  C   UNL     1       0.161   0.046   2.666  1.00  0.00     0.175 C 
BRANCH   7   8
ATOM      8  C   UNL     1      -0.308  -1.389   2.206  1.00  0.00     0.076 C 
ATOM      9  C   UNL     1      -0.244  -1.627   0.675  1.00  0.00     0.011 C 
ENDBRANCH   7   8
BRANCH   7  10
ATOM     10  C   UNL     1      -0.707   1.041   1.819  1.00  0.00     0.076 C 
ATOM     11  C   UNL     1      -2.233   0.970   2.023  1.00  0.00     0.011 C 
ENDBRANCH   7  10
BRANCH   7  12
ATOM     12  N   UNL     1      -0.165   0.347   4.073  1.00  0.00    -0.326 N 
ATOM     13  H   UNL     1       0.205  -0.416   4.640  1.00  0.00     0.347 HD
ATOM     14  H   UNL     1      -1.179   0.455   4.082  1.00  0.00     0.347 HD
BRANCH  12  15
ATOM     15  C   UNL     1       0.347   1.616   4.654  1.00  0.00     0.363 C 
BRANCH  15  16
ATOM     16  C   UNL     1       0.259   3.005   3.958  1.00  0.00     0.279 C 
ATOM     17  O   UNL     1      -0.715   3.726   4.235  1.00  0.00    -0.268 OA
ATOM     18  N   UNL     1       1.295   3.638   3.293  1.00  0.00    -0.321 N 
ATOM     19  H   UNL     1       1.373   4.583   3.559  1.00  0.00     0.170 HD
BRANCH  18  20
ATOM     20  C   UNL     1       2.273   3.285   2.328  1.00  0.00     0.041 A 
ATOM     21  C   UNL     1       2.028   2.552   1.176  1.00  0.00     0.026 A 
ATOM     22  C   UNL     1       3.560   3.817   2.448  1.00  0.00     0.026 A 
ATOM     23  C   UNL     1       3.061   2.114   0.332  1.00  0.00     0.005 A 
ATOM     24  C   UNL     1       4.611   3.382   1.613  1.00  0.00     0.005 A 
ATOM     25  C   UNL     1       4.379   2.452   0.599  1.00  0.00    -0.051 A 
ATOM     26  C   UNL     1       5.480   1.837  -0.212  1.00  0.00     0.044 C 
ENDBRANCH  18  20
ENDBRANCH  15  16
ENDBRANCH  12  15
ENDBRANCH   7  12
ENDBRANCH   4   7
ENDBRANCH   2   3
ENDBRANCH   1   2
BRANCH   1  27
ATOM     27  C   UNL     1       5.222   1.420   6.049  1.00  0.00     0.002 C 
BRANCH  27  28
ATOM     28  C   UNL     1       5.392   2.898   5.655  1.00  0.00     0.002 C 
BRANCH  28  29
ATOM     29  C   UNL     1       4.362   3.893   6.192  1.00  0.00     0.021 C 
BRANCH  29  30
ATOM     30  C   UNL     1       4.414   4.128   7.698  1.00  0.00     0.116 C 
BRANCH  30  31
ATOM     31  N   UNL     1       5.372   5.132   8.146  1.00  0.00    -0.352 N 
ATOM     32  C   UNL     1       5.754   5.494   9.438  1.00  0.00     0.251 C 
ATOM     33  H   UNL     1       5.818   5.632   7.425  1.00  0.00     0.163 HD
ATOM     34  O   UNL     1       6.501   6.423   9.613  1.00  0.00    -0.269 OA
BRANCH  32  35
ATOM     35  C   UNL     1       5.339   4.643  10.591  1.00  0.00     0.039 A 
ATOM     36  C   UNL     1       6.291   4.369  11.585  1.00  0.00     0.014 A 
ATOM     37  C   UNL     1       4.114   3.988  10.611  1.00  0.00     0.014 A 
ATOM     38  C   UNL     1       6.112   3.269  12.425  1.00  0.00     0.010 A 
ATOM     39  C   UNL     1       3.984   2.836  11.355  1.00  0.00     0.010 A 
ATOM     40  C   UNL     1       5.012   2.442  12.215  1.00  0.00    -0.014 A 
BRANCH  40  41
ATOM     41  C   UNL     1       4.880   1.103  12.771  1.00  0.00     0.031 A 
ATOM     42  C   UNL     1       3.936   0.841  13.875  1.00  0.00     0.074 A 
ATOM     43  C   UNL     1       5.509   0.079  12.151  1.00  0.00     0.049 A 
ATOM     44  N   UNL     1       3.985  -0.196  14.640  1.00  0.00    -0.248 NA
ATOM     45  C   UNL     1       2.862   1.761  14.226  1.00  0.00     0.031 C 
ATOM     46  C   UNL     1       5.249  -1.349  12.312  1.00  0.00     0.029 A 
ATOM     47  N   UNL     1       6.669   0.135  11.360  1.00  0.00    -0.354 N 
ATOM     48  C   UNL     1       2.828  -0.227  15.385  1.00  0.00     0.074 A 
ATOM     49  C   UNL     1       2.189   1.044  15.131  1.00  0.00     0.031 C 
ATOM     50  C   UNL     1       6.336  -2.034  11.922  1.00  0.00     0.029 A 
ATOM     51  C   UNL     1       7.374  -1.058  11.648  1.00  0.00     0.049 A 
ATOM     52  H   UNL     1       6.935   0.851  10.739  1.00  0.00     0.167 HD
ATOM     53  C   UNL     1       2.485  -1.381  16.029  1.00  0.00     0.037 A 
ATOM     54  C   UNL     1       8.594  -1.032  12.258  1.00  0.00     0.037 A 
ATOM     55  C   UNL     1       3.517  -2.401  15.860  1.00  0.00     0.049 A 
ATOM     56  C   UNL     1       8.642  -1.787  13.564  1.00  0.00     0.074 A 
ATOM     57  C   UNL     1       3.641  -3.470  14.988  1.00  0.00     0.029 A 
ATOM     58  N   UNL     1       4.769  -2.212  16.433  1.00  0.00    -0.354 N 
ATOM     59  N   UNL     1       7.589  -2.062  14.283  1.00  0.00    -0.248 NA
ATOM     60  C   UNL     1       9.877  -2.273  14.171  1.00  0.00     0.031 C 
ATOM     61  C   UNL     1       4.990  -3.902  15.010  1.00  0.00     0.029 A 
ATOM     62  C   UNL     1       5.680  -3.107  15.908  1.00  0.00     0.049 A 
ATOM     63  H   UNL     1       4.977  -1.535  17.117  1.00  0.00     0.167 HD
ATOM     64  C   UNL     1       7.972  -2.733  15.416  1.00  0.00     0.074 A 
ATOM     65  C   UNL     1       9.412  -2.855  15.291  1.00  0.00     0.031 C 
ATOM     66  C   UNL     1       7.063  -3.124  16.360  1.00  0.00     0.037 A 
BRANCH  53  67
ATOM     67  C   UNL     1       1.097  -1.680  16.558  1.00  0.00     0.064 A 
ATOM     68  C   UNL     1       0.601  -3.003  16.585  1.00  0.00     0.173 A 
ATOM     69  C   UNL     1       0.186  -0.706  17.002  1.00  0.00     0.173 A 
ATOM     70  F   UNL     1       1.383  -4.053  16.305  1.00  0.00    -0.203 F 
ATOM     71  C   UNL     1      -0.728  -3.304  16.900  1.00  0.00     0.198 A 
ATOM     72  C   UNL     1      -1.158  -0.997  17.263  1.00  0.00     0.198 A 
ATOM     73  F   UNL     1       0.578   0.548  17.256  1.00  0.00    -0.203 F 
ATOM     74  F   UNL     1      -1.140  -4.580  16.896  1.00  0.00    -0.200 F 
ATOM     75  C   UNL     1      -1.619  -2.296  17.199  1.00  0.00     0.200 A 
ATOM     76  F   UNL     1      -2.003  -0.006  17.581  1.00  0.00    -0.200 F 
ATOM     77  F   UNL     1      -2.904  -2.577  17.452  1.00  0.00    -0.200 F 
ENDBRANCH  53  67
BRANCH  54  78
ATOM     78  C   UNL     1       9.374   0.194  11.945  1.00  0.00     0.064 A 
ATOM     79  C   UNL     1       9.778   0.398  10.612  1.00  0.00     0.173 A 
ATOM     80  C   UNL     1       9.360   1.305  12.796  1.00  0.00     0.173 A 
ATOM     81  F   UNL     1       9.806  -0.636   9.756  1.00  0.00    -0.203 F 
ATOM     82  C   UNL     1      10.031   1.676  10.119  1.00  0.00     0.198 A 
ATOM     83  C   UNL     1       9.629   2.584  12.301  1.00  0.00     0.198 A 
ATOM     84  F   UNL     1       8.968   1.179  14.072  1.00  0.00    -0.203 F 
ATOM     85  F   UNL     1      10.296   1.850   8.816  1.00  0.00    -0.200 F 
ATOM     86  C   UNL     1       9.926   2.772  10.959  1.00  0.00     0.200 A 
ATOM     87  F   UNL     1       9.505   3.649  13.106  1.00  0.00    -0.200 F 
ATOM     88  F   UNL     1      10.071   4.010  10.467  1.00  0.00    -0.200 F 
ENDBRANCH  54  78
BRANCH  66  89
ATOM     89  C   UNL     1       7.362  -3.648  17.747  1.00  0.00     0.064 A 
ATOM     90  C   UNL     1       8.537  -3.367  18.462  1.00  0.00     0.173 A 
ATOM     91  C   UNL     1       6.367  -4.351  18.476  1.00  0.00     0.173 A 
ATOM     92  F   UNL     1       9.508  -2.606  17.940  1.00  0.00    -0.203 F 
ATOM     93  C   UNL     1       8.731  -3.807  19.776  1.00  0.00     0.198 A 
ATOM     94  C   UNL     1       6.539  -4.734  19.806  1.00  0.00     0.198 A 
ATOM     95  F   UNL     1       5.183  -4.664  17.931  1.00  0.00    -0.203 F 
ATOM     96  F   UNL     1       9.890  -3.548  20.396  1.00  0.00    -0.200 F 
ATOM     97  C   UNL     1       7.728  -4.477  20.451  1.00  0.00     0.200 A 
ATOM     98  F   UNL     1       5.534  -5.332  20.461  1.00  0.00    -0.200 F 
ATOM     99  F   UNL     1       7.900  -4.851  21.726  1.00  0.00    -0.200 F 
ENDBRANCH  66  89
ENDBRANCH  40  41
ENDBRANCH  32  35
ENDBRANCH  30  31
ENDBRANCH  29  30
ENDBRANCH  28  29
ENDBRANCH  27  28
ENDBRANCH   1  27
TORSDOF 19
