REMARK SMILES CC(C)C[C@H](CNC(=O)Nc1ccccc1Br)C(=O)NCCCCCCNC(=O)c1ccc(-c2c3nc(c(-c4c(F)c(F)c(F)c(F)c4F)c4ccc([nH]4)c(-c4c(F)c(F)c(F)c(F)c4F)c4nc(c(-c5c(F)c(F)c(F)c(F)c5F)c5ccc2[nH]5)C=C4)C=C3)cc1
REMARK SMILES IDX 23 1 22 2 21 3 20 4 18 5 19 6 5 8 4 9 2 10 1 11 3 12 6 13
REMARK SMILES IDX 7 14 8 15 9 17 10 18 11 20 12 21 16 22 13 23 15 24 17 25
REMARK SMILES IDX 14 26 24 27 25 28 26 29 27 30 28 31 29 33 30 34 31 35 92 36
REMARK SMILES IDX 32 37 91 38 33 39 34 40 35 41 85 42 36 43 90 44 84 45 86 46
REMARK SMILES IDX 37 47 89 48 83 49 82 50 38 52 70 53 50 54 69 55 51 56 54 57
REMARK SMILES IDX 68 58 87 59 52 60 53 61 67 63 88 64 55 65 39 66 40 67 48 68
REMARK SMILES IDX 41 69 42 70 46 71 49 72 43 73 44 74 47 75 45 76 71 77 72 78
REMARK SMILES IDX 80 79 73 80 74 81 78 82 81 83 75 84 76 85 79 86 77 87 56 88
REMARK SMILES IDX 57 89 65 90 58 91 59 92 63 93 66 94 60 95 61 96 64 97 62 98
REMARK H PARENT 20 7 7 16 10 19 27 32 86 51 54 62
REMARK Flexibility Score: inf
ROOT
ATOM      1  C   UNL     1      -5.815  -3.337   2.811  1.00  0.00     0.002 C 
ENDROOT
BRANCH   1   2
ATOM      2  C   UNL     1      -4.360  -2.866   2.748  1.00  0.00     0.021 C 
BRANCH   2   3
ATOM      3  C   UNL     1      -3.681  -3.134   1.412  1.00  0.00     0.116 C 
BRANCH   3   4
ATOM      4  N   UNL     1      -3.964  -2.114   0.432  1.00  0.00    -0.356 N 
ATOM      5  C   UNL     1      -3.153  -1.464  -0.435  1.00  0.00     0.224 C 
ATOM      6  O   UNL     1      -3.710  -0.727  -1.257  1.00  0.00    -0.275 OA
ATOM      7  H   UNL     1      -4.910  -1.845   0.385  1.00  0.00     0.163 HD
BRANCH   5   8
ATOM      8  C   UNL     1      -1.631  -1.579  -0.439  1.00  0.00     0.098 C 
BRANCH   8   9
ATOM      9  C   UNL     1      -0.996  -2.831  -1.097  1.00  0.00     0.018 C 
BRANCH   9  10
ATOM     10  C   UNL     1      -0.839  -4.135  -0.298  1.00  0.00    -0.017 C 
ATOM     11  C   UNL     1      -2.000  -5.101  -0.555  1.00  0.00     0.007 C 
ATOM     12  C   UNL     1       0.457  -4.859  -0.692  1.00  0.00     0.007 C 
ENDBRANCH   9  10
ENDBRANCH   8   9
BRANCH   8  13
ATOM     13  C   UNL     1      -0.885  -0.934   0.745  1.00  0.00     0.131 C 
BRANCH  13  14
ATOM     14  N   UNL     1      -1.244  -1.321   2.099  1.00  0.00    -0.337 N 
ATOM     15  C   UNL     1      -0.638  -2.052   3.059  1.00  0.00     0.319 C 
ATOM     16  H   UNL     1      -2.121  -0.972   2.378  1.00  0.00     0.165 HD
ATOM     17  O   UNL     1      -1.322  -2.440   4.009  1.00  0.00    -0.249 OA
ATOM     18  N   UNL     1       0.631  -2.493   2.943  1.00  0.00    -0.307 N 
ATOM     19  H   UNL     1       0.818  -3.331   3.425  1.00  0.00     0.171 HD
BRANCH  18  20
ATOM     20  C   UNL     1       1.731  -1.962   2.255  1.00  0.00     0.057 A 
ATOM     21  C   UNL     1       2.542  -2.894   1.598  1.00  0.00     0.027 A 
ATOM     22  C   UNL     1       2.045  -0.596   2.160  1.00  0.00     0.041 A 
ATOM     23  C   UNL     1       3.544  -2.468   0.726  1.00  0.00     0.002 A 
ATOM     24  C   UNL     1       3.059  -0.174   1.294  1.00  0.00     0.018 A 
ATOM     25  Br  UNL     1       1.232   0.737   3.246  1.00  0.00    -0.049 Br
ATOM     26  C   UNL     1       3.784  -1.108   0.553  1.00  0.00     0.001 A 
ENDBRANCH  18  20
ENDBRANCH  13  14
ENDBRANCH   8  13
ENDBRANCH   5   8
ENDBRANCH   3   4
ENDBRANCH   2   3
ENDBRANCH   1   2
BRANCH   1  27
ATOM     27  C   UNL     1      -6.052  -4.812   2.458  1.00  0.00     0.002 C 
BRANCH  27  28
ATOM     28  C   UNL     1      -5.133  -5.825   3.148  1.00  0.00     0.021 C 
BRANCH  28  29
ATOM     29  C   UNL     1      -5.096  -5.744   4.671  1.00  0.00     0.116 C 
BRANCH  29  30
ATOM     30  N   UNL     1      -6.419  -5.839   5.261  1.00  0.00    -0.352 N 
ATOM     31  C   UNL     1      -6.898  -6.682   6.224  1.00  0.00     0.251 C 
ATOM     32  H   UNL     1      -7.076  -5.195   4.910  1.00  0.00     0.163 HD
ATOM     33  O   UNL     1      -8.105  -6.713   6.464  1.00  0.00    -0.269 OA
BRANCH  31  34
ATOM     34  C   UNL     1      -5.986  -7.573   6.971  1.00  0.00     0.039 A 
ATOM     35  C   UNL     1      -6.400  -8.884   7.221  1.00  0.00     0.014 A 
ATOM     36  C   UNL     1      -4.757  -7.121   7.462  1.00  0.00     0.014 A 
ATOM     37  C   UNL     1      -5.567  -9.753   7.925  1.00  0.00     0.010 A 
ATOM     38  C   UNL     1      -3.897  -8.008   8.108  1.00  0.00     0.010 A 
ATOM     39  C   UNL     1      -4.298  -9.329   8.353  1.00  0.00    -0.014 A 
BRANCH  39  40
ATOM     40  C   UNL     1      -3.390 -10.272   9.050  1.00  0.00     0.031 A 
ATOM     41  C   UNL     1      -3.040 -10.070  10.496  1.00  0.00     0.074 A 
ATOM     42  C   UNL     1      -2.860 -11.300   8.362  1.00  0.00     0.049 A 
ATOM     43  N   UNL     1      -2.294 -10.811  11.277  1.00  0.00    -0.248 NA
ATOM     44  C   UNL     1      -3.579  -8.867  11.147  1.00  0.00     0.031 C 
ATOM     45  C   UNL     1      -3.081 -11.566   6.940  1.00  0.00     0.029 A 
ATOM     46  N   UNL     1      -2.032 -12.316   8.767  1.00  0.00    -0.354 N 
ATOM     47  C   UNL     1      -2.266 -10.160  12.503  1.00  0.00     0.074 A 
ATOM     48  C   UNL     1      -3.028  -8.940  12.350  1.00  0.00     0.031 C 
ATOM     49  C   UNL     1      -2.438 -12.694   6.600  1.00  0.00     0.029 A 
ATOM     50  C   UNL     1      -1.740 -13.214   7.771  1.00  0.00     0.049 A 
ATOM     51  H   UNL     1      -1.680 -12.393   9.683  1.00  0.00     0.167 HD
ATOM     52  C   UNL     1      -1.675 -10.556  13.656  1.00  0.00     0.037 A 
ATOM     53  C   UNL     1      -1.001 -14.339   7.804  1.00  0.00     0.037 A 
ATOM     54  C   UNL     1      -0.939 -11.784  13.809  1.00  0.00     0.049 A 
ATOM     55  C   UNL     1      -0.369 -14.763   9.100  1.00  0.00     0.074 A 
ATOM     56  C   UNL     1      -0.374 -12.317  14.954  1.00  0.00     0.029 A 
ATOM     57  N   UNL     1      -0.659 -12.669  12.777  1.00  0.00    -0.354 N 
ATOM     58  N   UNL     1      -0.424 -14.188  10.276  1.00  0.00    -0.248 NA
ATOM     59  C   UNL     1       0.422 -16.001   9.072  1.00  0.00     0.031 C 
ATOM     60  C   UNL     1       0.288 -13.501  14.607  1.00  0.00     0.029 A 
ATOM     61  C   UNL     1       0.097 -13.730  13.254  1.00  0.00     0.049 A 
ATOM     62  H   UNL     1      -0.953 -12.560  11.845  1.00  0.00     0.167 HD
ATOM     63  C   UNL     1       0.306 -15.000  11.132  1.00  0.00     0.074 A 
ATOM     64  C   UNL     1       0.775 -16.121  10.344  1.00  0.00     0.031 C 
ATOM     65  C   UNL     1       0.565 -14.832  12.453  1.00  0.00     0.037 A 
BRANCH  52  66
ATOM     66  C   UNL     1      -1.799  -9.647  14.845  1.00  0.00     0.064 A 
ATOM     67  C   UNL     1      -3.021  -9.466  15.510  1.00  0.00     0.173 A 
ATOM     68  C   UNL     1      -0.676  -8.966  15.340  1.00  0.00     0.173 A 
ATOM     69  F   UNL     1      -4.127 -10.085  15.071  1.00  0.00    -0.203 F 
ATOM     70  C   UNL     1      -3.122  -8.612  16.606  1.00  0.00     0.198 A 
ATOM     71  C   UNL     1      -0.774  -8.136  16.454  1.00  0.00     0.198 A 
ATOM     72  F   UNL     1       0.518  -9.109  14.745  1.00  0.00    -0.203 F 
ATOM     73  F   UNL     1      -4.310  -8.415  17.194  1.00  0.00    -0.200 F 
ATOM     74  C   UNL     1      -1.998  -7.953  17.080  1.00  0.00     0.200 A 
ATOM     75  F   UNL     1       0.315  -7.509  16.918  1.00  0.00    -0.200 F 
ATOM     76  F   UNL     1      -2.095  -7.134  18.137  1.00  0.00    -0.200 F 
ENDBRANCH  52  66
BRANCH  53  77
ATOM     77  C   UNL     1      -0.865 -15.168   6.580  1.00  0.00     0.064 A 
ATOM     78  C   UNL     1      -1.505 -16.411   6.483  1.00  0.00     0.173 A 
ATOM     79  C   UNL     1      -0.107 -14.735   5.483  1.00  0.00     0.173 A 
ATOM     80  F   UNL     1      -2.224 -16.875   7.515  1.00  0.00    -0.203 F 
ATOM     81  C   UNL     1      -1.381 -17.197   5.340  1.00  0.00     0.198 A 
ATOM     82  C   UNL     1      -0.004 -15.511   4.330  1.00  0.00     0.198 A 
ATOM     83  F   UNL     1       0.520 -13.550   5.525  1.00  0.00    -0.203 F 
ATOM     84  F   UNL     1      -1.972 -18.398   5.288  1.00  0.00    -0.200 F 
ATOM     85  C   UNL     1      -0.635 -16.744   4.262  1.00  0.00     0.200 A 
ATOM     86  F   UNL     1       0.706 -15.063   3.285  1.00  0.00    -0.200 F 
ATOM     87  F   UNL     1      -0.521 -17.497   3.160  1.00  0.00    -0.200 F 
ENDBRANCH  53  77
BRANCH  65  88
ATOM     88  C   UNL     1       1.386 -15.895  13.123  1.00  0.00     0.064 A 
ATOM     89  C   UNL     1       2.757 -16.035  12.864  1.00  0.00     0.173 A 
ATOM     90  C   UNL     1       0.796 -16.777  14.041  1.00  0.00     0.173 A 
ATOM     91  F   UNL     1       3.363 -15.226  11.981  1.00  0.00    -0.203 F 
ATOM     92  C   UNL     1       3.502 -17.041  13.474  1.00  0.00     0.198 A 
ATOM     93  C   UNL     1       1.550 -17.763  14.671  1.00  0.00     0.198 A 
ATOM     94  F   UNL     1      -0.511 -16.682  14.328  1.00  0.00    -0.203 F 
ATOM     95  F   UNL     1       4.797 -17.192  13.167  1.00  0.00    -0.200 F 
ATOM     96  C   UNL     1       2.899 -17.901  14.380  1.00  0.00     0.200 A 
ATOM     97  F   UNL     1       0.969 -18.586  15.555  1.00  0.00    -0.200 F 
ATOM     98  F   UNL     1       3.617 -18.870  14.964  1.00  0.00    -0.200 F 
ENDBRANCH  65  88
ENDBRANCH  39  40
ENDBRANCH  31  34
ENDBRANCH  29  30
ENDBRANCH  28  29
ENDBRANCH  27  28
ENDBRANCH   1  27
TORSDOF 18
