REMARK SMILES Cc1ccc(S(=O)(=O)Nc2ccc(Cl)c(C(=O)NCCCCCCNC(=O)c3ccc(-c4c5nc(c(-c6c(F)c(F)c(F)c(F)c6F)c6ccc([nH]6)c(-c6c(F)c(F)c(F)c(F)c6F)c6nc(c(-c7c(F)c(F)c(F)c(F)c7F)c7ccc4[nH]7)C=C6)C=C5)cc3)c2)cc1Cl
REMARK SMILES IDX 21 1 20 2 19 3 18 4 16 5 17 6 15 8 10 9 11 10 91 11 12 12
REMARK SMILES IDX 13 13 14 14 9 15 6 17 7 18 8 19 5 20 1 21 2 22 3 23 93 24
REMARK SMILES IDX 4 25 92 26 94 27 22 28 23 29 24 30 25 31 26 32 27 34 28 35
REMARK SMILES IDX 29 36 90 37 30 38 89 39 31 40 32 41 33 42 83 43 34 44 88 45
REMARK SMILES IDX 82 46 84 47 35 48 87 49 81 50 80 51 36 53 68 54 48 55 67 56
REMARK SMILES IDX 49 57 52 58 66 59 85 60 50 61 51 62 65 64 86 65 53 66 37 67
REMARK SMILES IDX 38 68 46 69 39 70 40 71 44 72 47 73 41 74 42 75 45 76 43 77
REMARK SMILES IDX 69 78 70 79 78 80 71 81 72 82 76 83 79 84 73 85 74 86 77 87
REMARK SMILES IDX 75 88 54 89 55 90 63 91 56 92 57 93 61 94 64 95 58 96 59 97
REMARK SMILES IDX 62 98 60 99
REMARK H PARENT 18 7 9 16 25 33 84 52 52 63
REMARK Flexibility Score: inf
ROOT
ATOM      1  C   UNL     1      -1.767   0.622  -5.223  1.00  0.00     0.002 C 
ENDROOT
BRANCH   1   2
ATOM      2  C   UNL     1      -2.514  -0.007  -4.040  1.00  0.00     0.021 C 
BRANCH   2   3
ATOM      3  C   UNL     1      -2.471   0.866  -2.783  1.00  0.00     0.116 C 
BRANCH   3   4
ATOM      4  N   UNL     1      -3.507   1.880  -2.861  1.00  0.00    -0.352 N 
ATOM      5  C   UNL     1      -4.762   1.989  -2.317  1.00  0.00     0.252 C 
ATOM      6  O   UNL     1      -5.494   2.860  -2.784  1.00  0.00    -0.269 OA
ATOM      7  H   UNL     1      -3.256   2.651  -3.420  1.00  0.00     0.163 HD
BRANCH   5   8
ATOM      8  C   UNL     1      -5.240   1.146  -1.185  1.00  0.00     0.060 A 
ATOM      9  C   UNL     1      -5.231  -0.947   0.052  1.00  0.00     0.050 A 
ATOM     10  C   UNL     1      -6.070  -0.392   1.017  1.00  0.00     0.028 A 
ATOM     11  C   UNL     1      -4.931  -0.222  -1.104  1.00  0.00     0.042 A 
ATOM     12  C   UNL     1      -6.468   0.936   0.908  1.00  0.00     0.023 A 
ATOM     13  C   UNL     1      -6.014   1.722  -0.159  1.00  0.00     0.053 A 
ATOM     14  Cl  UNL     1      -6.399   3.406  -0.058  1.00  0.00    -0.083 Cl
BRANCH   9  15
ATOM     15  N   UNL     1      -4.653  -2.207   0.364  1.00  0.00    -0.280 N 
ATOM     16  H   UNL     1      -5.201  -2.847   0.872  1.00  0.00     0.180 HD
BRANCH  15  17
ATOM     17  S   UNL     1      -3.103  -2.682  -0.072  1.00  0.00     0.261 S 
ATOM     18  O   UNL     1      -3.068  -2.803  -1.519  1.00  0.00    -0.201 OA
ATOM     19  O   UNL     1      -2.778  -3.796   0.784  1.00  0.00    -0.201 OA
BRANCH  17  20
ATOM     20  C   UNL     1      -1.952  -1.381   0.334  1.00  0.00     0.089 A 
ATOM     21  C   UNL     1       0.690   2.028   0.368  1.00  0.00     0.046 C 
ATOM     22  C   UNL     1      -0.184   0.804   0.396  1.00  0.00    -0.032 A 
ATOM     23  C   UNL     1      -1.431   0.868   1.038  1.00  0.00     0.006 A 
ATOM     24  C   UNL     1       0.209  -0.411  -0.182  1.00  0.00     0.045 A 
ATOM     25  C   UNL     1      -2.303  -0.226   1.030  1.00  0.00     0.022 A 
ATOM     26  C   UNL     1      -0.674  -1.492  -0.229  1.00  0.00     0.043 A 
ATOM     27  Cl  UNL     1       1.765  -0.614  -0.903  1.00  0.00    -0.084 Cl
ENDBRANCH  17  20
ENDBRANCH  15  17
ENDBRANCH   9  15
ENDBRANCH   5   8
ENDBRANCH   3   4
ENDBRANCH   2   3
ENDBRANCH   1   2
BRANCH   1  28
ATOM     28  C   UNL     1      -0.240   0.637  -5.077  1.00  0.00     0.002 C 
BRANCH  28  29
ATOM     29  C   UNL     1       0.411  -0.735  -4.876  1.00  0.00     0.021 C 
BRANCH  29  30
ATOM     30  C   UNL     1       0.119  -1.755  -5.974  1.00  0.00     0.116 C 
BRANCH  30  31
ATOM     31  N   UNL     1       0.650  -1.341  -7.262  1.00  0.00    -0.352 N 
ATOM     32  C   UNL     1       1.391  -2.057  -8.168  1.00  0.00     0.251 C 
ATOM     33  H   UNL     1       0.450  -0.413  -7.522  1.00  0.00     0.163 HD
ATOM     34  O   UNL     1       1.903  -1.492  -9.131  1.00  0.00    -0.269 OA
BRANCH  32  35
ATOM     35  C   UNL     1       1.593  -3.510  -7.981  1.00  0.00     0.039 A 
ATOM     36  C   UNL     1       2.875  -4.037  -8.160  1.00  0.00     0.014 A 
ATOM     37  C   UNL     1       0.524  -4.354  -7.666  1.00  0.00     0.014 A 
ATOM     38  C   UNL     1       3.096  -5.403  -7.976  1.00  0.00     0.010 A 
ATOM     39  C   UNL     1       0.754  -5.709  -7.435  1.00  0.00     0.010 A 
ATOM     40  C   UNL     1       2.041  -6.245  -7.590  1.00  0.00    -0.014 A 
BRANCH  40  41
ATOM     41  C   UNL     1       2.271  -7.690  -7.347  1.00  0.00     0.031 A 
ATOM     42  C   UNL     1       1.690  -8.717  -8.275  1.00  0.00     0.074 A 
ATOM     43  C   UNL     1       2.959  -8.077  -6.256  1.00  0.00     0.049 A 
ATOM     44  N   UNL     1       1.740 -10.023  -8.200  1.00  0.00    -0.248 NA
ATOM     45  C   UNL     1       0.932  -8.210  -9.430  1.00  0.00     0.031 C 
ATOM     46  C   UNL     1       3.530  -7.176  -5.254  1.00  0.00     0.029 A 
ATOM     47  N   UNL     1       3.282  -9.331  -5.801  1.00  0.00    -0.354 N 
ATOM     48  C   UNL     1       1.008 -10.492  -9.283  1.00  0.00     0.074 A 
ATOM     49  C   UNL     1       0.495  -9.333  -9.981  1.00  0.00     0.031 C 
ATOM     50  C   UNL     1       4.146  -7.906  -4.309  1.00  0.00     0.029 A 
ATOM     51  C   UNL     1       3.992  -9.323  -4.626  1.00  0.00     0.049 A 
ATOM     52  H   UNL     1       3.030 -10.157  -6.273  1.00  0.00     0.167 HD
ATOM     53  C   UNL     1       0.798 -11.774  -9.667  1.00  0.00     0.037 A 
ATOM     54  C   UNL     1       4.464 -10.344  -3.887  1.00  0.00     0.037 A 
ATOM     55  C   UNL     1       1.337 -12.925  -8.992  1.00  0.00     0.049 A 
ATOM     56  C   UNL     1       4.243 -11.756  -4.355  1.00  0.00     0.074 A 
ATOM     57  C   UNL     1       1.235 -14.259  -9.345  1.00  0.00     0.029 A 
ATOM     58  N   UNL     1       2.083 -12.875  -7.825  1.00  0.00    -0.354 N 
ATOM     59  N   UNL     1       3.606 -12.185  -5.416  1.00  0.00    -0.248 NA
ATOM     60  C   UNL     1       4.815 -12.826  -3.525  1.00  0.00     0.031 C 
ATOM     61  C   UNL     1       1.897 -15.020  -8.374  1.00  0.00     0.029 A 
ATOM     62  C   UNL     1       2.438 -14.156  -7.436  1.00  0.00     0.049 A 
ATOM     63  H   UNL     1       2.325 -12.051  -7.343  1.00  0.00     0.167 HD
ATOM     64  C   UNL     1       3.718 -13.568  -5.395  1.00  0.00     0.074 A 
ATOM     65  C   UNL     1       4.496 -13.907  -4.222  1.00  0.00     0.031 C 
ATOM     66  C   UNL     1       3.220 -14.475  -6.270  1.00  0.00     0.037 A 
BRANCH  53  67
ATOM     67  C   UNL     1      -0.047 -12.001 -10.884  1.00  0.00     0.064 A 
ATOM     68  C   UNL     1       0.437 -11.730 -12.172  1.00  0.00     0.173 A 
ATOM     69  C   UNL     1      -1.338 -12.535 -10.765  1.00  0.00     0.173 A 
ATOM     70  F   UNL     1       1.662 -11.208 -12.337  1.00  0.00    -0.203 F 
ATOM     71  C   UNL     1      -0.350 -11.967 -13.296  1.00  0.00     0.198 A 
ATOM     72  C   UNL     1      -2.114 -12.792 -11.892  1.00  0.00     0.198 A 
ATOM     73  F   UNL     1      -1.845 -12.816  -9.555  1.00  0.00    -0.203 F 
ATOM     74  F   UNL     1       0.119 -11.667 -14.516  1.00  0.00    -0.200 F 
ATOM     75  C   UNL     1      -1.621 -12.503 -13.156  1.00  0.00     0.200 A 
ATOM     76  F   UNL     1      -3.338 -13.319 -11.756  1.00  0.00    -0.200 F 
ATOM     77  F   UNL     1      -2.374 -12.737 -14.240  1.00  0.00    -0.200 F 
ENDBRANCH  53  67
BRANCH  54  78
ATOM     78  C   UNL     1       5.222 -10.066  -2.643  1.00  0.00     0.064 A 
ATOM     79  C   UNL     1       6.610 -10.257  -2.592  1.00  0.00     0.173 A 
ATOM     80  C   UNL     1       4.581  -9.604  -1.486  1.00  0.00     0.173 A 
ATOM     81  F   UNL     1       7.261 -10.718  -3.670  1.00  0.00    -0.203 F 
ATOM     82  C   UNL     1       7.326 -10.010  -1.424  1.00  0.00     0.198 A 
ATOM     83  C   UNL     1       5.302  -9.336  -0.324  1.00  0.00     0.198 A 
ATOM     84  F   UNL     1       3.255  -9.404  -1.487  1.00  0.00    -0.203 F 
ATOM     85  F   UNL     1       8.647 -10.236  -1.390  1.00  0.00    -0.200 F 
ATOM     86  C   UNL     1       6.673  -9.545  -0.292  1.00  0.00     0.200 A 
ATOM     87  F   UNL     1       4.669  -8.879   0.765  1.00  0.00    -0.200 F 
ATOM     88  F   UNL     1       7.363  -9.306   0.831  1.00  0.00    -0.200 F 
ENDBRANCH  54  78
BRANCH  66  89
ATOM     89  C   UNL     1       3.524 -15.918  -6.006  1.00  0.00     0.064 A 
ATOM     90  C   UNL     1       2.866 -16.630  -4.993  1.00  0.00     0.173 A 
ATOM     91  C   UNL     1       4.456 -16.604  -6.798  1.00  0.00     0.173 A 
ATOM     92  F   UNL     1       1.978 -16.011  -4.200  1.00  0.00    -0.203 F 
ATOM     93  C   UNL     1       3.145 -17.975  -4.770  1.00  0.00     0.198 A 
ATOM     94  C   UNL     1       4.716 -17.954  -6.586  1.00  0.00     0.198 A 
ATOM     95  F   UNL     1       5.108 -15.965  -7.781  1.00  0.00    -0.203 F 
ATOM     96  F   UNL     1       2.532 -18.628  -3.773  1.00  0.00    -0.200 F 
ATOM     97  C   UNL     1       4.064 -18.638  -5.570  1.00  0.00     0.200 A 
ATOM     98  F   UNL     1       5.599 -18.595  -7.364  1.00  0.00    -0.200 F 
ATOM     99  F   UNL     1       4.329 -19.934  -5.356  1.00  0.00    -0.200 F 
ENDBRANCH  66  89
ENDBRANCH  40  41
ENDBRANCH  32  35
ENDBRANCH  30  31
ENDBRANCH  29  30
ENDBRANCH  28  29
ENDBRANCH   1  28
TORSDOF 16
