REMARK SMILES O=C(C[C@H](NC(=O)[C@]12C[C@H]3C[C@H](C[C@H](C3)C1)C2)c1cccc([N+](=O)[O-])c1)NCCCCCCNC(=O)c1ccc(-c2c3nc(c(-c4c(F)c(F)c(F)c(F)c4F)c4ccc([nH]4)c(-c4c(F)c(F)c(F)c(F)c4F)c4nc(c(-c5c(F)c(F)c(F)c(F)c5F)c5ccc2[nH]5)C=C4)C=C3)cc1
REMARK SMILES IDX 30 1 29 2 28 3 27 4 1 5 2 6 3 8 4 9 18 10 19 11 26 12 20 13
REMARK SMILES IDX 22 14 21 15 23 16 24 17 25 18 5 19 6 20 7 22 8 23 9 24 16 25
REMARK SMILES IDX 17 26 10 27 14 28 12 29 11 30 15 31 13 32 31 33 32 34 33 35
REMARK SMILES IDX 34 36 35 37 36 39 37 40 38 41 99 42 39 43 98 44 40 45 41 46
REMARK SMILES IDX 42 47 92 48 43 49 97 50 91 51 93 52 44 53 96 54 90 55 89 56
REMARK SMILES IDX 45 58 77 59 57 60 76 61 58 62 61 63 75 64 94 65 59 66 60 67
REMARK SMILES IDX 74 69 95 70 62 71 46 72 47 73 55 74 48 75 49 76 53 77 56 78
REMARK SMILES IDX 50 79 51 80 54 81 52 82 78 83 79 84 87 85 80 86 81 87 85 88
REMARK SMILES IDX 88 89 82 90 83 91 86 92 84 93 63 94 64 95 72 96 65 97 66 98
REMARK SMILES IDX 70 99 73 100 67 101 68 102 71 103 69 104
REMARK H PARENT 27 7 5 21 34 38 93 57 61 68
REMARK Flexibility Score: inf
ROOT
ATOM      1  C   UNL     1       3.133   2.575   5.727  1.00  0.00     0.002 C 
ENDROOT
BRANCH   1   2
ATOM      2  C   UNL     1       3.168   1.090   5.348  1.00  0.00     0.021 C 
BRANCH   2   3
ATOM      3  C   UNL     1       2.246   0.730   4.174  1.00  0.00     0.116 C 
BRANCH   3   4
ATOM      4  N   UNL     1       2.515   1.554   3.012  1.00  0.00    -0.356 N 
ATOM      5  O   UNL     1       4.241   0.227   2.495  1.00  0.00    -0.275 OA
ATOM      6  C   UNL     1       3.580   1.221   2.232  1.00  0.00     0.222 C 
ATOM      7  H   UNL     1       1.946   2.327   2.794  1.00  0.00     0.163 HD
BRANCH   6   8
ATOM      8  C   UNL     1       4.002   2.171   1.167  1.00  0.00     0.129 C 
BRANCH   8   9
ATOM      9  C   UNL     1       3.532   1.905  -0.266  1.00  0.00     0.122 C 
BRANCH   9  10
ATOM     10  C   UNL     1       4.300   2.882  -1.172  1.00  0.00    -0.018 A 
ATOM     11  C   UNL     1       5.395   2.484  -1.952  1.00  0.00     0.006 A 
ATOM     12  C   UNL     1       3.989   4.258  -1.115  1.00  0.00     0.091 A 
ATOM     13  C   UNL     1       6.172   3.427  -2.638  1.00  0.00     0.007 A 
ATOM     14  C   UNL     1       4.782   5.200  -1.789  1.00  0.00     0.269 A 
ATOM     15  C   UNL     1       5.877   4.788  -2.553  1.00  0.00     0.085 A 
BRANCH  14  16
ATOM     16  N   UNL     1       4.487   6.632  -1.647  1.00  0.00     0.062 N 
ATOM     17  O   UNL     1       5.161   7.431  -2.311  1.00  0.00    -0.258 OA
ATOM     18  O   UNL     1       3.585   6.956  -0.860  1.00  0.00    -0.258 OA
ENDBRANCH  14  16
ENDBRANCH   9  10
BRANCH   9  19
ATOM     19  N   UNL     1       3.352   0.576  -0.888  1.00  0.00    -0.348 N 
ATOM     20  C   UNL     1       3.855  -0.668  -1.047  1.00  0.00     0.226 C 
ATOM     21  H   UNL     1       2.513   0.613  -1.402  1.00  0.00     0.164 HD
ATOM     22  O   UNL     1       3.299  -1.285  -1.972  1.00  0.00    -0.274 OA
BRANCH  20  23
ATOM     23  C   UNL     1       4.885  -1.419  -0.185  1.00  0.00     0.050 C 
ATOM     24  C   UNL     1       4.126  -2.192   0.927  1.00  0.00     0.020 C 
ATOM     25  C   UNL     1       6.037  -0.547   0.325  1.00  0.00     0.020 C 
ATOM     26  C   UNL     1       5.580  -2.554  -1.020  1.00  0.00     0.020 C 
ATOM     27  C   UNL     1       5.104  -2.935   1.854  1.00  0.00    -0.010 C 
ATOM     28  C   UNL     1       6.965  -1.330   1.265  1.00  0.00    -0.010 C 
ATOM     29  C   UNL     1       6.568  -3.366  -0.142  1.00  0.00    -0.010 C 
ATOM     30  C   UNL     1       5.812  -4.022   1.029  1.00  0.00     0.007 C 
ATOM     31  C   UNL     1       6.181  -1.992   2.413  1.00  0.00     0.007 C 
ATOM     32  C   UNL     1       7.642  -2.428   0.435  1.00  0.00     0.007 C 
ENDBRANCH  20  23
ENDBRANCH   9  19
ENDBRANCH   8   9
ENDBRANCH   6   8
ENDBRANCH   3   4
ENDBRANCH   2   3
ENDBRANCH   1   2
BRANCH   1  33
ATOM     33  C   UNL     1       1.725   3.169   5.805  1.00  0.00     0.002 C 
BRANCH  33  34
ATOM     34  C   UNL     1       0.783   2.424   6.750  1.00  0.00     0.021 C 
BRANCH  34  35
ATOM     35  C   UNL     1       1.286   2.372   8.180  1.00  0.00     0.116 C 
BRANCH  35  36
ATOM     36  N   UNL     1       1.459   3.709   8.722  1.00  0.00    -0.352 N 
ATOM     37  C   UNL     1       0.919   4.231   9.865  1.00  0.00     0.251 C 
ATOM     38  H   UNL     1       2.035   4.314   8.202  1.00  0.00     0.163 HD
ATOM     39  O   UNL     1       0.916   5.439  10.070  1.00  0.00    -0.269 OA
BRANCH  37  40
ATOM     40  C   UNL     1       0.342   3.301  10.850  1.00  0.00     0.039 A 
ATOM     41  C   UNL     1      -0.896   3.591  11.420  1.00  0.00     0.014 A 
ATOM     42  C   UNL     1       1.038   2.135  11.191  1.00  0.00     0.014 A 
ATOM     43  C   UNL     1      -1.448   2.697  12.333  1.00  0.00     0.010 A 
ATOM     44  C   UNL     1       0.446   1.205  12.030  1.00  0.00     0.010 A 
ATOM     45  C   UNL     1      -0.783   1.497  12.636  1.00  0.00    -0.014 A 
BRANCH  45  46
ATOM     46  C   UNL     1      -1.312   0.569  13.659  1.00  0.00     0.031 A 
ATOM     47  C   UNL     1      -0.529   0.356  14.925  1.00  0.00     0.074 A 
ATOM     48  C   UNL     1      -2.455  -0.101  13.429  1.00  0.00     0.049 A 
ATOM     49  N   UNL     1      -0.764  -0.462  15.917  1.00  0.00    -0.248 NA
ATOM     50  C   UNL     1       0.705   1.148  15.082  1.00  0.00     0.031 C 
ATOM     51  C   UNL     1      -3.265  -0.005  12.214  1.00  0.00     0.029 A 
ATOM     52  N   UNL     1      -3.128  -1.005  14.209  1.00  0.00    -0.354 N 
ATOM     53  C   UNL     1       0.291  -0.289  16.803  1.00  0.00     0.074 A 
ATOM     54  C   UNL     1       1.206   0.655  16.203  1.00  0.00     0.031 C 
ATOM     55  C   UNL     1      -4.338  -0.804  12.338  1.00  0.00     0.029 A 
ATOM     56  C   UNL     1      -4.273  -1.488  13.626  1.00  0.00     0.049 A 
ATOM     57  H   UNL     1      -2.820  -1.281  15.103  1.00  0.00     0.167 HD
ATOM     58  C   UNL     1       0.462  -0.841  18.026  1.00  0.00     0.037 A 
ATOM     59  C   UNL     1      -5.163  -2.387  14.086  1.00  0.00     0.037 A 
ATOM     60  C   UNL     1      -0.469  -1.757  18.627  1.00  0.00     0.049 A 
ATOM     61  C   UNL     1      -4.955  -2.973  15.458  1.00  0.00     0.074 A 
ATOM     62  C   UNL     1      -0.405  -2.368  19.866  1.00  0.00     0.029 A 
ATOM     63  N   UNL     1      -1.647  -2.181  18.028  1.00  0.00    -0.354 N 
ATOM     64  N   UNL     1      -3.977  -2.769  16.308  1.00  0.00    -0.248 NA
ATOM     65  C   UNL     1      -5.986  -3.899  15.944  1.00  0.00     0.031 C 
ATOM     66  C   UNL     1      -1.533  -3.182  20.008  1.00  0.00     0.029 A 
ATOM     67  C   UNL     1      -2.321  -3.042  18.876  1.00  0.00     0.049 A 
ATOM     68  H   UNL     1      -1.956  -1.910  17.134  1.00  0.00     0.167 HD
ATOM     69  C   UNL     1      -4.293  -3.508  17.439  1.00  0.00     0.074 A 
ATOM     70  C   UNL     1      -5.561  -4.154  17.172  1.00  0.00     0.031 C 
ATOM     71  C   UNL     1      -3.598  -3.644  18.595  1.00  0.00     0.037 A 
BRANCH  58  72
ATOM     72  C   UNL     1       1.684  -0.446  18.802  1.00  0.00     0.064 A 
ATOM     73  C   UNL     1       1.825   0.847  19.332  1.00  0.00     0.173 A 
ATOM     74  C   UNL     1       2.708  -1.371  19.049  1.00  0.00     0.173 A 
ATOM     75  F   UNL     1       0.882   1.775  19.107  1.00  0.00    -0.203 F 
ATOM     76  C   UNL     1       2.955   1.204  20.062  1.00  0.00     0.198 A 
ATOM     77  C   UNL     1       3.823  -1.019  19.806  1.00  0.00     0.198 A 
ATOM     78  F   UNL     1       2.624  -2.619  18.565  1.00  0.00    -0.203 F 
ATOM     79  F   UNL     1       3.087   2.457  20.518  1.00  0.00    -0.200 F 
ATOM     80  C   UNL     1       3.948   0.268  20.306  1.00  0.00     0.200 A 
ATOM     81  F   UNL     1       4.778  -1.927  20.051  1.00  0.00    -0.200 F 
ATOM     82  F   UNL     1       5.030   0.609  21.019  1.00  0.00    -0.200 F 
ENDBRANCH  58  72
BRANCH  59  83
ATOM     83  C   UNL     1      -6.340  -2.766  13.264  1.00  0.00     0.064 A 
ATOM     84  C   UNL     1      -7.639  -2.405  13.652  1.00  0.00     0.173 A 
ATOM     85  C   UNL     1      -6.197  -3.520  12.091  1.00  0.00     0.173 A 
ATOM     86  F   UNL     1      -7.829  -1.695  14.774  1.00  0.00    -0.203 F 
ATOM     87  C   UNL     1      -8.750  -2.817  12.919  1.00  0.00     0.198 A 
ATOM     88  C   UNL     1      -7.307  -3.905  11.342  1.00  0.00     0.198 A 
ATOM     89  F   UNL     1      -4.976  -3.881  11.668  1.00  0.00    -0.203 F 
ATOM     90  F   UNL     1      -9.982  -2.511  13.348  1.00  0.00    -0.200 F 
ATOM     91  C   UNL     1      -8.584  -3.565  11.764  1.00  0.00     0.200 A 
ATOM     92  F   UNL     1      -7.141  -4.614  10.217  1.00  0.00    -0.200 F 
ATOM     93  F   UNL     1      -9.653  -3.967  11.063  1.00  0.00    -0.200 F 
ENDBRANCH  59  83
BRANCH  71  94
ATOM     94  C   UNL     1      -4.226  -4.470  19.678  1.00  0.00     0.064 A 
ATOM     95  C   UNL     1      -4.317  -5.866  19.584  1.00  0.00     0.173 A 
ATOM     96  C   UNL     1      -4.709  -3.853  20.842  1.00  0.00     0.173 A 
ATOM     97  F   UNL     1      -3.880  -6.499  18.485  1.00  0.00    -0.203 F 
ATOM     98  C   UNL     1      -4.899  -6.612  20.605  1.00  0.00     0.198 A 
ATOM     99  C   UNL     1      -5.262  -4.606  21.873  1.00  0.00     0.198 A 
ATOM    100  F   UNL     1      -4.636  -2.521  20.983  1.00  0.00    -0.203 F 
ATOM    101  F   UNL     1      -5.024  -7.940  20.472  1.00  0.00    -0.200 F 
ATOM    102  C   UNL     1      -5.365  -5.983  21.750  1.00  0.00     0.200 A 
ATOM    103  F   UNL     1      -5.698  -3.998  22.985  1.00  0.00    -0.200 F 
ATOM    104  F   UNL     1      -5.920  -6.704  22.733  1.00  0.00    -0.200 F 
ENDBRANCH  71  94
ENDBRANCH  45  46
ENDBRANCH  37  40
ENDBRANCH  35  36
ENDBRANCH  34  35
ENDBRANCH  33  34
ENDBRANCH   1  33
TORSDOF 18
