REMARK SMILES O=C(NCCCCCCNC(=O)[C@H]1CC(=O)N(CCc2ccc3c(c2)OCO3)C1)c1ccc(-c2c3nc(c(-c4c(F)c(F)c(F)c(F)c4F)c4ccc([nH]4)c(-c4c(F)c(F)c(F)c(F)c4F)c4nc(c(-c5c(F)c(F)c(F)c(F)c5F)c5ccc2[nH]5)C=C4)C=C3)cc1
REMARK SMILES IDX 7 1 6 2 5 3 4 4 3 5 1 6 2 7 30 9 31 10 92 11 32 12 91 13
REMARK SMILES IDX 33 14 34 15 35 16 85 17 36 18 90 19 84 20 86 21 37 22 89 23
REMARK SMILES IDX 83 24 82 25 38 27 70 28 50 29 69 30 51 31 54 32 68 33 87 34
REMARK SMILES IDX 52 35 53 36 67 38 88 39 55 40 39 41 40 42 48 43 41 44 42 45
REMARK SMILES IDX 46 46 49 47 43 48 44 49 47 50 45 51 71 52 72 53 80 54 73 55
REMARK SMILES IDX 74 56 78 57 81 58 75 59 76 60 79 61 77 62 56 63 57 64 65 65
REMARK SMILES IDX 58 66 59 67 63 68 66 69 60 70 61 71 64 72 62 73 8 74 9 75
REMARK SMILES IDX 10 76 11 77 12 79 13 80 14 81 29 82 15 83 17 84 16 85 18 86
REMARK SMILES IDX 19 87 20 88 21 89 25 90 22 91 24 92 23 93 26 94 28 95 27 96
REMARK H PARENT 3 8 86 26 54 37 10 78
REMARK Flexibility Score: inf
ROOT
ATOM      1  C   UNL     1       9.351   9.860   3.446  1.00  0.00     0.002 C 
ENDROOT
BRANCH   1   2
ATOM      2  C   UNL     1      10.792  10.319   3.694  1.00  0.00     0.002 C 
BRANCH   2   3
ATOM      3  C   UNL     1      11.127  11.720   3.188  1.00  0.00     0.021 C 
BRANCH   3   4
ATOM      4  C   UNL     1      10.194  12.812   3.690  1.00  0.00     0.116 C 
BRANCH   4   5
ATOM      5  N   UNL     1      10.284  12.999   5.128  1.00  0.00    -0.352 N 
ATOM      6  O   UNL     1      10.800  14.097   7.035  1.00  0.00    -0.269 OA
ATOM      7  C   UNL     1      10.587  14.140   5.828  1.00  0.00     0.251 C 
ATOM      8  H   UNL     1      10.103  12.200   5.673  1.00  0.00     0.163 HD
BRANCH   7   9
ATOM      9  C   UNL     1      10.676  15.426   5.106  1.00  0.00     0.039 A 
ATOM     10  C   UNL     1       9.698  15.777   4.171  1.00  0.00     0.014 A 
ATOM     11  C   UNL     1      11.750  16.282   5.359  1.00  0.00     0.014 A 
ATOM     12  C   UNL     1       9.869  16.911   3.390  1.00  0.00     0.010 A 
ATOM     13  C   UNL     1      11.865  17.475   4.643  1.00  0.00     0.010 A 
ATOM     14  C   UNL     1      10.937  17.789   3.637  1.00  0.00    -0.014 A 
BRANCH  14  15
ATOM     15  C   UNL     1      11.004  19.072   2.894  1.00  0.00     0.031 A 
ATOM     16  C   UNL     1      12.151  19.388   1.980  1.00  0.00     0.074 A 
ATOM     17  C   UNL     1       9.995  19.951   3.051  1.00  0.00     0.049 A 
ATOM     18  N   UNL     1      12.363  20.467   1.268  1.00  0.00    -0.248 NA
ATOM     19  C   UNL     1      13.203  18.369   1.849  1.00  0.00     0.031 C 
ATOM     20  C   UNL     1       8.834  19.752   3.923  1.00  0.00     0.029 A 
ATOM     21  N   UNL     1       9.771  21.177   2.481  1.00  0.00    -0.354 N 
ATOM     22  C   UNL     1      13.574  20.266   0.619  1.00  0.00     0.074 A 
ATOM     23  C   UNL     1      14.067  18.973   1.043  1.00  0.00     0.031 C 
ATOM     24  C   UNL     1       8.004  20.795   3.799  1.00  0.00     0.029 A 
ATOM     25  C   UNL     1       8.607  21.772   2.901  1.00  0.00     0.049 A 
ATOM     26  H   UNL     1      10.386  21.592   1.833  1.00  0.00     0.167 HD
ATOM     27  C   UNL     1      14.207  21.087  -0.254  1.00  0.00     0.037 A 
ATOM     28  C   UNL     1       8.094  22.983   2.621  1.00  0.00     0.037 A 
ATOM     29  C   UNL     1      13.700  22.371  -0.671  1.00  0.00     0.049 A 
ATOM     30  C   UNL     1       8.844  23.887   1.685  1.00  0.00     0.074 A 
ATOM     31  C   UNL     1      14.250  23.261  -1.578  1.00  0.00     0.029 A 
ATOM     32  N   UNL     1      12.531  22.953  -0.202  1.00  0.00    -0.354 N 
ATOM     33  N   UNL     1       9.966  23.667   1.045  1.00  0.00    -0.248 NA
ATOM     34  C   UNL     1       8.256  25.208   1.433  1.00  0.00     0.031 C 
ATOM     35  C   UNL     1      13.449  24.407  -1.609  1.00  0.00     0.029 A 
ATOM     36  C   UNL     1      12.360  24.203  -0.777  1.00  0.00     0.049 A 
ATOM     37  H   UNL     1      11.914  22.539   0.444  1.00  0.00     0.167 HD
ATOM     38  C   UNL     1      10.205  24.809   0.294  1.00  0.00     0.074 A 
ATOM     39  C   UNL     1       9.099  25.709   0.542  1.00  0.00     0.031 C 
ATOM     40  C   UNL     1      11.248  25.086  -0.526  1.00  0.00     0.037 A 
BRANCH  27  41
ATOM     41  C   UNL     1      15.530  20.639  -0.809  1.00  0.00     0.064 A 
ATOM     42  C   UNL     1      15.631  19.579  -1.722  1.00  0.00     0.173 A 
ATOM     43  C   UNL     1      16.709  21.325  -0.472  1.00  0.00     0.173 A 
ATOM     44  F   UNL     1      14.539  18.883  -2.072  1.00  0.00    -0.203 F 
ATOM     45  C   UNL     1      16.862  19.208  -2.259  1.00  0.00     0.198 A 
ATOM     46  C   UNL     1      17.933  20.972  -1.035  1.00  0.00     0.198 A 
ATOM     47  F   UNL     1      16.671  22.352   0.390  1.00  0.00    -0.203 F 
ATOM     48  F   UNL     1      16.939  18.166  -3.098  1.00  0.00    -0.200 F 
ATOM     49  C   UNL     1      18.010  19.911  -1.923  1.00  0.00     0.200 A 
ATOM     50  F   UNL     1      19.037  21.664  -0.722  1.00  0.00    -0.200 F 
ATOM     51  F   UNL     1      19.190  19.562  -2.453  1.00  0.00    -0.200 F 
ENDBRANCH  27  41
BRANCH  28  52
ATOM     52  C   UNL     1       6.816  23.411   3.248  1.00  0.00     0.064 A 
ATOM     53  C   UNL     1       5.666  23.623   2.476  1.00  0.00     0.173 A 
ATOM     54  C   UNL     1       6.721  23.625   4.632  1.00  0.00     0.173 A 
ATOM     55  F   UNL     1       5.710  23.447   1.147  1.00  0.00    -0.203 F 
ATOM     56  C   UNL     1       4.479  24.059   3.059  1.00  0.00     0.198 A 
ATOM     57  C   UNL     1       5.523  24.024   5.219  1.00  0.00     0.198 A 
ATOM     58  F   UNL     1       7.790  23.427   5.418  1.00  0.00    -0.203 F 
ATOM     59  F   UNL     1       3.410  24.309   2.290  1.00  0.00    -0.200 F 
ATOM     60  C   UNL     1       4.406  24.253   4.431  1.00  0.00     0.200 A 
ATOM     61  F   UNL     1       5.453  24.188   6.547  1.00  0.00    -0.200 F 
ATOM     62  F   UNL     1       3.263  24.669   4.991  1.00  0.00    -0.200 F 
ENDBRANCH  28  52
BRANCH  40  63
ATOM     63  C   UNL     1      11.217  26.400  -1.253  1.00  0.00     0.064 A 
ATOM     64  C   UNL     1      11.388  27.621  -0.584  1.00  0.00     0.173 A 
ATOM     65  C   UNL     1      11.038  26.434  -2.644  1.00  0.00     0.173 A 
ATOM     66  F   UNL     1      11.544  27.646   0.749  1.00  0.00    -0.203 F 
ATOM     67  C   UNL     1      11.349  28.828  -1.277  1.00  0.00     0.198 A 
ATOM     68  C   UNL     1      11.038  27.640  -3.339  1.00  0.00     0.198 A 
ATOM     69  F   UNL     1      10.875  25.295  -3.334  1.00  0.00    -0.203 F 
ATOM     70  F   UNL     1      11.456  29.985  -0.609  1.00  0.00    -0.200 F 
ATOM     71  C   UNL     1      11.183  28.836  -2.654  1.00  0.00     0.200 A 
ATOM     72  F   UNL     1      10.893  27.644  -4.671  1.00  0.00    -0.200 F 
ATOM     73  F   UNL     1      11.154  29.999  -3.320  1.00  0.00    -0.200 F 
ENDBRANCH  40  63
ENDBRANCH  14  15
ENDBRANCH   7   9
ENDBRANCH   4   5
ENDBRANCH   3   4
ENDBRANCH   2   3
ENDBRANCH   1   2
BRANCH   1  74
ATOM     74  C   UNL     1       8.837  10.032   2.013  1.00  0.00     0.021 C 
BRANCH  74  75
ATOM     75  C   UNL     1       9.689   9.361   0.944  1.00  0.00     0.116 C 
BRANCH  75  76
ATOM     76  N   UNL     1       9.668   7.920   1.072  1.00  0.00    -0.356 N 
ATOM     77  C   UNL     1       9.242   6.945   0.230  1.00  0.00     0.225 C 
ATOM     78  H   UNL     1      10.028   7.587   1.926  1.00  0.00     0.163 HD
ATOM     79  O   UNL     1       9.218   5.802   0.693  1.00  0.00    -0.275 OA
BRANCH  77  80
ATOM     80  C   UNL     1       8.720   7.255  -1.169  1.00  0.00     0.107 C 
ATOM     81  C   UNL     1       9.536   8.266  -1.975  1.00  0.00     0.115 C 
ATOM     82  C   UNL     1       8.720   5.980  -2.021  1.00  0.00     0.133 C 
ATOM     83  C   UNL     1       9.806   7.634  -3.304  1.00  0.00     0.223 C 
ATOM     84  N   UNL     1       9.396   6.324  -3.250  1.00  0.00    -0.342 N 
ATOM     85  O   UNL     1      10.348   8.193  -4.239  1.00  0.00    -0.275 OA
BRANCH  84  86
ATOM     86  C   UNL     1       9.705   5.351  -4.290  1.00  0.00     0.124 C 
BRANCH  86  87
ATOM     87  C   UNL     1      11.143   4.798  -4.212  1.00  0.00     0.057 C 
BRANCH  87  88
ATOM     88  C   UNL     1      11.341   3.803  -3.090  1.00  0.00    -0.042 A 
ATOM     89  C   UNL     1      11.620   4.257  -1.780  1.00  0.00     0.008 A 
ATOM     90  C   UNL     1      11.181   2.428  -3.323  1.00  0.00     0.054 A 
ATOM     91  C   UNL     1      11.646   3.372  -0.699  1.00  0.00     0.051 A 
ATOM     92  C   UNL     1      11.257   1.573  -2.242  1.00  0.00     0.166 A 
ATOM     93  C   UNL     1      11.462   2.035  -0.964  1.00  0.00     0.165 A 
ATOM     94  O   UNL     1      11.121   0.220  -2.287  1.00  0.00    -0.454 OA
ATOM     95  O   UNL     1      11.453   1.036  -0.042  1.00  0.00    -0.454 OA
ATOM     96  C   UNL     1      11.321  -0.116  -0.898  1.00  0.00     0.468 C 
ENDBRANCH  87  88
ENDBRANCH  86  87
ENDBRANCH  84  86
ENDBRANCH  77  80
ENDBRANCH  75  76
ENDBRANCH  74  75
ENDBRANCH   1  74
TORSDOF 16
