REMARK SMILES O=C(NCCCCCCNC(=O)[C@@H](Cc1ccccc1)N1C(=O)/C(=C/c2ccc3ncccc3c2)SC1=S)c1ccc(-c2c3nc(c(-c4c(F)c(F)c(F)c(F)c4F)c4ccc([nH]4)c(-c4c(F)c(F)c(F)c(F)c4F)c4nc(c(-c5c(F)c(F)c(F)c(F)c5F)c5ccc2[nH]5)C=C4)C=C3)cc1
REMARK SMILES IDX 6 1 5 2 4 3 3 4 1 5 2 6 39 8 40 9 101 10 41 11 100 12 42 13
REMARK SMILES IDX 43 14 44 15 94 16 45 17 99 18 93 19 95 20 46 21 98 22 92 23
REMARK SMILES IDX 91 24 47 26 79 27 59 28 78 29 60 30 63 31 77 32 96 33 61 34
REMARK SMILES IDX 62 35 76 37 97 38 64 39 48 40 49 41 57 42 50 43 51 44 55 45
REMARK SMILES IDX 58 46 52 47 53 48 56 49 54 50 80 51 81 52 89 53 82 54 83 55
REMARK SMILES IDX 87 56 90 57 84 58 85 59 88 60 86 61 65 62 66 63 74 64 67 65
REMARK SMILES IDX 68 66 72 67 75 68 69 69 70 70 73 71 71 72 7 73 8 74 9 75
REMARK SMILES IDX 10 76 11 77 12 79 13 80 14 81 15 82 16 83 20 84 17 85 19 86
REMARK SMILES IDX 18 87 21 88 22 89 37 90 23 91 24 92 36 93 38 94 25 95 26 96
REMARK SMILES IDX 27 97 35 98 28 99 34 100 29 101 33 102 30 103 32 104 31 105
REMARK H PARENT 3 7 95 25 63 36 10 78
REMARK Flexibility Score: inf
ROOT
ATOM      1  C   UNL     1       3.648  -2.491   3.032  1.00  0.00     0.002 C 
ENDROOT
BRANCH   1   2
ATOM      2  C   UNL     1       4.463  -1.407   2.317  1.00  0.00     0.021 C 
BRANCH   2   3
ATOM      3  C   UNL     1       4.266  -1.292   0.807  1.00  0.00     0.116 C 
BRANCH   3   4
ATOM      4  N   UNL     1       2.869  -1.157   0.434  1.00  0.00    -0.352 N 
ATOM      5  O   UNL     1       0.962  -0.147  -0.188  1.00  0.00    -0.269 OA
ATOM      6  C   UNL     1       2.187  -0.108  -0.123  1.00  0.00     0.251 C 
ATOM      7  H   UNL     1       2.320  -1.954   0.610  1.00  0.00     0.163 HD
BRANCH   6   8
ATOM      8  C   UNL     1       2.904   1.078  -0.635  1.00  0.00     0.039 A 
ATOM      9  C   UNL     1       4.046   0.956  -1.431  1.00  0.00     0.014 A 
ATOM     10  C   UNL     1       2.369   2.343  -0.371  1.00  0.00     0.014 A 
ATOM     11  C   UNL     1       4.714   2.099  -1.870  1.00  0.00     0.010 A 
ATOM     12  C   UNL     1       3.000   3.484  -0.869  1.00  0.00     0.010 A 
ATOM     13  C   UNL     1       4.191   3.373  -1.603  1.00  0.00    -0.014 A 
BRANCH  13  14
ATOM     14  C   UNL     1       4.863   4.590  -2.126  1.00  0.00     0.031 A 
ATOM     15  C   UNL     1       5.452   5.602  -1.186  1.00  0.00     0.074 A 
ATOM     16  C   UNL     1       4.907   4.801  -3.455  1.00  0.00     0.049 A 
ATOM     17  N   UNL     1       6.003   6.760  -1.452  1.00  0.00    -0.248 NA
ATOM     18  C   UNL     1       5.406   5.274   0.246  1.00  0.00     0.031 C 
ATOM     19  C   UNL     1       4.365   3.895  -4.468  1.00  0.00     0.029 A 
ATOM     20  N   UNL     1       5.418   5.847  -4.181  1.00  0.00    -0.354 N 
ATOM     21  C   UNL     1       6.351   7.306  -0.224  1.00  0.00     0.074 A 
ATOM     22  C   UNL     1       5.919   6.368   0.791  1.00  0.00     0.031 C 
ATOM     23  C   UNL     1       4.581   4.417  -5.684  1.00  0.00     0.029 A 
ATOM     24  C   UNL     1       5.219   5.721  -5.534  1.00  0.00     0.049 A 
ATOM     25  H   UNL     1       5.881   6.613  -3.772  1.00  0.00     0.167 HD
ATOM     26  C   UNL     1       6.979   8.480   0.031  1.00  0.00     0.037 A 
ATOM     27  C   UNL     1       5.490   6.574  -6.540  1.00  0.00     0.037 A 
ATOM     28  C   UNL     1       7.402   9.409  -0.987  1.00  0.00     0.049 A 
ATOM     29  C   UNL     1       6.140   7.893  -6.230  1.00  0.00     0.074 A 
ATOM     30  C   UNL     1       8.076  10.608  -0.834  1.00  0.00     0.029 A 
ATOM     31  N   UNL     1       7.175   9.251  -2.347  1.00  0.00    -0.354 N 
ATOM     32  N   UNL     1       6.502   8.384  -5.070  1.00  0.00    -0.248 NA
ATOM     33  C   UNL     1       6.420   8.777  -7.369  1.00  0.00     0.031 C 
ATOM     34  C   UNL     1       8.199  11.206  -2.093  1.00  0.00     0.029 A 
ATOM     35  C   UNL     1       7.670  10.344  -3.041  1.00  0.00     0.049 A 
ATOM     36  H   UNL     1       6.729   8.476  -2.759  1.00  0.00     0.167 HD
ATOM     37  C   UNL     1       7.083   9.615  -5.340  1.00  0.00     0.074 A 
ATOM     38  C   UNL     1       7.029   9.795  -6.776  1.00  0.00     0.031 C 
ATOM     39  C   UNL     1       7.621  10.509  -4.474  1.00  0.00     0.037 A 
BRANCH  26  40
ATOM     40  C   UNL     1       7.215   8.843   1.472  1.00  0.00     0.064 A 
ATOM     41  C   UNL     1       8.112   8.127   2.281  1.00  0.00     0.173 A 
ATOM     42  C   UNL     1       6.546   9.934   2.048  1.00  0.00     0.173 A 
ATOM     43  F   UNL     1       8.774   7.071   1.785  1.00  0.00    -0.203 F 
ATOM     44  C   UNL     1       8.296   8.464   3.620  1.00  0.00     0.198 A 
ATOM     45  C   UNL     1       6.760  10.290   3.377  1.00  0.00     0.198 A 
ATOM     46  F   UNL     1       5.686  10.662   1.319  1.00  0.00    -0.203 F 
ATOM     47  F   UNL     1       9.110   7.726   4.388  1.00  0.00    -0.200 F 
ATOM     48  C   UNL     1       7.625   9.547   4.165  1.00  0.00     0.200 A 
ATOM     49  F   UNL     1       6.124  11.350   3.896  1.00  0.00    -0.200 F 
ATOM     50  F   UNL     1       7.804   9.871   5.454  1.00  0.00    -0.200 F 
ENDBRANCH  26  40
BRANCH  27  51
ATOM     51  C   UNL     1       5.140   6.194  -7.934  1.00  0.00     0.064 A 
ATOM     52  C   UNL     1       6.136   5.905  -8.875  1.00  0.00     0.173 A 
ATOM     53  C   UNL     1       3.802   6.082  -8.342  1.00  0.00     0.173 A 
ATOM     54  F   UNL     1       7.429   6.015  -8.537  1.00  0.00    -0.203 F 
ATOM     55  C   UNL     1       5.808   5.529 -10.176  1.00  0.00     0.198 A 
ATOM     56  C   UNL     1       3.475   5.676  -9.634  1.00  0.00     0.198 A 
ATOM     57  F   UNL     1       2.811   6.341  -7.477  1.00  0.00    -0.203 F 
ATOM     58  F   UNL     1       6.780   5.293 -11.067  1.00  0.00    -0.200 F 
ATOM     59  C   UNL     1       4.479   5.405 -10.552  1.00  0.00     0.200 A 
ATOM     60  F   UNL     1       2.190   5.539  -9.986  1.00  0.00    -0.200 F 
ATOM     61  F   UNL     1       4.165   5.029 -11.799  1.00  0.00    -0.200 F 
ENDBRANCH  27  51
BRANCH  39  62
ATOM     62  C   UNL     1       8.250  11.745  -5.053  1.00  0.00     0.064 A 
ATOM     63  C   UNL     1       7.486  12.774  -5.622  1.00  0.00     0.173 A 
ATOM     64  C   UNL     1       9.641  11.923  -4.982  1.00  0.00     0.173 A 
ATOM     65  F   UNL     1       6.155  12.647  -5.729  1.00  0.00    -0.203 F 
ATOM     66  C   UNL     1       8.093  13.927  -6.116  1.00  0.00     0.198 A 
ATOM     67  C   UNL     1      10.241  13.091  -5.445  1.00  0.00     0.198 A 
ATOM     68  F   UNL     1      10.419  10.972  -4.443  1.00  0.00    -0.203 F 
ATOM     69  F   UNL     1       7.348  14.878  -6.695  1.00  0.00    -0.200 F 
ATOM     70  C   UNL     1       9.467  14.089  -6.017  1.00  0.00     0.200 A 
ATOM     71  F   UNL     1      11.566  13.251  -5.333  1.00  0.00    -0.200 F 
ATOM     72  F   UNL     1      10.047  15.206  -6.478  1.00  0.00    -0.200 F 
ENDBRANCH  39  62
ENDBRANCH  13  14
ENDBRANCH   6   8
ENDBRANCH   3   4
ENDBRANCH   2   3
ENDBRANCH   1   2
BRANCH   1  73
ATOM     73  C   UNL     1       3.704  -3.916   2.463  1.00  0.00     0.002 C 
BRANCH  73  74
ATOM     74  C   UNL     1       5.086  -4.478   2.156  1.00  0.00     0.021 C 
BRANCH  74  75
ATOM     75  C   UNL     1       6.063  -4.478   3.316  1.00  0.00     0.116 C 
BRANCH  75  76
ATOM     76  N   UNL     1       6.300  -5.749   3.943  1.00  0.00    -0.354 N 
ATOM     77  C   UNL     1       7.474  -6.253   4.416  1.00  0.00     0.243 C 
ATOM     78  H   UNL     1       5.512  -6.331   4.045  1.00  0.00     0.163 HD
ATOM     79  O   UNL     1       7.381  -7.296   5.076  1.00  0.00    -0.273 OA
BRANCH  77  80
ATOM     80  C   UNL     1       8.874  -5.589   4.225  1.00  0.00     0.185 C 
BRANCH  80  81
ATOM     81  C   UNL     1       9.510  -5.611   2.799  1.00  0.00     0.071 C 
BRANCH  81  82
ATOM     82  C   UNL     1       9.208  -4.547   1.772  1.00  0.00    -0.045 A 
ATOM     83  C   UNL     1       9.815  -3.287   1.843  1.00  0.00     0.004 A 
ATOM     84  C   UNL     1       8.286  -4.789   0.742  1.00  0.00     0.004 A 
ATOM     85  C   UNL     1       9.393  -2.247   1.011  1.00  0.00     0.000 A 
ATOM     86  C   UNL     1       7.883  -3.754  -0.107  1.00  0.00     0.000 A 
ATOM     87  C   UNL     1       8.408  -2.475   0.053  1.00  0.00     0.000 A 
ENDBRANCH  81  82
ENDBRANCH  80  81
BRANCH  80  88
ATOM     88  N   UNL     1       9.174  -4.443   5.135  1.00  0.00    -0.280 N 
ATOM     89  C   UNL     1       8.695  -3.176   4.885  1.00  0.00     0.266 C 
ATOM     90  C   UNL     1       9.919  -4.548   6.302  1.00  0.00     0.149 C 
ATOM     91  O   UNL     1       8.000  -2.790   3.964  1.00  0.00    -0.268 OA
ATOM     92  C   UNL     1       9.147  -2.198   5.890  1.00  0.00     0.081 C 
ATOM     93  S   UNL     1      10.087  -2.963   7.078  1.00  0.00    -0.054 SA
ATOM     94  S   UNL     1      10.642  -5.893   6.980  1.00  0.00    -0.052 S 
ATOM     95  C   UNL     1       8.796  -0.918   5.713  1.00  0.00     0.029 C 
BRANCH  95  96
ATOM     96  C   UNL     1       9.201   0.257   6.468  1.00  0.00    -0.024 A 
ATOM     97  C   UNL     1       8.239   1.202   6.831  1.00  0.00     0.010 A 
ATOM     98  C   UNL     1      10.548   0.524   6.702  1.00  0.00     0.018 A 
ATOM     99  C   UNL     1       8.628   2.383   7.466  1.00  0.00     0.029 A 
ATOM    100  C   UNL     1      10.929   1.705   7.346  1.00  0.00     0.001 A 
ATOM    101  C   UNL     1       9.960   2.650   7.745  1.00  0.00     0.070 A 
ATOM    102  C   UNL     1      12.275   1.976   7.609  1.00  0.00     0.012 A 
ATOM    103  N   UNL     1      10.291   3.787   8.377  1.00  0.00    -0.256 NA
ATOM    104  C   UNL     1      12.618   3.144   8.272  1.00  0.00     0.021 A 
ATOM    105  C   UNL     1      11.600   4.007   8.634  1.00  0.00     0.112 A 
ENDBRANCH  95  96
ENDBRANCH  80  88
ENDBRANCH  77  80
ENDBRANCH  75  76
ENDBRANCH  74  75
ENDBRANCH  73  74
ENDBRANCH   1  73
TORSDOF 17
