REMARK SMILES O=C(NCCCCCCNC(=O)c1cc(S(=O)(=O)Nc2ccccc2-n2cc(Br)cn2)c[nH]1)c1ccc(-c2c3nc(c(-c4c(F)c(F)c(F)c(F)c4F)c4ccc([nH]4)c(-c4c(F)c(F)c(F)c(F)c4F)c4nc(c(-c5c(F)c(F)c(F)c(F)c5F)c5ccc2[nH]5)C=C4)C=C3)cc1
REMARK SMILES IDX 7 1 6 2 5 3 4 4 3 5 1 6 2 7 34 9 35 10 96 11 36 12 95 13
REMARK SMILES IDX 37 14 38 15 39 16 89 17 40 18 94 19 88 20 90 21 41 22 93 23
REMARK SMILES IDX 87 24 86 25 42 27 74 28 54 29 73 30 55 31 58 32 72 33 91 34
REMARK SMILES IDX 56 35 57 36 71 38 92 39 59 40 43 41 44 42 52 43 45 44 46 45
REMARK SMILES IDX 50 46 53 47 47 48 48 49 51 50 49 51 75 52 76 53 84 54 77 55
REMARK SMILES IDX 78 56 82 57 85 58 79 59 80 60 83 61 81 62 60 63 61 64 69 65
REMARK SMILES IDX 62 66 63 67 67 68 70 69 64 70 65 71 68 72 66 73 8 74 9 75
REMARK SMILES IDX 10 76 11 77 12 79 13 80 14 81 33 82 15 83 32 84 16 86 17 87
REMARK SMILES IDX 18 88 19 89 20 91 21 92 25 93 22 94 24 95 23 96 26 97 27 98
REMARK SMILES IDX 31 99 28 100 30 101 29 102
REMARK H PARENT 3 8 90 26 58 37 10 78 33 85 19 90
REMARK Flexibility Score: inf
ROOT
ATOM      1  C   UNL     1       4.484  -3.644   2.133  1.00  0.00     0.002 C 
ENDROOT
BRANCH   1   2
ATOM      2  C   UNL     1       4.038  -2.271   2.645  1.00  0.00     0.002 C 
BRANCH   2   3
ATOM      3  C   UNL     1       4.658  -1.065   1.935  1.00  0.00     0.021 C 
BRANCH   3   4
ATOM      4  C   UNL     1       4.508  -1.065   0.412  1.00  0.00     0.116 C 
BRANCH   4   5
ATOM      5  N   UNL     1       3.153  -0.899  -0.076  1.00  0.00    -0.352 N 
ATOM      6  O   UNL     1       1.167   0.038  -0.525  1.00  0.00    -0.269 OA
ATOM      7  C   UNL     1       2.268   0.142   0.011  1.00  0.00     0.251 C 
ATOM      8  H   UNL     1       2.804  -1.681  -0.561  1.00  0.00     0.163 HD
BRANCH   7   9
ATOM      9  C   UNL     1       2.577   1.367   0.782  1.00  0.00     0.039 A 
ATOM     10  C   UNL     1       3.834   1.976   0.754  1.00  0.00     0.014 A 
ATOM     11  C   UNL     1       1.536   1.949   1.521  1.00  0.00     0.014 A 
ATOM     12  C   UNL     1       4.074   3.110   1.516  1.00  0.00     0.010 A 
ATOM     13  C   UNL     1       1.757   3.117   2.250  1.00  0.00     0.010 A 
ATOM     14  C   UNL     1       3.029   3.700   2.237  1.00  0.00    -0.014 A 
BRANCH  14  15
ATOM     15  C   UNL     1       3.271   5.069   2.747  1.00  0.00     0.031 A 
ATOM     16  C   UNL     1       3.228   6.111   1.625  1.00  0.00     0.074 A 
ATOM     17  C   UNL     1       3.582   5.210   4.066  1.00  0.00     0.049 A 
ATOM     18  N   UNL     1       3.851   7.246   1.519  1.00  0.00    -0.248 NA
ATOM     19  C   UNL     1       2.438   5.807   0.400  1.00  0.00     0.031 C 
ATOM     20  C   UNL     1       3.566   4.105   5.038  1.00  0.00     0.029 A 
ATOM     21  N   UNL     1       3.985   6.275   4.853  1.00  0.00    -0.354 N 
ATOM     22  C   UNL     1       3.394   7.861   0.336  1.00  0.00     0.074 A 
ATOM     23  C   UNL     1       2.629   6.879  -0.370  1.00  0.00     0.031 C 
ATOM     24  C   UNL     1       3.997   4.526   6.243  1.00  0.00     0.029 A 
ATOM     25  C   UNL     1       4.324   5.939   6.189  1.00  0.00     0.049 A 
ATOM     26  H   UNL     1       4.032   7.197   4.511  1.00  0.00     0.167 HD
ATOM     27  C   UNL     1       3.553   9.189   0.071  1.00  0.00     0.037 A 
ATOM     28  C   UNL     1       4.864   6.724   7.174  1.00  0.00     0.037 A 
ATOM     29  C   UNL     1       4.293   9.824   1.107  1.00  0.00     0.049 A 
ATOM     30  C   UNL     1       4.910   8.090   6.625  1.00  0.00     0.074 A 
ATOM     31  C   UNL     1       5.620   9.843   1.440  1.00  0.00     0.029 A 
ATOM     32  N   UNL     1       3.571  10.378   2.132  1.00  0.00    -0.354 N 
ATOM     33  N   UNL     1       3.875   8.865   6.485  1.00  0.00    -0.248 NA
ATOM     34  C   UNL     1       6.194   8.627   6.157  1.00  0.00     0.031 C 
ATOM     35  C   UNL     1       5.633  10.085   2.830  1.00  0.00     0.029 A 
ATOM     36  C   UNL     1       4.320  10.268   3.277  1.00  0.00     0.049 A 
ATOM     37  H   UNL     1       2.677  10.783   2.061  1.00  0.00     0.167 HD
ATOM     38  C   UNL     1       4.346   9.833   5.627  1.00  0.00     0.074 A 
ATOM     39  C   UNL     1       5.785   9.820   5.736  1.00  0.00     0.031 C 
ATOM     40  C   UNL     1       3.613  10.161   4.534  1.00  0.00     0.037 A 
BRANCH  27  41
ATOM     41  C   UNL     1       2.893  10.085  -0.941  1.00  0.00     0.064 A 
ATOM     42  C   UNL     1       3.510  11.326  -1.240  1.00  0.00     0.173 A 
ATOM     43  C   UNL     1       1.556   9.948  -1.339  1.00  0.00     0.173 A 
ATOM     44  F   UNL     1       4.800  11.541  -0.936  1.00  0.00    -0.203 F 
ATOM     45  C   UNL     1       2.796  12.398  -1.772  1.00  0.00     0.198 A 
ATOM     46  C   UNL     1       0.858  11.011  -1.922  1.00  0.00     0.198 A 
ATOM     47  F   UNL     1       0.865   8.831  -1.080  1.00  0.00    -0.203 F 
ATOM     48  F   UNL     1       3.387  13.594  -1.901  1.00  0.00    -0.200 F 
ATOM     49  C   UNL     1       1.464  12.244  -2.097  1.00  0.00     0.200 A 
ATOM     50  F   UNL     1      -0.434  10.857  -2.242  1.00  0.00    -0.200 F 
ATOM     51  F   UNL     1       0.755  13.289  -2.544  1.00  0.00    -0.200 F 
ENDBRANCH  27  41
BRANCH  28  52
ATOM     52  C   UNL     1       5.435   6.544   8.571  1.00  0.00     0.064 A 
ATOM     53  C   UNL     1       5.373   5.378   9.345  1.00  0.00     0.173 A 
ATOM     54  C   UNL     1       6.155   7.605   9.196  1.00  0.00     0.173 A 
ATOM     55  F   UNL     1       4.630   4.332   8.975  1.00  0.00    -0.203 F 
ATOM     56  C   UNL     1       6.060   5.246  10.567  1.00  0.00     0.198 A 
ATOM     57  C   UNL     1       6.864   7.466  10.391  1.00  0.00     0.198 A 
ATOM     58  F   UNL     1       6.202   8.835   8.670  1.00  0.00    -0.203 F 
ATOM     59  F   UNL     1       5.975   4.096  11.252  1.00  0.00    -0.200 F 
ATOM     60  C   UNL     1       6.831   6.275  11.072  1.00  0.00     0.200 A 
ATOM     61  F   UNL     1       7.587   8.494  10.858  1.00  0.00    -0.200 F 
ATOM     62  F   UNL     1       7.523   6.127  12.209  1.00  0.00    -0.200 F 
ENDBRANCH  28  52
BRANCH  40  63
ATOM     63  C   UNL     1       2.134   9.884   4.709  1.00  0.00     0.064 A 
ATOM     64  C   UNL     1       1.388  10.608   5.650  1.00  0.00     0.173 A 
ATOM     65  C   UNL     1       1.470   8.817   4.082  1.00  0.00     0.173 A 
ATOM     66  F   UNL     1       1.947  11.646   6.291  1.00  0.00    -0.203 F 
ATOM     67  C   UNL     1       0.065  10.270   5.952  1.00  0.00     0.198 A 
ATOM     68  C   UNL     1       0.148   8.482   4.371  1.00  0.00     0.198 A 
ATOM     69  F   UNL     1       2.099   8.072   3.177  1.00  0.00    -0.203 F 
ATOM     70  F   UNL     1      -0.613  10.978   6.865  1.00  0.00    -0.200 F 
ATOM     71  C   UNL     1      -0.553   9.206   5.314  1.00  0.00     0.200 A 
ATOM     72  F   UNL     1      -0.439   7.458   3.733  1.00  0.00    -0.200 F 
ATOM     73  F   UNL     1      -1.823   8.885   5.601  1.00  0.00    -0.200 F 
ENDBRANCH  40  63
ENDBRANCH  14  15
ENDBRANCH   7   9
ENDBRANCH   4   5
ENDBRANCH   3   4
ENDBRANCH   2   3
ENDBRANCH   1   2
BRANCH   1  74
ATOM     74  C   UNL     1       5.988  -3.815   1.920  1.00  0.00     0.021 C 
BRANCH  74  75
ATOM     75  C   UNL     1       6.835  -3.652   3.174  1.00  0.00     0.116 C 
BRANCH  75  76
ATOM     76  N   UNL     1       6.792  -4.841   4.000  1.00  0.00    -0.351 N 
ATOM     77  C   UNL     1       7.802  -5.690   4.375  1.00  0.00     0.267 C 
ATOM     78  H   UNL     1       5.901  -5.076   4.346  1.00  0.00     0.163 HD
ATOM     79  O   UNL     1       7.487  -6.801   4.802  1.00  0.00    -0.268 OA
BRANCH  77  80
ATOM     80  C   UNL     1       9.187  -5.281   4.283  1.00  0.00     0.105 A 
ATOM     81  C   UNL     1       9.784  -4.038   4.191  1.00  0.00     0.055 A 
ATOM     82  N   UNL     1      10.226  -6.188   4.384  1.00  0.00    -0.356 N 
ATOM     83  C   UNL     1      11.184  -4.186   4.320  1.00  0.00     0.106 A 
ATOM     84  C   UNL     1      11.436  -5.538   4.401  1.00  0.00     0.105 A 
ATOM     85  H   UNL     1      10.114  -7.165   4.436  1.00  0.00     0.166 HD
BRANCH  83  86
ATOM     86  S   UNL     1      12.281  -2.852   4.361  1.00  0.00     0.263 S 
ATOM     87  O   UNL     1      13.587  -3.444   4.604  1.00  0.00    -0.201 OA
ATOM     88  O   UNL     1      12.000  -2.118   3.155  1.00  0.00    -0.201 OA
BRANCH  86  89
ATOM     89  N   UNL     1      11.974  -1.803   5.677  1.00  0.00    -0.277 N 
ATOM     90  H   UNL     1      12.711  -1.443   6.221  1.00  0.00     0.180 HD
BRANCH  89  91
ATOM     91  C   UNL     1      10.606  -1.461   5.965  1.00  0.00     0.075 A 
ATOM     92  C   UNL     1      10.021  -0.417   5.233  1.00  0.00     0.029 A 
ATOM     93  C   UNL     1       9.797  -2.243   6.816  1.00  0.00     0.089 A 
ATOM     94  C   UNL     1       8.654  -0.143   5.346  1.00  0.00     0.002 A 
ATOM     95  C   UNL     1       8.417  -1.972   6.901  1.00  0.00     0.030 A 
ATOM     96  C   UNL     1       7.853  -0.921   6.177  1.00  0.00     0.002 A 
BRANCH  93  97
ATOM     97  N   UNL     1      10.303  -3.365   7.531  1.00  0.00    -0.238 N 
ATOM     98  C   UNL     1      11.605  -3.648   7.883  1.00  0.00     0.130 A 
ATOM     99  N   UNL     1       9.469  -4.384   7.889  1.00  0.00    -0.175 NA
ATOM    100  C   UNL     1      11.623  -4.962   8.256  1.00  0.00     0.056 A 
ATOM    101  C   UNL     1      10.293  -5.379   8.231  1.00  0.00     0.151 A 
ATOM    102  Br  UNL     1      13.099  -6.005   8.707  1.00  0.00    -0.047 Br
ENDBRANCH  93  97
ENDBRANCH  89  91
ENDBRANCH  86  89
ENDBRANCH  83  86
ENDBRANCH  77  80
ENDBRANCH  75  76
ENDBRANCH  74  75
ENDBRANCH   1  74
TORSDOF 17
