REMARK SMILES CC[C@H]1CCCCN1S(=O)(=O)c1ccc2oc(C(=O)NCCCCCCNC(=O)c3ccc(-c4c5nc(c(-c6c(F)c(F)c(F)c(F)c6F)c6ccc([nH]6)c(-c6c(F)c(F)c(F)c(F)c6F)c6nc(c(-c7c(F)c(F)c(F)c(F)c7F)c7ccc4[nH]7)C=C6)C=C5)cc3)c(C)c2c1
REMARK SMILES IDX 23 1 22 2 21 3 20 4 18 5 19 6 17 8 12 9 13 10 96 11 14 12
REMARK SMILES IDX 95 13 15 14 93 15 16 16 94 17 9 18 10 19 11 20 8 21 3 22
REMARK SMILES IDX 4 23 5 24 7 25 6 26 2 27 1 28 24 29 25 30 26 31 27 32 28 33
REMARK SMILES IDX 29 35 30 36 31 37 92 38 32 39 91 40 33 41 34 42 35 43 85 44
REMARK SMILES IDX 36 45 90 46 84 47 86 48 37 49 89 50 83 51 82 52 38 54 70 55
REMARK SMILES IDX 50 56 69 57 51 58 54 59 68 60 87 61 52 62 53 63 67 65 88 66
REMARK SMILES IDX 55 67 39 68 40 69 48 70 41 71 42 72 46 73 49 74 43 75 44 76
REMARK SMILES IDX 47 77 45 78 71 79 72 80 80 81 73 82 74 83 78 84 81 85 75 86
REMARK SMILES IDX 76 87 79 88 77 89 56 90 57 91 65 92 58 93 59 94 63 95 66 96
REMARK SMILES IDX 60 97 61 98 64 99 62 100
REMARK H PARENT 20 7 27 34 86 53 54 64
REMARK Flexibility Score: inf
ROOT
ATOM      1  C   UNL     1       2.872  12.096   4.077  1.00  0.00     0.002 C 
ENDROOT
BRANCH   1   2
ATOM      2  C   UNL     1       3.304  10.937   3.178  1.00  0.00     0.021 C 
BRANCH   2   3
ATOM      3  C   UNL     1       2.223   9.944   2.774  1.00  0.00     0.116 C 
BRANCH   3   4
ATOM      4  N   UNL     1       1.173  10.449   1.922  1.00  0.00    -0.349 N 
ATOM      5  C   UNL     1       0.310   9.751   1.091  1.00  0.00     0.287 C 
ATOM      6  O   UNL     1      -0.488  10.437   0.447  1.00  0.00    -0.266 OA
ATOM      7  H   UNL     1       1.052  11.426   1.933  1.00  0.00     0.163 HD
BRANCH   5   8
ATOM      8  C   UNL     1       0.393   8.300   0.958  1.00  0.00     0.195 A 
ATOM      9  C   UNL     1       0.994   3.818   0.228  1.00  0.00     0.083 A 
ATOM     10  C   UNL     1       0.250   4.127  -0.918  1.00  0.00     0.025 A 
ATOM     11  C   UNL     1       1.365   4.822   1.123  1.00  0.00     0.034 A 
ATOM     12  C   UNL     1      -0.138   5.461  -1.183  1.00  0.00     0.049 A 
ATOM     13  C   UNL     1       0.856   6.107   0.951  1.00  0.00     0.025 A 
ATOM     14  C   UNL     1       0.191   6.416  -0.217  1.00  0.00     0.135 A 
ATOM     15  C   UNL     1       0.778   7.250   1.786  1.00  0.00     0.008 A 
ATOM     16  O   UNL     1      -0.055   7.757  -0.241  1.00  0.00    -0.451 OA
ATOM     17  C   UNL     1       1.019   7.186   3.249  1.00  0.00     0.049 C 
BRANCH   9  18
ATOM     18  S   UNL     1       1.667   2.198   0.532  1.00  0.00     0.243 S 
ATOM     19  O   UNL     1       3.071   2.428   0.821  1.00  0.00    -0.207 OA
ATOM     20  O   UNL     1       1.254   1.336  -0.549  1.00  0.00    -0.207 OA
BRANCH  18  21
ATOM     21  N   UNL     1       0.924   1.615   1.981  1.00  0.00    -0.195 NA
ATOM     22  C   UNL     1       1.201   0.151   2.265  1.00  0.00     0.073 C 
ATOM     23  C   UNL     1       0.241  -0.310   3.383  1.00  0.00     0.020 C 
ATOM     24  C   UNL     1       0.417   0.505   4.659  1.00  0.00     0.003 C 
ATOM     25  C   UNL     1       1.035   2.470   3.197  1.00  0.00     0.103 C 
ATOM     26  C   UNL     1       0.178   1.969   4.352  1.00  0.00     0.017 C 
BRANCH  22  27
ATOM     27  C   UNL     1       2.664  -0.167   2.663  1.00  0.00     0.017 C 
ATOM     28  C   UNL     1       3.580  -0.553   1.507  1.00  0.00     0.005 C 
ENDBRANCH  22  27
ENDBRANCH  18  21
ENDBRANCH   9  18
ENDBRANCH   5   8
ENDBRANCH   3   4
ENDBRANCH   2   3
ENDBRANCH   1   2
BRANCH   1  29
ATOM     29  C   UNL     1       2.034  11.770   5.317  1.00  0.00     0.002 C 
BRANCH  29  30
ATOM     30  C   UNL     1       2.550  10.697   6.282  1.00  0.00     0.021 C 
BRANCH  30  31
ATOM     31  C   UNL     1       3.991  10.821   6.773  1.00  0.00     0.116 C 
BRANCH  31  32
ATOM     32  N   UNL     1       4.297  12.104   7.371  1.00  0.00    -0.352 N 
ATOM     33  C   UNL     1       4.980  12.428   8.517  1.00  0.00     0.251 C 
ATOM     34  H   UNL     1       3.956  12.879   6.869  1.00  0.00     0.163 HD
ATOM     35  O   UNL     1       5.061  13.611   8.841  1.00  0.00    -0.269 OA
BRANCH  33  36
ATOM     36  C   UNL     1       5.593  11.399   9.396  1.00  0.00     0.039 A 
ATOM     37  C   UNL     1       5.546  11.618  10.779  1.00  0.00     0.014 A 
ATOM     38  C   UNL     1       6.257  10.270   8.907  1.00  0.00     0.014 A 
ATOM     39  C   UNL     1       6.110  10.694  11.662  1.00  0.00     0.010 A 
ATOM     40  C   UNL     1       6.770   9.315   9.793  1.00  0.00     0.010 A 
ATOM     41  C   UNL     1       6.703   9.518  11.180  1.00  0.00    -0.014 A 
BRANCH  41  42
ATOM     42  C   UNL     1       7.230   8.502  12.130  1.00  0.00     0.031 A 
ATOM     43  C   UNL     1       8.705   8.235  12.242  1.00  0.00     0.074 A 
ATOM     44  C   UNL     1       6.367   7.803  12.893  1.00  0.00     0.049 A 
ATOM     45  N   UNL     1       9.339   7.416  13.046  1.00  0.00    -0.248 NA
ATOM     46  C   UNL     1       9.584   8.965  11.318  1.00  0.00     0.031 C 
ATOM     47  C   UNL     1       4.909   7.924  12.842  1.00  0.00     0.029 A 
ATOM     48  N   UNL     1       6.589   6.856  13.861  1.00  0.00    -0.354 N 
ATOM     49  C   UNL     1      10.684   7.528  12.722  1.00  0.00     0.074 A 
ATOM     50  C   UNL     1      10.773   8.460  11.617  1.00  0.00     0.031 C 
ATOM     51  C   UNL     1       4.369   7.106  13.760  1.00  0.00     0.029 A 
ATOM     52  C   UNL     1       5.438   6.392  14.451  1.00  0.00     0.049 A 
ATOM     53  H   UNL     1       7.487   6.539  14.110  1.00  0.00     0.167 HD
ATOM     54  C   UNL     1      11.750   6.926  13.304  1.00  0.00     0.037 A 
ATOM     55  C   UNL     1       5.264   5.503  15.446  1.00  0.00     0.037 A 
ATOM     56  C   UNL     1      11.668   6.017  14.418  1.00  0.00     0.049 A 
ATOM     57  C   UNL     1       6.465   4.881  16.102  1.00  0.00     0.074 A 
ATOM     58  C   UNL     1      12.698   5.402  15.110  1.00  0.00     0.029 A 
ATOM     59  N   UNL     1      10.486   5.593  15.006  1.00  0.00    -0.354 N 
ATOM     60  N   UNL     1       7.735   5.052  15.833  1.00  0.00    -0.248 NA
ATOM     61  C   UNL     1       6.205   3.953  17.212  1.00  0.00     0.031 C 
ATOM     62  C   UNL     1      12.138   4.580  16.096  1.00  0.00     0.029 A 
ATOM     63  C   UNL     1      10.760   4.714  16.042  1.00  0.00     0.049 A 
ATOM     64  H   UNL     1       9.585   5.875  14.728  1.00  0.00     0.167 HD
ATOM     65  C   UNL     1       8.427   4.273  16.750  1.00  0.00     0.074 A 
ATOM     66  C   UNL     1       7.435   3.643  17.597  1.00  0.00     0.031 C 
ATOM     67  C   UNL     1       9.764   4.092  16.876  1.00  0.00     0.037 A 
BRANCH  54  68
ATOM     68  C   UNL     1      13.109   7.239  12.749  1.00  0.00     0.064 A 
ATOM     69  C   UNL     1      13.717   8.485  12.959  1.00  0.00     0.173 A 
ATOM     70  C   UNL     1      13.829   6.269  12.035  1.00  0.00     0.173 A 
ATOM     71  F   UNL     1      13.066   9.449  13.626  1.00  0.00    -0.203 F 
ATOM     72  C   UNL     1      14.986   8.758  12.455  1.00  0.00     0.198 A 
ATOM     73  C   UNL     1      15.108   6.536  11.554  1.00  0.00     0.198 A 
ATOM     74  F   UNL     1      13.295   5.058  11.812  1.00  0.00    -0.203 F 
ATOM     75  F   UNL     1      15.530   9.969  12.633  1.00  0.00    -0.200 F 
ATOM     76  C   UNL     1      15.683   7.781  11.758  1.00  0.00     0.200 A 
ATOM     77  F   UNL     1      15.785   5.588  10.890  1.00  0.00    -0.200 F 
ATOM     78  F   UNL     1      16.906   8.043  11.278  1.00  0.00    -0.200 F 
ENDBRANCH  54  68
BRANCH  55  79
ATOM     79  C   UNL     1       3.893   5.184  15.918  1.00  0.00     0.064 A 
ATOM     80  C   UNL     1       3.434   5.650  17.158  1.00  0.00     0.173 A 
ATOM     81  C   UNL     1       3.016   4.413  15.142  1.00  0.00     0.173 A 
ATOM     82  F   UNL     1       4.245   6.373  17.943  1.00  0.00    -0.203 F 
ATOM     83  C   UNL     1       2.154   5.341  17.612  1.00  0.00     0.198 A 
ATOM     84  C   UNL     1       1.728   4.126  15.587  1.00  0.00     0.198 A 
ATOM     85  F   UNL     1       3.408   3.950  13.946  1.00  0.00    -0.203 F 
ATOM     86  F   UNL     1       1.753   5.766  18.818  1.00  0.00    -0.200 F 
ATOM     87  C   UNL     1       1.300   4.584  16.824  1.00  0.00     0.200 A 
ATOM     88  F   UNL     1       0.901   3.404  14.818  1.00  0.00    -0.200 F 
ATOM     89  F   UNL     1       0.067   4.291  17.259  1.00  0.00    -0.200 F 
ENDBRANCH  55  79
BRANCH  67  90
ATOM     90  C   UNL     1      10.227   3.190  17.982  1.00  0.00     0.064 A 
ATOM     91  C   UNL     1      10.062   1.799  17.910  1.00  0.00     0.173 A 
ATOM     92  C   UNL     1      10.849   3.722  19.121  1.00  0.00     0.173 A 
ATOM     93  F   UNL     1       9.457   1.245  16.848  1.00  0.00    -0.203 F 
ATOM     94  C   UNL     1      10.473   0.975  18.955  1.00  0.00     0.198 A 
ATOM     95  C   UNL     1      11.282   2.893  20.152  1.00  0.00     0.198 A 
ATOM     96  F   UNL     1      11.035   5.045  19.235  1.00  0.00    -0.203 F 
ATOM     97  F   UNL     1      10.256  -0.346  18.889  1.00  0.00    -0.200 F 
ATOM     98  C   UNL     1      11.086   1.522  20.072  1.00  0.00     0.200 A 
ATOM     99  F   UNL     1      11.881   3.421  21.228  1.00  0.00    -0.200 F 
ATOM    100  F   UNL     1      11.476   0.728  21.079  1.00  0.00    -0.200 F 
ENDBRANCH  67  90
ENDBRANCH  41  42
ENDBRANCH  33  36
ENDBRANCH  31  32
ENDBRANCH  30  31
ENDBRANCH  29  30
ENDBRANCH   1  29
TORSDOF 16
