REMARK SMILES O=C(NCCCCCCNC(=O)c1ccc(-c2c3nc(c(-c4c(F)c(F)c(F)c(F)c4F)c4ccc([nH]4)c(-c4c(F)c(F)c(F)c(F)c4F)c4nc(c(-c5c(F)c(F)c(F)c(F)c5F)c5ccc2[nH]5)C=C4)C=C3)cc1)C1=Cc2cc(C(F)(F)F)ccc2O[C@@H]1C(F)(F)F
REMARK SMILES IDX 7 1 6 2 5 3 4 4 3 5 1 6 2 7 76 9 77 10 89 11 78 12 88 13
REMARK SMILES IDX 79 14 87 15 80 16 86 17 85 18 90 19 91 20 92 21 93 22 81 23
REMARK SMILES IDX 82 24 83 25 84 26 8 27 9 28 10 29 11 30 12 32 13 33 14 34
REMARK SMILES IDX 75 35 15 36 74 37 16 38 17 39 18 40 68 41 19 42 73 43 67 44
REMARK SMILES IDX 69 45 20 46 72 47 66 48 65 49 21 51 53 52 33 53 52 54 34 55
REMARK SMILES IDX 37 56 51 57 70 58 35 59 36 60 50 62 71 63 38 64 22 65 23 66
REMARK SMILES IDX 31 67 24 68 25 69 29 70 32 71 26 72 27 73 30 74 28 75 54 76
REMARK SMILES IDX 55 77 63 78 56 79 57 80 61 81 64 82 58 83 59 84 62 85 60 86
REMARK SMILES IDX 39 87 40 88 48 89 41 90 42 91 46 92 49 93 43 94 44 95 47 96
REMARK SMILES IDX 45 97
REMARK H PARENT 3 8 10 31 69 50 37 61
REMARK Flexibility Score: inf
ROOT
ATOM      1  C   UNL     1       4.453   3.003   3.578  1.00  0.00     0.002 C 
ENDROOT
BRANCH   1   2
ATOM      2  C   UNL     1       3.784   3.744   2.414  1.00  0.00     0.002 C 
BRANCH   2   3
ATOM      3  C   UNL     1       4.139   3.276   1.005  1.00  0.00     0.021 C 
BRANCH   3   4
ATOM      4  C   UNL     1       3.881   1.808   0.691  1.00  0.00     0.116 C 
BRANCH   4   5
ATOM      5  N   UNL     1       2.564   1.496   0.170  1.00  0.00    -0.352 N 
ATOM      6  O   UNL     1       0.947   0.256  -0.770  1.00  0.00    -0.270 OA
ATOM      7  C   UNL     1       2.147   0.400  -0.536  1.00  0.00     0.251 C 
ATOM      8  H   UNL     1       1.870   2.170   0.350  1.00  0.00     0.163 HD
BRANCH   7   9
ATOM      9  C   UNL     1       3.080  -0.686  -0.966  1.00  0.00     0.067 C 
ATOM     10  C   UNL     1       4.302  -0.438  -1.472  1.00  0.00     0.025 C 
ATOM     11  C   UNL     1       2.860  -1.980  -0.211  1.00  0.00     0.314 C 
ATOM     12  C   UNL     1       5.354  -0.753  -0.469  1.00  0.00     0.018 A 
ATOM     13  O   UNL     1       3.836  -2.136   0.858  1.00  0.00    -0.475 OA
ATOM     14  C   UNL     1       6.564  -0.054  -0.543  1.00  0.00     0.025 A 
ATOM     15  C   UNL     1       5.037  -1.495   0.680  1.00  0.00     0.128 A 
ATOM     16  C   UNL     1       7.404   0.017   0.578  1.00  0.00     0.056 A 
ATOM     17  C   UNL     1       5.907  -1.494   1.767  1.00  0.00     0.048 A 
ATOM     18  C   UNL     1       7.072  -0.723   1.726  1.00  0.00     0.017 A 
BRANCH  11  19
ATOM     19  C   UNL     1       2.844  -3.212  -1.130  1.00  0.00     0.429 C 
ATOM     20  F   UNL     1       2.495  -4.329  -0.448  1.00  0.00    -0.167 F 
ATOM     21  F   UNL     1       1.955  -3.072  -2.141  1.00  0.00    -0.167 F 
ATOM     22  F   UNL     1       4.053  -3.450  -1.694  1.00  0.00    -0.167 F 
ENDBRANCH  11  19
BRANCH  16  23
ATOM     23  C   UNL     1       8.593   0.947   0.566  1.00  0.00     0.416 C 
ATOM     24  F   UNL     1       9.678   0.416  -0.052  1.00  0.00    -0.166 F 
ATOM     25  F   UNL     1       8.323   2.120  -0.078  1.00  0.00    -0.166 F 
ATOM     26  F   UNL     1       8.998   1.312   1.815  1.00  0.00    -0.166 F 
ENDBRANCH  16  23
ENDBRANCH   7   9
ENDBRANCH   4   5
ENDBRANCH   3   4
ENDBRANCH   2   3
ENDBRANCH   1   2
BRANCH   1  27
ATOM     27  C   UNL     1       5.973   2.828   3.511  1.00  0.00     0.021 C 
BRANCH  27  28
ATOM     28  C   UNL     1       6.797   4.097   3.308  1.00  0.00     0.116 C 
BRANCH  28  29
ATOM     29  N   UNL     1       6.572   5.095   4.339  1.00  0.00    -0.352 N 
ATOM     30  C   UNL     1       7.467   5.783   5.120  1.00  0.00     0.251 C 
ATOM     31  H   UNL     1       5.626   5.312   4.504  1.00  0.00     0.163 HD
ATOM     32  O   UNL     1       7.056   6.496   6.030  1.00  0.00    -0.269 OA
BRANCH  30  33
ATOM     33  C   UNL     1       8.926   5.656   4.898  1.00  0.00     0.039 A 
ATOM     34  C   UNL     1       9.765   5.568   6.013  1.00  0.00     0.014 A 
ATOM     35  C   UNL     1       9.478   5.660   3.614  1.00  0.00     0.014 A 
ATOM     36  C   UNL     1      11.145   5.427   5.842  1.00  0.00     0.010 A 
ATOM     37  C   UNL     1      10.845   5.444   3.442  1.00  0.00     0.010 A 
ATOM     38  C   UNL     1      11.694   5.331   4.553  1.00  0.00    -0.014 A 
BRANCH  38  39
ATOM     39  C   UNL     1      13.153   5.119   4.355  1.00  0.00     0.031 A 
ATOM     40  C   UNL     1      13.987   6.168   3.670  1.00  0.00     0.074 A 
ATOM     41  C   UNL     1      13.717   3.959   4.746  1.00  0.00     0.049 A 
ATOM     42  N   UNL     1      15.259   6.144   3.362  1.00  0.00    -0.248 NA
ATOM     43  C   UNL     1      13.294   7.397   3.254  1.00  0.00     0.031 C 
ATOM     44  C   UNL     1      13.010   2.849   5.385  1.00  0.00     0.029 A 
ATOM     45  N   UNL     1      15.015   3.518   4.657  1.00  0.00    -0.354 N 
ATOM     46  C   UNL     1      15.512   7.340   2.702  1.00  0.00     0.074 A 
ATOM     47  C   UNL     1      14.254   8.047   2.612  1.00  0.00     0.031 C 
ATOM     48  C   UNL     1      13.885   1.867   5.657  1.00  0.00     0.029 A 
ATOM     49  C   UNL     1      15.205   2.258   5.173  1.00  0.00     0.049 A 
ATOM     50  H   UNL     1      15.740   4.053   4.262  1.00  0.00     0.167 HD
ATOM     51  C   UNL     1      16.692   7.813   2.232  1.00  0.00     0.037 A 
ATOM     52  C   UNL     1      16.318   1.503   5.241  1.00  0.00     0.037 A 
ATOM     53  C   UNL     1      17.948   7.120   2.353  1.00  0.00     0.049 A 
ATOM     54  C   UNL     1      17.611   2.050   4.698  1.00  0.00     0.074 A 
ATOM     55  C   UNL     1      19.209   7.550   1.978  1.00  0.00     0.029 A 
ATOM     56  N   UNL     1      18.101   5.849   2.885  1.00  0.00    -0.354 N 
ATOM     57  N   UNL     1      17.853   3.216   4.149  1.00  0.00    -0.248 NA
ATOM     58  C   UNL     1      18.789   1.175   4.787  1.00  0.00     0.031 C 
ATOM     59  C   UNL     1      20.116   6.516   2.228  1.00  0.00     0.029 A 
ATOM     60  C   UNL     1      19.432   5.466   2.817  1.00  0.00     0.049 A 
ATOM     61  H   UNL     1      17.373   5.299   3.256  1.00  0.00     0.167 HD
ATOM     62  C   UNL     1      19.212   3.229   3.863  1.00  0.00     0.074 A 
ATOM     63  C   UNL     1      19.745   1.960   4.311  1.00  0.00     0.031 C 
ATOM     64  C   UNL     1      19.951   4.205   3.281  1.00  0.00     0.037 A 
BRANCH  51  65
ATOM     65  C   UNL     1      16.686   9.145   1.538  1.00  0.00     0.064 A 
ATOM     66  C   UNL     1      16.462  10.342   2.235  1.00  0.00     0.173 A 
ATOM     67  C   UNL     1      16.961   9.230   0.164  1.00  0.00     0.173 A 
ATOM     68  F   UNL     1      16.185  10.318   3.547  1.00  0.00    -0.203 F 
ATOM     69  C   UNL     1      16.488  11.570   1.578  1.00  0.00     0.198 A 
ATOM     70  C   UNL     1      17.018  10.462  -0.483  1.00  0.00     0.198 A 
ATOM     71  F   UNL     1      17.190   8.117  -0.550  1.00  0.00    -0.203 F 
ATOM     72  F   UNL     1      16.225  12.696   2.256  1.00  0.00    -0.200 F 
ATOM     73  C   UNL     1      16.774  11.630   0.223  1.00  0.00     0.200 A 
ATOM     74  F   UNL     1      17.311  10.518  -1.790  1.00  0.00    -0.200 F 
ATOM     75  F   UNL     1      16.811  12.813  -0.405  1.00  0.00    -0.200 F 
ENDBRANCH  51  65
BRANCH  52  76
ATOM     76  C   UNL     1      16.271   0.153   5.866  1.00  0.00     0.064 A 
ATOM     77  C   UNL     1      16.945  -0.105   7.069  1.00  0.00     0.173 A 
ATOM     78  C   UNL     1      15.579  -0.909   5.267  1.00  0.00     0.173 A 
ATOM     79  F   UNL     1      17.640   0.872   7.670  1.00  0.00    -0.203 F 
ATOM     80  C   UNL     1      16.952  -1.380   7.632  1.00  0.00     0.198 A 
ATOM     81  C   UNL     1      15.559  -2.175   5.849  1.00  0.00     0.198 A 
ATOM     82  F   UNL     1      14.914  -0.716   4.119  1.00  0.00    -0.203 F 
ATOM     83  F   UNL     1      17.653  -1.611   8.751  1.00  0.00    -0.200 F 
ATOM     84  C   UNL     1      16.255  -2.412   7.024  1.00  0.00     0.200 A 
ATOM     85  F   UNL     1      14.872  -3.167   5.266  1.00  0.00    -0.200 F 
ATOM     86  F   UNL     1      16.263  -3.638   7.565  1.00  0.00    -0.200 F 
ENDBRANCH  52  76
BRANCH  64  87
ATOM     87  C   UNL     1      21.427   3.961   3.138  1.00  0.00     0.064 A 
ATOM     88  C   UNL     1      21.936   3.023   2.227  1.00  0.00     0.173 A 
ATOM     89  C   UNL     1      22.344   4.704   3.896  1.00  0.00     0.173 A 
ATOM     90  F   UNL     1      21.101   2.276   1.489  1.00  0.00    -0.203 F 
ATOM     91  C   UNL     1      23.308   2.820   2.102  1.00  0.00     0.198 A 
ATOM     92  C   UNL     1      23.715   4.523   3.744  1.00  0.00     0.198 A 
ATOM     93  F   UNL     1      21.910   5.619   4.776  1.00  0.00    -0.203 F 
ATOM     94  F   UNL     1      23.770   1.882   1.264  1.00  0.00    -0.200 F 
ATOM     95  C   UNL     1      24.196   3.575   2.853  1.00  0.00     0.200 A 
ATOM     96  F   UNL     1      24.572   5.265   4.459  1.00  0.00    -0.200 F 
ATOM     97  F   UNL     1      25.516   3.384   2.725  1.00  0.00    -0.200 F 
ENDBRANCH  64  87
ENDBRANCH  38  39
ENDBRANCH  30  33
ENDBRANCH  28  29
ENDBRANCH  27  28
ENDBRANCH   1  27
TORSDOF 15
