REMARK SMILES Cc1cc([C@H]([NH3+])C(=O)NCCCCCCNC(=O)c2ccc(-c3c4nc(c(-c5c(F)c(F)c(F)c(F)c5F)c5ccc([nH]5)c(-c5c(F)c(F)c(F)c(F)c5F)c5nc(c(-c6c(F)c(F)c(F)c(F)c6F)c6ccc3[nH]6)C=C5)C=C4)cc2)ccc1Cl
REMARK SMILES IDX 13 1 12 2 11 3 10 4 9 5 7 6 8 7 5 9 4 10 1 11 2 12 3 13
REMARK SMILES IDX 84 14 83 15 85 16 82 17 6 18 14 22 15 23 16 24 17 25 18 27
REMARK SMILES IDX 19 28 20 29 81 30 21 31 80 32 22 33 23 34 24 35 74 36 25 37
REMARK SMILES IDX 79 38 73 39 75 40 26 41 78 42 72 43 71 44 27 46 59 47 39 48
REMARK SMILES IDX 58 49 40 50 43 51 57 52 76 53 41 54 42 55 56 57 77 58 44 59
REMARK SMILES IDX 28 60 29 61 37 62 30 63 31 64 35 65 38 66 32 67 33 68 36 69
REMARK SMILES IDX 34 70 60 71 61 72 69 73 62 74 63 75 67 76 70 77 64 78 65 79
REMARK SMILES IDX 68 80 66 81 45 82 46 83 54 84 47 85 48 86 52 87 55 88 49 89
REMARK SMILES IDX 50 90 53 91 51 92
REMARK H PARENT 9 8 6 19 6 20 6 21 16 26 75 45 43 56
REMARK Flexibility Score: inf
ROOT
ATOM      1  C   UNL     1      -3.683  -5.423   2.195  1.00  0.00     0.002 C 
ENDROOT
BRANCH   1   2
ATOM      2  C   UNL     1      -2.799  -4.374   2.883  1.00  0.00     0.002 C 
BRANCH   2   3
ATOM      3  C   UNL     1      -2.079  -3.376   1.966  1.00  0.00     0.021 C 
BRANCH   3   4
ATOM      4  C   UNL     1      -2.976  -2.674   0.956  1.00  0.00     0.116 C 
BRANCH   4   5
ATOM      5  N   UNL     1      -3.970  -1.807   1.561  1.00  0.00    -0.351 N 
ATOM      6  C   UNL     1      -4.588  -0.690   1.064  1.00  0.00     0.283 C 
ATOM      7  O   UNL     1      -5.516  -0.224   1.738  1.00  0.00    -0.268 OA
ATOM      8  H   UNL     1      -4.244  -2.061   2.471  1.00  0.00     0.163 HD
BRANCH   6   9
ATOM      9  C   UNL     1      -4.178  -0.009  -0.271  1.00  0.00     0.302 C 
BRANCH   9  10
ATOM     10  C   UNL     1      -4.728  -0.625  -1.551  1.00  0.00     0.019 A 
ATOM     11  C   UNL     1      -4.972  -4.074  -3.131  1.00  0.00     0.046 C 
ATOM     12  C   UNL     1      -5.068  -2.580  -2.996  1.00  0.00    -0.032 A 
ATOM     13  C   UNL     1      -4.839  -2.006  -1.738  1.00  0.00     0.015 A 
ATOM     14  C   UNL     1      -5.340  -1.733  -4.072  1.00  0.00     0.043 A 
ATOM     15  C   UNL     1      -5.332  -0.348  -3.894  1.00  0.00     0.021 A 
ATOM     16  Cl  UNL     1      -5.678  -2.355  -5.645  1.00  0.00    -0.084 Cl
ATOM     17  C   UNL     1      -5.003   0.202  -2.652  1.00  0.00     0.012 A 
ENDBRANCH   9  10
BRANCH   9  18
ATOM     18  N   UNL     1      -2.710   0.153  -0.367  1.00  0.00    -0.343 N 
ATOM     19  H   UNL     1      -2.269  -0.765  -0.424  1.00  0.00     0.345 HD
ATOM     20  H   UNL     1      -2.367   0.644   0.458  1.00  0.00     0.345 HD
ATOM     21  H   UNL     1      -2.481   0.692  -1.203  1.00  0.00     0.345 HD
ENDBRANCH   9  18
ENDBRANCH   6   9
ENDBRANCH   4   5
ENDBRANCH   3   4
ENDBRANCH   2   3
ENDBRANCH   1   2
BRANCH   1  22
ATOM     22  C   UNL     1      -3.017  -6.253   1.096  1.00  0.00     0.021 C 
BRANCH  22  23
ATOM     23  C   UNL     1      -1.723  -6.950   1.498  1.00  0.00     0.116 C 
BRANCH  23  24
ATOM     24  N   UNL     1      -1.902  -7.869   2.610  1.00  0.00    -0.352 N 
ATOM     25  C   UNL     1      -1.518  -9.183   2.730  1.00  0.00     0.251 C 
ATOM     26  H   UNL     1      -2.368  -7.495   3.392  1.00  0.00     0.163 HD
ATOM     27  O   UNL     1      -1.883  -9.850   3.689  1.00  0.00    -0.269 OA
BRANCH  25  28
ATOM     28  C   UNL     1      -0.685  -9.802   1.676  1.00  0.00     0.039 A 
ATOM     29  C   UNL     1      -1.043 -11.063   1.192  1.00  0.00     0.014 A 
ATOM     30  C   UNL     1       0.432  -9.140   1.159  1.00  0.00     0.014 A 
ATOM     31  C   UNL     1      -0.328 -11.625   0.133  1.00  0.00     0.010 A 
ATOM     32  C   UNL     1       1.098  -9.669   0.057  1.00  0.00     0.010 A 
ATOM     33  C   UNL     1       0.719 -10.912  -0.473  1.00  0.00    -0.014 A 
BRANCH  33  34
ATOM     34  C   UNL     1       1.406 -11.431  -1.683  1.00  0.00     0.031 A 
ATOM     35  C   UNL     1       2.870 -11.763  -1.639  1.00  0.00     0.074 A 
ATOM     36  C   UNL     1       0.724 -11.528  -2.841  1.00  0.00     0.049 A 
ATOM     37  N   UNL     1       3.663 -12.139  -2.611  1.00  0.00    -0.248 NA
ATOM     38  C   UNL     1       3.539 -11.633  -0.336  1.00  0.00     0.031 C 
ATOM     39  C   UNL     1      -0.691 -11.198  -3.018  1.00  0.00     0.029 A 
ATOM     40  N   UNL     1       1.133 -11.917  -4.093  1.00  0.00    -0.354 N 
ATOM     41  C   UNL     1       4.921 -12.279  -2.041  1.00  0.00     0.074 A 
ATOM     42  C   UNL     1       4.798 -11.898  -0.650  1.00  0.00     0.031 C 
ATOM     43  C   UNL     1      -1.037 -11.415  -4.296  1.00  0.00     0.029 A 
ATOM     44  C   UNL     1       0.140 -11.851  -5.040  1.00  0.00     0.049 A 
ATOM     45  H   UNL     1       2.050 -12.216  -4.292  1.00  0.00     0.167 HD
ATOM     46  C   UNL     1       6.068 -12.707  -2.621  1.00  0.00     0.037 A 
ATOM     47  C   UNL     1       0.179 -12.096  -6.364  1.00  0.00     0.037 A 
ATOM     48  C   UNL     1       6.179 -13.096  -4.003  1.00  0.00     0.049 A 
ATOM     49  C   UNL     1       1.476 -12.532  -6.991  1.00  0.00     0.074 A 
ATOM     50  C   UNL     1       7.282 -13.599  -4.670  1.00  0.00     0.029 A 
ATOM     51  N   UNL     1       5.152 -13.016  -4.932  1.00  0.00    -0.354 N 
ATOM     52  N   UNL     1       2.643 -12.730  -6.427  1.00  0.00    -0.248 NA
ATOM     53  C   UNL     1       1.462 -12.779  -8.440  1.00  0.00     0.031 C 
ATOM     54  C   UNL     1       6.941 -13.764  -6.016  1.00  0.00     0.029 A 
ATOM     55  C   UNL     1       5.606 -13.426  -6.176  1.00  0.00     0.049 A 
ATOM     56  H   UNL     1       4.236 -12.713  -4.737  1.00  0.00     0.167 HD
ATOM     57  C   UNL     1       3.492 -13.150  -7.442  1.00  0.00     0.074 A 
ATOM     58  C   UNL     1       2.702 -13.195  -8.655  1.00  0.00     0.031 C 
ATOM     59  C   UNL     1       4.808 -13.470  -7.375  1.00  0.00     0.037 A 
BRANCH  46  60
ATOM     60  C   UNL     1       7.300 -12.771  -1.764  1.00  0.00     0.064 A 
ATOM     61  C   UNL     1       7.431 -13.709  -0.728  1.00  0.00     0.173 A 
ATOM     62  C   UNL     1       8.383 -11.913  -2.010  1.00  0.00     0.173 A 
ATOM     63  F   UNL     1       6.422 -14.547  -0.445  1.00  0.00    -0.203 F 
ATOM     64  C   UNL     1       8.586 -13.765   0.048  1.00  0.00     0.198 A 
ATOM     65  C   UNL     1       9.550 -11.994  -1.254  1.00  0.00     0.198 A 
ATOM     66  F   UNL     1       8.316 -11.002  -2.992  1.00  0.00    -0.203 F 
ATOM     67  F   UNL     1       8.666 -14.634   1.065  1.00  0.00    -0.200 F 
ATOM     68  C   UNL     1       9.647 -12.914  -0.220  1.00  0.00     0.200 A 
ATOM     69  F   UNL     1      10.580 -11.182  -1.525  1.00  0.00    -0.200 F 
ATOM     70  F   UNL     1      10.761 -12.975   0.522  1.00  0.00    -0.200 F 
ENDBRANCH  46  60
BRANCH  47  71
ATOM     71  C   UNL     1      -1.050 -11.938  -7.186  1.00  0.00     0.064 A 
ATOM     72  C   UNL     1      -1.675 -13.050  -7.769  1.00  0.00     0.173 A 
ATOM     73  C   UNL     1      -1.622 -10.677  -7.413  1.00  0.00     0.173 A 
ATOM     74  F   UNL     1      -1.155 -14.275  -7.599  1.00  0.00    -0.203 F 
ATOM     75  C   UNL     1      -2.810 -12.904  -8.564  1.00  0.00     0.198 A 
ATOM     76  C   UNL     1      -2.775 -10.536  -8.181  1.00  0.00     0.198 A 
ATOM     77  F   UNL     1      -1.067  -9.581  -6.875  1.00  0.00    -0.203 F 
ATOM     78  F   UNL     1      -3.357 -13.978  -9.149  1.00  0.00    -0.200 F 
ATOM     79  C   UNL     1      -3.363 -11.648  -8.764  1.00  0.00     0.200 A 
ATOM     80  F   UNL     1      -3.315  -9.323  -8.358  1.00  0.00    -0.200 F 
ATOM     81  F   UNL     1      -4.457 -11.509  -9.525  1.00  0.00    -0.200 F 
ENDBRANCH  47  71
BRANCH  59  82
ATOM     82  C   UNL     1       5.474 -13.926  -8.641  1.00  0.00     0.064 A 
ATOM     83  C   UNL     1       5.744 -13.039  -9.693  1.00  0.00     0.173 A 
ATOM     84  C   UNL     1       5.895 -15.258  -8.782  1.00  0.00     0.173 A 
ATOM     85  F   UNL     1       5.348 -11.759  -9.616  1.00  0.00    -0.203 F 
ATOM     86  C   UNL     1       6.391 -13.473 -10.848  1.00  0.00     0.198 A 
ATOM     87  C   UNL     1       6.571 -15.680  -9.922  1.00  0.00     0.198 A 
ATOM     88  F   UNL     1       5.667 -16.146  -7.802  1.00  0.00    -0.203 F 
ATOM     89  F   UNL     1       6.597 -12.618 -11.859  1.00  0.00    -0.200 F 
ATOM     90  C   UNL     1       6.812 -14.789 -10.957  1.00  0.00     0.200 A 
ATOM     91  F   UNL     1       6.992 -16.948 -10.019  1.00  0.00    -0.200 F 
ATOM     92  F   UNL     1       7.447 -15.201 -12.063  1.00  0.00    -0.200 F 
ENDBRANCH  59  82
ENDBRANCH  33  34
ENDBRANCH  25  28
ENDBRANCH  23  24
ENDBRANCH  22  23
ENDBRANCH   1  22
TORSDOF 15
