REMARK SMILES Cc1ccc(-c2cnnc(-n3nc(C)c4c3NC(=O)C[C@@H]4c3ccc(C(=O)NCCCCCCNC(=O)c4ccc(-c5c6nc(c(-c7c(F)c(F)c(F)c(F)c7F)c7ccc([nH]7)c(-c7c(F)c(F)c(F)c(F)c7F)c7nc(c(-c8c(F)c(F)c(F)c(F)c8F)c8ccc5[nH]8)C=C7)C=C6)cc4)cc3)n2)cc1
REMARK SMILES IDX 31 1 30 2 29 3 28 4 26 5 27 6 25 8 22 9 23 10 102 11 24 12
REMARK SMILES IDX 101 13 21 14 11 15 12 16 16 17 13 18 15 19 17 20 14 21 18 22
REMARK SMILES IDX 20 24 19 25 10 26 6 27 7 28 103 29 8 30 9 31 5 32 1 33 2 34
REMARK SMILES IDX 3 35 105 36 4 37 104 38 32 39 33 40 34 41 35 42 36 43 37 45
REMARK SMILES IDX 38 46 39 47 100 48 40 49 99 50 41 51 42 52 43 53 93 54 44 55
REMARK SMILES IDX 98 56 92 57 94 58 45 59 97 60 91 61 90 62 46 64 78 65 58 66
REMARK SMILES IDX 77 67 59 68 62 69 76 70 95 71 60 72 61 73 75 75 96 76 63 77
REMARK SMILES IDX 47 78 48 79 56 80 49 81 50 82 54 83 57 84 51 85 52 86 55 87
REMARK SMILES IDX 53 88 79 89 80 90 88 91 81 92 82 93 86 94 89 95 83 96 84 97
REMARK SMILES IDX 87 98 85 99 64 100 65 101 73 102 66 103 67 104 71 105 74 106
REMARK SMILES IDX 68 107 69 108 72 109 70 110
REMARK H PARENT 28 7 17 23 35 44 94 63 62 74
REMARK Flexibility Score: inf
ROOT
ATOM      1  C   UNL     1     -12.553   7.891  -6.226  1.00  0.00     0.002 C 
ENDROOT
BRANCH   1   2
ATOM      2  C   UNL     1     -11.449   6.886  -5.866  1.00  0.00     0.021 C 
BRANCH   2   3
ATOM      3  C   UNL     1     -11.704   5.468  -6.382  1.00  0.00     0.116 C 
BRANCH   3   4
ATOM      4  N   UNL     1     -11.559   5.403  -7.828  1.00  0.00    -0.352 N 
ATOM      5  C   UNL     1     -10.655   4.738  -8.619  1.00  0.00     0.251 C 
ATOM      6  O   UNL     1     -10.816   4.713  -9.836  1.00  0.00    -0.269 OA
ATOM      7  H   UNL     1     -12.226   5.928  -8.327  1.00  0.00     0.163 HD
BRANCH   5   8
ATOM      8  C   UNL     1      -9.529   3.988  -8.022  1.00  0.00     0.039 A 
ATOM      9  C   UNL     1      -7.699   2.337  -6.680  1.00  0.00    -0.040 A 
ATOM     10  C   UNL     1      -8.318   1.904  -7.868  1.00  0.00     0.005 A 
ATOM     11  C   UNL     1      -7.866   3.677  -6.302  1.00  0.00     0.005 A 
ATOM     12  C   UNL     1      -9.222   2.728  -8.539  1.00  0.00     0.014 A 
ATOM     13  C   UNL     1      -8.783   4.492  -6.960  1.00  0.00     0.014 A 
BRANCH   9  14
ATOM     14  C   UNL     1      -6.937   1.312  -5.866  1.00  0.00     0.064 C 
ATOM     15  N   UNL     1      -5.814   2.113  -2.522  1.00  0.00    -0.180 N 
ATOM     16  N   UNL     1      -7.103   2.509  -2.319  1.00  0.00    -0.168 NA
ATOM     17  C   UNL     1      -5.571   2.092  -3.886  1.00  0.00     0.143 A 
ATOM     18  C   UNL     1      -7.730   2.175  -3.451  1.00  0.00     0.066 A 
ATOM     19  C   UNL     1      -6.796   1.780  -4.452  1.00  0.00     0.026 A 
ATOM     20  N   UNL     1      -4.473   2.342  -4.688  1.00  0.00    -0.310 N 
ATOM     21  C   UNL     1      -9.195   2.405  -3.521  1.00  0.00     0.069 C 
ATOM     22  C   UNL     1      -4.578   2.050  -6.094  1.00  0.00     0.226 C 
ATOM     23  H   UNL     1      -3.643   2.709  -4.309  1.00  0.00     0.171 HD
ATOM     24  C   UNL     1      -5.571   0.973  -6.462  1.00  0.00     0.113 C 
ATOM     25  O   UNL     1      -3.815   2.604  -6.849  1.00  0.00    -0.275 OA
BRANCH  15  26
ATOM     26  C   UNL     1      -5.118   1.393  -1.503  1.00  0.00     0.272 A 
ATOM     27  C   UNL     1      -3.300   0.334  -0.618  1.00  0.00     0.095 A 
ATOM     28  C   UNL     1      -4.122  -0.277   0.314  1.00  0.00     0.164 A 
ATOM     29  N   UNL     1      -3.793   1.149  -1.598  1.00  0.00    -0.208 NA
ATOM     30  N   UNL     1      -5.436  -0.031   0.341  1.00  0.00    -0.153 NA
ATOM     31  N   UNL     1      -5.927   0.850  -0.553  1.00  0.00    -0.109 NA
BRANCH  27  32
ATOM     32  C   UNL     1      -1.841   0.221  -0.499  1.00  0.00     0.002 A 
ATOM     33  C   UNL     1       2.444  -0.034   0.073  1.00  0.00     0.044 C 
ATOM     34  C   UNL     1       0.957   0.061  -0.099  1.00  0.00    -0.051 A 
ATOM     35  C   UNL     1       0.184  -1.102  -0.174  1.00  0.00     0.004 A 
ATOM     36  C   UNL     1       0.326   1.303  -0.205  1.00  0.00     0.004 A 
ATOM     37  C   UNL     1      -1.200  -1.023  -0.369  1.00  0.00     0.011 A 
ATOM     38  C   UNL     1      -1.055   1.379  -0.407  1.00  0.00     0.011 A 
ENDBRANCH  27  32
ENDBRANCH  15  26
ENDBRANCH   9  14
ENDBRANCH   5   8
ENDBRANCH   3   4
ENDBRANCH   2   3
ENDBRANCH   1   2
BRANCH   1  39
ATOM     39  C   UNL     1     -13.973   7.508  -5.782  1.00  0.00     0.002 C 
BRANCH  39  40
ATOM     40  C   UNL     1     -14.123   7.144  -4.305  1.00  0.00     0.021 C 
BRANCH  40  41
ATOM     41  C   UNL     1     -13.967   8.334  -3.378  1.00  0.00     0.116 C 
BRANCH  41  42
ATOM     42  N   UNL     1     -15.171   9.145  -3.282  1.00  0.00    -0.352 N 
ATOM     43  C   UNL     1     -15.508  10.159  -2.409  1.00  0.00     0.251 C 
ATOM     44  H   UNL     1     -15.861   8.935  -3.952  1.00  0.00     0.163 HD
ATOM     45  O   UNL     1     -16.677  10.534  -2.358  1.00  0.00    -0.269 OA
BRANCH  43  46
ATOM     46  C   UNL     1     -14.457  10.945  -1.713  1.00  0.00     0.039 A 
ATOM     47  C   UNL     1     -14.709  12.320  -1.556  1.00  0.00     0.014 A 
ATOM     48  C   UNL     1     -13.159  10.470  -1.642  1.00  0.00     0.014 A 
ATOM     49  C   UNL     1     -13.659  13.218  -1.660  1.00  0.00     0.010 A 
ATOM     50  C   UNL     1     -12.152  11.334  -1.958  1.00  0.00     0.010 A 
ATOM     51  C   UNL     1     -12.419  12.702  -2.000  1.00  0.00    -0.014 A 
BRANCH  51  52
ATOM     52  C   UNL     1     -11.249  13.479  -2.310  1.00  0.00     0.031 A 
ATOM     53  C   UNL     1     -10.301  13.681  -1.202  1.00  0.00     0.074 A 
ATOM     54  C   UNL     1     -10.985  13.707  -3.614  1.00  0.00     0.049 A 
ATOM     55  N   UNL     1      -9.416  14.606  -1.178  1.00  0.00    -0.248 NA
ATOM     56  C   UNL     1     -10.307  12.873   0.020  1.00  0.00     0.031 C 
ATOM     57  C   UNL     1      -9.708  14.040  -4.228  1.00  0.00     0.029 A 
ATOM     58  N   UNL     1     -11.907  13.795  -4.672  1.00  0.00    -0.354 N 
ATOM     59  C   UNL     1      -8.545  14.312  -0.150  1.00  0.00     0.074 A 
ATOM     60  C   UNL     1      -9.210  13.313   0.643  1.00  0.00     0.031 C 
ATOM     61  C   UNL     1      -9.932  14.576  -5.441  1.00  0.00     0.029 A 
ATOM     62  C   UNL     1     -11.370  14.739  -5.578  1.00  0.00     0.049 A 
ATOM     63  H   UNL     1     -12.753  13.300  -4.764  1.00  0.00     0.167 HD
ATOM     64  C   UNL     1      -7.288  14.830  -0.221  1.00  0.00     0.037 A 
ATOM     65  C   UNL     1     -11.995  15.939  -5.780  1.00  0.00     0.037 A 
ATOM     66  C   UNL     1      -7.170  15.625  -1.437  1.00  0.00     0.049 A 
ATOM     67  C   UNL     1     -11.158  17.098  -5.304  1.00  0.00     0.074 A 
ATOM     68  C   UNL     1      -6.709  15.296  -2.701  1.00  0.00     0.029 A 
ATOM     69  N   UNL     1      -7.923  16.783  -1.571  1.00  0.00    -0.354 N 
ATOM     70  N   UNL     1     -10.305  17.015  -4.319  1.00  0.00    -0.248 NA
ATOM     71  C   UNL     1     -11.170  18.414  -5.934  1.00  0.00     0.031 C 
ATOM     72  C   UNL     1      -7.204  16.264  -3.607  1.00  0.00     0.029 A 
ATOM     73  C   UNL     1      -7.960  17.178  -2.891  1.00  0.00     0.049 A 
ATOM     74  H   UNL     1      -8.367  17.254  -0.830  1.00  0.00     0.167 HD
ATOM     75  C   UNL     1      -9.642  18.209  -4.198  1.00  0.00     0.074 A 
ATOM     76  C   UNL     1     -10.226  19.054  -5.221  1.00  0.00     0.031 C 
ATOM     77  C   UNL     1      -8.640  18.396  -3.287  1.00  0.00     0.037 A 
BRANCH  64  78
ATOM     78  C   UNL     1      -6.083  14.409   0.585  1.00  0.00     0.064 A 
ATOM     79  C   UNL     1      -4.783  14.648   0.077  1.00  0.00     0.173 A 
ATOM     80  C   UNL     1      -6.114  13.760   1.833  1.00  0.00     0.173 A 
ATOM     81  F   UNL     1      -4.586  15.318  -1.066  1.00  0.00    -0.203 F 
ATOM     82  C   UNL     1      -3.626  14.209   0.719  1.00  0.00     0.198 A 
ATOM     83  C   UNL     1      -4.952  13.298   2.466  1.00  0.00     0.198 A 
ATOM     84  F   UNL     1      -7.254  13.586   2.508  1.00  0.00    -0.203 F 
ATOM     85  F   UNL     1      -2.429  14.454   0.167  1.00  0.00    -0.200 F 
ATOM     86  C   UNL     1      -3.710  13.517   1.906  1.00  0.00     0.200 A 
ATOM     87  F   UNL     1      -5.048  12.639   3.629  1.00  0.00    -0.200 F 
ATOM     88  F   UNL     1      -2.600  13.079   2.514  1.00  0.00    -0.200 F 
ENDBRANCH  64  78
BRANCH  65  89
ATOM     89  C   UNL     1     -13.477  15.819  -5.661  1.00  0.00     0.064 A 
ATOM     90  C   UNL     1     -14.127  15.047  -6.644  1.00  0.00     0.173 A 
ATOM     91  C   UNL     1     -14.115  15.962  -4.421  1.00  0.00     0.173 A 
ATOM     92  F   UNL     1     -13.570  14.906  -7.859  1.00  0.00    -0.203 F 
ATOM     93  C   UNL     1     -15.251  14.285  -6.334  1.00  0.00     0.198 A 
ATOM     94  C   UNL     1     -15.256  15.212  -4.123  1.00  0.00     0.198 A 
ATOM     95  F   UNL     1     -13.558  16.702  -3.452  1.00  0.00    -0.203 F 
ATOM     96  F   UNL     1     -15.747  13.429  -7.239  1.00  0.00    -0.200 F 
ATOM     97  C   UNL     1     -15.786  14.334  -5.058  1.00  0.00     0.200 A 
ATOM     98  F   UNL     1     -15.784  15.263  -2.891  1.00  0.00    -0.200 F 
ATOM     99  F   UNL     1     -16.782  13.504  -4.718  1.00  0.00    -0.200 F 
ENDBRANCH  65  89
BRANCH  77 100
ATOM    100  C   UNL     1      -8.104  19.720  -2.789  1.00  0.00     0.064 A 
ATOM    101  C   UNL     1      -8.783  20.940  -2.927  1.00  0.00     0.173 A 
ATOM    102  C   UNL     1      -6.923  19.779  -2.001  1.00  0.00     0.173 A 
ATOM    103  F   UNL     1      -9.986  21.013  -3.511  1.00  0.00    -0.203 F 
ATOM    104  C   UNL     1      -8.276  22.134  -2.408  1.00  0.00     0.198 A 
ATOM    105  C   UNL     1      -6.464  20.957  -1.417  1.00  0.00     0.198 A 
ATOM    106  F   UNL     1      -6.184  18.692  -1.737  1.00  0.00    -0.203 F 
ATOM    107  F   UNL     1      -8.934  23.280  -2.631  1.00  0.00    -0.200 F 
ATOM    108  C   UNL     1      -7.125  22.142  -1.646  1.00  0.00     0.200 A 
ATOM    109  F   UNL     1      -5.389  20.925  -0.616  1.00  0.00    -0.200 F 
ATOM    110  F   UNL     1      -6.667  23.282  -1.115  1.00  0.00    -0.200 F 
ENDBRANCH  77 100
ENDBRANCH  51  52
ENDBRANCH  43  46
ENDBRANCH  41  42
ENDBRANCH  40  41
ENDBRANCH  39  40
ENDBRANCH   1  39
TORSDOF 16
