REMARK SMILES C[C@H]([C@@H](C)C(=O)NCCCCCCNC(=O)c1ccc(-c2c3nc(c(-c4c(F)c(F)c(F)c(F)c4F)c4ccc([nH]4)c(-c4c(F)c(F)c(F)c(F)c4F)c4nc(c(-c5c(F)c(F)c(F)c(F)c5F)c5ccc2[nH]5)C=C4)C=C3)cc1)[S@@](=O)c1ccc2ccccc2c1
REMARK SMILES IDX 10 1 9 2 8 3 7 4 5 5 6 6 3 8 4 9 2 10 1 11 80 12 81 13 82 14
REMARK SMILES IDX 83 15 91 16 84 17 90 18 85 19 89 20 86 21 88 22 87 23 11 24
REMARK SMILES IDX 12 25 13 26 14 27 15 28 16 30 17 31 18 32 79 33 19 34 78 35
REMARK SMILES IDX 20 36 21 37 22 38 72 39 23 40 77 41 71 42 73 43 24 44 76 45
REMARK SMILES IDX 70 46 69 47 25 49 57 50 37 51 56 52 38 53 41 54 55 55 74 56
REMARK SMILES IDX 39 57 40 58 54 60 75 61 42 62 26 63 27 64 35 65 28 66 29 67
REMARK SMILES IDX 33 68 36 69 30 70 31 71 34 72 32 73 58 74 59 75 67 76 60 77
REMARK SMILES IDX 61 78 65 79 68 80 62 81 63 82 66 83 64 84 43 85 44 86 52 87
REMARK SMILES IDX 45 88 46 89 50 90 53 91 47 92 48 93 51 94 49 95
REMARK H PARENT 7 7 14 29 73 48 41 59
REMARK Flexibility Score: inf
ROOT
ATOM      1  C   UNL     1      -1.008   1.470   4.475  1.00  0.00     0.002 C 
ENDROOT
BRANCH   1   2
ATOM      2  C   UNL     1      -0.643   1.956   3.069  1.00  0.00     0.021 C 
BRANCH   2   3
ATOM      3  C   UNL     1       0.684   1.403   2.549  1.00  0.00     0.116 C 
BRANCH   3   4
ATOM      4  N   UNL     1       0.569  -0.005   2.223  1.00  0.00    -0.356 N 
ATOM      5  C   UNL     1       0.751  -0.683   1.063  1.00  0.00     0.224 C 
ATOM      6  O   UNL     1       0.488  -1.889   1.067  1.00  0.00    -0.275 OA
ATOM      7  H   UNL     1       0.310  -0.573   2.984  1.00  0.00     0.163 HD
BRANCH   5   8
ATOM      8  C   UNL     1       1.292  -0.028  -0.205  1.00  0.00     0.091 C 
ATOM      9  C   UNL     1       2.765   0.337   0.029  1.00  0.00     0.019 C 
BRANCH   8  10
ATOM     10  C   UNL     1       0.476   1.143  -0.781  1.00  0.00     0.093 C 
ATOM     11  C   UNL     1       0.787   1.422  -2.253  1.00  0.00     0.023 C 
BRANCH  10  12
ATOM     12  S   UNL     1      -1.325   1.004  -0.447  1.00  0.00     0.057 S 
ATOM     13  O   UNL     1      -1.918   2.364  -0.678  1.00  0.00    -0.254 OA
BRANCH  12  14
ATOM     14  C   UNL     1      -1.880  -0.036  -1.800  1.00  0.00     0.040 A 
ATOM     15  C   UNL     1      -2.435   0.542  -2.945  1.00  0.00     0.018 A 
ATOM     16  C   UNL     1      -1.821  -1.429  -1.690  1.00  0.00     0.026 A 
ATOM     17  C   UNL     1      -2.867  -0.259  -4.000  1.00  0.00     0.010 A 
ATOM     18  C   UNL     1      -2.297  -2.251  -2.727  1.00  0.00    -0.017 A 
ATOM     19  C   UNL     1      -2.800  -1.654  -3.907  1.00  0.00    -0.018 A 
ATOM     20  C   UNL     1      -2.305  -3.651  -2.615  1.00  0.00     0.009 A 
ATOM     21  C   UNL     1      -3.247  -2.469  -4.958  1.00  0.00     0.009 A 
ATOM     22  C   UNL     1      -2.792  -4.447  -3.653  1.00  0.00     0.001 A 
ATOM     23  C   UNL     1      -3.248  -3.857  -4.829  1.00  0.00     0.001 A 
ENDBRANCH  12  14
ENDBRANCH  10  12
ENDBRANCH   8  10
ENDBRANCH   5   8
ENDBRANCH   3   4
ENDBRANCH   2   3
ENDBRANCH   1   2
BRANCH   1  24
ATOM     24  C   UNL     1       0.033   1.789   5.552  1.00  0.00     0.002 C 
BRANCH  24  25
ATOM     25  C   UNL     1       0.450   3.259   5.622  1.00  0.00     0.021 C 
BRANCH  25  26
ATOM     26  C   UNL     1      -0.704   4.225   5.853  1.00  0.00     0.116 C 
BRANCH  26  27
ATOM     27  N   UNL     1      -1.352   3.998   7.134  1.00  0.00    -0.352 N 
ATOM     28  C   UNL     1      -1.593   4.886   8.148  1.00  0.00     0.251 C 
ATOM     29  H   UNL     1      -1.661   3.077   7.296  1.00  0.00     0.163 HD
ATOM     30  O   UNL     1      -1.957   4.485   9.253  1.00  0.00    -0.269 OA
BRANCH  28  31
ATOM     31  C   UNL     1      -1.400   6.331   7.916  1.00  0.00     0.039 A 
ATOM     32  C   UNL     1      -0.766   7.098   8.896  1.00  0.00     0.014 A 
ATOM     33  C   UNL     1      -1.857   6.930   6.738  1.00  0.00     0.014 A 
ATOM     34  C   UNL     1      -0.558   8.460   8.678  1.00  0.00     0.010 A 
ATOM     35  C   UNL     1      -1.571   8.266   6.486  1.00  0.00     0.010 A 
ATOM     36  C   UNL     1      -0.941   9.051   7.463  1.00  0.00    -0.014 A 
BRANCH  36  37
ATOM     37  C   UNL     1      -0.731  10.498   7.212  1.00  0.00     0.031 A 
ATOM     38  C   UNL     1      -1.915  11.403   7.014  1.00  0.00     0.074 A 
ATOM     39  C   UNL     1       0.519  10.987   7.111  1.00  0.00     0.049 A 
ATOM     40  N   UNL     1      -1.946  12.683   6.741  1.00  0.00    -0.248 NA
ATOM     41  C   UNL     1      -3.244  10.778   7.104  1.00  0.00     0.031 C 
ATOM     42  C   UNL     1       1.747  10.203   7.244  1.00  0.00     0.029 A 
ATOM     43  N   UNL     1       0.963  12.263   6.870  1.00  0.00    -0.354 N 
ATOM     44  C   UNL     1      -3.290  13.007   6.606  1.00  0.00     0.074 A 
ATOM     45  C   UNL     1      -4.039  11.780   6.764  1.00  0.00     0.031 C 
ATOM     46  C   UNL     1       2.805  11.020   7.117  1.00  0.00     0.029 A 
ATOM     47  C   UNL     1       2.331  12.376   6.855  1.00  0.00     0.049 A 
ATOM     48  H   UNL     1       0.357  13.025   6.721  1.00  0.00     0.167 HD
ATOM     49  C   UNL     1      -3.851  14.222   6.394  1.00  0.00     0.037 A 
ATOM     50  C   UNL     1       3.112  13.454   6.652  1.00  0.00     0.037 A 
ATOM     51  C   UNL     1      -3.099  15.442   6.260  1.00  0.00     0.049 A 
ATOM     52  C   UNL     1       2.467  14.791   6.406  1.00  0.00     0.074 A 
ATOM     53  C   UNL     1      -3.570  16.734   6.108  1.00  0.00     0.029 A 
ATOM     54  N   UNL     1      -1.713  15.518   6.255  1.00  0.00    -0.354 N 
ATOM     55  N   UNL     1       1.194  15.102   6.355  1.00  0.00    -0.248 NA
ATOM     56  C   UNL     1       3.371  15.930   6.200  1.00  0.00     0.031 C 
ATOM     57  C   UNL     1      -2.470  17.583   5.947  1.00  0.00     0.029 A 
ATOM     58  C   UNL     1      -1.312  16.832   6.072  1.00  0.00     0.049 A 
ATOM     59  H   UNL     1      -1.105  14.752   6.365  1.00  0.00     0.167 HD
ATOM     60  C   UNL     1       1.143  16.475   6.153  1.00  0.00     0.074 A 
ATOM     61  C   UNL     1       2.515  16.937   6.097  1.00  0.00     0.031 C 
ATOM     62  C   UNL     1       0.059  17.280   6.031  1.00  0.00     0.037 A 
BRANCH  49  63
ATOM     63  C   UNL     1      -5.349  14.281   6.280  1.00  0.00     0.064 A 
ATOM     64  C   UNL     1      -6.190  13.999   7.368  1.00  0.00     0.173 A 
ATOM     65  C   UNL     1      -5.954  14.629   5.062  1.00  0.00     0.173 A 
ATOM     66  F   UNL     1      -5.667  13.652   8.554  1.00  0.00    -0.203 F 
ATOM     67  C   UNL     1      -7.576  14.014   7.229  1.00  0.00     0.198 A 
ATOM     68  C   UNL     1      -7.340  14.681   4.937  1.00  0.00     0.198 A 
ATOM     69  F   UNL     1      -5.202  14.917   3.990  1.00  0.00    -0.203 F 
ATOM     70  F   UNL     1      -8.355  13.669   8.264  1.00  0.00    -0.200 F 
ATOM     71  C   UNL     1      -8.149  14.360   6.016  1.00  0.00     0.200 A 
ATOM     72  F   UNL     1      -7.893  15.033   3.768  1.00  0.00    -0.200 F 
ATOM     73  F   UNL     1      -9.483  14.374   5.883  1.00  0.00    -0.200 F 
ENDBRANCH  49  63
BRANCH  50  74
ATOM     74  C   UNL     1       4.591  13.320   6.723  1.00  0.00     0.064 A 
ATOM     75  C   UNL     1       5.311  13.892   7.781  1.00  0.00     0.173 A 
ATOM     76  C   UNL     1       5.312  12.617   5.748  1.00  0.00     0.173 A 
ATOM     77  F   UNL     1       4.668  14.590   8.729  1.00  0.00    -0.203 F 
ATOM     78  C   UNL     1       6.698  13.783   7.851  1.00  0.00     0.198 A 
ATOM     79  C   UNL     1       6.697  12.483   5.835  1.00  0.00     0.198 A 
ATOM     80  F   UNL     1       4.670  12.044   4.719  1.00  0.00    -0.203 F 
ATOM     81  F   UNL     1       7.365  14.377   8.849  1.00  0.00    -0.200 F 
ATOM     82  C   UNL     1       7.389  13.073   6.881  1.00  0.00     0.200 A 
ATOM     83  F   UNL     1       7.359  11.782   4.904  1.00  0.00    -0.200 F 
ATOM     84  F   UNL     1       8.723  12.961   6.952  1.00  0.00    -0.200 F 
ENDBRANCH  50  74
BRANCH  62  85
ATOM     85  C   UNL     1       0.306  18.755   5.886  1.00  0.00     0.064 A 
ATOM     86  C   UNL     1       0.866  19.306   4.724  1.00  0.00     0.173 A 
ATOM     87  C   UNL     1      -0.057  19.635   6.918  1.00  0.00     0.173 A 
ATOM     88  F   UNL     1       1.244  18.509   3.712  1.00  0.00    -0.203 F 
ATOM     89  C   UNL     1       1.083  20.678   4.614  1.00  0.00     0.198 A 
ATOM     90  C   UNL     1       0.127  21.008   6.790  1.00  0.00     0.198 A 
ATOM     91  F   UNL     1      -0.604  19.162   8.049  1.00  0.00    -0.203 F 
ATOM     92  F   UNL     1       1.672  21.175   3.518  1.00  0.00    -0.200 F 
ATOM     93  C   UNL     1       0.706  21.528   5.643  1.00  0.00     0.200 A 
ATOM     94  F   UNL     1      -0.255  21.829   7.779  1.00  0.00    -0.200 F 
ATOM     95  F   UNL     1       0.908  22.848   5.533  1.00  0.00    -0.200 F 
ENDBRANCH  62  85
ENDBRANCH  36  37
ENDBRANCH  28  31
ENDBRANCH  26  27
ENDBRANCH  25  26
ENDBRANCH  24  25
ENDBRANCH   1  24
TORSDOF 16
