REMARK SMILES CCCC[C@@H](Sc1nc(OCCC2CCCCC2)cc(OCCC2CCCCC2)n1)C(=O)NCCCCCCNC(=O)c1ccc(-c2c3nc(c(-c4c(F)c(F)c(F)c(F)c4F)c4ccc([nH]4)c(-c4c(F)c(F)c(F)c(F)c4F)c4nc(c(-c5c(F)c(F)c(F)c(F)c5F)c5ccc2[nH]5)C=C4)C=C3)cc1
REMARK SMILES IDX 34 1 33 2 31 3 32 4 5 6 4 7 3 8 2 9 1 10 6 11 7 12 8 13
REMARK SMILES IDX 30 14 9 15 20 16 19 17 10 18 11 19 12 20 13 21 14 22 18 23
REMARK SMILES IDX 15 24 17 25 16 26 21 27 22 28 23 29 24 30 25 31 29 32 26 33
REMARK SMILES IDX 28 34 27 35 35 36 36 37 37 38 38 39 39 40 40 41 41 42 42 44
REMARK SMILES IDX 43 45 44 46 105 47 45 48 104 49 46 50 47 51 48 52 98 53
REMARK SMILES IDX 49 54 103 55 97 56 99 57 50 58 102 59 96 60 95 61 51 63
REMARK SMILES IDX 83 64 63 65 82 66 64 67 67 68 81 69 100 70 65 71 66 72 80 74
REMARK SMILES IDX 101 75 68 76 52 77 53 78 61 79 54 80 55 81 59 82 62 83 56 84
REMARK SMILES IDX 57 85 60 86 58 87 84 88 85 89 93 90 86 91 87 92 91 93 94 94
REMARK SMILES IDX 88 95 89 96 92 97 90 98 69 99 70 100 78 101 71 102 72 103
REMARK SMILES IDX 76 104 79 105 73 106 74 107 77 108 75 109
REMARK H PARENT 33 5 40 43 99 62 67 73
REMARK Flexibility Score: inf
ROOT
ATOM      1  C   UNL     1      -0.404  -3.088   4.933  1.00  0.00     0.116 C 
ENDROOT
BRANCH   1   2
ATOM      2  N   UNL     1      -1.179  -1.882   4.684  1.00  0.00    -0.355 N 
ATOM      3  C   UNL     1      -1.439  -1.238   3.499  1.00  0.00     0.233 C 
ATOM      4  O   UNL     1      -2.127  -0.215   3.531  1.00  0.00    -0.274 OA
ATOM      5  H   UNL     1      -1.577  -1.466   5.482  1.00  0.00     0.163 HD
BRANCH   3   6
ATOM      6  C   UNL     1      -0.856  -1.781   2.172  1.00  0.00     0.144 C 
BRANCH   6   7
ATOM      7  C   UNL     1       0.683  -1.596   2.271  1.00  0.00     0.025 C 
BRANCH   7   8
ATOM      8  C   UNL     1       1.571  -1.510   1.025  1.00  0.00     0.001 C 
BRANCH   8   9
ATOM      9  C   UNL     1       1.058  -0.672  -0.143  1.00  0.00    -0.003 C 
ATOM     10  C   UNL     1       1.192   0.820   0.104  1.00  0.00     0.004 C 
ENDBRANCH   8   9
ENDBRANCH   7   8
ENDBRANCH   6   7
BRANCH   6  11
ATOM     11  S   UNL     1      -1.725  -3.427   2.006  1.00  0.00    -0.073 SA
BRANCH  11  12
ATOM     12  C   UNL     1      -1.095  -4.175   0.560  1.00  0.00     0.195 A 
ATOM     13  N   UNL     1      -0.086  -3.595  -0.083  1.00  0.00    -0.187 NA
ATOM     14  N   UNL     1      -1.706  -5.308   0.183  1.00  0.00    -0.187 NA
ATOM     15  C   UNL     1       0.328  -4.173  -1.207  1.00  0.00     0.221 A 
ATOM     16  C   UNL     1      -1.301  -5.850  -0.964  1.00  0.00     0.221 A 
ATOM     17  C   UNL     1      -0.277  -5.301  -1.682  1.00  0.00     0.136 A 
BRANCH  15  18
ATOM     18  O   UNL     1       1.396  -3.549  -1.795  1.00  0.00    -0.477 OA
BRANCH  18  19
ATOM     19  C   UNL     1       1.548  -3.621  -3.215  1.00  0.00     0.231 C 
BRANCH  19  20
ATOM     20  C   UNL     1       2.710  -4.537  -3.673  1.00  0.00     0.045 C 
BRANCH  20  21
ATOM     21  C   UNL     1       2.683  -5.921  -3.018  1.00  0.00    -0.008 C 
ATOM     22  C   UNL     1       3.083  -7.115  -3.883  1.00  0.00     0.004 C 
ATOM     23  C   UNL     1       3.399  -5.973  -1.667  1.00  0.00     0.004 C 
ATOM     24  C   UNL     1       2.647  -8.402  -3.156  1.00  0.00     0.000 C 
ATOM     25  C   UNL     1       2.946  -7.215  -0.907  1.00  0.00     0.000 C 
ATOM     26  C   UNL     1       3.178  -8.487  -1.721  1.00  0.00     0.000 C 
ENDBRANCH  20  21
ENDBRANCH  19  20
ENDBRANCH  18  19
ENDBRANCH  15  18
BRANCH  16  27
ATOM     27  O   UNL     1      -2.093  -6.873  -1.417  1.00  0.00    -0.477 OA
BRANCH  27  28
ATOM     28  C   UNL     1      -1.875  -7.394  -2.732  1.00  0.00     0.231 C 
BRANCH  28  29
ATOM     29  C   UNL     1      -2.634  -6.672  -3.879  1.00  0.00     0.045 C 
BRANCH  29  30
ATOM     30  C   UNL     1      -2.387  -5.158  -4.030  1.00  0.00    -0.008 C 
ATOM     31  C   UNL     1      -2.639  -4.595  -5.436  1.00  0.00     0.004 C 
ATOM     32  C   UNL     1      -3.207  -4.309  -3.046  1.00  0.00     0.004 C 
ATOM     33  C   UNL     1      -2.162  -3.132  -5.502  1.00  0.00     0.000 C 
ATOM     34  C   UNL     1      -2.658  -2.887  -3.012  1.00  0.00     0.000 C 
ATOM     35  C   UNL     1      -2.732  -2.244  -4.390  1.00  0.00     0.000 C 
ENDBRANCH  29  30
ENDBRANCH  28  29
ENDBRANCH  27  28
ENDBRANCH  16  27
ENDBRANCH  11  12
ENDBRANCH   6  11
ENDBRANCH   3   6
ENDBRANCH   1   2
BRANCH   1  36
ATOM     36  C   UNL     1       0.820  -2.787   5.787  1.00  0.00     0.021 C 
BRANCH  36  37
ATOM     37  C   UNL     1       0.471  -2.548   7.255  1.00  0.00     0.002 C 
BRANCH  37  38
ATOM     38  C   UNL     1      -0.263  -3.715   7.926  1.00  0.00     0.002 C 
BRANCH  38  39
ATOM     39  C   UNL     1       0.445  -5.068   7.811  1.00  0.00     0.021 C 
BRANCH  39  40
ATOM     40  C   UNL     1       1.861  -5.079   8.376  1.00  0.00     0.116 C 
BRANCH  40  41
ATOM     41  N   UNL     1       1.874  -4.743   9.792  1.00  0.00    -0.352 N 
ATOM     42  C   UNL     1       2.374  -5.456  10.846  1.00  0.00     0.251 C 
ATOM     43  H   UNL     1       1.464  -3.878  10.024  1.00  0.00     0.163 HD
ATOM     44  O   UNL     1       2.092  -5.138  12.003  1.00  0.00    -0.269 OA
BRANCH  42  45
ATOM     45  C   UNL     1       3.243  -6.621  10.596  1.00  0.00     0.039 A 
ATOM     46  C   UNL     1       3.028  -7.794  11.322  1.00  0.00     0.014 A 
ATOM     47  C   UNL     1       4.268  -6.554   9.647  1.00  0.00     0.014 A 
ATOM     48  C   UNL     1       3.805  -8.921  11.054  1.00  0.00     0.010 A 
ATOM     49  C   UNL     1       4.989  -7.699   9.328  1.00  0.00     0.010 A 
ATOM     50  C   UNL     1       4.766  -8.893  10.029  1.00  0.00    -0.014 A 
BRANCH  50  51
ATOM     51  C   UNL     1       5.529 -10.112   9.667  1.00  0.00     0.031 A 
ATOM     52  C   UNL     1       7.021 -10.155   9.838  1.00  0.00     0.074 A 
ATOM     53  C   UNL     1       4.880 -11.160   9.124  1.00  0.00     0.049 A 
ATOM     54  N   UNL     1       7.862 -11.110   9.531  1.00  0.00    -0.248 NA
ATOM     55  C   UNL     1       7.656  -8.955  10.406  1.00  0.00     0.031 C 
ATOM     56  C   UNL     1       3.441 -11.216   8.861  1.00  0.00     0.029 A 
ATOM     57  N   UNL     1       5.345 -12.375   8.687  1.00  0.00    -0.354 N 
ATOM     58  C   UNL     1       9.121 -10.624   9.859  1.00  0.00     0.074 A 
ATOM     59  C   UNL     1       8.941  -9.270  10.335  1.00  0.00     0.031 C 
ATOM     60  C   UNL     1       3.137 -12.411   8.331  1.00  0.00     0.029 A 
ATOM     61  C   UNL     1       4.363 -13.188   8.176  1.00  0.00     0.049 A 
ATOM     62  H   UNL     1       6.292 -12.638   8.735  1.00  0.00     0.167 HD
ATOM     63  C   UNL     1      10.315 -11.260   9.789  1.00  0.00     0.037 A 
ATOM     64  C   UNL     1       4.443 -14.417   7.633  1.00  0.00     0.037 A 
ATOM     65  C   UNL     1      10.484 -12.614   9.327  1.00  0.00     0.049 A 
ATOM     66  C   UNL     1       5.785 -15.093   7.550  1.00  0.00     0.074 A 
ATOM     67  C   UNL     1      11.641 -13.371   9.280  1.00  0.00     0.029 A 
ATOM     68  N   UNL     1       9.465 -13.409   8.821  1.00  0.00    -0.354 N 
ATOM     69  N   UNL     1       6.958 -14.656   7.938  1.00  0.00    -0.248 NA
ATOM     70  C   UNL     1       5.812 -16.438   6.958  1.00  0.00     0.031 C 
ATOM     71  C   UNL     1      11.335 -14.601   8.688  1.00  0.00     0.029 A 
ATOM     72  C   UNL     1       9.975 -14.637   8.426  1.00  0.00     0.049 A 
ATOM     73  H   UNL     1       8.520 -13.142   8.753  1.00  0.00     0.167 HD
ATOM     74  C   UNL     1       7.857 -15.677   7.660  1.00  0.00     0.074 A 
ATOM     75  C   UNL     1       7.089 -16.764   7.091  1.00  0.00     0.031 C 
ATOM     76  C   UNL     1       9.198 -15.709   7.857  1.00  0.00     0.037 A 
BRANCH  63  77
ATOM     77  C   UNL     1      11.537 -10.497  10.216  1.00  0.00     0.064 A 
ATOM     78  C   UNL     1      11.756 -10.143  11.557  1.00  0.00     0.173 A 
ATOM     79  C   UNL     1      12.522 -10.150   9.279  1.00  0.00     0.173 A 
ATOM     80  F   UNL     1      10.842 -10.441  12.492  1.00  0.00    -0.203 F 
ATOM     81  C   UNL     1      12.899  -9.442  11.937  1.00  0.00     0.198 A 
ATOM     82  C   UNL     1      13.680  -9.480   9.668  1.00  0.00     0.198 A 
ATOM     83  F   UNL     1      12.369 -10.469   7.985  1.00  0.00    -0.203 F 
ATOM     84  F   UNL     1      13.059  -9.069  13.214  1.00  0.00    -0.200 F 
ATOM     85  C   UNL     1      13.863  -9.119  10.994  1.00  0.00     0.200 A 
ATOM     86  F   UNL     1      14.618  -9.182   8.758  1.00  0.00    -0.200 F 
ATOM     87  F   UNL     1      14.966  -8.453  11.363  1.00  0.00    -0.200 F 
ENDBRANCH  63  77
BRANCH  64  88
ATOM     88  C   UNL     1       3.214 -15.091   7.137  1.00  0.00     0.064 A 
ATOM     89  C   UNL     1       2.705 -16.228   7.779  1.00  0.00     0.173 A 
ATOM     90  C   UNL     1       2.526 -14.614   6.011  1.00  0.00     0.173 A 
ATOM     91  F   UNL     1       3.339 -16.734   8.847  1.00  0.00    -0.203 F 
ATOM     92  C   UNL     1       1.568 -16.876   7.301  1.00  0.00     0.198 A 
ATOM     93  C   UNL     1       1.370 -15.244   5.554  1.00  0.00     0.198 A 
ATOM     94  F   UNL     1       2.968 -13.527   5.363  1.00  0.00    -0.203 F 
ATOM     95  F   UNL     1       1.132 -17.990   7.904  1.00  0.00    -0.200 F 
ATOM     96  C   UNL     1       0.897 -16.380   6.193  1.00  0.00     0.200 A 
ATOM     97  F   UNL     1       0.717 -14.752   4.492  1.00  0.00    -0.200 F 
ATOM     98  F   UNL     1      -0.199 -17.001   5.737  1.00  0.00    -0.200 F 
ENDBRANCH  64  88
BRANCH  76  99
ATOM     99  C   UNL     1       9.919 -16.972   7.477  1.00  0.00     0.064 A 
ATOM    100  C   UNL     1      10.087 -17.350   6.137  1.00  0.00     0.173 A 
ATOM    101  C   UNL     1      10.479 -17.796   8.466  1.00  0.00     0.173 A 
ATOM    102  F   UNL     1       9.558 -16.606   5.154  1.00  0.00    -0.203 F 
ATOM    103  C   UNL     1      10.763 -18.521   5.802  1.00  0.00     0.198 A 
ATOM    104  C   UNL     1      11.185 -18.946   8.126  1.00  0.00     0.198 A 
ATOM    105  F   UNL     1      10.354 -17.477   9.763  1.00  0.00    -0.203 F 
ATOM    106  F   UNL     1      10.864 -18.890   4.518  1.00  0.00    -0.200 F 
ATOM    107  C   UNL     1      11.318 -19.313   6.796  1.00  0.00     0.200 A 
ATOM    108  F   UNL     1      11.735 -19.701   9.087  1.00  0.00    -0.200 F 
ATOM    109  F   UNL     1      11.976 -20.434   6.471  1.00  0.00    -0.200 F 
ENDBRANCH  76  99
ENDBRANCH  50  51
ENDBRANCH  42  45
ENDBRANCH  40  41
ENDBRANCH  39  40
ENDBRANCH  38  39
ENDBRANCH  37  38
ENDBRANCH  36  37
ENDBRANCH   1  36
TORSDOF 26
