REMARK SMILES O=C(Cc1ccc(NC(=O)Nc2ccc(Br)cc2)cc1)NCCCCCCNC(=O)c1ccc(-c2c3nc(c(-c4c(F)c(F)c(F)c(F)c4F)c4ccc([nH]4)c(-c4c(F)c(F)c(F)c(F)c4F)c4nc(c(-c5c(F)c(F)c(F)c(F)c5F)c5ccc2[nH]5)C=C4)C=C3)cc1
REMARK SMILES IDX 24 1 23 2 22 3 21 4 1 5 2 6 3 8 4 9 5 10 20 11 6 12 19 13
REMARK SMILES IDX 7 14 8 15 9 16 10 18 11 19 12 21 13 22 18 23 14 24 17 25
REMARK SMILES IDX 15 26 16 27 25 28 26 29 27 30 28 31 29 32 30 34 31 35 32 36
REMARK SMILES IDX 93 37 33 38 92 39 34 40 35 41 36 42 86 43 37 44 91 45 85 46
REMARK SMILES IDX 87 47 38 48 90 49 84 50 83 51 39 53 71 54 51 55 70 56 52 57
REMARK SMILES IDX 55 58 69 59 88 60 53 61 54 62 68 64 89 65 56 66 40 67 41 68
REMARK SMILES IDX 49 69 42 70 43 71 47 72 50 73 44 74 45 75 48 76 46 77 72 78
REMARK SMILES IDX 73 79 81 80 74 81 75 82 79 83 82 84 76 85 77 86 80 87 78 88
REMARK SMILES IDX 57 89 58 90 66 91 59 92 60 93 64 94 67 95 61 96 62 97 65 98
REMARK SMILES IDX 63 99
REMARK H PARENT 21 7 8 17 11 20 28 33 87 52 55 63
REMARK Flexibility Score: inf
ROOT
ATOM      1  C   UNL     1       3.897  -3.266   2.080  1.00  0.00     0.002 C 
ENDROOT
BRANCH   1   2
ATOM      2  C   UNL     1       2.408  -3.208   1.726  1.00  0.00     0.021 C 
BRANCH   2   3
ATOM      3  C   UNL     1       1.810  -1.804   1.665  1.00  0.00     0.116 C 
BRANCH   3   4
ATOM      4  N   UNL     1       2.368  -0.987   0.606  1.00  0.00    -0.356 N 
ATOM      5  O   UNL     1       0.419   0.166   0.197  1.00  0.00    -0.275 OA
ATOM      6  C   UNL     1       1.625   0.025   0.018  1.00  0.00     0.224 C 
ATOM      7  H   UNL     1       3.289  -1.152   0.299  1.00  0.00     0.163 HD
BRANCH   6   8
ATOM      8  C   UNL     1       2.444   1.001  -0.811  1.00  0.00     0.135 C 
BRANCH   8   9
ATOM      9  C   UNL     1       3.092   2.115  -0.010  1.00  0.00    -0.039 A 
ATOM     10  C   UNL     1       3.384   1.979   1.352  1.00  0.00     0.006 A 
ATOM     11  C   UNL     1       3.519   3.282  -0.663  1.00  0.00     0.006 A 
ATOM     12  C   UNL     1       4.170   2.921   2.011  1.00  0.00     0.026 A 
ATOM     13  C   UNL     1       4.313   4.228   0.001  1.00  0.00     0.026 A 
ATOM     14  C   UNL     1       4.726   3.991   1.312  1.00  0.00     0.042 A 
BRANCH  14  15
ATOM     15  N   UNL     1       5.736   4.803   1.863  1.00  0.00    -0.308 N 
ATOM     16  C   UNL     1       6.620   4.529   2.868  1.00  0.00     0.323 C 
ATOM     17  H   UNL     1       5.817   5.700   1.465  1.00  0.00     0.171 HD
ATOM     18  O   UNL     1       7.092   5.456   3.530  1.00  0.00    -0.248 OA
ATOM     19  N   UNL     1       6.983   3.245   3.161  1.00  0.00    -0.308 N 
ATOM     20  H   UNL     1       7.223   3.080   4.101  1.00  0.00     0.171 HD
BRANCH  19  21
ATOM     21  C   UNL     1       7.064   2.123   2.313  1.00  0.00     0.042 A 
ATOM     22  C   UNL     1       6.880   0.856   2.874  1.00  0.00     0.027 A 
ATOM     23  C   UNL     1       7.268   2.240   0.934  1.00  0.00     0.027 A 
ATOM     24  C   UNL     1       6.778  -0.265   2.045  1.00  0.00     0.018 A 
ATOM     25  C   UNL     1       7.178   1.119   0.106  1.00  0.00     0.018 A 
ATOM     26  C   UNL     1       6.905  -0.125   0.664  1.00  0.00     0.018 A 
ATOM     27  Br  UNL     1       6.684  -1.622  -0.468  1.00  0.00    -0.051 Br
ENDBRANCH  19  21
ENDBRANCH  14  15
ENDBRANCH   8   9
ENDBRANCH   6   8
ENDBRANCH   3   4
ENDBRANCH   2   3
ENDBRANCH   1   2
BRANCH   1  28
ATOM     28  C   UNL     1       4.276  -2.762   3.476  1.00  0.00     0.002 C 
BRANCH  28  29
ATOM     29  C   UNL     1       3.647  -3.515   4.646  1.00  0.00     0.021 C 
BRANCH  29  30
ATOM     30  C   UNL     1       3.920  -5.015   4.666  1.00  0.00     0.116 C 
BRANCH  30  31
ATOM     31  N   UNL     1       5.332  -5.341   4.798  1.00  0.00    -0.352 N 
ATOM     32  C   UNL     1       5.944  -6.239   5.645  1.00  0.00     0.251 C 
ATOM     33  H   UNL     1       5.937  -4.849   4.197  1.00  0.00     0.163 HD
ATOM     34  O   UNL     1       7.161  -6.295   5.714  1.00  0.00    -0.269 OA
BRANCH  32  35
ATOM     35  C   UNL     1       5.111  -7.119   6.496  1.00  0.00     0.039 A 
ATOM     36  C   UNL     1       5.452  -7.281   7.841  1.00  0.00     0.014 A 
ATOM     37  C   UNL     1       3.990  -7.767   5.974  1.00  0.00     0.014 A 
ATOM     38  C   UNL     1       4.629  -8.041   8.676  1.00  0.00     0.010 A 
ATOM     39  C   UNL     1       3.123  -8.444   6.824  1.00  0.00     0.010 A 
ATOM     40  C   UNL     1       3.439  -8.600   8.182  1.00  0.00    -0.014 A 
BRANCH  40  41
ATOM     41  C   UNL     1       2.531  -9.388   9.055  1.00  0.00     0.031 A 
ATOM     42  C   UNL     1       2.273 -10.839   8.746  1.00  0.00     0.074 A 
ATOM     43  C   UNL     1       1.897  -8.793  10.085  1.00  0.00     0.049 A 
ATOM     44  N   UNL     1       1.452 -11.679   9.325  1.00  0.00    -0.248 NA
ATOM     45  C   UNL     1       3.013 -11.415   7.610  1.00  0.00     0.031 C 
ATOM     46  C   UNL     1       2.021  -7.383  10.457  1.00  0.00     0.029 A 
ATOM     47  N   UNL     1       1.011  -9.300  11.003  1.00  0.00    -0.354 N 
ATOM     48  C   UNL     1       1.574 -12.870   8.622  1.00  0.00     0.074 A 
ATOM     49  C   UNL     1       2.487 -12.627   7.528  1.00  0.00     0.031 C 
ATOM     50  C   UNL     1       1.257  -7.142  11.534  1.00  0.00     0.029 A 
ATOM     51  C   UNL     1       0.562  -8.370  11.909  1.00  0.00     0.049 A 
ATOM     52  H   UNL     1       0.725 -10.242  11.012  1.00  0.00     0.167 HD
ATOM     53  C   UNL     1       1.007 -14.072   8.886  1.00  0.00     0.037 A 
ATOM     54  C   UNL     1      -0.315  -8.495  12.924  1.00  0.00     0.037 A 
ATOM     55  C   UNL     1       0.116 -14.319   9.987  1.00  0.00     0.049 A 
ATOM     56  C   UNL     1      -0.930  -9.844  13.196  1.00  0.00     0.074 A 
ATOM     57  C   UNL     1      -0.503 -15.502  10.351  1.00  0.00     0.029 A 
ATOM     58  N   UNL     1      -0.274 -13.363  10.913  1.00  0.00    -0.354 N 
ATOM     59  N   UNL     1      -0.768 -10.975  12.552  1.00  0.00    -0.248 NA
ATOM     60  C   UNL     1      -1.836  -9.938  14.349  1.00  0.00     0.031 C 
ATOM     61  C   UNL     1      -1.291 -15.255  11.479  1.00  0.00     0.029 A 
ATOM     62  C   UNL     1      -1.122 -13.931  11.849  1.00  0.00     0.049 A 
ATOM     63  H   UNL     1       0.010 -12.420  10.906  1.00  0.00     0.167 HD
ATOM     64  C   UNL     1      -1.515 -11.919  13.244  1.00  0.00     0.074 A 
ATOM     65  C   UNL     1      -2.119 -11.232  14.366  1.00  0.00     0.031 C 
ATOM     66  C   UNL     1      -1.688 -13.237  12.976  1.00  0.00     0.037 A 
BRANCH  53  67
ATOM     67  C   UNL     1       1.357 -15.217   7.980  1.00  0.00     0.064 A 
ATOM     68  C   UNL     1       2.645 -15.777   7.978  1.00  0.00     0.173 A 
ATOM     69  C   UNL     1       0.395 -15.786   7.134  1.00  0.00     0.173 A 
ATOM     70  F   UNL     1       3.607 -15.260   8.757  1.00  0.00    -0.203 F 
ATOM     71  C   UNL     1       2.962 -16.846   7.145  1.00  0.00     0.198 A 
ATOM     72  C   UNL     1       0.706 -16.877   6.326  1.00  0.00     0.198 A 
ATOM     73  F   UNL     1      -0.852 -15.293   7.098  1.00  0.00    -0.203 F 
ATOM     74  F   UNL     1       4.211 -17.331   7.126  1.00  0.00    -0.200 F 
ATOM     75  C   UNL     1       1.990 -17.401   6.327  1.00  0.00     0.200 A 
ATOM     76  F   UNL     1      -0.237 -17.422   5.545  1.00  0.00    -0.200 F 
ATOM     77  F   UNL     1       2.293 -18.438   5.534  1.00  0.00    -0.200 F 
ENDBRANCH  53  67
BRANCH  54  78
ATOM     78  C   UNL     1      -0.655  -7.324  13.776  1.00  0.00     0.064 A 
ATOM     79  C   UNL     1      -0.279  -7.279  15.127  1.00  0.00     0.173 A 
ATOM     80  C   UNL     1      -1.396  -6.246  13.272  1.00  0.00     0.173 A 
ATOM     81  F   UNL     1       0.415  -8.294  15.662  1.00  0.00    -0.203 F 
ATOM     82  C   UNL     1      -0.667  -6.223  15.949  1.00  0.00     0.198 A 
ATOM     83  C   UNL     1      -1.755  -5.174  14.087  1.00  0.00     0.198 A 
ATOM     84  F   UNL     1      -1.774  -6.233  11.985  1.00  0.00    -0.203 F 
ATOM     85  F   UNL     1      -0.353  -6.241  17.251  1.00  0.00    -0.200 F 
ATOM     86  C   UNL     1      -1.403  -5.170  15.428  1.00  0.00     0.200 A 
ATOM     87  F   UNL     1      -2.452  -4.150  13.575  1.00  0.00    -0.200 F 
ATOM     88  F   UNL     1      -1.782  -4.158  16.220  1.00  0.00    -0.200 F 
ENDBRANCH  54  78
BRANCH  66  89
ATOM     89  C   UNL     1      -2.504 -14.036  13.950  1.00  0.00     0.064 A 
ATOM     90  C   UNL     1      -3.892 -13.873  14.065  1.00  0.00     0.173 A 
ATOM     91  C   UNL     1      -1.886 -15.002  14.760  1.00  0.00     0.173 A 
ATOM     92  F   UNL     1      -4.529 -12.955  13.322  1.00  0.00    -0.203 F 
ATOM     93  C   UNL     1      -4.626 -14.622  14.981  1.00  0.00     0.198 A 
ATOM     94  C   UNL     1      -2.628 -15.772  15.651  1.00  0.00     0.198 A 
ATOM     95  F   UNL     1      -0.562 -15.204  14.682  1.00  0.00    -0.203 F 
ATOM     96  F   UNL     1      -5.943 -14.409  15.116  1.00  0.00    -0.200 F 
ATOM     97  C   UNL     1      -3.995 -15.574  15.768  1.00  0.00     0.200 A 
ATOM     98  F   UNL     1      -2.019 -16.703  16.398  1.00  0.00    -0.200 F 
ATOM     99  F   UNL     1      -4.705 -16.296  16.646  1.00  0.00    -0.200 F 
ENDBRANCH  66  89
ENDBRANCH  40  41
ENDBRANCH  32  35
ENDBRANCH  30  31
ENDBRANCH  29  30
ENDBRANCH  28  29
ENDBRANCH   1  28
TORSDOF 16
