REMARK SMILES C[C@]1(C(=O)Nc2ccc(C(=O)NCCCCCCNC(=O)c3ccc(-c4c5nc(c(-c6c(F)c(F)c(F)c(F)c6F)c6ccc([nH]6)c(-c6c(F)c(F)c(F)c(F)c6F)c6nc(c(-c7c(F)c(F)c(F)c(F)c7F)c7ccc4[nH]7)C=C6)C=C5)cc3)c(O)c2)CCCO1
REMARK SMILES IDX 15 1 14 2 13 3 12 4 10 5 11 6 9 8 6 9 7 10 87 11 8 12 85 13
REMARK SMILES IDX 5 14 3 15 4 16 2 18 1 19 88 20 91 21 89 22 90 23 86 24 16 26
REMARK SMILES IDX 17 27 18 28 19 29 20 30 21 32 22 33 23 34 84 35 24 36 83 37
REMARK SMILES IDX 25 38 26 39 27 40 77 41 28 42 82 43 76 44 78 45 29 46 81 47
REMARK SMILES IDX 75 48 74 49 30 51 62 52 42 53 61 54 43 55 46 56 60 57 79 58
REMARK SMILES IDX 44 59 45 60 59 62 80 63 47 64 31 65 32 66 40 67 33 68 34 69
REMARK SMILES IDX 38 70 41 71 35 72 36 73 39 74 37 75 63 76 64 77 72 78 65 79
REMARK SMILES IDX 66 80 70 81 73 82 67 83 68 84 71 85 69 86 48 87 49 88 57 89
REMARK SMILES IDX 50 90 51 91 55 92 58 93 52 94 53 95 56 96 54 97
REMARK H PARENT 12 7 5 17 86 25 19 31 78 50 46 61
REMARK Flexibility Score: inf
ROOT
ATOM      1  C   UNL     1       2.639   3.244   9.226  1.00  0.00     0.002 C 
ENDROOT
BRANCH   1   2
ATOM      2  C   UNL     1       1.851   2.983   7.938  1.00  0.00     0.021 C 
BRANCH   2   3
ATOM      3  C   UNL     1       2.666   2.803   6.660  1.00  0.00     0.116 C 
BRANCH   3   4
ATOM      4  N   UNL     1       3.648   1.737   6.712  1.00  0.00    -0.352 N 
ATOM      5  C   UNL     1       4.201   0.977   5.709  1.00  0.00     0.255 C 
ATOM      6  O   UNL     1       5.039   0.131   6.020  1.00  0.00    -0.269 OA
ATOM      7  H   UNL     1       3.972   1.522   7.616  1.00  0.00     0.163 HD
BRANCH   5   8
ATOM      8  C   UNL     1       3.771   1.080   4.287  1.00  0.00     0.081 A 
ATOM      9  C   UNL     1       2.570   0.955   1.749  1.00  0.00     0.045 A 
ATOM     10  C   UNL     1       3.184  -0.166   2.292  1.00  0.00     0.027 A 
ATOM     11  C   UNL     1       2.772   2.188   2.366  1.00  0.00     0.073 A 
ATOM     12  C   UNL     1       3.733  -0.122   3.573  1.00  0.00     0.020 A 
ATOM     13  C   UNL     1       3.409   2.248   3.611  1.00  0.00     0.130 A 
BRANCH   9  14
ATOM     14  N   UNL     1       1.827   0.900   0.565  1.00  0.00    -0.323 N 
ATOM     15  C   UNL     1       1.073  -0.111   0.030  1.00  0.00     0.256 C 
ATOM     16  O   UNL     1       0.772  -0.009  -1.169  1.00  0.00    -0.271 OA
ATOM     17  H   UNL     1       1.851   1.725   0.027  1.00  0.00     0.170 HD
BRANCH  15  18
ATOM     18  C   UNL     1       0.410  -1.236   0.908  1.00  0.00     0.144 C 
ATOM     19  C   UNL     1      -1.048  -0.794   1.127  1.00  0.00     0.053 C 
ATOM     20  C   UNL     1       0.475  -2.559   0.132  1.00  0.00     0.048 C 
ATOM     21  O   UNL     1       0.890  -1.541   2.218  1.00  0.00    -0.365 OA
ATOM     22  C   UNL     1       0.415  -3.611   1.210  1.00  0.00     0.032 C 
ATOM     23  C   UNL     1       1.161  -2.943   2.333  1.00  0.00     0.162 C 
ENDBRANCH  15  18
ENDBRANCH   9  14
BRANCH  13  24
ATOM     24  O   UNL     1       3.683   3.506   4.072  1.00  0.00    -0.507 OA
ATOM     25  H   UNL     1       4.109   3.619   4.899  1.00  0.00     0.293 HD
ENDBRANCH  13  24
ENDBRANCH   5   8
ENDBRANCH   3   4
ENDBRANCH   2   3
ENDBRANCH   1   2
BRANCH   1  26
ATOM     26  C   UNL     1       3.713   4.334   9.179  1.00  0.00     0.002 C 
BRANCH  26  27
ATOM     27  C   UNL     1       3.275   5.710   8.675  1.00  0.00     0.021 C 
BRANCH  27  28
ATOM     28  C   UNL     1       2.044   6.307   9.346  1.00  0.00     0.116 C 
BRANCH  28  29
ATOM     29  N   UNL     1       2.207   6.491  10.778  1.00  0.00    -0.352 N 
ATOM     30  C   UNL     1       1.976   7.602  11.549  1.00  0.00     0.251 C 
ATOM     31  H   UNL     1       2.532   5.701  11.268  1.00  0.00     0.163 HD
ATOM     32  O   UNL     1       2.295   7.604  12.737  1.00  0.00    -0.269 OA
BRANCH  30  33
ATOM     33  C   UNL     1       1.371   8.814  10.954  1.00  0.00     0.039 A 
ATOM     34  C   UNL     1       1.920  10.060  11.268  1.00  0.00     0.014 A 
ATOM     35  C   UNL     1       0.270   8.732  10.097  1.00  0.00     0.014 A 
ATOM     36  C   UNL     1       1.408  11.216  10.673  1.00  0.00     0.010 A 
ATOM     37  C   UNL     1      -0.191   9.876   9.447  1.00  0.00     0.010 A 
ATOM     38  C   UNL     1       0.373  11.130   9.727  1.00  0.00    -0.014 A 
BRANCH  38  39
ATOM     39  C   UNL     1      -0.126  12.340   9.023  1.00  0.00     0.031 A 
ATOM     40  C   UNL     1      -1.548  12.794   9.209  1.00  0.00     0.074 A 
ATOM     41  C   UNL     1       0.687  13.002   8.176  1.00  0.00     0.049 A 
ATOM     42  N   UNL     1      -2.186  13.781   8.630  1.00  0.00    -0.248 NA
ATOM     43  C   UNL     1      -2.371  12.024  10.155  1.00  0.00     0.031 C 
ATOM     44  C   UNL     1       2.075  12.640   7.880  1.00  0.00     0.029 A 
ATOM     45  N   UNL     1       0.463  14.112   7.399  1.00  0.00    -0.354 N 
ATOM     46  C   UNL     1      -3.478  13.746   9.137  1.00  0.00     0.074 A 
ATOM     47  C   UNL     1      -3.554  12.607  10.025  1.00  0.00     0.031 C 
ATOM     48  C   UNL     1       2.583  13.522   7.004  1.00  0.00     0.029 A 
ATOM     49  C   UNL     1       1.548  14.484   6.641  1.00  0.00     0.049 A 
ATOM     50  H   UNL     1      -0.395  14.595   7.386  1.00  0.00     0.167 HD
ATOM     51  C   UNL     1      -4.501  14.603   8.904  1.00  0.00     0.037 A 
ATOM     52  C   UNL     1       1.686  15.480   5.744  1.00  0.00     0.037 A 
ATOM     53  C   UNL     1      -4.419  15.746   8.032  1.00  0.00     0.049 A 
ATOM     54  C   UNL     1       0.519  16.396   5.480  1.00  0.00     0.074 A 
ATOM     55  C   UNL     1      -5.389  16.694   7.760  1.00  0.00     0.029 A 
ATOM     56  N   UNL     1      -3.300  16.095   7.290  1.00  0.00    -0.354 N 
ATOM     57  N   UNL     1      -0.678  16.389   6.014  1.00  0.00    -0.248 NA
ATOM     58  C   UNL     1       0.726  17.464   4.492  1.00  0.00     0.031 C 
ATOM     59  C   UNL     1      -4.877  17.587   6.814  1.00  0.00     0.029 A 
ATOM     60  C   UNL     1      -3.565  17.232   6.544  1.00  0.00     0.049 A 
ATOM     61  H   UNL     1      -2.445  15.607   7.292  1.00  0.00     0.167 HD
ATOM     62  C   UNL     1      -1.351  17.468   5.456  1.00  0.00     0.074 A 
ATOM     63  C   UNL     1      -0.423  18.119   4.557  1.00  0.00     0.031 C 
ATOM     64  C   UNL     1      -2.624  17.882   5.668  1.00  0.00     0.037 A 
BRANCH  51  65
ATOM     65  C   UNL     1      -5.801  14.351   9.612  1.00  0.00     0.064 A 
ATOM     66  C   UNL     1      -5.932  14.543  10.996  1.00  0.00     0.173 A 
ATOM     67  C   UNL     1      -6.947  13.979   8.891  1.00  0.00     0.173 A 
ATOM     68  F   UNL     1      -4.866  14.889  11.733  1.00  0.00    -0.203 F 
ATOM     69  C   UNL     1      -7.155  14.353  11.634  1.00  0.00     0.198 A 
ATOM     70  C   UNL     1      -8.175  13.821   9.528  1.00  0.00     0.198 A 
ATOM     71  F   UNL     1      -6.879  13.788   7.565  1.00  0.00    -0.203 F 
ATOM     72  F   UNL     1      -7.246  14.505  12.962  1.00  0.00    -0.200 F 
ATOM     73  C   UNL     1      -8.277  14.003  10.898  1.00  0.00     0.200 A 
ATOM     74  F   UNL     1      -9.262  13.498   8.813  1.00  0.00    -0.200 F 
ATOM     75  F   UNL     1      -9.457  13.838  11.512  1.00  0.00    -0.200 F 
ENDBRANCH  51  65
BRANCH  52  76
ATOM     76  C   UNL     1       2.976  15.675   5.027  1.00  0.00     0.064 A 
ATOM     77  C   UNL     1       3.749  16.827   5.230  1.00  0.00     0.173 A 
ATOM     78  C   UNL     1       3.439  14.738   4.091  1.00  0.00     0.173 A 
ATOM     79  F   UNL     1       3.340  17.763   6.099  1.00  0.00    -0.203 F 
ATOM     80  C   UNL     1       4.913  17.053   4.499  1.00  0.00     0.198 A 
ATOM     81  C   UNL     1       4.623  14.948   3.386  1.00  0.00     0.198 A 
ATOM     82  F   UNL     1       2.742  13.616   3.861  1.00  0.00    -0.203 F 
ATOM     83  F   UNL     1       5.594  18.195   4.664  1.00  0.00    -0.200 F 
ATOM     84  C   UNL     1       5.351  16.112   3.580  1.00  0.00     0.200 A 
ATOM     85  F   UNL     1       5.051  14.028   2.511  1.00  0.00    -0.200 F 
ATOM     86  F   UNL     1       6.467  16.332   2.871  1.00  0.00    -0.200 F 
ENDBRANCH  52  76
BRANCH  64  87
ATOM     87  C   UNL     1      -3.075  19.126   4.956  1.00  0.00     0.064 A 
ATOM     88  C   UNL     1      -3.285  19.150   3.570  1.00  0.00     0.173 A 
ATOM     89  C   UNL     1      -3.336  20.299   5.680  1.00  0.00     0.173 A 
ATOM     90  F   UNL     1      -3.037  18.059   2.829  1.00  0.00    -0.203 F 
ATOM     91  C   UNL     1      -3.710  20.312   2.931  1.00  0.00     0.198 A 
ATOM     92  C   UNL     1      -3.795  21.449   5.043  1.00  0.00     0.198 A 
ATOM     93  F   UNL     1      -3.159  20.328   7.010  1.00  0.00    -0.203 F 
ATOM     94  F   UNL     1      -3.852  20.328   1.598  1.00  0.00    -0.200 F 
ATOM     95  C   UNL     1      -3.973  21.457   3.668  1.00  0.00     0.200 A 
ATOM     96  F   UNL     1      -4.064  22.548   5.760  1.00  0.00    -0.200 F 
ATOM     97  F   UNL     1      -4.390  22.572   3.053  1.00  0.00    -0.200 F 
ENDBRANCH  64  87
ENDBRANCH  38  39
ENDBRANCH  30  33
ENDBRANCH  28  29
ENDBRANCH  27  28
ENDBRANCH  26  27
ENDBRANCH   1  26
TORSDOF 16
