REMARK SMILES O=C(NCCCCCCNC(=O)c1cc(-c2cccc(C(F)(F)F)c2)nc2c(F)cccc12)c1ccc(-c2c3nc(c(-c4c(F)c(F)c(F)c(F)c4F)c4ccc([nH]4)c(-c4c(F)c(F)c(F)c(F)c4F)c4nc(c(-c5c(F)c(F)c(F)c(F)c5F)c5ccc2[nH]5)C=C4)C=C3)cc1
REMARK SMILES IDX 6 1 5 2 4 3 3 4 1 5 2 6 34 8 35 9 96 10 36 11 95 12 37 13
REMARK SMILES IDX 38 14 39 15 89 16 40 17 94 18 88 19 90 20 41 21 93 22 87 23
REMARK SMILES IDX 86 24 42 26 74 27 54 28 73 29 55 30 58 31 72 32 91 33 56 34
REMARK SMILES IDX 57 35 71 37 92 38 59 39 43 40 44 41 52 42 45 43 46 44 50 45
REMARK SMILES IDX 53 46 47 47 48 48 51 49 49 50 75 51 76 52 84 53 77 54 78 55
REMARK SMILES IDX 82 56 85 57 79 58 80 59 83 60 81 61 60 62 61 63 69 64 62 65
REMARK SMILES IDX 63 66 67 67 70 68 64 69 65 70 68 71 66 72 7 73 8 74 9 75
REMARK SMILES IDX 10 76 11 77 12 79 13 80 14 81 33 82 15 83 27 84 32 85 26 86
REMARK SMILES IDX 28 87 31 88 29 89 30 90 16 91 17 92 25 93 18 94 20 95 19 96
REMARK SMILES IDX 21 97 22 98 23 99 24 100
REMARK H PARENT 3 7 90 25 58 36 10 78
REMARK Flexibility Score: inf
ROOT
ATOM      1  C   UNL     1       4.199  -1.742  -3.426  1.00  0.00     0.002 C 
ENDROOT
BRANCH   1   2
ATOM      2  C   UNL     1       4.688  -1.774  -1.979  1.00  0.00     0.021 C 
BRANCH   2   3
ATOM      3  C   UNL     1       4.429  -0.508  -1.173  1.00  0.00     0.116 C 
BRANCH   3   4
ATOM      4  N   UNL     1       3.015  -0.224  -1.001  1.00  0.00    -0.352 N 
ATOM      5  O   UNL     1       1.099   0.154   0.131  1.00  0.00    -0.269 OA
ATOM      6  C   UNL     1       2.323   0.064   0.150  1.00  0.00     0.251 C 
ATOM      7  H   UNL     1       2.478  -0.238  -1.825  1.00  0.00     0.163 HD
BRANCH   6   8
ATOM      8  C   UNL     1       3.053   0.235   1.426  1.00  0.00     0.039 A 
ATOM      9  C   UNL     1       4.217   1.005   1.488  1.00  0.00     0.014 A 
ATOM     10  C   UNL     1       2.556  -0.378   2.580  1.00  0.00     0.014 A 
ATOM     11  C   UNL     1       4.954   1.050   2.666  1.00  0.00     0.010 A 
ATOM     12  C   UNL     1       3.254  -0.263   3.785  1.00  0.00     0.010 A 
ATOM     13  C   UNL     1       4.474   0.430   3.831  1.00  0.00    -0.014 A 
BRANCH  13  14
ATOM     14  C   UNL     1       5.229   0.583   5.100  1.00  0.00     0.031 A 
ATOM     15  C   UNL     1       5.867  -0.596   5.777  1.00  0.00     0.074 A 
ATOM     16  C   UNL     1       5.349   1.815   5.631  1.00  0.00     0.049 A 
ATOM     17  N   UNL     1       6.573  -0.631   6.880  1.00  0.00    -0.248 NA
ATOM     18  C   UNL     1       5.686  -1.909   5.141  1.00  0.00     0.031 C 
ATOM     19  C   UNL     1       4.753   3.031   5.073  1.00  0.00     0.029 A 
ATOM     20  N   UNL     1       6.017   2.254   6.745  1.00  0.00    -0.354 N 
ATOM     21  C   UNL     1       6.904  -1.964   7.080  1.00  0.00     0.074 A 
ATOM     22  C   UNL     1       6.303  -2.713   5.997  1.00  0.00     0.031 C 
ATOM     23  C   UNL     1       5.114   4.082   5.821  1.00  0.00     0.029 A 
ATOM     24  C   UNL     1       5.918   3.609   6.943  1.00  0.00     0.049 A 
ATOM     25  H   UNL     1       6.520   1.656   7.343  1.00  0.00     0.167 HD
ATOM     26  C   UNL     1       7.647  -2.507   8.075  1.00  0.00     0.037 A 
ATOM     27  C   UNL     1       6.405   4.385   7.928  1.00  0.00     0.037 A 
ATOM     28  C   UNL     1       8.255  -1.752   9.141  1.00  0.00     0.049 A 
ATOM     29  C   UNL     1       7.218   3.753   9.020  1.00  0.00     0.074 A 
ATOM     30  C   UNL     1       9.063  -2.207  10.169  1.00  0.00     0.029 A 
ATOM     31  N   UNL     1       8.118  -0.383   9.319  1.00  0.00    -0.354 N 
ATOM     32  N   UNL     1       7.558   2.497   9.175  1.00  0.00    -0.248 NA
ATOM     33  C   UNL     1       7.714   4.646  10.075  1.00  0.00     0.031 C 
ATOM     34  C   UNL     1       9.377  -1.121  10.994  1.00  0.00     0.029 A 
ATOM     35  C   UNL     1       8.807   0.019  10.453  1.00  0.00     0.049 A 
ATOM     36  H   UNL     1       7.607   0.215   8.727  1.00  0.00     0.167 HD
ATOM     37  C   UNL     1       8.317   2.449  10.334  1.00  0.00     0.074 A 
ATOM     38  C   UNL     1       8.408   3.807  10.831  1.00  0.00     0.031 C 
ATOM     39  C   UNL     1       8.883   1.375  10.936  1.00  0.00     0.037 A 
BRANCH  26  40
ATOM     40  C   UNL     1       7.837  -3.997   8.073  1.00  0.00     0.064 A 
ATOM     41  C   UNL     1       8.670  -4.633   7.142  1.00  0.00     0.173 A 
ATOM     42  C   UNL     1       7.224  -4.791   9.055  1.00  0.00     0.173 A 
ATOM     43  F   UNL     1       9.271  -3.921   6.176  1.00  0.00    -0.203 F 
ATOM     44  C   UNL     1       8.868  -6.012   7.182  1.00  0.00     0.198 A 
ATOM     45  C   UNL     1       7.445  -6.165   9.108  1.00  0.00     0.198 A 
ATOM     46  F   UNL     1       6.423  -4.232   9.974  1.00  0.00    -0.203 F 
ATOM     47  F   UNL     1       9.640  -6.603   6.259  1.00  0.00    -0.200 F 
ATOM     48  C   UNL     1       8.262  -6.775   8.168  1.00  0.00     0.200 A 
ATOM     49  F   UNL     1       6.868  -6.899  10.069  1.00  0.00    -0.200 F 
ATOM     50  F   UNL     1       8.463  -8.100   8.211  1.00  0.00    -0.200 F 
ENDBRANCH  26  40
BRANCH  27  51
ATOM     51  C   UNL     1       6.128   5.844   7.916  1.00  0.00     0.064 A 
ATOM     52  C   UNL     1       7.148   6.771   7.664  1.00  0.00     0.173 A 
ATOM     53  C   UNL     1       4.833   6.338   8.132  1.00  0.00     0.173 A 
ATOM     54  F   UNL     1       8.405   6.346   7.469  1.00  0.00    -0.203 F 
ATOM     55  C   UNL     1       6.884   8.138   7.639  1.00  0.00     0.198 A 
ATOM     56  C   UNL     1       4.565   7.703   8.077  1.00  0.00     0.198 A 
ATOM     57  F   UNL     1       3.821   5.489   8.370  1.00  0.00    -0.203 F 
ATOM     58  F   UNL     1       7.883   9.006   7.431  1.00  0.00    -0.200 F 
ATOM     59  C   UNL     1       5.592   8.603   7.837  1.00  0.00     0.200 A 
ATOM     60  F   UNL     1       3.312   8.145   8.251  1.00  0.00    -0.200 F 
ATOM     61  F   UNL     1       5.338   9.918   7.801  1.00  0.00    -0.200 F 
ENDBRANCH  27  51
BRANCH  39  62
ATOM     62  C   UNL     1       9.668   1.632  12.188  1.00  0.00     0.064 A 
ATOM     63  C   UNL     1       9.034   1.956  13.397  1.00  0.00     0.173 A 
ATOM     64  C   UNL     1      11.067   1.530  12.184  1.00  0.00     0.173 A 
ATOM     65  F   UNL     1       7.699   2.083  13.446  1.00  0.00    -0.203 F 
ATOM     66  C   UNL     1       9.775   2.196  14.550  1.00  0.00     0.198 A 
ATOM     67  C   UNL     1      11.803   1.742  13.346  1.00  0.00     0.198 A 
ATOM     68  F   UNL     1      11.719   1.218  11.054  1.00  0.00    -0.203 F 
ATOM     69  F   UNL     1       9.153   2.553  15.682  1.00  0.00    -0.200 F 
ATOM     70  C   UNL     1      11.158   2.082  14.526  1.00  0.00     0.200 A 
ATOM     71  F   UNL     1      13.137   1.622  13.324  1.00  0.00    -0.200 F 
ATOM     72  F   UNL     1      11.870   2.310  15.638  1.00  0.00    -0.200 F 
ENDBRANCH  39  62
ENDBRANCH  13  14
ENDBRANCH   6   8
ENDBRANCH   3   4
ENDBRANCH   2   3
ENDBRANCH   1   2
BRANCH   1  73
ATOM     73  C   UNL     1       4.675  -0.555  -4.269  1.00  0.00     0.002 C 
BRANCH  73  74
ATOM     74  C   UNL     1       6.186  -0.309  -4.299  1.00  0.00     0.021 C 
BRANCH  74  75
ATOM     75  C   UNL     1       7.042  -1.514  -4.673  1.00  0.00     0.116 C 
BRANCH  75  76
ATOM     76  N   UNL     1       6.739  -2.038  -5.993  1.00  0.00    -0.352 N 
ATOM     77  C   UNL     1       7.608  -2.482  -6.957  1.00  0.00     0.252 C 
ATOM     78  H   UNL     1       5.783  -2.080  -6.226  1.00  0.00     0.163 HD
ATOM     79  O   UNL     1       7.196  -2.872  -8.044  1.00  0.00    -0.269 OA
BRANCH  77  80
ATOM     80  C   UNL     1       9.060  -2.431  -6.703  1.00  0.00     0.051 A 
ATOM     81  C   UNL     1       9.787  -1.570  -7.521  1.00  0.00     0.043 A 
ATOM     82  C   UNL     1       9.683  -3.185  -5.685  1.00  0.00     0.016 A 
ATOM     83  C   UNL     1      11.140  -1.442  -7.282  1.00  0.00     0.072 A 
ATOM     84  C   UNL     1      11.051  -2.936  -5.477  1.00  0.00     0.107 A 
ATOM     85  C   UNL     1       9.017  -4.148  -4.880  1.00  0.00     0.011 A 
ATOM     86  N   UNL     1      11.755  -2.092  -6.266  1.00  0.00    -0.245 NA
ATOM     87  C   UNL     1      11.670  -3.591  -4.410  1.00  0.00     0.149 A 
ATOM     88  C   UNL     1       9.670  -4.792  -3.833  1.00  0.00     0.004 A 
ATOM     89  F   UNL     1      12.964  -3.348  -4.140  1.00  0.00    -0.205 F 
ATOM     90  C   UNL     1      11.001  -4.496  -3.586  1.00  0.00     0.041 A 
BRANCH  83  91
ATOM     91  C   UNL     1      12.008  -0.634  -8.145  1.00  0.00     0.001 A 
ATOM     92  C   UNL     1      11.765   0.731  -8.367  1.00  0.00     0.010 A 
ATOM     93  C   UNL     1      13.098  -1.232  -8.802  1.00  0.00     0.023 A 
ATOM     94  C   UNL     1      12.579   1.472  -9.227  1.00  0.00     0.001 A 
ATOM     95  C   UNL     1      13.912  -0.504  -9.684  1.00  0.00     0.056 A 
ATOM     96  C   UNL     1      13.642   0.857  -9.887  1.00  0.00     0.013 A 
BRANCH  95  97
ATOM     97  C   UNL     1      15.049  -1.168 -10.420  1.00  0.00     0.416 C 
ATOM     98  F   UNL     1      14.907  -1.084 -11.773  1.00  0.00    -0.166 F 
ATOM     99  F   UNL     1      16.256  -0.604 -10.137  1.00  0.00    -0.166 F 
ATOM    100  F   UNL     1      15.182  -2.495 -10.144  1.00  0.00    -0.166 F 
ENDBRANCH  95  97
ENDBRANCH  83  91
ENDBRANCH  77  80
ENDBRANCH  75  76
ENDBRANCH  74  75
ENDBRANCH  73  74
ENDBRANCH   1  73
TORSDOF 15
