REMARK SMILES O=C(NCCCCCCNC(=O)c1ccc(-c2c3nc(c(-c4c(F)c(F)c(F)c(F)c4F)c4ccc([nH]4)c(-c4c(F)c(F)c(F)c(F)c4F)c4nc(c(-c5c(F)c(F)c(F)c(F)c5F)c5ccc2[nH]5)C=C4)C=C3)cc1)C1=Cc2c(Cl)cc(Cl)cc2O[C@@H]1C(F)(F)F
REMARK SMILES IDX 7 1 6 2 5 3 4 4 3 5 1 6 2 7 76 9 77 10 87 11 78 12 86 13
REMARK SMILES IDX 79 14 85 15 80 16 81 17 84 18 82 19 83 20 88 21 89 22 90 23
REMARK SMILES IDX 91 24 8 25 9 26 10 27 11 28 12 30 13 31 14 32 75 33 15 34
REMARK SMILES IDX 74 35 16 36 17 37 18 38 68 39 19 40 73 41 67 42 69 43 20 44
REMARK SMILES IDX 72 45 66 46 65 47 21 49 53 50 33 51 52 52 34 53 37 54 51 55
REMARK SMILES IDX 70 56 35 57 36 58 50 60 71 61 38 62 22 63 23 64 31 65 24 66
REMARK SMILES IDX 25 67 29 68 32 69 26 70 27 71 30 72 28 73 54 74 55 75 63 76
REMARK SMILES IDX 56 77 57 78 61 79 64 80 58 81 59 82 62 83 60 84 39 85 40 86
REMARK SMILES IDX 48 87 41 88 42 89 46 90 49 91 43 92 44 93 47 94 45 95
REMARK H PARENT 3 8 10 29 69 48 37 59
REMARK Flexibility Score: inf
ROOT
ATOM      1  C   UNL     1       4.367   3.875  -2.468  1.00  0.00     0.002 C 
ENDROOT
BRANCH   1   2
ATOM      2  C   UNL     1       3.717   2.799  -3.346  1.00  0.00     0.002 C 
BRANCH   2   3
ATOM      3  C   UNL     1       4.099   1.347  -3.064  1.00  0.00     0.021 C 
BRANCH   3   4
ATOM      4  C   UNL     1       3.890   0.849  -1.638  1.00  0.00     0.116 C 
BRANCH   4   5
ATOM      5  N   UNL     1       2.588   0.268  -1.365  1.00  0.00    -0.352 N 
ATOM      6  O   UNL     1       1.011  -0.841  -0.212  1.00  0.00    -0.270 OA
ATOM      7  C   UNL     1       2.204  -0.582  -0.364  1.00  0.00     0.251 C 
ATOM      8  H   UNL     1       1.875   0.524  -1.994  1.00  0.00     0.163 HD
BRANCH   7   9
ATOM      9  C   UNL     1       3.176  -1.136   0.624  1.00  0.00     0.067 C 
ATOM     10  C   UNL     1       4.381  -1.593   0.244  1.00  0.00     0.027 C 
ATOM     11  C   UNL     1       3.009  -0.557   2.007  1.00  0.00     0.314 C 
ATOM     12  C   UNL     1       5.497  -0.721   0.701  1.00  0.00     0.036 A 
ATOM     13  O   UNL     1       4.032   0.435   2.292  1.00  0.00    -0.475 OA
ATOM     14  C   UNL     1       6.737  -0.732   0.036  1.00  0.00     0.053 A 
ATOM     15  C   UNL     1       5.225   0.304   1.624  1.00  0.00     0.130 A 
ATOM     16  Cl  UNL     1       7.130  -1.937  -1.141  1.00  0.00    -0.083 Cl
ATOM     17  C   UNL     1       7.646   0.310   0.224  1.00  0.00     0.042 A 
ATOM     18  C   UNL     1       6.142   1.335   1.822  1.00  0.00     0.067 A 
ATOM     19  C   UNL     1       7.331   1.349   1.097  1.00  0.00     0.046 A 
ATOM     20  Cl  UNL     1       8.391   2.698   1.224  1.00  0.00    -0.084 Cl
BRANCH  11  21
ATOM     21  C   UNL     1       2.969  -1.647   3.092  1.00  0.00     0.429 C 
ATOM     22  F   UNL     1       2.677  -1.121   4.306  1.00  0.00    -0.167 F 
ATOM     23  F   UNL     1       2.029  -2.584   2.830  1.00  0.00    -0.167 F 
ATOM     24  F   UNL     1       4.154  -2.293   3.211  1.00  0.00    -0.167 F 
ENDBRANCH  11  21
ENDBRANCH   7   9
ENDBRANCH   4   5
ENDBRANCH   3   4
ENDBRANCH   2   3
ENDBRANCH   1   2
BRANCH   1  25
ATOM     25  C   UNL     1       5.883   3.794  -2.257  1.00  0.00     0.021 C 
BRANCH  25  26
ATOM     26  C   UNL     1       6.751   3.764  -3.514  1.00  0.00     0.116 C 
BRANCH  26  27
ATOM     27  N   UNL     1       6.587   4.936  -4.353  1.00  0.00    -0.352 N 
ATOM     28  C   UNL     1       7.519   5.782  -4.902  1.00  0.00     0.251 C 
ATOM     29  H   UNL     1       5.652   5.162  -4.565  1.00  0.00     0.163 HD
ATOM     30  O   UNL     1       7.141   6.788  -5.497  1.00  0.00    -0.269 OA
BRANCH  28  31
ATOM     31  C   UNL     1       8.975   5.524  -4.773  1.00  0.00     0.039 A 
ATOM     32  C   UNL     1       9.822   6.616  -4.551  1.00  0.00     0.014 A 
ATOM     33  C   UNL     1       9.524   4.248  -4.925  1.00  0.00     0.014 A 
ATOM     34  C   UNL     1      11.202   6.425  -4.431  1.00  0.00     0.010 A 
ATOM     35  C   UNL     1      10.895   4.048  -4.742  1.00  0.00     0.010 A 
ATOM     36  C   UNL     1      11.750   5.134  -4.498  1.00  0.00    -0.014 A 
BRANCH  36  37
ATOM     37  C   UNL     1      13.211   4.913  -4.322  1.00  0.00     0.031 A 
ATOM     38  C   UNL     1      14.046   4.393  -5.461  1.00  0.00     0.074 A 
ATOM     39  C   UNL     1      13.782   5.139  -3.123  1.00  0.00     0.049 A 
ATOM     40  N   UNL     1      15.318   4.082  -5.482  1.00  0.00    -0.248 NA
ATOM     41  C   UNL     1      13.356   4.175  -6.742  1.00  0.00     0.031 C 
ATOM     42  C   UNL     1      13.079   5.608  -1.928  1.00  0.00     0.029 A 
ATOM     43  N   UNL     1      15.083   4.994  -2.707  1.00  0.00    -0.354 N 
ATOM     44  C   UNL     1      15.577   3.624  -6.768  1.00  0.00     0.074 A 
ATOM     45  C   UNL     1      14.320   3.651  -7.485  1.00  0.00     0.031 C 
ATOM     46  C   UNL     1      13.957   5.725  -0.919  1.00  0.00     0.029 A 
ATOM     47  C   UNL     1      15.277   5.307  -1.383  1.00  0.00     0.049 A 
ATOM     48  H   UNL     1      15.808   4.694  -3.301  1.00  0.00     0.167 HD
ATOM     49  C   UNL     1      16.758   3.239  -7.309  1.00  0.00     0.037 A 
ATOM     50  C   UNL     1      16.389   5.253  -0.626  1.00  0.00     0.037 A 
ATOM     51  C   UNL     1      18.013   3.232  -6.603  1.00  0.00     0.049 A 
ATOM     52  C   UNL     1      17.687   4.812  -1.250  1.00  0.00     0.074 A 
ATOM     53  C   UNL     1      19.270   2.899  -7.080  1.00  0.00     0.029 A 
ATOM     54  N   UNL     1      18.171   3.575  -5.269  1.00  0.00    -0.354 N 
ATOM     55  N   UNL     1      17.927   4.435  -2.482  1.00  0.00    -0.248 NA
ATOM     56  C   UNL     1      18.870   4.797  -0.378  1.00  0.00     0.031 C 
ATOM     57  C   UNL     1      20.181   3.001  -6.024  1.00  0.00     0.029 A 
ATOM     58  C   UNL     1      19.502   3.446  -4.902  1.00  0.00     0.049 A 
ATOM     59  H   UNL     1      17.446   3.868  -4.671  1.00  0.00     0.167 HD
ATOM     60  C   UNL     1      19.288   4.166  -2.540  1.00  0.00     0.074 A 
ATOM     61  C   UNL     1      19.825   4.438  -1.224  1.00  0.00     0.031 C 
ATOM     62  C   UNL     1      20.025   3.730  -3.590  1.00  0.00     0.037 A 
BRANCH  49  63
ATOM     63  C   UNL     1      16.755   2.797  -8.744  1.00  0.00     0.064 A 
ATOM     64  C   UNL     1      16.566   3.711  -9.792  1.00  0.00     0.173 A 
ATOM     65  C   UNL     1      16.995   1.456  -9.079  1.00  0.00     0.173 A 
ATOM     66  F   UNL     1      16.323   5.003  -9.525  1.00  0.00    -0.203 F 
ATOM     67  C   UNL     1      16.593   3.294 -11.120  1.00  0.00     0.198 A 
ATOM     68  C   UNL     1      17.051   1.048 -10.409  1.00  0.00     0.198 A 
ATOM     69  F   UNL     1      17.190   0.542  -8.116  1.00  0.00    -0.203 F 
ATOM     70  F   UNL     1      16.368   4.178 -12.102  1.00  0.00    -0.200 F 
ATOM     71  C   UNL     1      16.844   1.966 -11.428  1.00  0.00     0.200 A 
ATOM     72  F   UNL     1      17.307  -0.234 -10.706  1.00  0.00    -0.200 F 
ATOM     73  F   UNL     1      16.880   1.568 -12.707  1.00  0.00    -0.200 F 
ENDBRANCH  49  63
BRANCH  50  74
ATOM     74  C   UNL     1      16.331   5.638   0.809  1.00  0.00     0.064 A 
ATOM     75  C   UNL     1      16.963   6.800   1.271  1.00  0.00     0.173 A 
ATOM     76  C   UNL     1      15.657   4.844   1.749  1.00  0.00     0.173 A 
ATOM     77  F   UNL     1      17.641   7.579   0.415  1.00  0.00    -0.203 F 
ATOM     78  C   UNL     1      16.944   7.142   2.622  1.00  0.00     0.198 A 
ATOM     79  C   UNL     1      15.613   5.203   3.094  1.00  0.00     0.198 A 
ATOM     80  F   UNL     1      15.033   3.723   1.357  1.00  0.00    -0.203 F 
ATOM     81  F   UNL     1      17.601   8.231   3.044  1.00  0.00    -0.200 F 
ATOM     82  C   UNL     1      16.265   6.346   3.531  1.00  0.00     0.200 A 
ATOM     83  F   UNL     1      14.944   4.438   3.968  1.00  0.00    -0.200 F 
ATOM     84  F   UNL     1      16.246   6.675   4.830  1.00  0.00    -0.200 F 
ENDBRANCH  50  74
BRANCH  62  85
ATOM     85  C   UNL     1      21.500   3.555  -3.372  1.00  0.00     0.064 A 
ATOM     86  C   UNL     1      22.009   2.502  -2.598  1.00  0.00     0.173 A 
ATOM     87  C   UNL     1      22.416   4.429  -3.977  1.00  0.00     0.173 A 
ATOM     88  F   UNL     1      21.174   1.648  -1.986  1.00  0.00    -0.203 F 
ATOM     89  C   UNL     1      23.381   2.346  -2.417  1.00  0.00     0.198 A 
ATOM     90  C   UNL     1      23.788   4.252  -3.818  1.00  0.00     0.198 A 
ATOM     91  F   UNL     1      21.980   5.448  -4.732  1.00  0.00    -0.203 F 
ATOM     92  F   UNL     1      23.844   1.360  -1.635  1.00  0.00    -0.200 F 
ATOM     93  C   UNL     1      24.269   3.216  -3.033  1.00  0.00     0.200 A 
ATOM     94  F   UNL     1      24.644   5.086  -4.424  1.00  0.00    -0.200 F 
ATOM     95  F   UNL     1      25.589   3.060  -2.863  1.00  0.00    -0.200 F 
ENDBRANCH  62  85
ENDBRANCH  36  37
ENDBRANCH  28  31
ENDBRANCH  26  27
ENDBRANCH  25  26
ENDBRANCH   1  25
TORSDOF 14
