REMARK SMILES CCCC[C@H](C(=O)NCCCCCCNC(=O)c1ccc(-c2c3nc(c(-c4c(F)c(F)c(F)c(F)c4F)c4ccc([nH]4)c(-c4c(F)c(F)c(F)c(F)c4F)c4nc(c(-c5c(F)c(F)c(F)c(F)c5F)c5ccc2[nH]5)C=C4)C=C3)cc1)[C@]1(O)CCc2ccc(OC)cc21
REMARK SMILES IDX 11 1 10 2 9 3 8 4 6 5 7 6 5 8 4 9 3 10 2 11 1 12 81 13 83 14
REMARK SMILES IDX 92 15 84 16 85 17 91 18 86 19 88 20 87 21 82 22 89 24 90 25
REMARK SMILES IDX 12 26 13 27 14 28 15 29 16 30 17 32 18 33 19 34 80 35 20 36
REMARK SMILES IDX 79 37 21 38 22 39 23 40 73 41 24 42 78 43 72 44 74 45 25 46
REMARK SMILES IDX 77 47 71 48 70 49 26 51 58 52 38 53 57 54 39 55 42 56 56 57
REMARK SMILES IDX 75 58 40 59 41 60 55 62 76 63 43 64 27 65 28 66 36 67 29 68
REMARK SMILES IDX 30 69 34 70 37 71 31 72 32 73 35 74 33 75 59 76 60 77 68 78
REMARK SMILES IDX 61 79 62 80 66 81 69 82 63 83 64 84 67 85 65 86 44 87 45 88
REMARK SMILES IDX 53 89 46 90 47 91 51 92 54 93 48 94 49 95 52 96 50 97
REMARK H PARENT 8 7 82 23 15 31 74 50 42 61
REMARK Flexibility Score: inf
ROOT
ATOM      1  C   UNL     1       3.473  -0.960  -2.856  1.00  0.00     0.002 C 
ENDROOT
BRANCH   1   2
ATOM      2  C   UNL     1       2.224  -0.226  -2.330  1.00  0.00     0.021 C 
BRANCH   2   3
ATOM      3  C   UNL     1       1.084  -1.043  -1.720  1.00  0.00     0.116 C 
BRANCH   3   4
ATOM      4  N   UNL     1       1.144  -1.415  -0.305  1.00  0.00    -0.356 N 
ATOM      5  C   UNL     1       0.221  -2.213   0.380  1.00  0.00     0.226 C 
ATOM      6  O   UNL     1       0.249  -2.269   1.608  1.00  0.00    -0.275 OA
ATOM      7  H   UNL     1       1.906  -1.070   0.214  1.00  0.00     0.163 HD
BRANCH   5   8
ATOM      8  C   UNL     1      -0.780  -3.015  -0.460  1.00  0.00     0.115 C 
BRANCH   8   9
ATOM      9  C   UNL     1      -0.033  -3.983  -1.436  1.00  0.00     0.017 C 
BRANCH   9  10
ATOM     10  C   UNL     1       1.398  -4.448  -1.224  1.00  0.00     0.001 C 
BRANCH  10  11
ATOM     11  C   UNL     1       1.717  -5.170   0.074  1.00  0.00    -0.003 C 
ATOM     12  C   UNL     1       1.284  -6.625   0.089  1.00  0.00     0.004 C 
ENDBRANCH  10  11
ENDBRANCH   9  10
ENDBRANCH   8   9
BRANCH   8  13
ATOM     13  C   UNL     1      -2.069  -3.679   0.219  1.00  0.00     0.102 C 
ATOM     14  C   UNL     1      -1.833  -4.796   1.272  1.00  0.00     0.046 C 
ATOM     15  C   UNL     1      -2.805  -4.450  -0.895  1.00  0.00    -0.009 A 
ATOM     16  C   UNL     1      -2.434  -6.120   0.747  1.00  0.00     0.039 C 
ATOM     17  C   UNL     1      -2.655  -5.827  -0.696  1.00  0.00    -0.042 A 
ATOM     18  C   UNL     1      -3.045  -3.923  -2.165  1.00  0.00     0.053 A 
ATOM     19  C   UNL     1      -2.523  -6.679  -1.784  1.00  0.00     0.008 A 
ATOM     20  C   UNL     1      -2.786  -4.744  -3.262  1.00  0.00     0.119 A 
ATOM     21  C   UNL     1      -2.538  -6.117  -3.071  1.00  0.00     0.047 A 
BRANCH  13  22
ATOM     22  O   UNL     1      -2.972  -2.696   0.713  1.00  0.00    -0.384 OA
ATOM     23  H   UNL     1      -2.543  -2.188   1.419  1.00  0.00     0.211 HD
ENDBRANCH  13  22
BRANCH  20  24
ATOM     24  O   UNL     1      -2.602  -4.279  -4.540  1.00  0.00    -0.497 OA
ATOM     25  C   UNL     1      -2.204  -2.912  -4.655  1.00  0.00     0.278 C 
ENDBRANCH  20  24
ENDBRANCH   8  13
ENDBRANCH   5   8
ENDBRANCH   3   4
ENDBRANCH   2   3
ENDBRANCH   1   2
BRANCH   1  26
ATOM     26  C   UNL     1       3.354  -2.243  -3.695  1.00  0.00     0.002 C 
BRANCH  26  27
ATOM     27  C   UNL     1       2.400  -2.305  -4.890  1.00  0.00     0.021 C 
BRANCH  27  28
ATOM     28  C   UNL     1       2.555  -1.248  -5.979  1.00  0.00     0.116 C 
BRANCH  28  29
ATOM     29  N   UNL     1       3.897  -1.158  -6.530  1.00  0.00    -0.352 N 
ATOM     30  C   UNL     1       4.322  -1.035  -7.826  1.00  0.00     0.251 C 
ATOM     31  H   UNL     1       4.619  -1.190  -5.862  1.00  0.00     0.163 HD
ATOM     32  O   UNL     1       5.542  -1.032  -8.058  1.00  0.00    -0.269 OA
BRANCH  30  33
ATOM     33  C   UNL     1       3.381  -0.939  -8.966  1.00  0.00     0.039 A 
ATOM     34  C   UNL     1       3.704  -1.605 -10.155  1.00  0.00     0.014 A 
ATOM     35  C   UNL     1       2.214  -0.171  -8.909  1.00  0.00     0.014 A 
ATOM     36  C   UNL     1       2.840  -1.554 -11.254  1.00  0.00     0.010 A 
ATOM     37  C   UNL     1       1.320  -0.172  -9.984  1.00  0.00     0.010 A 
ATOM     38  C   UNL     1       1.622  -0.862 -11.168  1.00  0.00    -0.014 A 
BRANCH  38  39
ATOM     39  C   UNL     1       0.660  -0.859 -12.304  1.00  0.00     0.031 A 
ATOM     40  C   UNL     1       0.333   0.419 -13.027  1.00  0.00     0.074 A 
ATOM     41  C   UNL     1       0.040  -2.003 -12.656  1.00  0.00     0.049 A 
ATOM     42  N   UNL     1      -0.518   0.627 -14.002  1.00  0.00    -0.248 NA
ATOM     43  C   UNL     1       1.041   1.629 -12.582  1.00  0.00     0.031 C 
ATOM     44  C   UNL     1       0.238  -3.303 -12.014  1.00  0.00     0.029 A 
ATOM     45  N   UNL     1      -0.891  -2.255 -13.634  1.00  0.00    -0.354 N 
ATOM     46  C   UNL     1      -0.455   1.987 -14.278  1.00  0.00     0.074 A 
ATOM     47  C   UNL     1       0.479   2.564 -13.335  1.00  0.00     0.031 C 
ATOM     48  C   UNL     1      -0.530  -4.218 -12.626  1.00  0.00     0.029 A 
ATOM     49  C   UNL     1      -1.305  -3.565 -13.677  1.00  0.00     0.049 A 
ATOM     50  H   UNL     1      -1.230  -1.563 -14.247  1.00  0.00     0.167 HD
ATOM     51  C   UNL     1      -1.100   2.687 -15.243  1.00  0.00     0.037 A 
ATOM     52  C   UNL     1      -2.213  -4.170 -14.467  1.00  0.00     0.037 A 
ATOM     53  C   UNL     1      -2.015   2.109 -16.193  1.00  0.00     0.049 A 
ATOM     54  C   UNL     1      -2.931  -3.366 -15.517  1.00  0.00     0.074 A 
ATOM     55  C   UNL     1      -2.676   2.727 -17.241  1.00  0.00     0.029 A 
ATOM     56  N   UNL     1      -2.404   0.777 -16.207  1.00  0.00    -0.354 N 
ATOM     57  N   UNL     1      -2.812  -2.094 -15.811  1.00  0.00    -0.248 NA
ATOM     58  C   UNL     1      -3.905  -4.084 -16.351  1.00  0.00     0.031 C 
ATOM     59  C   UNL     1      -3.503   1.782 -17.858  1.00  0.00     0.029 A 
ATOM     60  C   UNL     1      -3.315   0.561 -17.230  1.00  0.00     0.049 A 
ATOM     61  H   UNL     1      -2.081   0.088 -15.584  1.00  0.00     0.167 HD
ATOM     62  C   UNL     1      -3.672  -1.866 -16.878  1.00  0.00     0.074 A 
ATOM     63  C   UNL     1      -4.293  -3.136 -17.191  1.00  0.00     0.031 C 
ATOM     64  C   UNL     1      -3.923  -0.709 -17.537  1.00  0.00     0.037 A 
BRANCH  51  65
ATOM     65  C   UNL     1      -0.839   4.165 -15.322  1.00  0.00     0.064 A 
ATOM     66  C   UNL     1       0.399   4.673 -15.745  1.00  0.00     0.173 A 
ATOM     67  C   UNL     1      -1.853   5.085 -15.014  1.00  0.00     0.173 A 
ATOM     68  F   UNL     1       1.405   3.837 -16.044  1.00  0.00    -0.203 F 
ATOM     69  C   UNL     1       0.623   6.045 -15.825  1.00  0.00     0.198 A 
ATOM     70  C   UNL     1      -1.636   6.457 -15.126  1.00  0.00     0.198 A 
ATOM     71  F   UNL     1      -3.059   4.656 -14.613  1.00  0.00    -0.203 F 
ATOM     72  F   UNL     1       1.829   6.506 -16.182  1.00  0.00    -0.200 F 
ATOM     73  C   UNL     1      -0.397   6.935 -15.522  1.00  0.00     0.200 A 
ATOM     74  F   UNL     1      -2.626   7.315 -14.847  1.00  0.00    -0.200 F 
ATOM     75  F   UNL     1      -0.182   8.255 -15.607  1.00  0.00    -0.200 F 
ENDBRANCH  51  65
BRANCH  52  76
ATOM     76  C   UNL     1      -2.484  -5.624 -14.309  1.00  0.00     0.064 A 
ATOM     77  C   UNL     1      -2.107  -6.540 -15.301  1.00  0.00     0.173 A 
ATOM     78  C   UNL     1      -3.134  -6.127 -13.172  1.00  0.00     0.173 A 
ATOM     79  F   UNL     1      -1.503  -6.105 -16.418  1.00  0.00    -0.203 F 
ATOM     80  C   UNL     1      -2.388  -7.898 -15.173  1.00  0.00     0.198 A 
ATOM     81  C   UNL     1      -3.388  -7.489 -13.031  1.00  0.00     0.198 A 
ATOM     82  F   UNL     1      -3.514  -5.294 -12.192  1.00  0.00    -0.203 F 
ATOM     83  F   UNL     1      -2.060  -8.744 -16.160  1.00  0.00    -0.200 F 
ATOM     84  C   UNL     1      -3.022  -8.373 -14.035  1.00  0.00     0.200 A 
ATOM     85  F   UNL     1      -3.989  -7.946 -11.924  1.00  0.00    -0.200 F 
ATOM     86  F   UNL     1      -3.290  -9.680 -13.911  1.00  0.00    -0.200 F 
ENDBRANCH  52  76
BRANCH  64  87
ATOM     87  C   UNL     1      -4.886  -0.766 -18.689  1.00  0.00     0.064 A 
ATOM     88  C   UNL     1      -6.262  -0.952 -18.492  1.00  0.00     0.173 A 
ATOM     89  C   UNL     1      -4.429  -0.595 -20.005  1.00  0.00     0.173 A 
ATOM     90  F   UNL     1      -6.748  -1.135 -17.255  1.00  0.00    -0.203 F 
ATOM     91  C   UNL     1      -7.141  -0.991 -19.571  1.00  0.00     0.198 A 
ATOM     92  C   UNL     1      -5.315  -0.604 -21.079  1.00  0.00     0.198 A 
ATOM     93  F   UNL     1      -3.123  -0.408 -20.249  1.00  0.00    -0.203 F 
ATOM     94  F   UNL     1      -8.445  -1.220 -19.362  1.00  0.00    -0.200 F 
ATOM     95  C   UNL     1      -6.668  -0.809 -20.862  1.00  0.00     0.200 A 
ATOM     96  F   UNL     1      -4.857  -0.413 -22.324  1.00  0.00    -0.200 F 
ATOM     97  F   UNL     1      -7.517  -0.840 -21.899  1.00  0.00    -0.200 F 
ENDBRANCH  64  87
ENDBRANCH  38  39
ENDBRANCH  30  33
ENDBRANCH  28  29
ENDBRANCH  27  28
ENDBRANCH  26  27
ENDBRANCH   1  26
TORSDOF 19
