REMARK SMILES CCN(CC)C(=O)C[C@](C)(C(=O)NCCCCCCNC(=O)c1ccc(-c2c3nc(c(-c4c(F)c(F)c(F)c(F)c4F)c4ccc([nH]4)c(-c4c(F)c(F)c(F)c(F)c4F)c4nc(c(-c5c(F)c(F)c(F)c(F)c5F)c5ccc2[nH]5)C=C4)C=C3)cc1)c1ccccc1
REMARK SMILES IDX 16 1 15 2 14 3 13 4 11 5 12 6 9 8 10 9 8 10 6 11 3 12 7 13
REMARK SMILES IDX 2 14 1 15 4 16 5 17 86 18 87 19 91 20 88 21 90 22 89 23
REMARK SMILES IDX 17 24 18 25 19 26 20 27 21 28 22 30 23 31 24 32 85 33 25 34
REMARK SMILES IDX 84 35 26 36 27 37 28 38 78 39 29 40 83 41 77 42 79 43 30 44
REMARK SMILES IDX 82 45 76 46 75 47 31 49 63 50 43 51 62 52 44 53 47 54 61 55
REMARK SMILES IDX 80 56 45 57 46 58 60 60 81 61 48 62 32 63 33 64 41 65 34 66
REMARK SMILES IDX 35 67 39 68 42 69 36 70 37 71 40 72 38 73 64 74 65 75 73 76
REMARK SMILES IDX 66 77 67 78 71 79 74 80 68 81 69 82 72 83 70 84 49 85 50 86
REMARK SMILES IDX 58 87 51 88 52 89 56 90 59 91 53 92 54 93 57 94 55 95
REMARK H PARENT 13 7 20 29 79 48 47 59
REMARK Flexibility Score: inf
ROOT
ATOM      1  C   UNL     1       2.990   0.320   8.951  1.00  0.00     0.002 C 
ENDROOT
BRANCH   1   2
ATOM      2  C   UNL     1       2.590  -0.115   7.535  1.00  0.00     0.021 C 
BRANCH   2   3
ATOM      3  C   UNL     1       1.785   0.951   6.791  1.00  0.00     0.116 C 
BRANCH   3   4
ATOM      4  N   UNL     1       2.647   2.069   6.459  1.00  0.00    -0.355 N 
ATOM      5  C   UNL     1       3.219   2.483   5.292  1.00  0.00     0.230 C 
ATOM      6  O   UNL     1       4.135   3.296   5.448  1.00  0.00    -0.274 OA
ATOM      7  H   UNL     1       2.864   2.642   7.230  1.00  0.00     0.163 HD
BRANCH   5   8
ATOM      8  C   UNL     1       2.727   1.982   3.890  1.00  0.00     0.080 C 
ATOM      9  C   UNL     1       3.096   0.467   3.840  1.00  0.00     0.027 C 
BRANCH   8  10
ATOM     10  C   UNL     1       1.172   2.164   3.859  1.00  0.00     0.121 C 
BRANCH  10  11
ATOM     11  C   UNL     1       0.472   2.891   2.727  1.00  0.00     0.223 C 
ATOM     12  N   UNL     1       0.381   4.276   2.646  1.00  0.00    -0.343 N 
ATOM     13  O   UNL     1      -0.088   2.169   1.890  1.00  0.00    -0.275 OA
BRANCH  12  14
ATOM     14  C   UNL     1      -0.104   4.823   1.363  1.00  0.00     0.116 C 
ATOM     15  C   UNL     1       0.541   4.257   0.099  1.00  0.00     0.027 C 
ENDBRANCH  12  14
BRANCH  12  16
ATOM     16  C   UNL     1       0.678   5.308   3.663  1.00  0.00     0.116 C 
ATOM     17  C   UNL     1       0.299   5.085   5.115  1.00  0.00     0.027 C 
ENDBRANCH  12  16
ENDBRANCH  10  11
ENDBRANCH   8  10
BRANCH   8  18
ATOM     18  C   UNL     1       3.444   2.721   2.719  1.00  0.00    -0.032 A 
ATOM     19  C   UNL     1       3.851   2.080   1.532  1.00  0.00     0.005 A 
ATOM     20  C   UNL     1       3.688   4.104   2.781  1.00  0.00     0.005 A 
ATOM     21  C   UNL     1       4.428   2.790   0.469  1.00  0.00     0.000 A 
ATOM     22  C   UNL     1       4.221   4.825   1.710  1.00  0.00     0.000 A 
ATOM     23  C   UNL     1       4.589   4.167   0.547  1.00  0.00     0.000 A 
ENDBRANCH   8  18
ENDBRANCH   5   8
ENDBRANCH   3   4
ENDBRANCH   2   3
ENDBRANCH   1   2
BRANCH   1  24
ATOM     24  C   UNL     1       1.809   0.666   9.866  1.00  0.00     0.002 C 
BRANCH  24  25
ATOM     25  C   UNL     1       0.758  -0.439   9.989  1.00  0.00     0.021 C 
BRANCH  25  26
ATOM     26  C   UNL     1       1.308  -1.760  10.511  1.00  0.00     0.116 C 
BRANCH  26  27
ATOM     27  N   UNL     1       1.817  -1.633  11.867  1.00  0.00    -0.352 N 
ATOM     28  C   UNL     1       1.496  -2.363  12.984  1.00  0.00     0.251 C 
ATOM     29  H   UNL     1       2.487  -0.925  12.002  1.00  0.00     0.163 HD
ATOM     30  O   UNL     1       1.854  -1.991  14.093  1.00  0.00    -0.269 OA
BRANCH  28  31
ATOM     31  C   UNL     1       0.695  -3.596  12.838  1.00  0.00     0.039 A 
ATOM     32  C   UNL     1      -0.361  -3.823  13.722  1.00  0.00     0.014 A 
ATOM     33  C   UNL     1       0.986  -4.520  11.831  1.00  0.00     0.014 A 
ATOM     34  C   UNL     1      -1.161  -4.956  13.562  1.00  0.00     0.010 A 
ATOM     35  C   UNL     1       0.140  -5.604  11.623  1.00  0.00     0.010 A 
ATOM     36  C   UNL     1      -0.937  -5.837  12.491  1.00  0.00    -0.014 A 
BRANCH  36  37
ATOM     37  C   UNL     1      -1.811  -7.017  12.270  1.00  0.00     0.031 A 
ATOM     38  C   UNL     1      -1.240  -8.404  12.361  1.00  0.00     0.074 A 
ATOM     39  C   UNL     1      -3.102  -6.837  11.930  1.00  0.00     0.049 A 
ATOM     40  N   UNL     1      -1.819  -9.556  12.134  1.00  0.00    -0.248 NA
ATOM     41  C   UNL     1       0.181  -8.511  12.729  1.00  0.00     0.031 C 
ATOM     42  C   UNL     1      -3.761  -5.540  11.770  1.00  0.00     0.029 A 
ATOM     43  N   UNL     1      -4.088  -7.748  11.646  1.00  0.00    -0.354 N 
ATOM     44  C   UNL     1      -0.835 -10.518  12.321  1.00  0.00     0.074 A 
ATOM     45  C   UNL     1       0.393  -9.814  12.618  1.00  0.00     0.031 C 
ATOM     46  C   UNL     1      -5.048  -5.739  11.443  1.00  0.00     0.029 A 
ATOM     47  C   UNL     1      -5.293  -7.173  11.324  1.00  0.00     0.049 A 
ATOM     48  H   UNL     1      -3.946  -8.722  11.672  1.00  0.00     0.167 HD
ATOM     49  C   UNL     1      -0.951 -11.866  12.274  1.00  0.00     0.037 A 
ATOM     50  C   UNL     1      -6.460  -7.739  10.963  1.00  0.00     0.037 A 
ATOM     51  C   UNL     1      -2.180 -12.561  11.992  1.00  0.00     0.049 A 
ATOM     52  C   UNL     1      -6.555  -9.240  10.891  1.00  0.00     0.074 A 
ATOM     53  C   UNL     1      -2.414 -13.925  11.971  1.00  0.00     0.029 A 
ATOM     54  N   UNL     1      -3.382 -11.944  11.677  1.00  0.00    -0.354 N 
ATOM     55  N   UNL     1      -5.635 -10.141  11.136  1.00  0.00    -0.248 NA
ATOM     56  C   UNL     1      -7.854  -9.802  10.498  1.00  0.00     0.031 C 
ATOM     57  C   UNL     1      -3.742 -14.134  11.585  1.00  0.00     0.029 A 
ATOM     58  C   UNL     1      -4.354 -12.901  11.431  1.00  0.00     0.049 A 
ATOM     59  H   UNL     1      -3.523 -10.971  11.633  1.00  0.00     0.167 HD
ATOM     60  C   UNL     1      -6.251 -11.373  10.961  1.00  0.00     0.074 A 
ATOM     61  C   UNL     1      -7.628 -11.103  10.603  1.00  0.00     0.031 C 
ATOM     62  C   UNL     1      -5.725 -12.617  11.087  1.00  0.00     0.037 A 
BRANCH  49  63
ATOM     63  C   UNL     1       0.286 -12.680  12.530  1.00  0.00     0.064 A 
ATOM     64  C   UNL     1       0.891 -12.725  13.796  1.00  0.00     0.173 A 
ATOM     65  C   UNL     1       0.856 -13.451  11.506  1.00  0.00     0.173 A 
ATOM     66  F   UNL     1       0.394 -11.998  14.808  1.00  0.00    -0.203 F 
ATOM     67  C   UNL     1       2.038 -13.483  14.017  1.00  0.00     0.198 A 
ATOM     68  C   UNL     1       1.982 -14.237  11.740  1.00  0.00     0.198 A 
ATOM     69  F   UNL     1       0.316 -13.451  10.278  1.00  0.00    -0.203 F 
ATOM     70  F   UNL     1       2.630 -13.464  15.220  1.00  0.00    -0.200 F 
ATOM     71  C   UNL     1       2.578 -14.244  12.992  1.00  0.00     0.200 A 
ATOM     72  F   UNL     1       2.493 -14.984  10.752  1.00  0.00    -0.200 F 
ATOM     73  F   UNL     1       3.677 -14.980  13.208  1.00  0.00    -0.200 F 
ENDBRANCH  49  63
BRANCH  50  74
ATOM     74  C   UNL     1      -7.640  -6.886  10.659  1.00  0.00     0.064 A 
ATOM     75  C   UNL     1      -8.768  -6.892  11.492  1.00  0.00     0.173 A 
ATOM     76  C   UNL     1      -7.672  -6.058   9.527  1.00  0.00     0.173 A 
ATOM     77  F   UNL     1      -8.794  -7.681  12.576  1.00  0.00    -0.203 F 
ATOM     78  C   UNL     1      -9.891  -6.124  11.191  1.00  0.00     0.198 A 
ATOM     79  C   UNL     1      -8.782  -5.266   9.245  1.00  0.00     0.198 A 
ATOM     80  F   UNL     1      -6.617  -6.009   8.700  1.00  0.00    -0.203 F 
ATOM     81  F   UNL     1     -10.975  -6.191  11.976  1.00  0.00    -0.200 F 
ATOM     82  C   UNL     1      -9.895  -5.307  10.071  1.00  0.00     0.200 A 
ATOM     83  F   UNL     1      -8.775  -4.465   8.171  1.00  0.00    -0.200 F 
ATOM     84  F   UNL     1     -10.974  -4.567   9.783  1.00  0.00    -0.200 F 
ENDBRANCH  50  74
BRANCH  62  85
ATOM     85  C   UNL     1      -6.649 -13.783  10.883  1.00  0.00     0.064 A 
ATOM     86  C   UNL     1      -7.158 -14.114   9.619  1.00  0.00     0.173 A 
ATOM     87  C   UNL     1      -6.997 -14.607  11.966  1.00  0.00     0.173 A 
ATOM     88  F   UNL     1      -6.868 -13.351   8.553  1.00  0.00    -0.203 F 
ATOM     89  C   UNL     1      -8.004 -15.208   9.451  1.00  0.00     0.198 A 
ATOM     90  C   UNL     1      -7.814 -15.720  11.788  1.00  0.00     0.198 A 
ATOM     91  F   UNL     1      -6.532 -14.340  13.195  1.00  0.00    -0.203 F 
ATOM     92  F   UNL     1      -8.521 -15.473   8.243  1.00  0.00    -0.200 F 
ATOM     93  C   UNL     1      -8.323 -16.014  10.533  1.00  0.00     0.200 A 
ATOM     94  F   UNL     1      -8.106 -16.508  12.832  1.00  0.00    -0.200 F 
ATOM     95  F   UNL     1      -9.129 -17.072  10.367  1.00  0.00    -0.200 F 
ENDBRANCH  62  85
ENDBRANCH  36  37
ENDBRANCH  28  31
ENDBRANCH  26  27
ENDBRANCH  25  26
ENDBRANCH  24  25
ENDBRANCH   1  24
TORSDOF 18
