REMARK SMILES CC[N@@H+]([C@@H]1CSCC(C)(C)C1)[C@@H]1COC[C@@H]1C(=O)NCCCCCCNC(=O)c1ccc(-c2c3nc(c(-c4c(F)c(F)c(F)c(F)c4F)c4ccc([nH]4)c(-c4c(F)c(F)c(F)c(F)c4F)c4nc(c(-c5c(F)c(F)c(F)c(F)c5F)c5ccc2[nH]5)C=C4)C=C3)cc1
REMARK SMILES IDX 22 1 21 2 20 3 19 4 17 5 18 6 16 8 12 9 13 10 14 11 15 12
REMARK SMILES IDX 3 13 2 15 1 16 4 17 5 18 11 19 6 20 8 21 7 22 9 23 10 24
REMARK SMILES IDX 23 25 24 26 25 27 26 28 27 29 28 31 29 32 30 33 91 34 31 35
REMARK SMILES IDX 90 36 32 37 33 38 34 39 84 40 35 41 89 42 83 43 85 44 36 45
REMARK SMILES IDX 88 46 82 47 81 48 37 50 69 51 49 52 68 53 50 54 53 55 67 56
REMARK SMILES IDX 86 57 51 58 52 59 66 61 87 62 54 63 38 64 39 65 47 66 40 67
REMARK SMILES IDX 41 68 45 69 48 70 42 71 43 72 46 73 44 74 70 75 71 76 79 77
REMARK SMILES IDX 72 78 73 79 77 80 80 81 74 82 75 83 78 84 76 85 55 86 56 87
REMARK SMILES IDX 64 88 57 89 58 90 62 91 65 92 59 93 60 94 63 95 61 96
REMARK H PARENT 19 7 3 14 26 30 85 49 53 60
REMARK Flexibility Score: inf
ROOT
ATOM      1  C   UNL     1      -2.171   5.977   2.169  1.00  0.00     0.002 C 
ENDROOT
BRANCH   1   2
ATOM      2  C   UNL     1      -1.096   5.062   1.590  1.00  0.00     0.021 C 
BRANCH   2   3
ATOM      3  C   UNL     1       0.348   5.375   2.015  1.00  0.00     0.116 C 
BRANCH   3   4
ATOM      4  N   UNL     1       0.964   4.216   2.657  1.00  0.00    -0.356 N 
ATOM      5  C   UNL     1       2.014   3.407   2.328  1.00  0.00     0.231 C 
ATOM      6  O   UNL     1       2.270   2.491   3.113  1.00  0.00    -0.274 OA
ATOM      7  H   UNL     1       0.532   3.967   3.506  1.00  0.00     0.163 HD
BRANCH   5   8
ATOM      8  C   UNL     1       2.834   3.643   1.069  1.00  0.00     0.164 C 
ATOM      9  C   UNL     1       2.653   2.635  -0.084  1.00  0.00     0.225 C 
ATOM     10  C   UNL     1       3.594   1.501   0.357  1.00  0.00     0.226 C 
ATOM     11  O   UNL     1       4.731   2.143   0.950  1.00  0.00    -0.374 OA
ATOM     12  C   UNL     1       4.324   3.449   1.389  1.00  0.00     0.180 C 
BRANCH   9  13
ATOM     13  N   UNL     1       1.341   2.234  -0.644  1.00  0.00    -0.327 N 
ATOM     14  H   UNL     1       1.596   1.781  -1.522  1.00  0.00     0.348 HD
BRANCH  13  15
ATOM     15  C   UNL     1       0.635   1.247   0.213  1.00  0.00     0.259 C 
ATOM     16  C   UNL     1       0.756  -0.171  -0.329  1.00  0.00     0.071 C 
ENDBRANCH  13  15
BRANCH  13  17
ATOM     17  C   UNL     1       0.436   3.342  -1.049  1.00  0.00     0.194 C 
ATOM     18  C   UNL     1      -0.763   2.897  -1.934  1.00  0.00     0.134 C 
ATOM     19  C   UNL     1       1.017   4.694  -1.554  1.00  0.00     0.073 C 
ATOM     20  S   UNL     1      -0.488   2.900  -3.727  1.00  0.00    -0.155 SA
ATOM     21  C   UNL     1       1.316   4.917  -3.050  1.00  0.00    -0.021 C 
ATOM     22  C   UNL     1       0.076   4.612  -3.904  1.00  0.00     0.076 C 
ATOM     23  C   UNL     1       2.538   4.107  -3.512  1.00  0.00     0.012 C 
ATOM     24  C   UNL     1       1.660   6.418  -3.224  1.00  0.00     0.012 C 
ENDBRANCH  13  17
ENDBRANCH   9  13
ENDBRANCH   5   8
ENDBRANCH   3   4
ENDBRANCH   2   3
ENDBRANCH   1   2
BRANCH   1  25
ATOM     25  C   UNL     1      -2.195   7.396   1.593  1.00  0.00     0.002 C 
BRANCH  25  26
ATOM     26  C   UNL     1      -2.399   7.530   0.076  1.00  0.00     0.021 C 
BRANCH  26  27
ATOM     27  C   UNL     1      -3.588   6.780  -0.530  1.00  0.00     0.116 C 
BRANCH  27  28
ATOM     28  N   UNL     1      -4.846   7.082   0.129  1.00  0.00    -0.352 N 
ATOM     29  C   UNL     1      -5.955   7.777  -0.281  1.00  0.00     0.251 C 
ATOM     30  H   UNL     1      -4.917   6.719   1.041  1.00  0.00     0.163 HD
ATOM     31  O   UNL     1      -6.832   8.031   0.541  1.00  0.00    -0.269 OA
BRANCH  29  32
ATOM     32  C   UNL     1      -6.121   8.249  -1.675  1.00  0.00     0.039 A 
ATOM     33  C   UNL     1      -6.677   9.519  -1.876  1.00  0.00     0.014 A 
ATOM     34  C   UNL     1      -5.825   7.446  -2.779  1.00  0.00     0.014 A 
ATOM     35  C   UNL     1      -6.875  10.005  -3.172  1.00  0.00     0.010 A 
ATOM     36  C   UNL     1      -5.972   7.954  -4.074  1.00  0.00     0.010 A 
ATOM     37  C   UNL     1      -6.492   9.241  -4.284  1.00  0.00    -0.014 A 
BRANCH  37  38
ATOM     38  C   UNL     1      -6.596   9.793  -5.662  1.00  0.00     0.031 A 
ATOM     39  C   UNL     1      -7.550   9.200  -6.662  1.00  0.00     0.074 A 
ATOM     40  C   UNL     1      -5.783  10.802  -6.030  1.00  0.00     0.049 A 
ATOM     41  N   UNL     1      -7.725   9.511  -7.923  1.00  0.00    -0.248 NA
ATOM     42  C   UNL     1      -8.407   8.104  -6.190  1.00  0.00     0.031 C 
ATOM     43  C   UNL     1      -4.791  11.443  -5.166  1.00  0.00     0.029 A 
ATOM     44  N   UNL     1      -5.652  11.458  -7.229  1.00  0.00    -0.354 N 
ATOM     45  C   UNL     1      -8.699   8.643  -8.397  1.00  0.00     0.074 A 
ATOM     46  C   UNL     1      -9.052   7.768  -7.299  1.00  0.00     0.031 C 
ATOM     47  C   UNL     1      -4.161  12.406  -5.858  1.00  0.00     0.029 A 
ATOM     48  C   UNL     1      -4.677  12.426  -7.223  1.00  0.00     0.049 A 
ATOM     49  H   UNL     1      -6.204  11.254  -8.018  1.00  0.00     0.167 HD
ATOM     50  C   UNL     1      -9.259   8.592  -9.631  1.00  0.00     0.037 A 
ATOM     51  C   UNL     1      -4.238  13.232  -8.209  1.00  0.00     0.037 A 
ATOM     52  C   UNL     1      -8.925   9.477 -10.717  1.00  0.00     0.049 A 
ATOM     53  C   UNL     1      -4.869  13.146  -9.571  1.00  0.00     0.074 A 
ATOM     54  C   UNL     1      -9.485   9.541 -11.982  1.00  0.00     0.029 A 
ATOM     55  N   UNL     1      -7.939  10.452 -10.669  1.00  0.00    -0.354 N 
ATOM     56  N   UNL     1      -5.833  12.362  -9.988  1.00  0.00    -0.248 NA
ATOM     57  C   UNL     1      -4.353  14.060 -10.600  1.00  0.00     0.031 C 
ATOM     58  C   UNL     1      -8.808  10.523 -12.714  1.00  0.00     0.029 A 
ATOM     59  C   UNL     1      -7.859  11.104 -11.890  1.00  0.00     0.049 A 
ATOM     60  H   UNL     1      -7.380  10.651  -9.884  1.00  0.00     0.167 HD
ATOM     61  C   UNL     1      -6.056  12.703 -11.315  1.00  0.00     0.074 A 
ATOM     62  C   UNL     1      -5.136  13.776 -11.631  1.00  0.00     0.031 C 
ATOM     63  C   UNL     1      -6.941  12.173 -12.192  1.00  0.00     0.037 A 
BRANCH  50  64
ATOM     64  C   UNL     1     -10.300   7.539  -9.880  1.00  0.00     0.064 A 
ATOM     65  C   UNL     1     -11.582   7.625  -9.317  1.00  0.00     0.173 A 
ATOM     66  C   UNL     1     -10.033   6.463 -10.741  1.00  0.00     0.173 A 
ATOM     67  F   UNL     1     -11.886   8.631  -8.482  1.00  0.00    -0.203 F 
ATOM     68  C   UNL     1     -12.549   6.660  -9.586  1.00  0.00     0.198 A 
ATOM     69  C   UNL     1     -11.011   5.515 -11.029  1.00  0.00     0.198 A 
ATOM     70  F   UNL     1      -8.826   6.339 -11.314  1.00  0.00    -0.203 F 
ATOM     71  F   UNL     1     -13.755   6.743  -9.005  1.00  0.00    -0.200 F 
ATOM     72  C   UNL     1     -12.266   5.611 -10.447  1.00  0.00     0.200 A 
ATOM     73  F   UNL     1     -10.740   4.509 -11.872  1.00  0.00    -0.200 F 
ATOM     74  F   UNL     1     -13.202   4.689 -10.713  1.00  0.00    -0.200 F 
ENDBRANCH  50  64
BRANCH  51  75
ATOM     75  C   UNL     1      -3.146  14.202  -7.940  1.00  0.00     0.064 A 
ATOM     76  C   UNL     1      -3.400  15.580  -7.905  1.00  0.00     0.173 A 
ATOM     77  C   UNL     1      -1.829  13.774  -7.717  1.00  0.00     0.173 A 
ATOM     78  F   UNL     1      -4.639  16.038  -8.134  1.00  0.00    -0.203 F 
ATOM     79  C   UNL     1      -2.374  16.495  -7.676  1.00  0.00     0.198 A 
ATOM     80  C   UNL     1      -0.809  14.689  -7.460  1.00  0.00     0.198 A 
ATOM     81  F   UNL     1      -1.535  12.466  -7.735  1.00  0.00    -0.203 F 
ATOM     82  F   UNL     1      -2.636  17.809  -7.692  1.00  0.00    -0.200 F 
ATOM     83  C   UNL     1      -1.081  16.048  -7.448  1.00  0.00     0.200 A 
ATOM     84  F   UNL     1       0.436  14.252  -7.226  1.00  0.00    -0.200 F 
ATOM     85  F   UNL     1      -0.096  16.928  -7.224  1.00  0.00    -0.200 F 
ENDBRANCH  51  75
BRANCH  63  86
ATOM     86  C   UNL     1      -6.979  12.763 -13.572  1.00  0.00     0.064 A 
ATOM     87  C   UNL     1      -5.953  12.529 -14.499  1.00  0.00     0.173 A 
ATOM     88  C   UNL     1      -8.069  13.546 -13.981  1.00  0.00     0.173 A 
ATOM     89  F   UNL     1      -4.881  11.801 -14.149  1.00  0.00    -0.203 F 
ATOM     90  C   UNL     1      -6.005  13.077 -15.778  1.00  0.00     0.198 A 
ATOM     91  C   UNL     1      -8.131  14.070 -15.269  1.00  0.00     0.198 A 
ATOM     92  F   UNL     1      -9.078  13.797 -13.133  1.00  0.00    -0.203 F 
ATOM     93  F   UNL     1      -4.992  12.878 -16.632  1.00  0.00    -0.200 F 
ATOM     94  C   UNL     1      -7.097  13.840 -16.164  1.00  0.00     0.200 A 
ATOM     95  F   UNL     1      -9.191  14.798 -15.645  1.00  0.00    -0.200 F 
ATOM     96  F   UNL     1      -7.148  14.363 -17.397  1.00  0.00    -0.200 F 
ENDBRANCH  63  86
ENDBRANCH  37  38
ENDBRANCH  29  32
ENDBRANCH  27  28
ENDBRANCH  26  27
ENDBRANCH  25  26
ENDBRANCH   1  25
TORSDOF 16
