REMARK SMILES Cc1ccccc1NC(=O)CSc1nc(C(=O)NCCCCCCNC(=O)c2ccc(-c3c4nc(c(-c5c(F)c(F)c(F)c(F)c5F)c5ccc([nH]5)c(-c5c(F)c(F)c(F)c(F)c5F)c5nc(c(-c6c(F)c(F)c(F)c(F)c6F)c6ccc3[nH]6)C=C5)C=C4)cc2)c2ccccc2n1
REMARK SMILES IDX 20 1 19 2 18 3 16 4 17 5 15 7 13 8 14 9 97 10 96 11 91 12
REMARK SMILES IDX 95 13 92 14 94 15 93 16 12 17 11 18 9 19 8 20 10 22 7 23
REMARK SMILES IDX 1 24 2 25 3 26 4 27 6 28 5 29 21 30 22 31 23 32 24 33 25 34
REMARK SMILES IDX 26 35 27 37 28 38 29 39 90 40 30 41 89 42 31 43 32 44 33 45
REMARK SMILES IDX 83 46 34 47 88 48 82 49 84 50 35 51 87 52 81 53 80 54 36 56
REMARK SMILES IDX 68 57 48 58 67 59 49 60 52 61 66 62 85 63 50 64 51 65 65 67
REMARK SMILES IDX 86 68 53 69 37 70 38 71 46 72 39 73 40 74 44 75 47 76 41 77
REMARK SMILES IDX 42 78 45 79 43 80 69 81 70 82 78 83 71 84 72 85 76 86 79 87
REMARK SMILES IDX 73 88 74 89 77 90 75 91 54 92 55 93 63 94 56 95 57 96 61 97
REMARK SMILES IDX 64 98 58 99 59 100 62 101 60 102
REMARK H PARENT 18 6 8 21 25 36 84 55 52 66
REMARK Flexibility Score: inf
ROOT
ATOM      1  C   UNL     1      -2.257   8.132  -7.800  1.00  0.00     0.021 C 
ENDROOT
BRANCH   1   2
ATOM      2  C   UNL     1      -1.467   7.296  -6.795  1.00  0.00     0.116 C 
BRANCH   2   3
ATOM      3  N   UNL     1      -1.287   7.865  -5.478  1.00  0.00    -0.351 N 
ATOM      4  C   UNL     1      -0.882   7.256  -4.299  1.00  0.00     0.270 C 
ATOM      5  O   UNL     1      -0.694   7.977  -3.319  1.00  0.00    -0.267 OA
ATOM      6  H   UNL     1      -1.480   8.828  -5.407  1.00  0.00     0.163 HD
BRANCH   4   7
ATOM      7  C   UNL     1      -0.761   5.763  -4.159  1.00  0.00     0.140 A 
ATOM      8  C   UNL     1      -1.521   3.958  -2.996  1.00  0.00     0.189 A 
ATOM      9  N   UNL     1      -1.474   5.281  -3.112  1.00  0.00    -0.217 NA
ATOM     10  N   UNL     1      -1.028   3.093  -3.890  1.00  0.00    -0.222 NA
ATOM     11  C   UNL     1      -0.313   3.585  -4.902  1.00  0.00     0.076 A 
ATOM     12  C   UNL     1      -0.050   4.949  -5.053  1.00  0.00     0.032 A 
ATOM     13  C   UNL     1       0.181   2.699  -5.850  1.00  0.00     0.029 A 
ATOM     14  C   UNL     1       0.867   5.361  -6.055  1.00  0.00     0.013 A 
ATOM     15  C   UNL     1       0.980   3.124  -6.913  1.00  0.00     0.002 A 
ATOM     16  C   UNL     1       1.353   4.457  -6.997  1.00  0.00     0.001 A 
BRANCH   8  17
ATOM     17  S   UNL     1      -2.395   3.261  -1.629  1.00  0.00    -0.076 SA
BRANCH  17  18
ATOM     18  C   UNL     1      -1.419   3.933  -0.252  1.00  0.00     0.178 C 
BRANCH  18  19
ATOM     19  C   UNL     1       0.051   3.577  -0.303  1.00  0.00     0.234 C 
ATOM     20  N   UNL     1       0.574   2.337  -0.095  1.00  0.00    -0.325 N 
ATOM     21  H   UNL     1       1.559   2.348  -0.108  1.00  0.00     0.169 HD
ATOM     22  O   UNL     1       0.881   4.472  -0.523  1.00  0.00    -0.274 OA
BRANCH  20  23
ATOM     23  C   UNL     1       0.067   1.042   0.133  1.00  0.00     0.044 A 
ATOM     24  C   UNL     1       2.442   0.029  -0.163  1.00  0.00     0.046 C 
ATOM     25  C   UNL     1       0.949  -0.063   0.034  1.00  0.00    -0.027 A 
ATOM     26  C   UNL     1       0.427  -1.373   0.089  1.00  0.00     0.005 A 
ATOM     27  C   UNL     1      -0.928  -1.602   0.294  1.00  0.00     0.000 A 
ATOM     28  C   UNL     1      -1.275   0.784   0.424  1.00  0.00     0.026 A 
ATOM     29  C   UNL     1      -1.773  -0.522   0.489  1.00  0.00     0.002 A 
ENDBRANCH  20  23
ENDBRANCH  18  19
ENDBRANCH  17  18
ENDBRANCH   8  17
ENDBRANCH   4   7
ENDBRANCH   2   3
ENDBRANCH   1   2
BRANCH   1  30
ATOM     30  C   UNL     1      -1.885   9.606  -8.012  1.00  0.00     0.002 C 
BRANCH  30  31
ATOM     31  C   UNL     1      -0.414  10.046  -8.010  1.00  0.00     0.002 C 
BRANCH  31  32
ATOM     32  C   UNL     1       0.578   9.286  -8.889  1.00  0.00     0.021 C 
BRANCH  32  33
ATOM     33  C   UNL     1       0.316   9.342 -10.387  1.00  0.00     0.116 C 
BRANCH  33  34
ATOM     34  N   UNL     1       1.137  10.312 -11.109  1.00  0.00    -0.352 N 
ATOM     35  C   UNL     1       1.199  10.529 -12.479  1.00  0.00     0.251 C 
ATOM     36  H   UNL     1       1.719  10.882 -10.556  1.00  0.00     0.163 HD
ATOM     37  O   UNL     1       1.892  11.409 -12.959  1.00  0.00    -0.269 OA
BRANCH  35  38
ATOM     38  C   UNL     1       0.303   9.727 -13.342  1.00  0.00     0.039 A 
ATOM     39  C   UNL     1      -0.681  10.400 -14.071  1.00  0.00     0.014 A 
ATOM     40  C   UNL     1       0.266   8.343 -13.195  1.00  0.00     0.014 A 
ATOM     41  C   UNL     1      -1.842   9.717 -14.420  1.00  0.00     0.010 A 
ATOM     42  C   UNL     1      -0.923   7.689 -13.455  1.00  0.00     0.010 A 
ATOM     43  C   UNL     1      -2.006   8.400 -13.987  1.00  0.00    -0.014 A 
BRANCH  43  44
ATOM     44  C   UNL     1      -3.310   7.746 -13.915  1.00  0.00     0.031 A 
ATOM     45  C   UNL     1      -3.676   6.683 -14.869  1.00  0.00     0.074 A 
ATOM     46  C   UNL     1      -4.162   8.074 -12.917  1.00  0.00     0.049 A 
ATOM     47  N   UNL     1      -4.882   6.274 -15.079  1.00  0.00    -0.248 NA
ATOM     48  C   UNL     1      -2.694   6.031 -15.720  1.00  0.00     0.031 C 
ATOM     49  C   UNL     1      -5.381   7.374 -12.520  1.00  0.00     0.029 A 
ATOM     50  N   UNL     1      -4.213   9.287 -12.208  1.00  0.00    -0.354 N 
ATOM     51  C   UNL     1      -4.824   5.155 -15.876  1.00  0.00     0.074 A 
ATOM     52  C   UNL     1      -3.446   5.096 -16.308  1.00  0.00     0.031 C 
ATOM     53  C   UNL     1      -6.207   8.253 -11.932  1.00  0.00     0.029 A 
ATOM     54  C   UNL     1      -5.596   9.563 -12.058  1.00  0.00     0.049 A 
ATOM     55  H   UNL     1      -3.455   9.826 -11.886  1.00  0.00     0.167 HD
ATOM     56  C   UNL     1      -5.932   4.360 -15.972  1.00  0.00     0.037 A 
ATOM     57  C   UNL     1      -6.161  10.645 -12.666  1.00  0.00     0.037 A 
ATOM     58  C   UNL     1      -7.105   5.010 -15.376  1.00  0.00     0.049 A 
ATOM     59  C   UNL     1      -7.268  10.321 -13.651  1.00  0.00     0.074 A 
ATOM     60  C   UNL     1      -7.822   4.869 -14.198  1.00  0.00     0.029 A 
ATOM     61  N   UNL     1      -7.554   6.190 -15.945  1.00  0.00    -0.354 N 
ATOM     62  N   UNL     1      -7.628   9.114 -13.990  1.00  0.00    -0.248 NA
ATOM     63  C   UNL     1      -7.980  11.347 -14.414  1.00  0.00     0.031 C 
ATOM     64  C   UNL     1      -8.710   5.980 -14.076  1.00  0.00     0.029 A 
ATOM     65  C   UNL     1      -8.528   6.795 -15.177  1.00  0.00     0.049 A 
ATOM     66  H   UNL     1      -7.219   6.553 -16.797  1.00  0.00     0.167 HD
ATOM     67  C   UNL     1      -8.546   9.183 -15.005  1.00  0.00     0.074 A 
ATOM     68  C   UNL     1      -8.730  10.601 -15.241  1.00  0.00     0.031 C 
ATOM     69  C   UNL     1      -9.060   8.075 -15.613  1.00  0.00     0.037 A 
BRANCH  56  70
ATOM     70  C   UNL     1      -5.925   2.906 -16.415  1.00  0.00     0.064 A 
ATOM     71  C   UNL     1      -6.954   2.026 -16.007  1.00  0.00     0.173 A 
ATOM     72  C   UNL     1      -4.910   2.286 -17.169  1.00  0.00     0.173 A 
ATOM     73  F   UNL     1      -8.048   2.469 -15.376  1.00  0.00    -0.203 F 
ATOM     74  C   UNL     1      -6.902   0.644 -16.227  1.00  0.00     0.198 A 
ATOM     75  C   UNL     1      -4.832   0.901 -17.350  1.00  0.00     0.198 A 
ATOM     76  F   UNL     1      -3.986   2.992 -17.825  1.00  0.00    -0.203 F 
ATOM     77  F   UNL     1      -7.905  -0.135 -15.799  1.00  0.00    -0.200 F 
ATOM     78  C   UNL     1      -5.822   0.076 -16.867  1.00  0.00     0.200 A 
ATOM     79  F   UNL     1      -3.785   0.377 -18.006  1.00  0.00    -0.200 F 
ATOM     80  F   UNL     1      -5.749  -1.250 -17.042  1.00  0.00    -0.200 F 
ENDBRANCH  56  70
BRANCH  57  81
ATOM     81  C   UNL     1      -5.228  11.798 -12.781  1.00  0.00     0.064 A 
ATOM     82  C   UNL     1      -4.665  12.329 -11.602  1.00  0.00     0.173 A 
ATOM     83  C   UNL     1      -4.624  12.143 -13.995  1.00  0.00     0.173 A 
ATOM     84  F   UNL     1      -5.202  12.028 -10.408  1.00  0.00    -0.203 F 
ATOM     85  C   UNL     1      -3.484  13.065 -11.629  1.00  0.00     0.198 A 
ATOM     86  C   UNL     1      -3.454  12.903 -14.020  1.00  0.00     0.198 A 
ATOM     87  F   UNL     1      -5.090  11.649 -15.151  1.00  0.00    -0.203 F 
ATOM     88  F   UNL     1      -2.906  13.445 -10.481  1.00  0.00    -0.200 F 
ATOM     89  C   UNL     1      -2.866  13.331 -12.839  1.00  0.00     0.200 A 
ATOM     90  F   UNL     1      -2.839  13.134 -15.189  1.00  0.00    -0.200 F 
ATOM     91  F   UNL     1      -1.682  13.958 -12.865  1.00  0.00    -0.200 F 
ENDBRANCH  57  81
BRANCH  69  92
ATOM     92  C   UNL     1     -10.096   8.126 -16.701  1.00  0.00     0.064 A 
ATOM     93  C   UNL     1     -11.211   8.978 -16.643  1.00  0.00     0.173 A 
ATOM     94  C   UNL     1     -10.057   7.234 -17.795  1.00  0.00     0.173 A 
ATOM     95  F   UNL     1     -11.386   9.810 -15.605  1.00  0.00    -0.203 F 
ATOM     96  C   UNL     1     -12.186   8.982 -17.644  1.00  0.00     0.198 A 
ATOM     97  C   UNL     1     -11.058   7.204 -18.764  1.00  0.00     0.198 A 
ATOM     98  F   UNL     1      -9.035   6.385 -17.970  1.00  0.00    -0.203 F 
ATOM     99  F   UNL     1     -13.201   9.854 -17.578  1.00  0.00    -0.200 F 
ATOM    100  C   UNL     1     -12.114   8.089 -18.698  1.00  0.00     0.200 A 
ATOM    101  F   UNL     1     -10.986   6.316 -19.766  1.00  0.00    -0.200 F 
ATOM    102  F   UNL     1     -13.060   8.083 -19.647  1.00  0.00    -0.200 F 
ENDBRANCH  69  92
ENDBRANCH  43  44
ENDBRANCH  35  38
ENDBRANCH  33  34
ENDBRANCH  32  33
ENDBRANCH  31  32
ENDBRANCH  30  31
ENDBRANCH   1  30
TORSDOF 17
