REMARK SMILES O=C(NCCCCCCNC(=O)[C@H]1Cc2[nH]cnc2CN1C(=O)C[C@]12C[C@H]3C[C@H](C[C@H](C3)C1)C2)c1ccc(-c2c3nc(c(-c4c(F)c(F)c(F)c(F)c4F)c4ccc([nH]4)c(-c4c(F)c(F)c(F)c(F)c4F)c4nc(c(-c5c(F)c(F)c(F)c(F)c5F)c5ccc2[nH]5)C=C4)C=C3)cc1
REMARK SMILES IDX 7 1 6 2 5 3 4 4 3 5 1 6 2 7 35 9 36 10 97 11 37 12 96 13
REMARK SMILES IDX 38 14 39 15 40 16 90 17 41 18 95 19 89 20 91 21 42 22 94 23
REMARK SMILES IDX 88 24 87 25 43 27 75 28 55 29 74 30 56 31 59 32 73 33 92 34
REMARK SMILES IDX 57 35 58 36 72 38 93 39 60 40 44 41 45 42 53 43 46 44 47 45
REMARK SMILES IDX 51 46 54 47 48 48 49 49 52 50 50 51 76 52 77 53 85 54 78 55
REMARK SMILES IDX 79 56 83 57 86 58 80 59 81 60 84 61 82 62 61 63 62 64 70 65
REMARK SMILES IDX 63 66 64 67 68 68 71 69 65 70 66 71 69 72 67 73 8 74 9 75
REMARK SMILES IDX 10 76 11 77 12 79 13 80 14 81 21 82 15 83 20 84 16 85 19 86
REMARK SMILES IDX 17 87 18 89 22 90 23 91 24 92 25 93 26 94 33 95 34 96 27 97
REMARK SMILES IDX 31 98 29 99 28 100 32 101 30 102
REMARK H PARENT 3 8 91 26 59 37 10 78 16 88
REMARK Flexibility Score: inf
ROOT
ATOM      1  C   UNL     1       4.864   2.998  -2.700  1.00  0.00     0.002 C 
ENDROOT
BRANCH   1   2
ATOM      2  C   UNL     1       4.353   1.621  -3.128  1.00  0.00     0.002 C 
BRANCH   2   3
ATOM      3  C   UNL     1       4.799   0.463  -2.229  1.00  0.00     0.021 C 
BRANCH   3   4
ATOM      4  C   UNL     1       4.600   0.716  -0.733  1.00  0.00     0.116 C 
BRANCH   4   5
ATOM      5  N   UNL     1       3.220   0.943  -0.369  1.00  0.00    -0.352 N 
ATOM      6  O   UNL     1       1.148   0.693   0.349  1.00  0.00    -0.269 OA
ATOM      7  C   UNL     1       2.180   0.129  -0.039  1.00  0.00     0.251 C 
ATOM      8  H   UNL     1       2.979   1.898  -0.356  1.00  0.00     0.163 HD
BRANCH   7   9
ATOM      9  C   UNL     1       2.178  -1.351  -0.170  1.00  0.00     0.039 A 
ATOM     10  C   UNL     1       3.270  -2.145  -0.527  1.00  0.00     0.014 A 
ATOM     11  C   UNL     1       0.936  -1.977   0.046  1.00  0.00     0.014 A 
ATOM     12  C   UNL     1       3.112  -3.508  -0.743  1.00  0.00     0.010 A 
ATOM     13  C   UNL     1       0.773  -3.340  -0.156  1.00  0.00     0.010 A 
ATOM     14  C   UNL     1       1.857  -4.096  -0.586  1.00  0.00    -0.014 A 
BRANCH  14  15
ATOM     15  C   UNL     1       1.762  -5.544  -0.722  1.00  0.00     0.031 A 
ATOM     16  C   UNL     1       2.520  -6.307   0.314  1.00  0.00     0.074 A 
ATOM     17  C   UNL     1       0.945  -6.143  -1.612  1.00  0.00     0.049 A 
ATOM     18  N   UNL     1       3.437  -7.204   0.143  1.00  0.00    -0.248 NA
ATOM     19  C   UNL     1       2.300  -5.944   1.724  1.00  0.00     0.031 C 
ATOM     20  C   UNL     1      -0.051  -5.513  -2.481  1.00  0.00     0.029 A 
ATOM     21  N   UNL     1       0.762  -7.472  -1.851  1.00  0.00    -0.354 N 
ATOM     22  C   UNL     1       3.794  -7.641   1.420  1.00  0.00     0.074 A 
ATOM     23  C   UNL     1       3.168  -6.739   2.348  1.00  0.00     0.031 C 
ATOM     24  C   UNL     1      -0.881  -6.464  -2.969  1.00  0.00     0.029 A 
ATOM     25  C   UNL     1      -0.398  -7.770  -2.554  1.00  0.00     0.049 A 
ATOM     26  H   UNL     1       1.398  -8.161  -1.552  1.00  0.00     0.167 HD
ATOM     27  C   UNL     1       4.394  -8.848   1.611  1.00  0.00     0.037 A 
ATOM     28  C   UNL     1      -0.957  -8.996  -2.716  1.00  0.00     0.037 A 
ATOM     29  C   UNL     1       5.045  -9.296   0.407  1.00  0.00     0.049 A 
ATOM     30  C   UNL     1       0.087 -10.009  -2.427  1.00  0.00     0.074 A 
ATOM     31  C   UNL     1       6.068  -8.815  -0.386  1.00  0.00     0.029 A 
ATOM     32  N   UNL     1       4.426 -10.263  -0.343  1.00  0.00    -0.354 N 
ATOM     33  N   UNL     1       1.131 -10.215  -3.179  1.00  0.00    -0.248 NA
ATOM     34  C   UNL     1       0.196 -10.491  -1.059  1.00  0.00     0.031 C 
ATOM     35  C   UNL     1       5.693  -9.155  -1.720  1.00  0.00     0.029 A 
ATOM     36  C   UNL     1       4.497  -9.870  -1.652  1.00  0.00     0.049 A 
ATOM     37  H   UNL     1       4.008 -11.087  -0.004  1.00  0.00     0.167 HD
ATOM     38  C   UNL     1       2.166 -10.441  -2.285  1.00  0.00     0.074 A 
ATOM     39  C   UNL     1       1.515 -10.688  -1.001  1.00  0.00     0.031 C 
ATOM     40  C   UNL     1       3.453 -10.126  -2.611  1.00  0.00     0.037 A 
BRANCH  27  41
ATOM     41  C   UNL     1       4.039  -9.803   2.736  1.00  0.00     0.064 A 
ATOM     42  C   UNL     1       4.697 -11.051   2.795  1.00  0.00     0.173 A 
ATOM     43  C   UNL     1       2.873  -9.702   3.527  1.00  0.00     0.173 A 
ATOM     44  F   UNL     1       5.827 -11.263   2.105  1.00  0.00    -0.203 F 
ATOM     45  C   UNL     1       4.149 -12.146   3.469  1.00  0.00     0.198 A 
ATOM     46  C   UNL     1       2.356 -10.785   4.237  1.00  0.00     0.198 A 
ATOM     47  F   UNL     1       2.124  -8.595   3.569  1.00  0.00    -0.203 F 
ATOM     48  F   UNL     1       4.729 -13.349   3.361  1.00  0.00    -0.200 F 
ATOM     49  C   UNL     1       2.968 -12.017   4.172  1.00  0.00     0.200 A 
ATOM     50  F   UNL     1       1.206 -10.639   4.911  1.00  0.00    -0.200 F 
ATOM     51  F   UNL     1       2.396 -13.083   4.747  1.00  0.00    -0.200 F 
ENDBRANCH  27  41
BRANCH  28  52
ATOM     52  C   UNL     1      -2.396  -9.351  -2.778  1.00  0.00     0.064 A 
ATOM     53  C   UNL     1      -2.818 -10.602  -3.259  1.00  0.00     0.173 A 
ATOM     54  C   UNL     1      -3.365  -8.582  -2.103  1.00  0.00     0.173 A 
ATOM     55  F   UNL     1      -1.946 -11.420  -3.866  1.00  0.00    -0.203 F 
ATOM     56  C   UNL     1      -4.124 -11.064  -3.057  1.00  0.00     0.198 A 
ATOM     57  C   UNL     1      -4.669  -9.040  -1.910  1.00  0.00     0.198 A 
ATOM     58  F   UNL     1      -3.039  -7.415  -1.531  1.00  0.00    -0.203 F 
ATOM     59  F   UNL     1      -4.473 -12.289  -3.475  1.00  0.00    -0.200 F 
ATOM     60  C   UNL     1      -5.045 -10.286  -2.375  1.00  0.00     0.200 A 
ATOM     61  F   UNL     1      -5.537  -8.294  -1.213  1.00  0.00    -0.200 F 
ATOM     62  F   UNL     1      -6.277 -10.752  -2.128  1.00  0.00    -0.200 F 
ENDBRANCH  28  52
BRANCH  40  63
ATOM     63  C   UNL     1       3.749  -9.790  -4.044  1.00  0.00     0.064 A 
ATOM     64  C   UNL     1       3.208  -8.683  -4.720  1.00  0.00     0.173 A 
ATOM     65  C   UNL     1       4.729 -10.538  -4.709  1.00  0.00     0.173 A 
ATOM     66  F   UNL     1       2.345  -7.858  -4.115  1.00  0.00    -0.203 F 
ATOM     67  C   UNL     1       3.600  -8.371  -6.021  1.00  0.00     0.198 A 
ATOM     68  C   UNL     1       5.146 -10.201  -5.993  1.00  0.00     0.198 A 
ATOM     69  F   UNL     1       5.322 -11.570  -4.089  1.00  0.00    -0.203 F 
ATOM     70  F   UNL     1       3.063  -7.314  -6.649  1.00  0.00    -0.200 F 
ATOM     71  C   UNL     1       4.574  -9.126  -6.652  1.00  0.00     0.200 A 
ATOM     72  F   UNL     1       6.127 -10.902  -6.579  1.00  0.00    -0.200 F 
ATOM     73  F   UNL     1       4.985  -8.798  -7.886  1.00  0.00    -0.200 F 
ENDBRANCH  40  63
ENDBRANCH  14  15
ENDBRANCH   7   9
ENDBRANCH   4   5
ENDBRANCH   3   4
ENDBRANCH   2   3
ENDBRANCH   1   2
BRANCH   1  74
ATOM     74  C   UNL     1       6.384   3.089  -2.503  1.00  0.00     0.021 C 
BRANCH  74  75
ATOM     75  C   UNL     1       7.189   2.932  -3.788  1.00  0.00     0.116 C 
BRANCH  75  76
ATOM     76  N   UNL     1       6.958   4.077  -4.635  1.00  0.00    -0.354 N 
ATOM     77  C   UNL     1       7.857   4.997  -5.065  1.00  0.00     0.243 C 
ATOM     78  H   UNL     1       6.030   4.207  -4.940  1.00  0.00     0.163 HD
ATOM     79  O   UNL     1       7.471   6.169  -5.061  1.00  0.00    -0.273 OA
BRANCH  77  80
ATOM     80  C   UNL     1       9.290   4.611  -5.475  1.00  0.00     0.180 C 
ATOM     81  C   UNL     1       9.697   3.155  -5.863  1.00  0.00     0.091 C 
ATOM     82  N   UNL     1       9.898   5.561  -6.469  1.00  0.00    -0.324 N 
ATOM     83  C   UNL     1      11.169   3.142  -6.057  1.00  0.00     0.042 A 
ATOM     84  C   UNL     1      11.381   5.666  -6.322  1.00  0.00     0.178 C 
ATOM     85  N   UNL     1      12.007   2.075  -6.165  1.00  0.00    -0.348 N 
ATOM     86  C   UNL     1      11.938   4.264  -6.280  1.00  0.00     0.081 A 
ATOM     87  C   UNL     1      13.257   2.588  -6.388  1.00  0.00     0.197 A 
ATOM     88  H   UNL     1      11.762   1.123  -6.096  1.00  0.00     0.167 HD
ATOM     89  N   UNL     1      13.249   3.905  -6.446  1.00  0.00    -0.240 NA
BRANCH  82  90
ATOM     90  C   UNL     1       9.349   6.050  -7.650  1.00  0.00     0.224 C 
ATOM     91  O   UNL     1      10.060   6.703  -8.430  1.00  0.00    -0.275 OA
BRANCH  90  92
ATOM     92  C   UNL     1       7.869   5.868  -8.076  1.00  0.00     0.107 C 
BRANCH  92  93
ATOM     93  C   UNL     1       7.444   4.553  -8.785  1.00  0.00    -0.020 C 
ATOM     94  C   UNL     1       6.868   3.531  -7.783  1.00  0.00     0.011 C 
ATOM     95  C   UNL     1       8.621   3.970  -9.600  1.00  0.00     0.011 C 
ATOM     96  C   UNL     1       6.265   4.786  -9.783  1.00  0.00     0.011 C 
ATOM     97  C   UNL     1       6.565   2.182  -8.433  1.00  0.00    -0.010 C 
ATOM     98  C   UNL     1       8.229   2.648 -10.267  1.00  0.00    -0.010 C 
ATOM     99  C   UNL     1       5.852   3.454 -10.466  1.00  0.00    -0.010 C 
ATOM    100  C   UNL     1       5.420   2.410  -9.420  1.00  0.00     0.007 C 
ATOM    101  C   UNL     1       7.804   1.655  -9.176  1.00  0.00     0.007 C 
ATOM    102  C   UNL     1       7.059   2.889 -11.233  1.00  0.00     0.007 C 
ENDBRANCH  92  93
ENDBRANCH  90  92
ENDBRANCH  82  90
ENDBRANCH  77  80
ENDBRANCH  75  76
ENDBRANCH  74  75
ENDBRANCH   1  74
TORSDOF 16
