REMARK SMILES C=CCN(CC(=O)NCCCCCCNC(=O)c1ccc(-c2c3nc(c(-c4c(F)c(F)c(F)c(F)c4F)c4ccc([nH]4)c(-c4c(F)c(F)c(F)c(F)c4F)c4nc(c(-c5c(F)c(F)c(F)c(F)c5F)c5ccc2[nH]5)C=C4)C=C3)cc1)C(=O)[C@@H]1Oc2ccccc2O[C@H]1C
REMARK SMILES IDX 11 1 10 2 9 3 8 4 6 5 7 6 5 8 4 9 3 10 2 11 1 12 81 13 82 14
REMARK SMILES IDX 83 15 84 16 92 17 85 18 91 19 93 20 86 21 90 22 87 23 89 24
REMARK SMILES IDX 88 25 12 26 13 27 14 28 15 29 16 30 17 32 18 33 19 34 80 35
REMARK SMILES IDX 20 36 79 37 21 38 22 39 23 40 73 41 24 42 78 43 72 44 74 45
REMARK SMILES IDX 25 46 77 47 71 48 70 49 26 51 58 52 38 53 57 54 39 55 42 56
REMARK SMILES IDX 56 57 75 58 40 59 41 60 55 62 76 63 43 64 27 65 28 66 36 67
REMARK SMILES IDX 29 68 30 69 34 70 37 71 31 72 32 73 35 74 33 75 59 76 60 77
REMARK SMILES IDX 68 78 61 79 62 80 66 81 69 82 63 83 64 84 67 85 65 86 44 87
REMARK SMILES IDX 45 88 53 89 46 90 47 91 51 92 54 93 48 94 49 95 52 96 50 97
REMARK H PARENT 8 7 15 31 74 50 42 61
REMARK Flexibility Score: inf
ROOT
ATOM      1  C   UNL     1      -5.959   0.447   0.469  1.00  0.00     0.002 C 
ENDROOT
BRANCH   1   2
ATOM      2  C   UNL     1      -4.592   0.142  -0.160  1.00  0.00     0.021 C 
BRANCH   2   3
ATOM      3  C   UNL     1      -4.604   0.033  -1.685  1.00  0.00     0.116 C 
BRANCH   3   4
ATOM      4  N   UNL     1      -4.795   1.323  -2.320  1.00  0.00    -0.355 N 
ATOM      5  C   UNL     1      -3.899   2.157  -2.925  1.00  0.00     0.239 C 
ATOM      6  O   UNL     1      -4.318   3.244  -3.333  1.00  0.00    -0.273 OA
ATOM      7  H   UNL     1      -5.723   1.652  -2.312  1.00  0.00     0.163 HD
BRANCH   5   8
ATOM      8  C   UNL     1      -2.416   1.782  -3.059  1.00  0.00     0.219 C 
BRANCH   8   9
ATOM      9  N   UNL     1      -1.684   1.867  -1.792  1.00  0.00    -0.326 N 
BRANCH   9  10
ATOM     10  C   UNL     1      -1.166   0.610  -1.242  1.00  0.00     0.147 C 
BRANCH  10  11
ATOM     11  C   UNL     1       0.322   0.478  -1.329  1.00  0.00    -0.014 C 
ATOM     12  C   UNL     1       1.075  -0.077  -0.368  1.00  0.00     0.006 C 
ENDBRANCH  10  11
ENDBRANCH   9  10
BRANCH   9  13
ATOM     13  C   UNL     1      -1.039   3.078  -1.538  1.00  0.00     0.268 C 
ATOM     14  O   UNL     1      -0.117   3.454  -2.268  1.00  0.00    -0.270 OA
BRANCH  13  15
ATOM     15  C   UNL     1      -1.492   3.933  -0.333  1.00  0.00     0.302 C 
ATOM     16  O   UNL     1      -0.868   3.333   0.809  1.00  0.00    -0.473 OA
ATOM     17  C   UNL     1      -3.021   4.151  -0.252  1.00  0.00     0.221 C 
ATOM     18  C   UNL     1      -1.750   2.720   1.640  1.00  0.00     0.162 A 
ATOM     19  O   UNL     1      -3.519   4.237   1.096  1.00  0.00    -0.482 OA
ATOM     20  C   UNL     1      -3.454   5.428  -0.975  1.00  0.00     0.057 C 
ATOM     21  C   UNL     1      -1.290   1.605   2.328  1.00  0.00     0.050 A 
ATOM     22  C   UNL     1      -3.058   3.159   1.796  1.00  0.00     0.161 A 
ATOM     23  C   UNL     1      -2.171   0.880   3.126  1.00  0.00     0.004 A 
ATOM     24  C   UNL     1      -3.921   2.490   2.654  1.00  0.00     0.050 A 
ATOM     25  C   UNL     1      -3.483   1.328   3.296  1.00  0.00     0.004 A 
ENDBRANCH  13  15
ENDBRANCH   9  13
ENDBRANCH   8   9
ENDBRANCH   5   8
ENDBRANCH   3   4
ENDBRANCH   2   3
ENDBRANCH   1   2
BRANCH   1  26
ATOM     26  C   UNL     1      -6.992  -0.681   0.390  1.00  0.00     0.002 C 
BRANCH  26  27
ATOM     27  C   UNL     1      -6.578  -2.004   1.041  1.00  0.00     0.021 C 
BRANCH  27  28
ATOM     28  C   UNL     1      -6.209  -1.923   2.522  1.00  0.00     0.116 C 
BRANCH  28  29
ATOM     29  N   UNL     1      -7.337  -1.562   3.365  1.00  0.00    -0.352 N 
ATOM     30  C   UNL     1      -7.941  -2.263   4.385  1.00  0.00     0.251 C 
ATOM     31  H   UNL     1      -7.731  -0.679   3.178  1.00  0.00     0.163 HD
ATOM     32  O   UNL     1      -8.991  -1.865   4.867  1.00  0.00    -0.269 OA
BRANCH  30  33
ATOM     33  C   UNL     1      -7.337  -3.520   4.883  1.00  0.00     0.039 A 
ATOM     34  C   UNL     1      -8.163  -4.630   5.077  1.00  0.00     0.014 A 
ATOM     35  C   UNL     1      -5.972  -3.608   5.168  1.00  0.00     0.014 A 
ATOM     36  C   UNL     1      -7.608  -5.847   5.480  1.00  0.00     0.010 A 
ATOM     37  C   UNL     1      -5.408  -4.840   5.498  1.00  0.00     0.010 A 
ATOM     38  C   UNL     1      -6.219  -5.975   5.650  1.00  0.00    -0.014 A 
BRANCH  38  39
ATOM     39  C   UNL     1      -5.610  -7.301   5.942  1.00  0.00     0.031 A 
ATOM     40  C   UNL     1      -4.881  -7.551   7.231  1.00  0.00     0.074 A 
ATOM     41  C   UNL     1      -5.673  -8.273   5.011  1.00  0.00     0.049 A 
ATOM     42  N   UNL     1      -4.290  -8.643   7.650  1.00  0.00    -0.248 NA
ATOM     43  C   UNL     1      -4.778  -6.418   8.163  1.00  0.00     0.031 C 
ATOM     44  C   UNL     1      -6.295  -8.138   3.694  1.00  0.00     0.029 A 
ATOM     45  N   UNL     1      -5.204  -9.564   5.026  1.00  0.00    -0.354 N 
ATOM     46  C   UNL     1      -3.743  -8.328   8.887  1.00  0.00     0.074 A 
ATOM     47  C   UNL     1      -4.019  -6.927   9.123  1.00  0.00     0.031 C 
ATOM     48  C   UNL     1      -6.199  -9.306   3.040  1.00  0.00     0.029 A 
ATOM     49  C   UNL     1      -5.474 -10.260   3.874  1.00  0.00     0.049 A 
ATOM     50  H   UNL     1      -4.721  -9.953   5.790  1.00  0.00     0.167 HD
ATOM     51  C   UNL     1      -3.091  -9.139   9.757  1.00  0.00     0.037 A 
ATOM     52  C   UNL     1      -5.171 -11.524   3.523  1.00  0.00     0.037 A 
ATOM     53  C   UNL     1      -2.822 -10.535   9.519  1.00  0.00     0.049 A 
ATOM     54  C   UNL     1      -4.441 -12.404   4.500  1.00  0.00     0.074 A 
ATOM     55  C   UNL     1      -2.231 -11.457  10.365  1.00  0.00     0.029 A 
ATOM     56  N   UNL     1      -3.113 -11.208   8.340  1.00  0.00    -0.354 N 
ATOM     57  N   UNL     1      -4.009 -12.122   5.705  1.00  0.00    -0.248 NA
ATOM     58  C   UNL     1      -4.165 -13.781   4.071  1.00  0.00     0.031 C 
ATOM     59  C   UNL     1      -2.103 -12.668   9.675  1.00  0.00     0.029 A 
ATOM     60  C   UNL     1      -2.677 -12.523   8.423  1.00  0.00     0.049 A 
ATOM     61  H   UNL     1      -3.562 -10.811   7.559  1.00  0.00     0.167 HD
ATOM     62  C   UNL     1      -3.429 -13.288   6.186  1.00  0.00     0.074 A 
ATOM     63  C   UNL     1      -3.585 -14.288   5.150  1.00  0.00     0.031 C 
ATOM     64  C   UNL     1      -2.822 -13.508   7.379  1.00  0.00     0.037 A 
BRANCH  51  65
ATOM     65  C   UNL     1      -2.610  -8.527  11.044  1.00  0.00     0.064 A 
ATOM     66  C   UNL     1      -3.504  -8.073  12.027  1.00  0.00     0.173 A 
ATOM     67  C   UNL     1      -1.237  -8.406  11.306  1.00  0.00     0.173 A 
ATOM     68  F   UNL     1      -4.828  -8.157  11.828  1.00  0.00    -0.203 F 
ATOM     69  C   UNL     1      -3.042  -7.480  13.200  1.00  0.00     0.198 A 
ATOM     70  C   UNL     1      -0.778  -7.847  12.496  1.00  0.00     0.198 A 
ATOM     71  F   UNL     1      -0.336  -8.832  10.408  1.00  0.00    -0.203 F 
ATOM     72  F   UNL     1      -3.916  -6.993  14.092  1.00  0.00    -0.200 F 
ATOM     73  C   UNL     1      -1.680  -7.372  13.436  1.00  0.00     0.200 A 
ATOM     74  F   UNL     1       0.539  -7.759  12.730  1.00  0.00    -0.200 F 
ATOM     75  F   UNL     1      -1.237  -6.802  14.565  1.00  0.00    -0.200 F 
ENDBRANCH  51  65
BRANCH  52  76
ATOM     76  C   UNL     1      -5.586 -12.034   2.190  1.00  0.00     0.064 A 
ATOM     77  C   UNL     1      -6.595 -13.000   2.067  1.00  0.00     0.173 A 
ATOM     78  C   UNL     1      -5.002 -11.547   1.011  1.00  0.00     0.173 A 
ATOM     79  F   UNL     1      -7.170 -13.511   3.165  1.00  0.00    -0.203 F 
ATOM     80  C   UNL     1      -6.996 -13.466   0.816  1.00  0.00     0.198 A 
ATOM     81  C   UNL     1      -5.425 -11.991  -0.239  1.00  0.00     0.198 A 
ATOM     82  F   UNL     1      -4.037 -10.617   1.074  1.00  0.00    -0.203 F 
ATOM     83  F   UNL     1      -7.938 -14.415   0.728  1.00  0.00    -0.200 F 
ATOM     84  C   UNL     1      -6.418 -12.955  -0.336  1.00  0.00     0.200 A 
ATOM     85  F   UNL     1      -4.877 -11.480  -1.350  1.00  0.00    -0.200 F 
ATOM     86  F   UNL     1      -6.815 -13.391  -1.539  1.00  0.00    -0.200 F 
ENDBRANCH  52  76
BRANCH  64  87
ATOM     87  C   UNL     1      -2.293 -14.892   7.635  1.00  0.00     0.064 A 
ATOM     88  C   UNL     1      -1.186 -15.400   6.939  1.00  0.00     0.173 A 
ATOM     89  C   UNL     1      -2.887 -15.713   8.607  1.00  0.00     0.173 A 
ATOM     90  F   UNL     1      -0.589 -14.664   5.989  1.00  0.00    -0.203 F 
ATOM     91  C   UNL     1      -0.715 -16.689   7.181  1.00  0.00     0.198 A 
ATOM     92  C   UNL     1      -2.392 -16.987   8.872  1.00  0.00     0.198 A 
ATOM     93  F   UNL     1      -3.944 -15.276   9.308  1.00  0.00    -0.203 F 
ATOM     94  F   UNL     1       0.306 -17.174   6.461  1.00  0.00    -0.200 F 
ATOM     95  C   UNL     1      -1.314 -17.478   8.152  1.00  0.00     0.200 A 
ATOM     96  F   UNL     1      -2.962 -17.742   9.822  1.00  0.00    -0.200 F 
ATOM     97  F   UNL     1      -0.857 -18.716   8.387  1.00  0.00    -0.200 F 
ENDBRANCH  64  87
ENDBRANCH  38  39
ENDBRANCH  30  33
ENDBRANCH  28  29
ENDBRANCH  27  28
ENDBRANCH  26  27
ENDBRANCH   1  26
TORSDOF 18
