REMARK SMILES Cc1cc(Br)cnc1Sc1nc(CC(=O)NCCCCCCNC(=O)c2ccc(-c3c4nc(c(-c5c(F)c(F)c(F)c(F)c5F)c5ccc([nH]5)c(-c5c(F)c(F)c(F)c(F)c5F)c5nc(c(-c6c(F)c(F)c(F)c(F)c6F)c6ccc3[nH]6)C=C5)C=C4)cc2)cs1
REMARK SMILES IDX 19 1 18 2 17 3 16 4 14 5 15 6 13 8 12 9 10 10 11 11 90 12
REMARK SMILES IDX 89 13 9 14 8 15 1 16 2 17 3 18 4 19 7 20 5 21 6 22 20 23
REMARK SMILES IDX 21 24 22 25 23 26 24 27 25 29 26 30 27 31 88 32 28 33 87 34
REMARK SMILES IDX 29 35 30 36 31 37 81 38 32 39 86 40 80 41 82 42 33 43 85 44
REMARK SMILES IDX 79 45 78 46 34 48 66 49 46 50 65 51 47 52 50 53 64 54 83 55
REMARK SMILES IDX 48 56 49 57 63 59 84 60 51 61 35 62 36 63 44 64 37 65 38 66
REMARK SMILES IDX 42 67 45 68 39 69 40 70 43 71 41 72 67 73 68 74 76 75 69 76
REMARK SMILES IDX 70 77 74 78 77 79 71 80 72 81 75 82 73 83 52 84 53 85 61 86
REMARK SMILES IDX 54 87 55 88 59 89 62 90 56 91 57 92 60 93 58 94
REMARK H PARENT 16 7 23 28 82 47 50 58
REMARK Flexibility Score: inf
ROOT
ATOM      1  C   UNL     1       9.594  -0.301  -3.561  1.00  0.00     0.002 C 
ENDROOT
BRANCH   1   2
ATOM      2  C   UNL     1       8.195  -0.477  -2.956  1.00  0.00     0.021 C 
BRANCH   2   3
ATOM      3  C   UNL     1       7.372  -1.579  -3.625  1.00  0.00     0.116 C 
BRANCH   3   4
ATOM      4  N   UNL     1       7.925  -2.888  -3.328  1.00  0.00    -0.356 N 
ATOM      5  C   UNL     1       7.502  -3.786  -2.391  1.00  0.00     0.226 C 
ATOM      6  O   UNL     1       8.194  -4.782  -2.171  1.00  0.00    -0.275 OA
ATOM      7  H   UNL     1       8.700  -3.161  -3.869  1.00  0.00     0.163 HD
BRANCH   5   8
ATOM      8  C   UNL     1       6.181  -3.572  -1.685  1.00  0.00     0.157 C 
BRANCH   8   9
ATOM      9  C   UNL     1       6.215  -2.437  -0.718  1.00  0.00     0.062 A 
ATOM     10  C   UNL     1       5.449  -0.500   0.051  1.00  0.00     0.156 A 
ATOM     11  N   UNL     1       5.364  -1.359  -0.939  1.00  0.00    -0.234 NA
ATOM     12  S   UNL     1       6.648  -0.859   1.228  1.00  0.00    -0.116 S 
ATOM     13  C   UNL     1       6.993  -2.329   0.419  1.00  0.00     0.092 A 
BRANCH  10  14
ATOM     14  S   UNL     1       4.497   0.943   0.132  1.00  0.00    -0.039 SA
BRANCH  14  15
ATOM     15  C   UNL     1       2.786   0.456   0.061  1.00  0.00     0.106 A 
ATOM     16  C   UNL     1       2.869  -2.113   0.408  1.00  0.00     0.047 C 
ATOM     17  C   UNL     1       2.174  -0.800   0.208  1.00  0.00    -0.017 A 
ATOM     18  C   UNL     1       0.764  -0.868   0.136  1.00  0.00     0.023 A 
ATOM     19  C   UNL     1       0.004   0.279  -0.020  1.00  0.00     0.036 A 
ATOM     20  N   UNL     1       2.019   1.577  -0.098  1.00  0.00    -0.248 NA
ATOM     21  Br  UNL     1      -1.876   0.195  -0.066  1.00  0.00    -0.049 Br
ATOM     22  C   UNL     1       0.670   1.474  -0.127  1.00  0.00     0.128 A 
ENDBRANCH  14  15
ENDBRANCH  10  14
ENDBRANCH   8   9
ENDBRANCH   5   8
ENDBRANCH   3   4
ENDBRANCH   2   3
ENDBRANCH   1   2
BRANCH   1  23
ATOM     23  C   UNL     1       9.611   0.017  -5.059  1.00  0.00     0.002 C 
BRANCH  23  24
ATOM     24  C   UNL     1       8.784   1.239  -5.464  1.00  0.00     0.021 C 
BRANCH  24  25
ATOM     25  C   UNL     1       9.233   2.542  -4.811  1.00  0.00     0.116 C 
BRANCH  25  26
ATOM     26  N   UNL     1      10.579   2.916  -5.218  1.00  0.00    -0.352 N 
ATOM     27  C   UNL     1      11.020   4.077  -5.797  1.00  0.00     0.251 C 
ATOM     28  H   UNL     1      11.273   2.237  -5.053  1.00  0.00     0.163 HD
ATOM     29  O   UNL     1      12.151   4.141  -6.276  1.00  0.00    -0.269 OA
BRANCH  27  30
ATOM     30  C   UNL     1      10.127   5.251  -5.862  1.00  0.00     0.039 A 
ATOM     31  C   UNL     1      10.060   5.986  -7.048  1.00  0.00     0.014 A 
ATOM     32  C   UNL     1       9.364   5.630  -4.754  1.00  0.00     0.014 A 
ATOM     33  C   UNL     1       9.184   7.069  -7.141  1.00  0.00     0.010 A 
ATOM     34  C   UNL     1       8.435   6.659  -4.874  1.00  0.00     0.010 A 
ATOM     35  C   UNL     1       8.341   7.393  -6.065  1.00  0.00    -0.014 A 
BRANCH  35  36
ATOM     36  C   UNL     1       7.351   8.494  -6.171  1.00  0.00     0.031 A 
ATOM     37  C   UNL     1       7.457   9.697  -5.278  1.00  0.00     0.074 A 
ATOM     38  C   UNL     1       6.315   8.375  -7.023  1.00  0.00     0.049 A 
ATOM     39  N   UNL     1       6.658  10.731  -5.181  1.00  0.00    -0.248 NA
ATOM     40  C   UNL     1       8.594   9.728  -4.346  1.00  0.00     0.031 C 
ATOM     41  C   UNL     1       6.071   7.229  -7.899  1.00  0.00     0.029 A 
ATOM     42  N   UNL     1       5.265   9.221  -7.280  1.00  0.00    -0.354 N 
ATOM     43  C   UNL     1       7.186  11.521  -4.168  1.00  0.00     0.074 A 
ATOM     44  C   UNL     1       8.339  10.822  -3.644  1.00  0.00     0.031 C 
ATOM     45  C   UNL     1       4.954   7.449  -8.609  1.00  0.00     0.029 A 
ATOM     46  C   UNL     1       4.382   8.732  -8.210  1.00  0.00     0.049 A 
ATOM     47  H   UNL     1       5.156  10.094  -6.839  1.00  0.00     0.167 HD
ATOM     48  C   UNL     1       6.758  12.729  -3.730  1.00  0.00     0.037 A 
ATOM     49  C   UNL     1       3.233   9.252  -8.681  1.00  0.00     0.037 A 
ATOM     50  C   UNL     1       5.618  13.426  -4.269  1.00  0.00     0.049 A 
ATOM     51  C   UNL     1       2.778  10.597  -8.184  1.00  0.00     0.074 A 
ATOM     52  C   UNL     1       5.149  14.688  -3.952  1.00  0.00     0.029 A 
ATOM     53  N   UNL     1       4.758  12.910  -5.229  1.00  0.00    -0.354 N 
ATOM     54  N   UNL     1       3.333  11.379  -7.291  1.00  0.00    -0.248 NA
ATOM     55  C   UNL     1       1.543  11.135  -8.768  1.00  0.00     0.031 C 
ATOM     56  C   UNL     1       3.970  14.910  -4.672  1.00  0.00     0.029 A 
ATOM     57  C   UNL     1       3.740  13.815  -5.489  1.00  0.00     0.049 A 
ATOM     58  H   UNL     1       4.856  12.031  -5.661  1.00  0.00     0.167 HD
ATOM     59  C   UNL     1       2.531  12.511  -7.221  1.00  0.00     0.074 A 
ATOM     60  C   UNL     1       1.459  12.318  -8.175  1.00  0.00     0.031 C 
ATOM     61  C   UNL     1       2.674  13.609  -6.438  1.00  0.00     0.037 A 
BRANCH  48  62
ATOM     62  C   UNL     1       7.518  13.364  -2.599  1.00  0.00     0.064 A 
ATOM     63  C   UNL     1       8.840  13.812  -2.751  1.00  0.00     0.173 A 
ATOM     64  C   UNL     1       6.912  13.538  -1.345  1.00  0.00     0.173 A 
ATOM     65  F   UNL     1       9.472  13.664  -3.926  1.00  0.00    -0.203 F 
ATOM     66  C   UNL     1       9.540  14.364  -1.681  1.00  0.00     0.198 A 
ATOM     67  C   UNL     1       7.602  14.125  -0.288  1.00  0.00     0.198 A 
ATOM     68  F   UNL     1       5.647  13.138  -1.143  1.00  0.00    -0.203 F 
ATOM     69  F   UNL     1      10.823  14.720  -1.834  1.00  0.00    -0.200 F 
ATOM     70  C   UNL     1       8.919  14.525  -0.452  1.00  0.00     0.200 A 
ATOM     71  F   UNL     1       6.994  14.295   0.895  1.00  0.00    -0.200 F 
ATOM     72  F   UNL     1       9.593  15.057   0.577  1.00  0.00    -0.200 F 
ENDBRANCH  48  62
BRANCH  49  73
ATOM     73  C   UNL     1       2.451   8.499  -9.695  1.00  0.00     0.064 A 
ATOM     74  C   UNL     1       2.378   8.938 -11.023  1.00  0.00     0.173 A 
ATOM     75  C   UNL     1       1.790   7.306  -9.364  1.00  0.00     0.173 A 
ATOM     76  F   UNL     1       2.978  10.082 -11.384  1.00  0.00    -0.203 F 
ATOM     77  C   UNL     1       1.666   8.218 -11.981  1.00  0.00     0.198 A 
ATOM     78  C   UNL     1       1.103   6.572 -10.328  1.00  0.00     0.198 A 
ATOM     79  F   UNL     1       1.836   6.839  -8.107  1.00  0.00    -0.203 F 
ATOM     80  F   UNL     1       1.584   8.678 -13.237  1.00  0.00    -0.200 F 
ATOM     81  C   UNL     1       1.037   7.032 -11.635  1.00  0.00     0.200 A 
ATOM     82  F   UNL     1       0.512   5.417  -9.993  1.00  0.00    -0.200 F 
ATOM     83  F   UNL     1       0.365   6.332 -12.559  1.00  0.00    -0.200 F 
ENDBRANCH  49  73
BRANCH  61  84
ATOM     84  C   UNL     1       1.659  14.706  -6.598  1.00  0.00     0.064 A 
ATOM     85  C   UNL     1       0.334  14.557  -6.165  1.00  0.00     0.173 A 
ATOM     86  C   UNL     1       2.032  15.940  -7.154  1.00  0.00     0.173 A 
ATOM     87  F   UNL     1      -0.079  13.393  -5.640  1.00  0.00    -0.203 F 
ATOM     88  C   UNL     1      -0.587  15.592  -6.306  1.00  0.00     0.198 A 
ATOM     89  C   UNL     1       1.118  16.984  -7.263  1.00  0.00     0.198 A 
ATOM     90  F   UNL     1       3.289  16.139  -7.579  1.00  0.00    -0.203 F 
ATOM     91  F   UNL     1      -1.861  15.409  -5.932  1.00  0.00    -0.200 F 
ATOM     92  C   UNL     1      -0.193  16.807  -6.847  1.00  0.00     0.200 A 
ATOM     93  F   UNL     1       1.506  18.163  -7.769  1.00  0.00    -0.200 F 
ATOM     94  F   UNL     1      -1.078  17.805  -6.973  1.00  0.00    -0.200 F 
ENDBRANCH  61  84
ENDBRANCH  35  36
ENDBRANCH  27  30
ENDBRANCH  25  26
ENDBRANCH  24  25
ENDBRANCH  23  24
ENDBRANCH   1  23
TORSDOF 16
