REMARK SMILES CCOC(=O)c1sc(NC(=O)CCC(=O)NCCCCCCNC(=O)c2ccc(-c3c4nc(c(-c5c(F)c(F)c(F)c(F)c5F)c5ccc([nH]5)c(-c5c(F)c(F)c(F)c(F)c5F)c5nc(c(-c6c(F)c(F)c(F)c(F)c6F)c6ccc3[nH]6)C=C5)C=C4)cc2)c(C#N)c1C
REMARK SMILES IDX 17 1 16 2 14 3 15 4 13 6 12 7 10 8 9 9 11 11 8 12 6 13 7 14
REMARK SMILES IDX 92 15 89 16 93 17 4 18 5 19 3 20 2 21 1 22 90 23 91 24 18 25
REMARK SMILES IDX 19 26 20 27 21 28 22 29 23 30 24 31 25 33 26 34 27 35 88 36
REMARK SMILES IDX 28 37 87 38 29 39 30 40 31 41 81 42 32 43 86 44 80 45 82 46
REMARK SMILES IDX 33 47 85 48 79 49 78 50 34 52 66 53 46 54 65 55 47 56 50 57
REMARK SMILES IDX 64 58 83 59 48 60 49 61 63 63 84 64 51 65 35 66 36 67 44 68
REMARK SMILES IDX 37 69 38 70 42 71 45 72 39 73 40 74 43 75 41 76 67 77 68 78
REMARK SMILES IDX 76 79 69 80 70 81 74 82 77 83 71 84 72 85 75 86 73 87 52 88
REMARK SMILES IDX 53 89 61 90 54 91 55 92 59 93 62 94 56 95 57 96 60 97 58 98
REMARK H PARENT 16 5 9 10 23 32 82 51 50 62
REMARK Flexibility Score: inf
ROOT
ATOM      1  C   UNL     1       6.410   7.506   0.727  1.00  0.00     0.116 C 
ENDROOT
BRANCH   1   2
ATOM      2  N   UNL     1       5.829   6.224   1.077  1.00  0.00    -0.356 N 
ATOM      3  C   UNL     1       6.014   4.998   0.524  1.00  0.00     0.220 C 
ATOM      4  O   UNL     1       5.561   4.025   1.127  1.00  0.00    -0.275 OA
ATOM      5  H   UNL     1       5.202   6.246   1.835  1.00  0.00     0.163 HD
BRANCH   3   6
ATOM      6  C   UNL     1       6.762   4.841  -0.778  1.00  0.00     0.110 C 
BRANCH   6   7
ATOM      7  C   UNL     1       5.981   5.037  -2.075  1.00  0.00     0.110 C 
BRANCH   7   8
ATOM      8  C   UNL     1       5.103   6.266  -2.207  1.00  0.00     0.225 C 
ATOM      9  N   UNL     1       3.833   6.391  -1.717  1.00  0.00    -0.317 N 
ATOM     10  H   UNL     1       3.370   7.217  -1.988  1.00  0.00     0.170 HD
ATOM     11  O   UNL     1       5.577   7.271  -2.757  1.00  0.00    -0.275 OA
BRANCH   9  12
ATOM     12  C   UNL     1       3.089   5.557  -0.908  1.00  0.00     0.114 A 
ATOM     13  C   UNL     1       2.321   3.619   0.372  1.00  0.00     0.118 A 
ATOM     14  S   UNL     1       3.206   3.875  -1.056  1.00  0.00    -0.109 S 
ATOM     15  C   UNL     1       1.802   4.794   0.890  1.00  0.00    -0.006 A 
ATOM     16  C   UNL     1       2.119   5.898   0.020  1.00  0.00     0.091 A 
ATOM     17  C   UNL     1       1.050   4.913   2.179  1.00  0.00     0.048 C 
BRANCH  13  18
ATOM     18  C   UNL     1       2.161   2.262   0.822  1.00  0.00     0.348 C 
ATOM     19  O   UNL     1       3.048   1.446   1.029  1.00  0.00    -0.245 OA
BRANCH  18  20
ATOM     20  O   UNL     1       0.825   2.005   0.882  1.00  0.00    -0.462 OA
BRANCH  20  21
ATOM     21  C   UNL     1       0.467   0.641   1.121  1.00  0.00     0.230 C 
ATOM     22  C   UNL     1       0.764  -0.221  -0.095  1.00  0.00     0.049 C 
ENDBRANCH  20  21
ENDBRANCH  18  20
ENDBRANCH  13  18
BRANCH  16  23
ATOM     23  C   UNL     1       1.594   7.223   0.200  1.00  0.00     0.103 C 
ATOM     24  N   UNL     1       1.152   8.281   0.351  1.00  0.00    -0.192 NA
ENDBRANCH  16  23
ENDBRANCH   9  12
ENDBRANCH   7   8
ENDBRANCH   6   7
ENDBRANCH   3   6
ENDBRANCH   1   2
BRANCH   1  25
ATOM     25  C   UNL     1       5.359   8.575   0.444  1.00  0.00     0.021 C 
BRANCH  25  26
ATOM     26  C   UNL     1       4.302   8.748   1.535  1.00  0.00     0.002 C 
BRANCH  26  27
ATOM     27  C   UNL     1       4.792   9.395   2.829  1.00  0.00     0.002 C 
BRANCH  27  28
ATOM     28  C   UNL     1       5.451  10.768   2.657  1.00  0.00     0.021 C 
BRANCH  28  29
ATOM     29  C   UNL     1       4.562  11.790   1.966  1.00  0.00     0.116 C 
BRANCH  29  30
ATOM     30  N   UNL     1       3.438  12.207   2.802  1.00  0.00    -0.352 N 
ATOM     31  C   UNL     1       2.580  13.262   2.564  1.00  0.00     0.251 C 
ATOM     32  H   UNL     1       3.276  11.681   3.618  1.00  0.00     0.163 HD
ATOM     33  O   UNL     1       1.946  13.798   3.463  1.00  0.00    -0.269 OA
BRANCH  31  34
ATOM     34  C   UNL     1       2.406  13.686   1.167  1.00  0.00     0.039 A 
ATOM     35  C   UNL     1       2.347  15.030   0.790  1.00  0.00     0.014 A 
ATOM     36  C   UNL     1       2.324  12.664   0.222  1.00  0.00     0.014 A 
ATOM     37  C   UNL     1       2.225  15.330  -0.564  1.00  0.00     0.010 A 
ATOM     38  C   UNL     1       2.399  12.962  -1.106  1.00  0.00     0.010 A 
ATOM     39  C   UNL     1       2.246  14.282  -1.500  1.00  0.00    -0.014 A 
BRANCH  39  40
ATOM     40  C   UNL     1       2.245  14.521  -2.933  1.00  0.00     0.031 A 
ATOM     41  C   UNL     1       3.416  15.310  -3.388  1.00  0.00     0.074 A 
ATOM     42  C   UNL     1       1.400  13.870  -3.765  1.00  0.00     0.049 A 
ATOM     43  N   UNL     1       3.408  16.513  -3.853  1.00  0.00    -0.248 NA
ATOM     44  C   UNL     1       4.768  14.786  -3.126  1.00  0.00     0.031 C 
ATOM     45  C   UNL     1       0.402  12.842  -3.442  1.00  0.00     0.029 A 
ATOM     46  N   UNL     1       1.328  13.929  -5.124  1.00  0.00    -0.354 N 
ATOM     47  C   UNL     1       4.730  16.812  -4.160  1.00  0.00     0.074 A 
ATOM     48  C   UNL     1       5.530  15.818  -3.497  1.00  0.00     0.031 C 
ATOM     49  C   UNL     1      -0.001  12.220  -4.574  1.00  0.00     0.029 A 
ATOM     50  C   UNL     1       0.584  12.902  -5.712  1.00  0.00     0.049 A 
ATOM     51  H   UNL     1       1.764  14.638  -5.649  1.00  0.00     0.167 HD
ATOM     52  C   UNL     1       5.018  17.683  -5.167  1.00  0.00     0.037 A 
ATOM     53  C   UNL     1       0.511  12.637  -7.044  1.00  0.00     0.037 A 
ATOM     54  C   UNL     1       3.849  18.459  -5.512  1.00  0.00     0.049 A 
ATOM     55  C   UNL     1       0.930  13.882  -7.749  1.00  0.00     0.074 A 
ATOM     56  C   UNL     1       3.023  19.320  -4.813  1.00  0.00     0.029 A 
ATOM     57  N   UNL     1       3.128  18.067  -6.616  1.00  0.00    -0.354 N 
ATOM     58  N   UNL     1       0.233  14.986  -7.715  1.00  0.00    -0.248 NA
ATOM     59  C   UNL     1       2.353  14.042  -8.013  1.00  0.00     0.031 C 
ATOM     60  C   UNL     1       1.704  18.993  -5.247  1.00  0.00     0.029 A 
ATOM     61  C   UNL     1       1.804  18.039  -6.260  1.00  0.00     0.049 A 
ATOM     62  H   UNL     1       3.497  17.847  -7.502  1.00  0.00     0.167 HD
ATOM     63  C   UNL     1       1.173  15.984  -7.506  1.00  0.00     0.074 A 
ATOM     64  C   UNL     1       2.469  15.345  -7.736  1.00  0.00     0.031 C 
ATOM     65  C   UNL     1       0.845  17.140  -6.857  1.00  0.00     0.037 A 
BRANCH  52  66
ATOM     66  C   UNL     1       6.188  17.546  -6.114  1.00  0.00     0.064 A 
ATOM     67  C   UNL     1       6.392  18.552  -7.080  1.00  0.00     0.173 A 
ATOM     68  C   UNL     1       6.907  16.349  -6.325  1.00  0.00     0.173 A 
ATOM     69  F   UNL     1       5.760  19.732  -6.983  1.00  0.00    -0.203 F 
ATOM     70  C   UNL     1       7.166  18.335  -8.222  1.00  0.00     0.198 A 
ATOM     71  C   UNL     1       7.720  16.155  -7.441  1.00  0.00     0.198 A 
ATOM     72  F   UNL     1       6.776  15.279  -5.536  1.00  0.00    -0.203 F 
ATOM     73  F   UNL     1       7.214  19.270  -9.180  1.00  0.00    -0.200 F 
ATOM     74  C   UNL     1       7.820  17.132  -8.407  1.00  0.00     0.200 A 
ATOM     75  F   UNL     1       8.334  14.975  -7.608  1.00  0.00    -0.200 F 
ATOM     76  F   UNL     1       8.505  16.894  -9.533  1.00  0.00    -0.200 F 
ENDBRANCH  52  66
BRANCH  53  77
ATOM     77  C   UNL     1       0.448  11.321  -7.733  1.00  0.00     0.064 A 
ATOM     78  C   UNL     1       0.128  11.221  -9.100  1.00  0.00     0.173 A 
ATOM     79  C   UNL     1       0.984  10.162  -7.138  1.00  0.00     0.173 A 
ATOM     80  F   UNL     1      -0.343  12.288  -9.762  1.00  0.00    -0.203 F 
ATOM     81  C   UNL     1       0.353  10.045  -9.828  1.00  0.00     0.198 A 
ATOM     82  C   UNL     1       1.207   8.989  -7.865  1.00  0.00     0.198 A 
ATOM     83  F   UNL     1       1.391  10.172  -5.861  1.00  0.00    -0.203 F 
ATOM     84  F   UNL     1       0.089  10.007 -11.142  1.00  0.00    -0.200 F 
ATOM     85  C   UNL     1       0.904   8.934  -9.212  1.00  0.00     0.200 A 
ATOM     86  F   UNL     1       1.777   7.934  -7.264  1.00  0.00    -0.200 F 
ATOM     87  F   UNL     1       1.181   7.830  -9.920  1.00  0.00    -0.200 F 
ENDBRANCH  53  77
BRANCH  65  88
ATOM     88  C   UNL     1      -0.606  17.407  -6.559  1.00  0.00     0.064 A 
ATOM     89  C   UNL     1      -1.406  16.613  -5.718  1.00  0.00     0.173 A 
ATOM     90  C   UNL     1      -1.156  18.612  -7.013  1.00  0.00     0.173 A 
ATOM     91  F   UNL     1      -0.924  15.496  -5.160  1.00  0.00    -0.203 F 
ATOM     92  C   UNL     1      -2.706  16.992  -5.382  1.00  0.00     0.198 A 
ATOM     93  C   UNL     1      -2.439  19.007  -6.648  1.00  0.00     0.198 A 
ATOM     94  F   UNL     1      -0.421  19.440  -7.773  1.00  0.00    -0.203 F 
ATOM     95  F   UNL     1      -3.450  16.213  -4.582  1.00  0.00    -0.200 F 
ATOM     96  C   UNL     1      -3.218  18.193  -5.842  1.00  0.00     0.200 A 
ATOM     97  F   UNL     1      -2.909  20.195  -7.053  1.00  0.00    -0.200 F 
ATOM     98  F   UNL     1      -4.451  18.581  -5.487  1.00  0.00    -0.200 F 
ENDBRANCH  65  88
ENDBRANCH  39  40
ENDBRANCH  31  34
ENDBRANCH  29  30
ENDBRANCH  28  29
ENDBRANCH  27  28
ENDBRANCH  26  27
ENDBRANCH  25  26
ENDBRANCH   1  25
TORSDOF 20
