REMARK SMILES C[C@@H]1[C@@H](C(=O)NCCCCCCNC(=O)c2ccc(-c3c4nc(c(-c5c(F)c(F)c(F)c(F)c5F)c5ccc([nH]5)c(-c5c(F)c(F)c(F)c(F)c5F)c5nc(c(-c6c(F)c(F)c(F)c(F)c6F)c6ccc3[nH]6)C=C5)C=C4)cc2)CCN1C(=O)N(C)Cc1ccsc1
REMARK SMILES IDX 8 1 7 2 6 3 4 4 5 5 3 7 1 8 2 9 81 10 79 11 80 12 82 13
REMARK SMILES IDX 83 14 84 15 85 16 86 17 87 18 88 19 91 20 89 21 90 22 9 23
REMARK SMILES IDX 10 24 11 25 12 26 13 27 14 28 15 30 16 31 17 32 78 33 18 34
REMARK SMILES IDX 77 35 19 36 20 37 21 38 71 39 22 40 76 41 70 42 72 43 23 44
REMARK SMILES IDX 75 45 69 46 68 47 24 49 56 50 36 51 55 52 37 53 40 54 54 55
REMARK SMILES IDX 73 56 38 57 39 58 53 60 74 61 41 62 25 63 26 64 34 65 27 66
REMARK SMILES IDX 28 67 32 68 35 69 29 70 30 71 33 72 31 73 57 74 58 75 66 76
REMARK SMILES IDX 59 77 60 78 64 79 67 80 61 81 62 82 65 83 63 84 42 85 43 86
REMARK SMILES IDX 51 87 44 88 45 89 49 90 52 91 46 92 47 93 50 94 48 95
REMARK H PARENT 6 6 13 29 72 48 40 59
REMARK Flexibility Score: inf
ROOT
ATOM      1  C   UNL     1      -2.909   4.347  -1.442  1.00  0.00     0.021 C 
ENDROOT
BRANCH   1   2
ATOM      2  C   UNL     1      -2.476   2.980  -0.926  1.00  0.00     0.116 C 
BRANCH   2   3
ATOM      3  N   UNL     1      -1.741   2.222  -1.913  1.00  0.00    -0.356 N 
ATOM      4  C   UNL     1      -0.725   1.331  -1.746  1.00  0.00     0.225 C 
ATOM      5  O   UNL     1      -0.246   0.833  -2.766  1.00  0.00    -0.275 OA
ATOM      6  H   UNL     1      -2.016   2.373  -2.847  1.00  0.00     0.163 HD
BRANCH   4   7
ATOM      7  C   UNL     1      -0.180   1.049  -0.346  1.00  0.00     0.102 C 
ATOM      8  C   UNL     1       1.873   0.077   0.775  1.00  0.00     0.032 C 
ATOM      9  C   UNL     1       0.883  -0.077  -0.388  1.00  0.00     0.096 C 
ATOM     10  N   UNL     1       0.098  -1.314  -0.266  1.00  0.00    -0.321 N 
ATOM     11  C   UNL     1      -1.218   0.462   0.608  1.00  0.00     0.037 C 
ATOM     12  C   UNL     1      -1.238  -1.003   0.225  1.00  0.00     0.122 C 
BRANCH  10  13
ATOM     13  C   UNL     1       0.303  -2.614  -0.642  1.00  0.00     0.320 C 
ATOM     14  O   UNL     1      -0.663  -3.389  -0.569  1.00  0.00    -0.248 OA
BRANCH  13  15
ATOM     15  N   UNL     1       1.525  -3.105  -1.034  1.00  0.00    -0.323 N 
ATOM     16  C   UNL     1       2.780  -2.439  -1.341  1.00  0.00     0.149 C 
BRANCH  15  17
ATOM     17  C   UNL     1       1.584  -4.561  -1.196  1.00  0.00     0.157 C 
BRANCH  17  18
ATOM     18  C   UNL     1       1.687  -5.282   0.130  1.00  0.00    -0.018 A 
ATOM     19  C   UNL     1       1.700  -6.715   0.238  1.00  0.00     0.017 A 
ATOM     20  C   UNL     1       1.736  -4.711   1.392  1.00  0.00     0.070 A 
ATOM     21  C   UNL     1       1.739  -7.157   1.542  1.00  0.00     0.065 A 
ATOM     22  S   UNL     1       1.780  -5.863   2.654  1.00  0.00    -0.152 S 
ENDBRANCH  17  18
ENDBRANCH  15  17
ENDBRANCH  13  15
ENDBRANCH  10  13
ENDBRANCH   4   7
ENDBRANCH   2   3
ENDBRANCH   1   2
BRANCH   1  23
ATOM     23  C   UNL     1      -3.816   4.329  -2.678  1.00  0.00     0.002 C 
BRANCH  23  24
ATOM     24  C   UNL     1      -5.071   3.457  -2.584  1.00  0.00     0.002 C 
BRANCH  24  25
ATOM     25  C   UNL     1      -5.984   3.719  -1.386  1.00  0.00     0.021 C 
BRANCH  25  26
ATOM     26  C   UNL     1      -6.392   5.171  -1.168  1.00  0.00     0.116 C 
BRANCH  26  27
ATOM     27  N   UNL     1      -7.090   5.744  -2.304  1.00  0.00    -0.352 N 
ATOM     28  C   UNL     1      -8.218   6.524  -2.335  1.00  0.00     0.251 C 
ATOM     29  H   UNL     1      -6.695   5.544  -3.183  1.00  0.00     0.163 HD
ATOM     30  O   UNL     1      -8.723   6.827  -3.411  1.00  0.00    -0.269 OA
BRANCH  28  31
ATOM     31  C   UNL     1      -8.853   6.979  -1.077  1.00  0.00     0.039 A 
ATOM     32  C   UNL     1     -10.246   6.927  -0.981  1.00  0.00     0.014 A 
ATOM     33  C   UNL     1      -8.099   7.479  -0.010  1.00  0.00     0.014 A 
ATOM     34  C   UNL     1     -10.880   7.330   0.197  1.00  0.00     0.010 A 
ATOM     35  C   UNL     1      -8.726   7.815   1.189  1.00  0.00     0.010 A 
ATOM     36  C   UNL     1     -10.123   7.753   1.301  1.00  0.00    -0.014 A 
BRANCH  36  37
ATOM     37  C   UNL     1     -10.788   8.148   2.569  1.00  0.00     0.031 A 
ATOM     38  C   UNL     1     -10.723   9.572   3.049  1.00  0.00     0.074 A 
ATOM     39  C   UNL     1     -11.421   7.217   3.307  1.00  0.00     0.049 A 
ATOM     40  N   UNL     1     -11.224  10.103   4.136  1.00  0.00    -0.248 NA
ATOM     41  C   UNL     1      -9.977  10.520   2.207  1.00  0.00     0.031 C 
ATOM     42  C   UNL     1     -11.514   5.795   2.974  1.00  0.00     0.029 A 
ATOM     43  N   UNL     1     -12.106   7.326   4.492  1.00  0.00    -0.354 N 
ATOM     44  C   UNL     1     -10.847  11.439   4.113  1.00  0.00     0.074 A 
ATOM     45  C   UNL     1     -10.030  11.627   2.934  1.00  0.00     0.031 C 
ATOM     46  C   UNL     1     -12.236   5.168   3.917  1.00  0.00     0.029 A 
ATOM     47  C   UNL     1     -12.631   6.137   4.936  1.00  0.00     0.049 A 
ATOM     48  H   UNL     1     -12.210   8.176   4.978  1.00  0.00     0.167 HD
ATOM     49  C   UNL     1     -11.173  12.425   4.982  1.00  0.00     0.037 A 
ATOM     50  C   UNL     1     -13.352   5.861   6.039  1.00  0.00     0.037 A 
ATOM     51  C   UNL     1     -12.009  12.243   6.140  1.00  0.00     0.049 A 
ATOM     52  C   UNL     1     -13.702   6.975   6.988  1.00  0.00     0.074 A 
ATOM     53  C   UNL     1     -12.448  13.192   7.046  1.00  0.00     0.029 A 
ATOM     54  N   UNL     1     -12.532  11.026   6.551  1.00  0.00    -0.354 N 
ATOM     55  N   UNL     1     -13.400   8.248   6.916  1.00  0.00    -0.248 NA
ATOM     56  C   UNL     1     -14.501   6.614   8.167  1.00  0.00     0.031 C 
ATOM     57  C   UNL     1     -13.202  12.543   8.030  1.00  0.00     0.029 A 
ATOM     58  C   UNL     1     -13.271  11.196   7.711  1.00  0.00     0.049 A 
ATOM     59  H   UNL     1     -12.398  10.168   6.087  1.00  0.00     0.167 HD
ATOM     60  C   UNL     1     -13.990   8.843   8.023  1.00  0.00     0.074 A 
ATOM     61  C   UNL     1     -14.684   7.794   8.741  1.00  0.00     0.031 C 
ATOM     62  C   UNL     1     -13.958  10.142   8.411  1.00  0.00     0.037 A 
BRANCH  49  63
ATOM     63  C   UNL     1     -10.630  13.798   4.709  1.00  0.00     0.064 A 
ATOM     64  C   UNL     1     -11.094  14.572   3.634  1.00  0.00     0.173 A 
ATOM     65  C   UNL     1      -9.661  14.363   5.553  1.00  0.00     0.173 A 
ATOM     66  F   UNL     1     -12.011  14.074   2.791  1.00  0.00    -0.203 F 
ATOM     67  C   UNL     1     -10.588  15.847   3.397  1.00  0.00     0.198 A 
ATOM     68  C   UNL     1      -9.179  15.650   5.330  1.00  0.00     0.198 A 
ATOM     69  F   UNL     1      -9.187  13.668   6.599  1.00  0.00    -0.203 F 
ATOM     70  F   UNL     1     -11.011  16.547   2.336  1.00  0.00    -0.200 F 
ATOM     71  C   UNL     1      -9.637  16.388   4.249  1.00  0.00     0.200 A 
ATOM     72  F   UNL     1      -8.269  16.176   6.161  1.00  0.00    -0.200 F 
ATOM     73  F   UNL     1      -9.156  17.618   4.024  1.00  0.00    -0.200 F 
ENDBRANCH  49  63
BRANCH  50  74
ATOM     74  C   UNL     1     -13.817   4.473   6.293  1.00  0.00     0.064 A 
ATOM     75  C   UNL     1     -15.176   4.141   6.196  1.00  0.00     0.173 A 
ATOM     76  C   UNL     1     -12.920   3.454   6.644  1.00  0.00     0.173 A 
ATOM     77  F   UNL     1     -16.075   5.086   5.884  1.00  0.00    -0.203 F 
ATOM     78  C   UNL     1     -15.621   2.847   6.459  1.00  0.00     0.198 A 
ATOM     79  C   UNL     1     -13.363   2.155   6.880  1.00  0.00     0.198 A 
ATOM     80  F   UNL     1     -11.609   3.720   6.746  1.00  0.00    -0.203 F 
ATOM     81  F   UNL     1     -16.931   2.568   6.403  1.00  0.00    -0.200 F 
ATOM     82  C   UNL     1     -14.714   1.854   6.796  1.00  0.00     0.200 A 
ATOM     83  F   UNL     1     -12.482   1.195   7.193  1.00  0.00    -0.200 F 
ATOM     84  F   UNL     1     -15.143   0.610   7.047  1.00  0.00    -0.200 F 
ENDBRANCH  50  74
BRANCH  62  85
ATOM     85  C   UNL     1     -14.715  10.504   9.655  1.00  0.00     0.064 A 
ATOM     86  C   UNL     1     -14.261  10.127  10.927  1.00  0.00     0.173 A 
ATOM     87  C   UNL     1     -15.890  11.268   9.575  1.00  0.00     0.173 A 
ATOM     88  F   UNL     1     -13.152   9.383  11.055  1.00  0.00    -0.203 F 
ATOM     89  C   UNL     1     -14.970  10.478  12.073  1.00  0.00     0.198 A 
ATOM     90  C   UNL     1     -16.580  11.642  10.725  1.00  0.00     0.198 A 
ATOM     91  F   UNL     1     -16.363  11.659   8.383  1.00  0.00    -0.203 F 
ATOM     92  F   UNL     1     -14.544  10.066  13.275  1.00  0.00    -0.200 F 
ATOM     93  C   UNL     1     -16.124  11.240  11.971  1.00  0.00     0.200 A 
ATOM     94  F   UNL     1     -17.688  12.389  10.626  1.00  0.00    -0.200 F 
ATOM     95  F   UNL     1     -16.802  11.582  13.076  1.00  0.00    -0.200 F 
ENDBRANCH  62  85
ENDBRANCH  36  37
ENDBRANCH  28  31
ENDBRANCH  26  27
ENDBRANCH  25  26
ENDBRANCH  24  25
ENDBRANCH  23  24
ENDBRANCH   1  23
TORSDOF 17
