REMARK SMILES O=C(NCCCCCCNC(=O)c1ccc2c(c1)C[N@H+](Cc1ccccc1)CO2)c1ccc(-c2c3nc(c(-c4c(F)c(F)c(F)c(F)c4F)c4ccc([nH]4)c(-c4c(F)c(F)c(F)c(F)c4F)c4nc(c(-c5c(F)c(F)c(F)c(F)c5F)c5ccc2[nH]5)C=C4)C=C3)cc1
REMARK SMILES IDX 6 1 5 2 4 3 3 4 1 5 2 6 30 8 31 9 92 10 32 11 91 12 33 13
REMARK SMILES IDX 34 14 35 15 85 16 36 17 90 18 84 19 86 20 37 21 89 22 83 23
REMARK SMILES IDX 82 24 38 26 70 27 50 28 69 29 51 30 54 31 68 32 87 33 52 34
REMARK SMILES IDX 53 35 67 37 88 38 55 39 39 40 40 41 48 42 41 43 42 44 46 45
REMARK SMILES IDX 49 46 43 47 44 48 47 49 45 50 71 51 72 52 80 53 73 54 74 55
REMARK SMILES IDX 78 56 81 57 75 58 76 59 79 60 77 61 56 62 57 63 65 64 58 65
REMARK SMILES IDX 59 66 63 67 66 68 60 69 61 70 64 71 62 72 7 73 8 74 9 75
REMARK SMILES IDX 10 76 11 77 12 79 13 80 14 81 18 82 15 83 17 84 16 85 19 86
REMARK SMILES IDX 29 87 20 88 28 89 21 91 22 92 23 93 27 94 24 95 26 96 25 97
REMARK H PARENT 3 7 86 25 54 36 10 78 20 90
REMARK Flexibility Score: inf
ROOT
ATOM      1  C   UNL     1       4.010   0.844  -3.847  1.00  0.00     0.002 C 
ENDROOT
BRANCH   1   2
ATOM      2  C   UNL     1       4.482  -0.132  -2.770  1.00  0.00     0.021 C 
BRANCH   2   3
ATOM      3  C   UNL     1       4.282   0.335  -1.336  1.00  0.00     0.116 C 
BRANCH   3   4
ATOM      4  N   UNL     1       2.883   0.444  -0.963  1.00  0.00    -0.352 N 
ATOM      5  O   UNL     1       1.019   0.009   0.239  1.00  0.00    -0.269 OA
ATOM      6  C   UNL     1       2.240  -0.068   0.140  1.00  0.00     0.251 C 
ATOM      7  H   UNL     1       2.316   0.955  -1.585  1.00  0.00     0.163 HD
BRANCH   6   8
ATOM      8  C   UNL     1       3.024  -0.741   1.200  1.00  0.00     0.039 A 
ATOM      9  C   UNL     1       4.217  -0.186   1.665  1.00  0.00     0.014 A 
ATOM     10  C   UNL     1       2.559  -1.948   1.732  1.00  0.00     0.014 A 
ATOM     11  C   UNL     1       5.016  -0.906   2.544  1.00  0.00     0.010 A 
ATOM     12  C   UNL     1       3.320  -2.627   2.690  1.00  0.00     0.010 A 
ATOM     13  C   UNL     1       4.571  -2.126   3.081  1.00  0.00    -0.014 A 
BRANCH  13  14
ATOM     14  C   UNL     1       5.412  -2.804   4.101  1.00  0.00     0.031 A 
ATOM     15  C   UNL     1       6.044  -4.142   3.838  1.00  0.00     0.074 A 
ATOM     16  C   UNL     1       5.653  -2.158   5.258  1.00  0.00     0.049 A 
ATOM     17  N   UNL     1       6.867  -4.825   4.595  1.00  0.00    -0.248 NA
ATOM     18  C   UNL     1       5.706  -4.807   2.571  1.00  0.00     0.031 C 
ATOM     19  C   UNL     1       5.069  -0.868   5.635  1.00  0.00     0.029 A 
ATOM     20  N   UNL     1       6.468  -2.473   6.314  1.00  0.00    -0.354 N 
ATOM     21  C   UNL     1       7.140  -5.998   3.903  1.00  0.00     0.074 A 
ATOM     22  C   UNL     1       6.369  -5.951   2.678  1.00  0.00     0.031 C 
ATOM     23  C   UNL     1       5.589  -0.474   6.805  1.00  0.00     0.029 A 
ATOM     24  C   UNL     1       6.498  -1.507   7.289  1.00  0.00     0.049 A 
ATOM     25  H   UNL     1       6.983  -3.311   6.368  1.00  0.00     0.167 HD
ATOM     26  C   UNL     1       7.967  -7.013   4.254  1.00  0.00     0.037 A 
ATOM     27  C   UNL     1       7.176  -1.457   8.450  1.00  0.00     0.037 A 
ATOM     28  C   UNL     1       8.737  -7.051   5.473  1.00  0.00     0.049 A 
ATOM     29  C   UNL     1       8.092  -2.591   8.806  1.00  0.00     0.074 A 
ATOM     30  C   UNL     1       9.606  -8.034   5.916  1.00  0.00     0.029 A 
ATOM     31  N   UNL     1       8.729  -6.060   6.444  1.00  0.00    -0.354 N 
ATOM     32  N   UNL     1       8.357  -3.681   8.129  1.00  0.00    -0.248 NA
ATOM     33  C   UNL     1       8.803  -2.488  10.086  1.00  0.00     0.031 C 
ATOM     34  C   UNL     1      10.099  -7.653   7.170  1.00  0.00     0.029 A 
ATOM     35  C   UNL     1       9.571  -6.413   7.489  1.00  0.00     0.049 A 
ATOM     36  H   UNL     1       8.203  -5.229   6.399  1.00  0.00     0.167 HD
ATOM     37  C   UNL     1       9.266  -4.393   8.897  1.00  0.00     0.074 A 
ATOM     38  C   UNL     1       9.535  -3.592  10.074  1.00  0.00     0.031 C 
ATOM     39  C   UNL     1       9.818  -5.607   8.656  1.00  0.00     0.037 A 
BRANCH  26  40
ATOM     40  C   UNL     1       8.088  -8.174   3.311  1.00  0.00     0.064 A 
ATOM     41  C   UNL     1       8.787  -8.064   2.099  1.00  0.00     0.173 A 
ATOM     42  C   UNL     1       7.556  -9.428   3.648  1.00  0.00     0.173 A 
ATOM     43  F   UNL     1       9.306  -6.885   1.724  1.00  0.00    -0.203 F 
ATOM     44  C   UNL     1       8.935  -9.161   1.254  1.00  0.00     0.198 A 
ATOM     45  C   UNL     1       7.726 -10.529   2.812  1.00  0.00     0.198 A 
ATOM     46  F   UNL     1       6.884  -9.590   4.798  1.00  0.00    -0.203 F 
ATOM     47  F   UNL     1       9.579  -9.024   0.087  1.00  0.00    -0.200 F 
ATOM     48  C   UNL     1       8.412 -10.394   1.615  1.00  0.00     0.200 A 
ATOM     49  F   UNL     1       7.231 -11.723   3.168  1.00  0.00    -0.200 F 
ATOM     50  F   UNL     1       8.566 -11.452   0.806  1.00  0.00    -0.200 F 
ENDBRANCH  26  40
BRANCH  27  51
ATOM     51  C   UNL     1       7.006  -0.290   9.352  1.00  0.00     0.064 A 
ATOM     52  C   UNL     1       8.048   0.622   9.564  1.00  0.00     0.173 A 
ATOM     53  C   UNL     1       5.789  -0.057  10.010  1.00  0.00     0.173 A 
ATOM     54  F   UNL     1       9.235   0.433   8.970  1.00  0.00    -0.203 F 
ATOM     55  C   UNL     1       7.885   1.714  10.414  1.00  0.00     0.198 A 
ATOM     56  C   UNL     1       5.616   1.052  10.833  1.00  0.00     0.198 A 
ATOM     57  F   UNL     1       4.758  -0.897   9.833  1.00  0.00    -0.203 F 
ATOM     58  F   UNL     1       8.910   2.548  10.633  1.00  0.00    -0.200 F 
ATOM     59  C   UNL     1       6.667   1.933  11.041  1.00  0.00     0.200 A 
ATOM     60  F   UNL     1       4.433   1.269  11.422  1.00  0.00    -0.200 F 
ATOM     61  F   UNL     1       6.508   2.988  11.851  1.00  0.00    -0.200 F 
ENDBRANCH  27  51
BRANCH  39  62
ATOM     62  C   UNL     1      10.771  -6.131   9.689  1.00  0.00     0.064 A 
ATOM     63  C   UNL     1      10.319  -6.582  10.939  1.00  0.00     0.173 A 
ATOM     64  C   UNL     1      12.148  -6.184   9.428  1.00  0.00     0.173 A 
ATOM     65  F   UNL     1       9.013  -6.533  11.242  1.00  0.00    -0.203 F 
ATOM     66  C   UNL     1      11.216  -7.035  11.902  1.00  0.00     0.198 A 
ATOM     67  C   UNL     1      13.039  -6.665  10.383  1.00  0.00     0.198 A 
ATOM     68  F   UNL     1      12.629  -5.769   8.246  1.00  0.00    -0.203 F 
ATOM     69  F   UNL     1      10.768  -7.407  13.109  1.00  0.00    -0.200 F 
ATOM     70  C   UNL     1      12.573  -7.080  11.622  1.00  0.00     0.200 A 
ATOM     71  F   UNL     1      14.349  -6.716  10.109  1.00  0.00    -0.200 F 
ATOM     72  F   UNL     1      13.436  -7.513  12.552  1.00  0.00    -0.200 F 
ENDBRANCH  39  62
ENDBRANCH  13  14
ENDBRANCH   6   8
ENDBRANCH   3   4
ENDBRANCH   2   3
ENDBRANCH   1   2
BRANCH   1  73
ATOM     73  C   UNL     1       4.581   2.263  -3.762  1.00  0.00     0.002 C 
BRANCH  73  74
ATOM     74  C   UNL     1       6.101   2.368  -3.630  1.00  0.00     0.021 C 
BRANCH  74  75
ATOM     75  C   UNL     1       6.901   1.603  -4.678  1.00  0.00     0.116 C 
BRANCH  75  76
ATOM     76  N   UNL     1       6.695   2.115  -6.020  1.00  0.00    -0.352 N 
ATOM     77  C   UNL     1       7.628   2.601  -6.902  1.00  0.00     0.251 C 
ATOM     78  H   UNL     1       5.764   2.115  -6.340  1.00  0.00     0.163 HD
ATOM     79  O   UNL     1       7.281   3.134  -7.951  1.00  0.00    -0.269 OA
BRANCH  77  80
ATOM     80  C   UNL     1       9.060   2.510  -6.556  1.00  0.00     0.040 A 
ATOM     81  C   UNL     1       9.633   1.284  -6.197  1.00  0.00     0.017 A 
ATOM     82  C   UNL     1       9.832   3.672  -6.593  1.00  0.00     0.027 A 
ATOM     83  C   UNL     1      10.952   1.244  -5.756  1.00  0.00     0.048 A 
ATOM     84  C   UNL     1      11.178   3.618  -6.211  1.00  0.00     0.049 A 
ATOM     85  C   UNL     1      11.709   2.414  -5.735  1.00  0.00     0.134 A 
ATOM     86  C   UNL     1      12.068   4.819  -6.346  1.00  0.00     0.306 C 
ATOM     87  O   UNL     1      13.008   2.292  -5.322  1.00  0.00    -0.445 OA
ATOM     88  N   UNL     1      13.486   4.476  -6.334  1.00  0.00    -0.295 N 
ATOM     89  C   UNL     1      13.735   3.524  -5.257  1.00  0.00     0.507 C 
ATOM     90  H   UNL     1      14.007   5.330  -6.138  1.00  0.00     0.351 HD
BRANCH  88  91
ATOM     91  C   UNL     1      14.064   4.101  -7.635  1.00  0.00     0.302 C 
BRANCH  91  92
ATOM     92  C   UNL     1      13.572   2.841  -8.317  1.00  0.00     0.006 A 
ATOM     93  C   UNL     1      14.225   1.615  -8.113  1.00  0.00     0.009 A 
ATOM     94  C   UNL     1      12.427   2.861  -9.130  1.00  0.00     0.009 A 
ATOM     95  C   UNL     1      13.721   0.436  -8.668  1.00  0.00     0.001 A 
ATOM     96  C   UNL     1      11.917   1.680  -9.675  1.00  0.00     0.001 A 
ATOM     97  C   UNL     1      12.562   0.468  -9.439  1.00  0.00     0.000 A 
ENDBRANCH  91  92
ENDBRANCH  88  91
ENDBRANCH  77  80
ENDBRANCH  75  76
ENDBRANCH  74  75
ENDBRANCH  73  74
ENDBRANCH   1  73
TORSDOF 15
