REMARK SMILES CCc1ccc(C(=O)N2Cc3nc[nH]c3C[C@@H]2C(=O)NCCCCCCNC(=O)c2ccc(-c3c4nc(c(-c5c(F)c(F)c(F)c(F)c5F)c5ccc([nH]5)c(-c5c(F)c(F)c(F)c(F)c5F)c5nc(c(-c6c(F)c(F)c(F)c(F)c6F)c6ccc3[nH]6)C=C5)C=C4)cc2)o1
REMARK SMILES IDX 23 1 22 2 21 3 20 4 18 5 19 6 17 8 9 9 10 10 11 11 16 12
REMARK SMILES IDX 12 13 15 14 13 15 14 16 7 18 8 19 6 20 3 21 4 22 93 23 5 24
REMARK SMILES IDX 2 25 1 26 24 27 25 28 26 29 27 30 28 31 29 33 30 34 31 35
REMARK SMILES IDX 92 36 32 37 91 38 33 39 34 40 35 41 85 42 36 43 90 44 84 45
REMARK SMILES IDX 86 46 37 47 89 48 83 49 82 50 38 52 70 53 50 54 69 55 51 56
REMARK SMILES IDX 54 57 68 58 87 59 52 60 53 61 67 63 88 64 55 65 39 66 40 67
REMARK SMILES IDX 48 68 41 69 42 70 46 71 49 72 43 73 44 74 47 75 45 76 71 77
REMARK SMILES IDX 72 78 80 79 73 80 74 81 78 82 81 83 75 84 76 85 79 86 77 87
REMARK SMILES IDX 56 88 57 89 65 90 58 91 59 92 63 93 66 94 60 95 61 96 64 97
REMARK SMILES IDX 62 98
REMARK H PARENT 20 7 14 17 27 32 86 51 54 62
REMARK Flexibility Score: inf
ROOT
ATOM      1  C   UNL     1      -3.491   4.838   6.075  1.00  0.00     0.002 C 
ENDROOT
BRANCH   1   2
ATOM      2  C   UNL     1      -2.113   5.298   6.563  1.00  0.00     0.021 C 
BRANCH   2   3
ATOM      3  C   UNL     1      -1.293   4.249   7.304  1.00  0.00     0.116 C 
BRANCH   3   4
ATOM      4  N   UNL     1      -1.158   3.007   6.566  1.00  0.00    -0.354 N 
ATOM      5  C   UNL     1      -0.113   2.125   6.540  1.00  0.00     0.243 C 
ATOM      6  O   UNL     1      -0.346   0.986   6.141  1.00  0.00    -0.273 OA
ATOM      7  H   UNL     1      -1.928   2.765   6.003  1.00  0.00     0.163 HD
BRANCH   5   8
ATOM      8  C   UNL     1       1.250   2.558   7.111  1.00  0.00     0.181 C 
ATOM      9  N   UNL     1       2.520   1.998   6.543  1.00  0.00    -0.318 N 
ATOM     10  C   UNL     1       3.802   2.420   7.148  1.00  0.00     0.179 C 
ATOM     11  C   UNL     1       3.630   2.730   8.595  1.00  0.00     0.081 A 
ATOM     12  C   UNL     1       1.148   2.292   8.646  1.00  0.00     0.091 C 
ATOM     13  N   UNL     1       4.618   3.175   9.433  1.00  0.00    -0.240 NA
ATOM     14  C   UNL     1       2.432   2.675   9.263  1.00  0.00     0.042 A 
ATOM     15  C   UNL     1       4.030   3.339  10.601  1.00  0.00     0.197 A 
ATOM     16  N   UNL     1       2.693   3.043  10.547  1.00  0.00    -0.348 N 
ATOM     17  H   UNL     1       2.049   3.087  11.291  1.00  0.00     0.167 HD
BRANCH   9  18
ATOM     18  C   UNL     1       2.573   0.925   5.653  1.00  0.00     0.290 C 
ATOM     19  O   UNL     1       3.282  -0.051   5.897  1.00  0.00    -0.265 OA
BRANCH  18  20
ATOM     20  C   UNL     1       1.920   1.127   4.368  1.00  0.00     0.191 A 
ATOM     21  C   UNL     1       1.101   0.478   2.423  1.00  0.00     0.104 A 
ATOM     22  C   UNL     1       0.940   1.845   2.473  1.00  0.00     0.046 A 
ATOM     23  O   UNL     1       1.709   0.039   3.560  1.00  0.00    -0.456 OA
ATOM     24  C   UNL     1       1.484   2.265   3.710  1.00  0.00     0.056 A 
BRANCH  21  25
ATOM     25  C   UNL     1       0.736  -0.561   1.425  1.00  0.00     0.072 C 
ATOM     26  C   UNL     1       1.148  -0.175   0.013  1.00  0.00     0.012 C 
ENDBRANCH  21  25
ENDBRANCH  18  20
ENDBRANCH   9  18
ENDBRANCH   5   8
ENDBRANCH   3   4
ENDBRANCH   2   3
ENDBRANCH   1   2
BRANCH   1  27
ATOM     27  C   UNL     1      -4.391   4.116   7.091  1.00  0.00     0.002 C 
BRANCH  27  28
ATOM     28  C   UNL     1      -4.695   4.832   8.414  1.00  0.00     0.021 C 
BRANCH  28  29
ATOM     29  C   UNL     1      -5.364   6.185   8.259  1.00  0.00     0.116 C 
BRANCH  29  30
ATOM     30  N   UNL     1      -6.694   6.130   7.633  1.00  0.00    -0.352 N 
ATOM     31  C   UNL     1      -7.545   7.177   7.281  1.00  0.00     0.251 C 
ATOM     32  H   UNL     1      -7.031   5.227   7.436  1.00  0.00     0.163 HD
ATOM     33  O   UNL     1      -8.736   6.998   7.110  1.00  0.00    -0.269 OA
BRANCH  31  34
ATOM     34  C   UNL     1      -6.960   8.521   7.104  1.00  0.00     0.039 A 
ATOM     35  C   UNL     1      -7.613   9.722   7.399  1.00  0.00     0.014 A 
ATOM     36  C   UNL     1      -5.655   8.543   6.655  1.00  0.00     0.014 A 
ATOM     37  C   UNL     1      -6.902  10.912   7.224  1.00  0.00     0.010 A 
ATOM     38  C   UNL     1      -4.884   9.614   6.957  1.00  0.00     0.010 A 
ATOM     39  C   UNL     1      -5.528  10.829   6.971  1.00  0.00    -0.014 A 
BRANCH  39  40
ATOM     40  C   UNL     1      -4.662  11.951   6.667  1.00  0.00     0.031 A 
ATOM     41  C   UNL     1      -4.432  12.876   7.793  1.00  0.00     0.074 A 
ATOM     42  C   UNL     1      -3.889  11.964   5.554  1.00  0.00     0.049 A 
ATOM     43  N   UNL     1      -4.821  14.100   7.894  1.00  0.00    -0.248 NA
ATOM     44  C   UNL     1      -3.812  12.338   9.012  1.00  0.00     0.031 C 
ATOM     45  C   UNL     1      -3.717  10.933   4.516  1.00  0.00     0.029 A 
ATOM     46  N   UNL     1      -2.996  12.911   5.168  1.00  0.00    -0.354 N 
ATOM     47  C   UNL     1      -4.361  14.548   9.127  1.00  0.00     0.074 A 
ATOM     48  C   UNL     1      -3.915  13.380   9.839  1.00  0.00     0.031 C 
ATOM     49  C   UNL     1      -2.640  11.227   3.751  1.00  0.00     0.029 A 
ATOM     50  C   UNL     1      -2.147  12.535   4.134  1.00  0.00     0.049 A 
ATOM     51  H   UNL     1      -2.953  13.800   5.590  1.00  0.00     0.167 HD
ATOM     52  C   UNL     1      -4.198  15.877   9.375  1.00  0.00     0.037 A 
ATOM     53  C   UNL     1      -1.096  13.257   3.669  1.00  0.00     0.037 A 
ATOM     54  C   UNL     1      -4.827  16.671   8.348  1.00  0.00     0.049 A 
ATOM     55  C   UNL     1      -1.306  14.661   4.119  1.00  0.00     0.074 A 
ATOM     56  C   UNL     1      -6.132  16.829   7.921  1.00  0.00     0.029 A 
ATOM     57  N   UNL     1      -4.039  17.133   7.320  1.00  0.00    -0.354 N 
ATOM     58  N   UNL     1      -2.282  15.415   3.687  1.00  0.00    -0.248 NA
ATOM     59  C   UNL     1      -0.748  15.042   5.410  1.00  0.00     0.031 C 
ATOM     60  C   UNL     1      -6.045  16.895   6.499  1.00  0.00     0.029 A 
ATOM     61  C   UNL     1      -4.695  16.854   6.147  1.00  0.00     0.049 A 
ATOM     62  H   UNL     1      -3.167  17.580   7.409  1.00  0.00     0.167 HD
ATOM     63  C   UNL     1      -2.731  16.098   4.810  1.00  0.00     0.074 A 
ATOM     64  C   UNL     1      -1.706  15.876   5.827  1.00  0.00     0.031 C 
ATOM     65  C   UNL     1      -4.025  16.525   4.908  1.00  0.00     0.037 A 
BRANCH  52  66
ATOM     66  C   UNL     1      -3.213  16.471  10.346  1.00  0.00     0.064 A 
ATOM     67  C   UNL     1      -3.278  17.851  10.624  1.00  0.00     0.173 A 
ATOM     68  C   UNL     1      -2.051  15.813  10.798  1.00  0.00     0.173 A 
ATOM     69  F   UNL     1      -4.337  18.579  10.237  1.00  0.00    -0.203 F 
ATOM     70  C   UNL     1      -2.220  18.533  11.231  1.00  0.00     0.198 A 
ATOM     71  C   UNL     1      -1.022  16.486  11.454  1.00  0.00     0.198 A 
ATOM     72  F   UNL     1      -1.808  14.525  10.530  1.00  0.00    -0.203 F 
ATOM     73  F   UNL     1      -2.275  19.865  11.359  1.00  0.00    -0.200 F 
ATOM     74  C   UNL     1      -1.090  17.851  11.639  1.00  0.00     0.200 A 
ATOM     75  F   UNL     1       0.072  15.808  11.832  1.00  0.00    -0.200 F 
ATOM     76  F   UNL     1      -0.049  18.509  12.164  1.00  0.00    -0.200 F 
ENDBRANCH  52  66
BRANCH  53  77
ATOM     77  C   UNL     1       0.205  12.756   3.162  1.00  0.00     0.064 A 
ATOM     78  C   UNL     1       1.060  13.568   2.399  1.00  0.00     0.173 A 
ATOM     79  C   UNL     1       0.756  11.553   3.646  1.00  0.00     0.173 A 
ATOM     80  F   UNL     1       0.629  14.750   1.937  1.00  0.00    -0.203 F 
ATOM     81  C   UNL     1       2.391  13.206   2.152  1.00  0.00     0.198 A 
ATOM     82  C   UNL     1       2.082  11.192   3.398  1.00  0.00     0.198 A 
ATOM     83  F   UNL     1       0.046  10.747   4.449  1.00  0.00    -0.203 F 
ATOM     84  F   UNL     1       3.193  14.032   1.465  1.00  0.00    -0.200 F 
ATOM     85  C   UNL     1       2.903  12.024   2.661  1.00  0.00     0.200 A 
ATOM     86  F   UNL     1       2.573  10.063   3.929  1.00  0.00    -0.200 F 
ATOM     87  F   UNL     1       4.192  11.706   2.478  1.00  0.00    -0.200 F 
ENDBRANCH  53  77
BRANCH  65  88
ATOM     88  C   UNL     1      -4.900  16.420   3.687  1.00  0.00     0.064 A 
ATOM     89  C   UNL     1      -5.285  15.200   3.103  1.00  0.00     0.173 A 
ATOM     90  C   UNL     1      -5.521  17.580   3.211  1.00  0.00     0.173 A 
ATOM     91  F   UNL     1      -4.816  14.037   3.565  1.00  0.00    -0.203 F 
ATOM     92  C   UNL     1      -6.224  15.149   2.074  1.00  0.00     0.198 A 
ATOM     93  C   UNL     1      -6.484  17.526   2.206  1.00  0.00     0.198 A 
ATOM     94  F   UNL     1      -5.238  18.768   3.768  1.00  0.00    -0.203 F 
ATOM     95  F   UNL     1      -6.574  13.969   1.540  1.00  0.00    -0.200 F 
ATOM     96  C   UNL     1      -6.830  16.312   1.633  1.00  0.00     0.200 A 
ATOM     97  F   UNL     1      -7.105  18.648   1.819  1.00  0.00    -0.200 F 
ATOM     98  F   UNL     1      -7.771  16.261   0.679  1.00  0.00    -0.200 F 
ENDBRANCH  65  88
ENDBRANCH  39  40
ENDBRANCH  31  34
ENDBRANCH  29  30
ENDBRANCH  28  29
ENDBRANCH  27  28
ENDBRANCH   1  27
TORSDOF 16
