REMARK SMILES Cc1ccc(C(=O)C2=C(NCCCCCCNC(=O)c3ccc(-c4c5nc(c(-c6c(F)c(F)c(F)c(F)c6F)c6ccc([nH]6)c(-c6c(F)c(F)c(F)c(F)c6F)c6nc(c(-c7c(F)c(F)c(F)c(F)c7F)c7ccc4[nH]7)C=C6)C=C5)cc3)C(=O)N(CCCC(=O)[O-])[C@H]2c2ccc3c(c2)OCO3)cc1
REMARK SMILES IDX 12 1 11 2 10 3 9 5 8 6 92 7 83 8 85 9 84 10 6 11 7 12 5 13
REMARK SMILES IDX 1 14 2 15 3 16 103 17 4 18 102 19 93 20 94 21 98 22 95 23
REMARK SMILES IDX 97 24 96 25 99 26 101 27 100 28 86 29 87 30 88 31 89 32
REMARK SMILES IDX 90 33 91 34 13 35 14 36 15 37 16 38 17 39 18 40 19 42 20 43
REMARK SMILES IDX 21 44 82 45 22 46 81 47 23 48 24 49 25 50 75 51 26 52 80 53
REMARK SMILES IDX 74 54 76 55 27 56 79 57 73 58 72 59 28 61 60 62 40 63 59 64
REMARK SMILES IDX 41 65 44 66 58 67 77 68 42 69 43 70 57 72 78 73 45 74 29 75
REMARK SMILES IDX 30 76 38 77 31 78 32 79 36 80 39 81 33 82 34 83 37 84 35 85
REMARK SMILES IDX 61 86 62 87 70 88 63 89 64 90 68 91 71 92 65 93 66 94 69 95
REMARK SMILES IDX 67 96 46 97 47 98 55 99 48 100 49 101 53 102 56 103 50 104
REMARK SMILES IDX 51 105 54 106 52 107
REMARK H PARENT 10 4 17 41 76 60 44 71
REMARK Flexibility Score: inf
ROOT
ATOM      1  C   UNL     1      -7.983  -0.976  -1.353  1.00  0.00     0.021 C 
ENDROOT
BRANCH   1   2
ATOM      2  C   UNL     1      -7.492  -0.258  -0.102  1.00  0.00     0.113 C 
BRANCH   2   3
ATOM      3  N   UNL     1      -6.049  -0.365  -0.027  1.00  0.00    -0.380 N 
ATOM      4  H   UNL     1      -5.617  -1.249  -0.074  1.00  0.00     0.160 HD
BRANCH   3   5
ATOM      5  C   UNL     1      -5.292   0.754   0.108  1.00  0.00     0.110 C 
ATOM      6  C   UNL     1      -4.184   1.157  -0.528  1.00  0.00     0.056 C 
ATOM      7  C   UNL     1      -3.856   2.567  -0.130  1.00  0.00     0.153 C 
ATOM      8  C   UNL     1      -5.737   1.885   0.993  1.00  0.00     0.271 C 
ATOM      9  N   UNL     1      -5.118   3.013   0.456  1.00  0.00    -0.326 N 
ATOM     10  O   UNL     1      -6.634   1.847   1.807  1.00  0.00    -0.267 OA
BRANCH   6  11
ATOM     11  C   UNL     1      -3.476   0.240  -1.463  1.00  0.00     0.193 C 
ATOM     12  O   UNL     1      -4.100  -0.620  -2.087  1.00  0.00    -0.289 OA
BRANCH  11  13
ATOM     13  C   UNL     1      -1.990   0.196  -1.536  1.00  0.00     0.022 A 
ATOM     14  C   UNL     1       2.300  -0.086  -1.140  1.00  0.00     0.044 C 
ATOM     15  C   UNL     1       0.820  -0.004  -1.391  1.00  0.00    -0.051 A 
ATOM     16  C   UNL     1       0.027  -1.151  -1.296  1.00  0.00     0.004 A 
ATOM     17  C   UNL     1       0.203   1.215  -1.695  1.00  0.00     0.004 A 
ATOM     18  C   UNL     1      -1.368  -1.050  -1.360  1.00  0.00     0.012 A 
ATOM     19  C   UNL     1      -1.195   1.312  -1.786  1.00  0.00     0.012 A 
ENDBRANCH  11  13
ENDBRANCH   6  11
BRANCH   7  20
ATOM     20  C   UNL     1      -2.697   2.547   0.878  1.00  0.00    -0.017 A 
ATOM     21  C   UNL     1      -1.571   3.379   0.677  1.00  0.00     0.010 A 
ATOM     22  C   UNL     1      -2.602   1.474   1.790  1.00  0.00     0.056 A 
ATOM     23  C   UNL     1      -0.316   2.994   1.171  1.00  0.00     0.051 A 
ATOM     24  C   UNL     1      -1.349   1.065   2.158  1.00  0.00     0.166 A 
ATOM     25  C   UNL     1      -0.229   1.782   1.825  1.00  0.00     0.165 A 
ATOM     26  O   UNL     1      -1.063  -0.145   2.708  1.00  0.00    -0.454 OA
ATOM     27  O   UNL     1       0.909   1.091   2.115  1.00  0.00    -0.454 OA
ATOM     28  C   UNL     1       0.346  -0.205   2.428  1.00  0.00     0.468 C 
ENDBRANCH   7  20
BRANCH   9  29
ATOM     29  C   UNL     1      -6.076   3.796  -0.328  1.00  0.00     0.121 C 
BRANCH  29  30
ATOM     30  C   UNL     1      -7.000   4.682   0.517  1.00  0.00     0.028 C 
BRANCH  30  31
ATOM     31  C   UNL     1      -6.269   5.880   1.107  1.00  0.00     0.054 C 
BRANCH  31  32
ATOM     32  C   UNL     1      -5.690   6.812   0.075  1.00  0.00     0.041 C 
ATOM     33  O   UNL     1      -4.836   7.657   0.285  1.00  0.00    -0.550 OA
ATOM     34  O   UNL     1      -6.207   6.676  -1.161  1.00  0.00    -0.550 OA
ENDBRANCH  31  32
ENDBRANCH  30  31
ENDBRANCH  29  30
ENDBRANCH   9  29
ENDBRANCH   3   5
ENDBRANCH   2   3
ENDBRANCH   1   2
BRANCH   1  35
ATOM     35  C   UNL     1      -7.626  -2.465  -1.389  1.00  0.00     0.002 C 
BRANCH  35  36
ATOM     36  C   UNL     1      -7.868  -3.211  -0.069  1.00  0.00     0.002 C 
BRANCH  36  37
ATOM     37  C   UNL     1      -9.260  -3.017   0.529  1.00  0.00     0.021 C 
BRANCH  37  38
ATOM     38  C   UNL     1     -10.351  -3.638  -0.311  1.00  0.00     0.116 C 
BRANCH  38  39
ATOM     39  N   UNL     1     -10.606  -5.026   0.029  1.00  0.00    -0.352 N 
ATOM     40  C   UNL     1     -11.601  -5.872  -0.417  1.00  0.00     0.251 C 
ATOM     41  H   UNL     1      -9.976  -5.423   0.673  1.00  0.00     0.163 HD
ATOM     42  O   UNL     1     -11.782  -6.955   0.130  1.00  0.00    -0.269 OA
BRANCH  40  43
ATOM     43  C   UNL     1     -12.288  -5.567  -1.693  1.00  0.00     0.039 A 
ATOM     44  C   UNL     1     -12.269  -6.600  -2.640  1.00  0.00     0.014 A 
ATOM     45  C   UNL     1     -12.499  -4.251  -2.083  1.00  0.00     0.014 A 
ATOM     46  C   UNL     1     -12.117  -6.282  -3.977  1.00  0.00     0.010 A 
ATOM     47  C   UNL     1     -12.190  -3.923  -3.374  1.00  0.00     0.010 A 
ATOM     48  C   UNL     1     -11.937  -4.942  -4.294  1.00  0.00    -0.014 A 
BRANCH  48  49
ATOM     49  C   UNL     1     -11.542  -4.467  -5.595  1.00  0.00     0.031 A 
ATOM     50  C   UNL     1     -12.626  -4.051  -6.488  1.00  0.00     0.074 A 
ATOM     51  C   UNL     1     -10.229  -4.270  -5.835  1.00  0.00     0.049 A 
ATOM     52  N   UNL     1     -12.514  -3.982  -7.761  1.00  0.00    -0.248 NA
ATOM     53  C   UNL     1     -13.966  -3.716  -6.008  1.00  0.00     0.031 C 
ATOM     54  C   UNL     1      -9.600  -3.542  -6.929  1.00  0.00     0.029 A 
ATOM     55  N   UNL     1      -9.152  -4.883  -5.170  1.00  0.00    -0.354 N 
ATOM     56  C   UNL     1     -13.615  -3.302  -8.227  1.00  0.00     0.074 A 
ATOM     57  C   UNL     1     -14.541  -3.262  -7.125  1.00  0.00     0.031 C 
ATOM     58  C   UNL     1      -8.338  -3.988  -7.071  1.00  0.00     0.029 A 
ATOM     59  C   UNL     1      -8.180  -5.119  -6.172  1.00  0.00     0.049 A 
ATOM     60  H   UNL     1      -9.088  -5.101  -4.212  1.00  0.00     0.167 HD
ATOM     61  C   UNL     1     -13.524  -2.716  -9.452  1.00  0.00     0.037 A 
ATOM     62  C   UNL     1      -7.925  -6.407  -6.557  1.00  0.00     0.037 A 
ATOM     63  C   UNL     1     -12.218  -3.008 -10.045  1.00  0.00     0.049 A 
ATOM     64  C   UNL     1      -8.383  -6.716  -7.974  1.00  0.00     0.074 A 
ATOM     65  C   UNL     1     -11.011  -2.330 -10.099  1.00  0.00     0.029 A 
ATOM     66  N   UNL     1     -11.917  -4.327 -10.316  1.00  0.00    -0.354 N 
ATOM     67  N   UNL     1      -9.075  -5.897  -8.720  1.00  0.00    -0.248 NA
ATOM     68  C   UNL     1      -8.153  -7.997  -8.637  1.00  0.00     0.031 C 
ATOM     69  C   UNL     1      -9.988  -3.272 -10.424  1.00  0.00     0.029 A 
ATOM     70  C   UNL     1     -10.578  -4.513 -10.581  1.00  0.00     0.049 A 
ATOM     71  H   UNL     1     -12.582  -5.053 -10.319  1.00  0.00     0.167 HD
ATOM     72  C   UNL     1      -9.396  -6.496  -9.910  1.00  0.00     0.074 A 
ATOM     73  C   UNL     1      -8.819  -7.826  -9.794  1.00  0.00     0.031 C 
ATOM     74  C   UNL     1     -10.126  -5.863 -10.882  1.00  0.00     0.037 A 
BRANCH  61  75
ATOM     75  C   UNL     1     -14.488  -1.698 -10.001  1.00  0.00     0.064 A 
ATOM     76  C   UNL     1     -14.040  -0.741 -10.937  1.00  0.00     0.173 A 
ATOM     77  C   UNL     1     -15.848  -1.594  -9.651  1.00  0.00     0.173 A 
ATOM     78  F   UNL     1     -12.788  -0.757 -11.410  1.00  0.00    -0.203 F 
ATOM     79  C   UNL     1     -14.862   0.277 -11.422  1.00  0.00     0.198 A 
ATOM     80  C   UNL     1     -16.660  -0.548 -10.105  1.00  0.00     0.198 A 
ATOM     81  F   UNL     1     -16.454  -2.525  -8.905  1.00  0.00    -0.203 F 
ATOM     82  F   UNL     1     -14.373   1.154 -12.310  1.00  0.00    -0.200 F 
ATOM     83  C   UNL     1     -16.165   0.390 -10.989  1.00  0.00     0.200 A 
ATOM     84  F   UNL     1     -17.930  -0.460  -9.684  1.00  0.00    -0.200 F 
ATOM     85  F   UNL     1     -16.945   1.382 -11.437  1.00  0.00    -0.200 F 
ENDBRANCH  61  75
BRANCH  62  86
ATOM     86  C   UNL     1      -7.972  -7.336  -5.383  1.00  0.00     0.064 A 
ATOM     87  C   UNL     1      -7.096  -7.065  -4.307  1.00  0.00     0.173 A 
ATOM     88  C   UNL     1      -9.101  -8.114  -5.107  1.00  0.00     0.173 A 
ATOM     89  F   UNL     1      -5.979  -6.348  -4.518  1.00  0.00    -0.203 F 
ATOM     90  C   UNL     1      -7.438  -7.382  -2.994  1.00  0.00     0.198 A 
ATOM     91  C   UNL     1      -9.416  -8.471  -3.792  1.00  0.00     0.198 A 
ATOM     92  F   UNL     1      -9.968  -8.423  -6.081  1.00  0.00    -0.203 F 
ATOM     93  F   UNL     1      -6.670  -6.956  -1.980  1.00  0.00    -0.200 F 
ATOM     94  C   UNL     1      -8.619  -8.054  -2.735  1.00  0.00     0.200 A 
ATOM     95  F   UNL     1     -10.551  -9.140  -3.540  1.00  0.00    -0.200 F 
ATOM     96  F   UNL     1      -9.004  -8.266  -1.469  1.00  0.00    -0.200 F 
ENDBRANCH  62  86
BRANCH  74  97
ATOM     97  C   UNL     1     -10.534  -6.482 -12.202  1.00  0.00     0.064 A 
ATOM     98  C   UNL     1      -9.707  -7.361 -12.914  1.00  0.00     0.173 A 
ATOM     99  C   UNL     1     -11.751  -6.147 -12.850  1.00  0.00     0.173 A 
ATOM    100  F   UNL     1      -8.460  -7.624 -12.499  1.00  0.00    -0.203 F 
ATOM    101  C   UNL     1     -10.126  -7.968 -14.103  1.00  0.00     0.198 A 
ATOM    102  C   UNL     1     -12.141  -6.707 -14.062  1.00  0.00     0.198 A 
ATOM    103  F   UNL     1     -12.630  -5.278 -12.337  1.00  0.00    -0.203 F 
ATOM    104  F   UNL     1      -9.333  -8.868 -14.699  1.00  0.00    -0.200 F 
ATOM    105  C   UNL     1     -11.344  -7.647 -14.672  1.00  0.00     0.200 A 
ATOM    106  F   UNL     1     -13.302  -6.334 -14.620  1.00  0.00    -0.200 F 
ATOM    107  F   UNL     1     -11.745  -8.231 -15.808  1.00  0.00    -0.200 F 
ENDBRANCH  74  97
ENDBRANCH  48  49
ENDBRANCH  40  43
ENDBRANCH  38  39
ENDBRANCH  37  38
ENDBRANCH  36  37
ENDBRANCH  35  36
ENDBRANCH   1  35
TORSDOF 20
