REMARK SMILES O=C(C[C@@H]1CN(C(=O)CCn2cncn2)CCO1)NCCCCCCNC(=O)c1ccc(-c2c3nc(c(-c4c(F)c(F)c(F)c(F)c4F)c4ccc([nH]4)c(-c4c(F)c(F)c(F)c(F)c4F)c4nc(c(-c5c(F)c(F)c(F)c(F)c5F)c5ccc2[nH]5)C=C4)C=C3)cc1
REMARK SMILES IDX 21 1 20 2 19 3 1 4 2 5 3 7 4 8 5 9 18 10 6 11 17 12 16 13
REMARK SMILES IDX 7 14 8 15 9 16 10 17 11 18 12 19 15 20 13 21 14 22 22 23
REMARK SMILES IDX 23 24 24 25 25 26 26 27 27 28 28 30 29 31 30 32 91 33 31 34
REMARK SMILES IDX 90 35 32 36 33 37 34 38 84 39 35 40 89 41 83 42 85 43 36 44
REMARK SMILES IDX 88 45 82 46 81 47 37 49 69 50 49 51 68 52 50 53 53 54 67 55
REMARK SMILES IDX 86 56 51 57 52 58 66 60 87 61 54 62 38 63 39 64 47 65 40 66
REMARK SMILES IDX 41 67 45 68 48 69 42 70 43 71 46 72 44 73 70 74 71 75 79 76
REMARK SMILES IDX 72 77 73 78 77 79 80 80 74 81 75 82 78 83 76 84 55 85 56 86
REMARK SMILES IDX 64 87 57 88 58 89 62 90 65 91 59 92 60 93 63 94 61 95
REMARK H PARENT 19 6 26 29 85 48 53 59
REMARK Flexibility Score: inf
ROOT
ATOM      1  C   UNL     1       2.717   2.448  -2.639  1.00  0.00     0.021 C 
ENDROOT
BRANCH   1   2
ATOM      2  C   UNL     1       2.223   1.051  -2.266  1.00  0.00     0.116 C 
BRANCH   2   3
ATOM      3  N   UNL     1       3.004   0.529  -1.166  1.00  0.00    -0.356 N 
ATOM      4  O   UNL     1       1.257   0.032   0.227  1.00  0.00    -0.275 OA
ATOM      5  C   UNL     1       2.461   0.123   0.026  1.00  0.00     0.222 C 
ATOM      6  H   UNL     1       3.980   0.463  -1.279  1.00  0.00     0.163 HD
BRANCH   5   7
ATOM      7  C   UNL     1       3.503  -0.196   1.076  1.00  0.00     0.133 C 
BRANCH   7   8
ATOM      8  C   UNL     1       4.342  -1.407   0.668  1.00  0.00     0.147 C 
ATOM      9  C   UNL     1       3.550  -2.686   0.934  1.00  0.00     0.152 C 
ATOM     10  O   UNL     1       5.570  -1.407   1.415  1.00  0.00    -0.374 OA
ATOM     11  N   UNL     1       4.331  -3.895   0.705  1.00  0.00    -0.338 N 
ATOM     12  C   UNL     1       6.381  -2.536   1.041  1.00  0.00     0.182 C 
ATOM     13  C   UNL     1       5.663  -3.863   1.318  1.00  0.00     0.148 C 
BRANCH  11  14
ATOM     14  C   UNL     1       3.808  -5.104   0.279  1.00  0.00     0.224 C 
ATOM     15  O   UNL     1       4.459  -6.150   0.325  1.00  0.00    -0.275 OA
BRANCH  14  16
ATOM     16  C   UNL     1       2.408  -5.136  -0.315  1.00  0.00     0.124 C 
BRANCH  16  17
ATOM     17  C   UNL     1       1.326  -5.460   0.710  1.00  0.00     0.156 C 
BRANCH  17  18
ATOM     18  N   UNL     1       0.949  -4.362   1.572  1.00  0.00    -0.252 N 
ATOM     19  C   UNL     1       0.227  -3.252   1.257  1.00  0.00     0.219 A 
ATOM     20  N   UNL     1       1.326  -4.339   2.864  1.00  0.00    -0.160 NA
ATOM     21  N   UNL     1       0.141  -2.475   2.312  1.00  0.00    -0.224 NA
ATOM     22  C   UNL     1       0.811  -3.175   3.271  1.00  0.00     0.246 A 
ENDBRANCH  17  18
ENDBRANCH  16  17
ENDBRANCH  14  16
ENDBRANCH  11  14
ENDBRANCH   7   8
ENDBRANCH   5   7
ENDBRANCH   2   3
ENDBRANCH   1   2
BRANCH   1  23
ATOM     23  C   UNL     1       4.214   2.522  -2.978  1.00  0.00     0.002 C 
BRANCH  23  24
ATOM     24  C   UNL     1       4.699   1.560  -4.072  1.00  0.00     0.002 C 
BRANCH  24  25
ATOM     25  C   UNL     1       3.998   1.682  -5.431  1.00  0.00     0.021 C 
BRANCH  25  26
ATOM     26  C   UNL     1       4.181   3.038  -6.095  1.00  0.00     0.116 C 
BRANCH  26  27
ATOM     27  N   UNL     1       5.565   3.292  -6.488  1.00  0.00    -0.352 N 
ATOM     28  C   UNL     1       6.087   4.423  -7.089  1.00  0.00     0.251 C 
ATOM     29  H   UNL     1       6.206   2.568  -6.302  1.00  0.00     0.163 HD
ATOM     30  O   UNL     1       7.138   4.387  -7.705  1.00  0.00    -0.269 OA
BRANCH  28  31
ATOM     31  C   UNL     1       5.343   5.689  -6.959  1.00  0.00     0.039 A 
ATOM     32  C   UNL     1       5.214   6.573  -8.034  1.00  0.00     0.014 A 
ATOM     33  C   UNL     1       4.753   5.967  -5.729  1.00  0.00     0.014 A 
ATOM     34  C   UNL     1       4.417   7.705  -7.877  1.00  0.00     0.010 A 
ATOM     35  C   UNL     1       3.847   6.988  -5.626  1.00  0.00     0.010 A 
ATOM     36  C   UNL     1       3.723   7.895  -6.673  1.00  0.00    -0.014 A 
BRANCH  36  37
ATOM     37  C   UNL     1       2.760   8.978  -6.518  1.00  0.00     0.031 A 
ATOM     38  C   UNL     1       1.647   8.953  -7.507  1.00  0.00     0.074 A 
ATOM     39  C   UNL     1       2.744   9.772  -5.424  1.00  0.00     0.049 A 
ATOM     40  N   UNL     1       1.359   9.841  -8.400  1.00  0.00    -0.248 NA
ATOM     41  C   UNL     1       0.830   7.731  -7.604  1.00  0.00     0.031 C 
ATOM     42  C   UNL     1       3.589   9.676  -4.226  1.00  0.00     0.029 A 
ATOM     43  N   UNL     1       1.885  10.774  -5.096  1.00  0.00    -0.354 N 
ATOM     44  C   UNL     1       0.208   9.386  -9.042  1.00  0.00     0.074 A 
ATOM     45  C   UNL     1       0.043   8.014  -8.644  1.00  0.00     0.031 C 
ATOM     46  C   UNL     1       3.051  10.410  -3.228  1.00  0.00     0.029 A 
ATOM     47  C   UNL     1       1.931  11.161  -3.760  1.00  0.00     0.049 A 
ATOM     48  H   UNL     1       1.280  11.192  -5.750  1.00  0.00     0.167 HD
ATOM     49  C   UNL     1      -0.647  10.262  -9.640  1.00  0.00     0.037 A 
ATOM     50  C   UNL     1       1.088  12.017  -3.131  1.00  0.00     0.037 A 
ATOM     51  C   UNL     1      -0.002  11.535  -9.852  1.00  0.00     0.049 A 
ATOM     52  C   UNL     1       0.405  12.809  -4.181  1.00  0.00     0.074 A 
ATOM     53  C   UNL     1       1.091  11.967 -10.575  1.00  0.00     0.029 A 
ATOM     54  N   UNL     1      -0.272  12.534  -8.949  1.00  0.00    -0.354 N 
ATOM     55  N   UNL     1       1.011  13.674  -4.946  1.00  0.00    -0.248 NA
ATOM     56  C   UNL     1      -0.860  12.304  -4.688  1.00  0.00     0.031 C 
ATOM     57  C   UNL     1       1.701  12.969  -9.762  1.00  0.00     0.029 A 
ATOM     58  C   UNL     1       0.908  13.147  -8.626  1.00  0.00     0.049 A 
ATOM     59  H   UNL     1      -1.160  12.768  -8.595  1.00  0.00     0.167 HD
ATOM     60  C   UNL     1       0.450  13.485  -6.200  1.00  0.00     0.074 A 
ATOM     61  C   UNL     1      -0.762  12.704  -5.959  1.00  0.00     0.031 C 
ATOM     62  C   UNL     1       1.177  13.726  -7.330  1.00  0.00     0.037 A 
BRANCH  49  63
ATOM     63  C   UNL     1      -2.156  10.125  -9.656  1.00  0.00     0.064 A 
ATOM     64  C   UNL     1      -2.917  11.099 -10.339  1.00  0.00     0.173 A 
ATOM     65  C   UNL     1      -2.892   9.291  -8.787  1.00  0.00     0.173 A 
ATOM     66  F   UNL     1      -2.330  11.952 -11.193  1.00  0.00    -0.203 F 
ATOM     67  C   UNL     1      -4.279  11.290 -10.086  1.00  0.00     0.198 A 
ATOM     68  C   UNL     1      -4.261   9.451  -8.576  1.00  0.00     0.198 A 
ATOM     69  F   UNL     1      -2.313   8.361  -8.021  1.00  0.00    -0.203 F 
ATOM     70  F   UNL     1      -4.922  12.320 -10.652  1.00  0.00    -0.200 F 
ATOM     71  C   UNL     1      -4.947  10.473  -9.195  1.00  0.00     0.200 A 
ATOM     72  F   UNL     1      -4.888   8.656  -7.697  1.00  0.00    -0.200 F 
ATOM     73  F   UNL     1      -6.233  10.697  -8.895  1.00  0.00    -0.200 F 
ENDBRANCH  49  63
BRANCH  50  74
ATOM     74  C   UNL     1       0.617  11.994  -1.725  1.00  0.00     0.064 A 
ATOM     75  C   UNL     1       0.022  13.123  -1.139  1.00  0.00     0.173 A 
ATOM     76  C   UNL     1       0.481  10.780  -1.024  1.00  0.00     0.173 A 
ATOM     77  F   UNL     1       0.065  14.309  -1.764  1.00  0.00    -0.203 F 
ATOM     78  C   UNL     1      -0.689  13.038   0.064  1.00  0.00     0.198 A 
ATOM     79  C   UNL     1      -0.225  10.697   0.178  1.00  0.00     0.198 A 
ATOM     80  F   UNL     1       0.945   9.634  -1.542  1.00  0.00    -0.203 F 
ATOM     81  F   UNL     1      -1.297  14.124   0.560  1.00  0.00    -0.200 F 
ATOM     82  C   UNL     1      -0.821  11.823   0.715  1.00  0.00     0.200 A 
ATOM     83  F   UNL     1      -0.379   9.507   0.776  1.00  0.00    -0.200 F 
ATOM     84  F   UNL     1      -1.556  11.727   1.832  1.00  0.00    -0.200 F 
ENDBRANCH  50  74
BRANCH  62  85
ATOM     85  C   UNL     1       2.474  14.474  -7.179  1.00  0.00     0.064 A 
ATOM     86  C   UNL     1       3.588  14.001  -6.463  1.00  0.00     0.173 A 
ATOM     87  C   UNL     1       2.637  15.660  -7.907  1.00  0.00     0.173 A 
ATOM     88  F   UNL     1       3.549  12.829  -5.819  1.00  0.00    -0.203 F 
ATOM     89  C   UNL     1       4.791  14.706  -6.444  1.00  0.00     0.198 A 
ATOM     90  C   UNL     1       3.850  16.342  -7.919  1.00  0.00     0.198 A 
ATOM     91  F   UNL     1       1.626  16.133  -8.653  1.00  0.00    -0.203 F 
ATOM     92  F   UNL     1       5.834  14.239  -5.741  1.00  0.00    -0.200 F 
ATOM     93  C   UNL     1       4.923  15.872  -7.179  1.00  0.00     0.200 A 
ATOM     94  F   UNL     1       3.986  17.442  -8.672  1.00  0.00    -0.200 F 
ATOM     95  F   UNL     1       6.090  16.529  -7.196  1.00  0.00    -0.200 F 
ENDBRANCH  62  85
ENDBRANCH  36  37
ENDBRANCH  28  31
ENDBRANCH  26  27
ENDBRANCH  25  26
ENDBRANCH  24  25
ENDBRANCH  23  24
ENDBRANCH   1  23
TORSDOF 18
