REMARK SMILES Cc1ccc([C@@]23C[C@@H]4C[C@@H](C[C@@](C(=O)N5CCC(C(=O)NCCCCCCNC(=O)c6ccc(-c7c8nc(c(-c9c(F)c(F)c(F)c(F)c9F)c9ccc([nH]9)c(-c9c(F)c(F)c(F)c(F)c9F)c9nc(c(-c%10c(F)c(F)c(F)c(F)c%10F)c%10ccc7[nH]%10)C=C9)C=C8)cc6)CC5)(C4)C2)C3)cc1
REMARK SMILES IDX 24 1 23 2 22 3 21 4 19 5 20 6 18 8 13 9 14 10 15 11 16 12
REMARK SMILES IDX 95 13 17 14 94 15 12 16 6 17 7 18 97 19 98 20 8 21 10 22
REMARK SMILES IDX 9 23 96 24 11 25 5 26 1 27 2 28 3 29 100 30 4 31 99 32 25 33
REMARK SMILES IDX 26 34 27 35 28 36 29 37 30 39 31 40 32 41 93 42 33 43 92 44
REMARK SMILES IDX 34 45 35 46 36 47 86 48 37 49 91 50 85 51 87 52 38 53 90 54
REMARK SMILES IDX 84 55 83 56 39 58 71 59 51 60 70 61 52 62 55 63 69 64 88 65
REMARK SMILES IDX 53 66 54 67 68 69 89 70 56 71 40 72 41 73 49 74 42 75 43 76
REMARK SMILES IDX 47 77 50 78 44 79 45 80 48 81 46 82 72 83 73 84 81 85 74 86
REMARK SMILES IDX 75 87 79 88 82 89 76 90 77 91 80 92 78 93 57 94 58 95 66 96
REMARK SMILES IDX 59 97 60 98 64 99 67 100 61 101 62 102 65 103 63 104
REMARK H PARENT 21 7 28 38 87 57 55 68
REMARK Flexibility Score: inf
ROOT
ATOM      1  C   UNL     1     -10.803  -2.337  -4.748  1.00  0.00     0.002 C 
ENDROOT
BRANCH   1   2
ATOM      2  C   UNL     1      -9.501  -2.084  -3.978  1.00  0.00     0.021 C 
BRANCH   2   3
ATOM      3  C   UNL     1      -8.774  -3.336  -3.493  1.00  0.00     0.116 C 
BRANCH   3   4
ATOM      4  N   UNL     1      -8.280  -4.150  -4.590  1.00  0.00    -0.356 N 
ATOM      5  C   UNL     1      -7.085  -4.779  -4.762  1.00  0.00     0.223 C 
ATOM      6  O   UNL     1      -6.939  -5.481  -5.765  1.00  0.00    -0.275 OA
ATOM      7  H   UNL     1      -8.915  -4.266  -5.334  1.00  0.00     0.163 HD
BRANCH   5   8
ATOM      8  C   UNL     1      -5.946  -4.616  -3.766  1.00  0.00     0.082 C 
ATOM      9  C   UNL     1      -5.817  -2.439  -0.417  1.00  0.00     0.228 C 
ATOM     10  O   UNL     1      -6.714  -2.875   0.312  1.00  0.00    -0.274 OA
ATOM     11  N   UNL     1      -5.208  -3.266  -1.361  1.00  0.00    -0.342 N 
ATOM     12  C   UNL     1      -5.412  -4.705  -1.269  1.00  0.00     0.120 C 
ATOM     13  C   UNL     1      -4.519  -2.880  -2.592  1.00  0.00     0.120 C 
ATOM     14  C   UNL     1      -6.321  -5.190  -2.386  1.00  0.00     0.035 C 
ATOM     15  C   UNL     1      -5.414  -3.173  -3.784  1.00  0.00     0.035 C 
BRANCH   9  16
ATOM     16  C   UNL     1      -5.330  -0.983  -0.241  1.00  0.00     0.051 C 
ATOM     17  C   UNL     1      -3.180   0.407   0.057  1.00  0.00    -0.003 C 
ATOM     18  C   UNL     1      -3.667   1.236  -1.171  1.00  0.00     0.015 C 
ATOM     19  C   UNL     1      -3.799  -1.001  -0.075  1.00  0.00     0.028 C 
ATOM     20  C   UNL     1      -3.766   1.034   1.347  1.00  0.00     0.015 C 
ATOM     21  C   UNL     1      -5.204   1.338  -1.216  1.00  0.00    -0.009 C 
ATOM     22  C   UNL     1      -5.307   1.074   1.277  1.00  0.00    -0.009 C 
ATOM     23  C   UNL     1      -5.721   1.956   0.090  1.00  0.00     0.007 C 
ATOM     24  C   UNL     1      -5.810  -0.061  -1.379  1.00  0.00     0.020 C 
ATOM     25  C   UNL     1      -5.874  -0.352   1.079  1.00  0.00     0.020 C 
BRANCH  17  26
ATOM     26  C   UNL     1      -1.642   0.337   0.107  1.00  0.00    -0.042 A 
ATOM     27  C   UNL     1       2.697   0.144   0.011  1.00  0.00     0.044 C 
ATOM     28  C   UNL     1       1.202   0.229   0.069  1.00  0.00    -0.051 A 
ATOM     29  C   UNL     1       0.451  -0.942   0.129  1.00  0.00     0.004 A 
ATOM     30  C   UNL     1       0.533   1.455   0.053  1.00  0.00     0.004 A 
ATOM     31  C   UNL     1      -0.944  -0.886   0.157  1.00  0.00     0.004 A 
ATOM     32  C   UNL     1      -0.868   1.508   0.077  1.00  0.00     0.004 A 
ENDBRANCH  17  26
ENDBRANCH   9  16
ENDBRANCH   5   8
ENDBRANCH   3   4
ENDBRANCH   2   3
ENDBRANCH   1   2
BRANCH   1  33
ATOM     33  C   UNL     1     -11.832  -3.260  -4.074  1.00  0.00     0.002 C 
BRANCH  33  34
ATOM     34  C   UNL     1     -12.162  -2.956  -2.610  1.00  0.00     0.021 C 
BRANCH  34  35
ATOM     35  C   UNL     1     -12.850  -1.618  -2.382  1.00  0.00     0.116 C 
BRANCH  35  36
ATOM     36  N   UNL     1     -14.303  -1.686  -2.334  1.00  0.00    -0.352 N 
ATOM     37  C   UNL     1     -15.234  -0.658  -2.268  1.00  0.00     0.251 C 
ATOM     38  H   UNL     1     -14.682  -2.595  -2.351  1.00  0.00     0.163 HD
ATOM     39  O   UNL     1     -16.417  -0.905  -2.162  1.00  0.00    -0.269 OA
BRANCH  37  40
ATOM     40  C   UNL     1     -14.779   0.744  -2.467  1.00  0.00     0.039 A 
ATOM     41  C   UNL     1     -15.498   1.542  -3.366  1.00  0.00     0.014 A 
ATOM     42  C   UNL     1     -13.569   1.194  -1.948  1.00  0.00     0.014 A 
ATOM     43  C   UNL     1     -14.883   2.656  -3.934  1.00  0.00     0.010 A 
ATOM     44  C   UNL     1     -12.918   2.232  -2.584  1.00  0.00     0.010 A 
ATOM     45  C   UNL     1     -13.549   2.918  -3.625  1.00  0.00    -0.014 A 
BRANCH  45  46
ATOM     46  C   UNL     1     -12.695   3.777  -4.436  1.00  0.00     0.031 A 
ATOM     47  C   UNL     1     -12.245   5.095  -3.946  1.00  0.00     0.074 A 
ATOM     48  C   UNL     1     -12.215   3.305  -5.609  1.00  0.00     0.049 A 
ATOM     49  N   UNL     1     -11.894   6.066  -4.721  1.00  0.00    -0.248 NA
ATOM     50  C   UNL     1     -12.170   5.433  -2.530  1.00  0.00     0.031 C 
ATOM     51  C   UNL     1     -11.122   3.859  -6.404  1.00  0.00     0.029 A 
ATOM     52  N   UNL     1     -12.758   2.295  -6.421  1.00  0.00    -0.354 N 
ATOM     53  C   UNL     1     -11.293   7.026  -3.942  1.00  0.00     0.074 A 
ATOM     54  C   UNL     1     -11.550   6.617  -2.579  1.00  0.00     0.031 C 
ATOM     55  C   UNL     1     -11.235   3.419  -7.666  1.00  0.00     0.029 A 
ATOM     56  C   UNL     1     -12.485   2.686  -7.753  1.00  0.00     0.049 A 
ATOM     57  H   UNL     1     -13.231   1.484  -6.125  1.00  0.00     0.167 HD
ATOM     58  C   UNL     1     -10.518   7.982  -4.532  1.00  0.00     0.037 A 
ATOM     59  C   UNL     1     -13.482   2.946  -8.646  1.00  0.00     0.037 A 
ATOM     60  C   UNL     1     -10.479   7.820  -5.981  1.00  0.00     0.049 A 
ATOM     61  C   UNL     1     -13.436   4.335  -9.235  1.00  0.00     0.074 A 
ATOM     62  C   UNL     1      -9.554   7.226  -6.826  1.00  0.00     0.029 A 
ATOM     63  N   UNL     1     -11.628   8.023  -6.736  1.00  0.00    -0.354 N 
ATOM     64  N   UNL     1     -12.803   5.331  -8.684  1.00  0.00    -0.248 NA
ATOM     65  C   UNL     1     -14.130   4.723 -10.459  1.00  0.00     0.031 C 
ATOM     66  C   UNL     1     -10.153   7.064  -8.095  1.00  0.00     0.029 A 
ATOM     67  C   UNL     1     -11.443   7.560  -8.025  1.00  0.00     0.049 A 
ATOM     68  H   UNL     1     -12.456   8.438  -6.401  1.00  0.00     0.167 HD
ATOM     69  C   UNL     1     -13.010   6.470  -9.421  1.00  0.00     0.074 A 
ATOM     70  C   UNL     1     -13.830   6.032 -10.533  1.00  0.00     0.031 C 
ATOM     71  C   UNL     1     -12.491   7.671  -9.027  1.00  0.00     0.037 A 
BRANCH  58  72
ATOM     72  C   UNL     1      -9.553   8.862  -3.769  1.00  0.00     0.064 A 
ATOM     73  C   UNL     1      -8.322   9.262  -4.336  1.00  0.00     0.173 A 
ATOM     74  C   UNL     1      -9.764   9.303  -2.451  1.00  0.00     0.173 A 
ATOM     75  F   UNL     1      -8.027   9.024  -5.620  1.00  0.00    -0.203 F 
ATOM     76  C   UNL     1      -7.336   9.923  -3.602  1.00  0.00     0.198 A 
ATOM     77  C   UNL     1      -8.758   9.919  -1.698  1.00  0.00     0.198 A 
ATOM     78  F   UNL     1     -10.966   9.190  -1.869  1.00  0.00    -0.203 F 
ATOM     79  F   UNL     1      -6.180  10.258  -4.193  1.00  0.00    -0.200 F 
ATOM     80  C   UNL     1      -7.537  10.214  -2.270  1.00  0.00     0.200 A 
ATOM     81  F   UNL     1      -8.980  10.218  -0.410  1.00  0.00    -0.200 F 
ATOM     82  F   UNL     1      -6.570  10.797  -1.549  1.00  0.00    -0.200 F 
ENDBRANCH  58  72
BRANCH  59  83
ATOM     83  C   UNL     1     -14.729   2.188  -8.366  1.00  0.00     0.064 A 
ATOM     84  C   UNL     1     -14.687   0.782  -8.437  1.00  0.00     0.173 A 
ATOM     85  C   UNL     1     -15.796   2.772  -7.673  1.00  0.00     0.173 A 
ATOM     86  F   UNL     1     -13.681   0.175  -9.086  1.00  0.00    -0.203 F 
ATOM     87  C   UNL     1     -15.601  -0.004  -7.740  1.00  0.00     0.198 A 
ATOM     88  C   UNL     1     -16.718   1.980  -6.988  1.00  0.00     0.198 A 
ATOM     89  F   UNL     1     -15.881   4.105  -7.557  1.00  0.00    -0.203 F 
ATOM     90  F   UNL     1     -15.463  -1.338  -7.730  1.00  0.00    -0.200 F 
ATOM     91  C   UNL     1     -16.599   0.597  -6.993  1.00  0.00     0.200 A 
ATOM     92  F   UNL     1     -17.667   2.560  -6.239  1.00  0.00    -0.200 F 
ATOM     93  F   UNL     1     -17.420  -0.152  -6.243  1.00  0.00    -0.200 F 
ENDBRANCH  59  83
BRANCH  71  94
ATOM     94  C   UNL     1     -12.816   9.039  -9.586  1.00  0.00     0.064 A 
ATOM     95  C   UNL     1     -14.010   9.361 -10.250  1.00  0.00     0.173 A 
ATOM     96  C   UNL     1     -11.955  10.138  -9.329  1.00  0.00     0.173 A 
ATOM     97  F   UNL     1     -14.966   8.446 -10.454  1.00  0.00    -0.203 F 
ATOM     98  C   UNL     1     -14.295  10.663 -10.675  1.00  0.00     0.198 A 
ATOM     99  C   UNL     1     -12.270  11.444  -9.701  1.00  0.00     0.198 A 
ATOM    100  F   UNL     1     -10.791   9.985  -8.681  1.00  0.00    -0.203 F 
ATOM    101  F   UNL     1     -15.433  10.908 -11.341  1.00  0.00    -0.200 F 
ATOM    102  C   UNL     1     -13.434  11.705 -10.390  1.00  0.00     0.200 A 
ATOM    103  F   UNL     1     -11.446  12.448  -9.368  1.00  0.00    -0.200 F 
ATOM    104  F   UNL     1     -13.735  12.958 -10.756  1.00  0.00    -0.200 F 
ENDBRANCH  71  94
ENDBRANCH  45  46
ENDBRANCH  37  40
ENDBRANCH  35  36
ENDBRANCH  34  35
ENDBRANCH  33  34
ENDBRANCH   1  33
TORSDOF 15
