REMARK SMILES O=C(NCCCCCCNC(=O)[C@@H]1[C@@H]2CC[C@@H](C2)[C@@H]1C(=O)N1CC[NH+](CCc2ccccc2)CC1)c1ccc(-c2c3nc(c(-c4c(F)c(F)c(F)c(F)c4F)c4ccc([nH]4)c(-c4c(F)c(F)c(F)c(F)c4F)c4nc(c(-c5c(F)c(F)c(F)c(F)c5F)c5ccc2[nH]5)C=C4)C=C3)cc1
REMARK SMILES IDX 7 1 6 2 5 3 4 4 3 5 1 6 2 7 36 9 37 10 98 11 38 12 97 13
REMARK SMILES IDX 39 14 40 15 41 16 91 17 42 18 96 19 90 20 92 21 43 22 95 23
REMARK SMILES IDX 89 24 88 25 44 27 76 28 56 29 75 30 57 31 60 32 74 33 93 34
REMARK SMILES IDX 58 35 59 36 73 38 94 39 61 40 45 41 46 42 54 43 47 44 48 45
REMARK SMILES IDX 52 46 55 47 49 48 50 49 53 50 51 51 77 52 78 53 86 54 79 55
REMARK SMILES IDX 80 56 84 57 87 58 81 59 82 60 85 61 83 62 62 63 63 64 71 65
REMARK SMILES IDX 64 66 65 67 69 68 72 69 66 70 67 71 70 72 68 73 8 74 9 75
REMARK SMILES IDX 10 76 11 77 12 79 13 80 14 81 19 82 15 83 18 84 17 85 16 86
REMARK SMILES IDX 20 87 21 88 22 89 23 90 35 91 24 92 34 93 25 94 26 96 27 97
REMARK SMILES IDX 28 98 29 99 33 100 30 101 32 102 31 103
REMARK H PARENT 3 8 92 26 60 37 10 78 25 95
REMARK Flexibility Score: inf
ROOT
ATOM      1  C   UNL     1       5.899   4.739  -1.516  1.00  0.00     0.002 C 
ENDROOT
BRANCH   1   2
ATOM      2  C   UNL     1       6.186   5.848  -0.497  1.00  0.00     0.002 C 
BRANCH   2   3
ATOM      3  C   UNL     1       5.351   7.116  -0.658  1.00  0.00     0.021 C 
BRANCH   3   4
ATOM      4  C   UNL     1       3.846   6.896  -0.623  1.00  0.00     0.116 C 
BRANCH   4   5
ATOM      5  N   UNL     1       3.356   6.500   0.688  1.00  0.00    -0.352 N 
ATOM      6  O   UNL     1       2.098   6.670   2.561  1.00  0.00    -0.269 OA
ATOM      7  C   UNL     1       2.307   7.024   1.411  1.00  0.00     0.251 C 
ATOM      8  H   UNL     1       3.839   5.756   1.117  1.00  0.00     0.163 HD
BRANCH   7   9
ATOM      9  C   UNL     1       1.445   8.051   0.782  1.00  0.00     0.039 A 
ATOM     10  C   UNL     1       0.994   7.883  -0.527  1.00  0.00     0.014 A 
ATOM     11  C   UNL     1       1.105   9.202   1.500  1.00  0.00     0.014 A 
ATOM     12  C   UNL     1       0.350   8.928  -1.172  1.00  0.00     0.010 A 
ATOM     13  C   UNL     1       0.359  10.212   0.881  1.00  0.00     0.010 A 
ATOM     14  C   UNL     1      -0.001  10.095  -0.470  1.00  0.00    -0.014 A 
BRANCH  14  15
ATOM     15  C   UNL     1      -0.818  11.120  -1.170  1.00  0.00     0.031 A 
ATOM     16  C   UNL     1      -0.298  12.503  -1.438  1.00  0.00     0.074 A 
ATOM     17  C   UNL     1      -2.032  10.751  -1.626  1.00  0.00     0.049 A 
ATOM     18  N   UNL     1      -0.867  13.480  -2.103  1.00  0.00    -0.248 NA
ATOM     19  C   UNL     1       1.023  12.844  -0.889  1.00  0.00     0.031 C 
ATOM     20  C   UNL     1      -2.649   9.440  -1.400  1.00  0.00     0.029 A 
ATOM     21  N   UNL     1      -2.948  11.418  -2.397  1.00  0.00    -0.354 N 
ATOM     22  C   UNL     1       0.019  14.548  -2.047  1.00  0.00     0.074 A 
ATOM     23  C   UNL     1       1.151  14.114  -1.256  1.00  0.00     0.031 C 
ATOM     24  C   UNL     1      -3.806   9.376  -2.071  1.00  0.00     0.029 A 
ATOM     25  C   UNL     1      -4.050  10.661  -2.713  1.00  0.00     0.049 A 
ATOM     26  H   UNL     1      -2.827  12.348  -2.696  1.00  0.00     0.167 HD
ATOM     27  C   UNL     1      -0.102  15.773  -2.615  1.00  0.00     0.037 A 
ATOM     28  C   UNL     1      -5.147  10.970  -3.427  1.00  0.00     0.037 A 
ATOM     29  C   UNL     1      -1.232  16.196  -3.405  1.00  0.00     0.049 A 
ATOM     30  C   UNL     1      -5.252  12.338  -4.034  1.00  0.00     0.074 A 
ATOM     31  C   UNL     1      -1.443  17.414  -4.030  1.00  0.00     0.029 A 
ATOM     32  N   UNL     1      -2.345  15.412  -3.679  1.00  0.00    -0.354 N 
ATOM     33  N   UNL     1      -4.394  13.328  -3.994  1.00  0.00    -0.248 NA
ATOM     34  C   UNL     1      -6.479  12.633  -4.784  1.00  0.00     0.031 C 
ATOM     35  C   UNL     1      -2.699  17.382  -4.646  1.00  0.00     0.029 A 
ATOM     36  C   UNL     1      -3.250  16.126  -4.450  1.00  0.00     0.049 A 
ATOM     37  H   UNL     1      -2.472  14.486  -3.372  1.00  0.00     0.167 HD
ATOM     38  C   UNL     1      -4.973  14.361  -4.715  1.00  0.00     0.074 A 
ATOM     39  C   UNL     1      -6.237  13.861  -5.217  1.00  0.00     0.031 C 
ATOM     40  C   UNL     1      -4.508  15.615  -4.932  1.00  0.00     0.037 A 
BRANCH  27  41
ATOM     41  C   UNL     1       1.014  16.758  -2.406  1.00  0.00     0.064 A 
ATOM     42  C   UNL     1       2.253  16.610  -3.046  1.00  0.00     0.173 A 
ATOM     43  C   UNL     1       0.816  17.904  -1.620  1.00  0.00     0.173 A 
ATOM     44  F   UNL     1       2.497  15.529  -3.802  1.00  0.00    -0.203 F 
ATOM     45  C   UNL     1       3.257  17.564  -2.897  1.00  0.00     0.198 A 
ATOM     46  C   UNL     1       1.813  18.869  -1.494  1.00  0.00     0.198 A 
ATOM     47  F   UNL     1      -0.353  18.100  -0.992  1.00  0.00    -0.203 F 
ATOM     48  F   UNL     1       4.443  17.386  -3.495  1.00  0.00    -0.200 F 
ATOM     49  C   UNL     1       3.033  18.697  -2.129  1.00  0.00     0.200 A 
ATOM     50  F   UNL     1       1.589  19.971  -0.764  1.00  0.00    -0.200 F 
ATOM     51  F   UNL     1       3.994  19.623  -2.001  1.00  0.00    -0.200 F 
ENDBRANCH  27  41
BRANCH  28  52
ATOM     52  C   UNL     1      -6.235   9.970  -3.584  1.00  0.00     0.064 A 
ATOM     53  C   UNL     1      -6.542   9.418  -4.834  1.00  0.00     0.173 A 
ATOM     54  C   UNL     1      -6.992   9.548  -2.480  1.00  0.00     0.173 A 
ATOM     55  F   UNL     1      -5.858   9.801  -5.922  1.00  0.00    -0.203 F 
ATOM     56  C   UNL     1      -7.582   8.502  -4.979  1.00  0.00     0.198 A 
ATOM     57  C   UNL     1      -8.006   8.604  -2.620  1.00  0.00     0.198 A 
ATOM     58  F   UNL     1      -6.733  10.039  -1.259  1.00  0.00    -0.203 F 
ATOM     59  F   UNL     1      -7.891   8.030  -6.194  1.00  0.00    -0.200 F 
ATOM     60  C   UNL     1      -8.309   8.091  -3.871  1.00  0.00     0.200 A 
ATOM     61  F   UNL     1      -8.690   8.195  -1.543  1.00  0.00    -0.200 F 
ATOM     62  F   UNL     1      -9.305   7.206  -4.011  1.00  0.00    -0.200 F 
ENDBRANCH  28  52
BRANCH  40  63
ATOM     63  C   UNL     1      -5.374  16.520  -5.759  1.00  0.00     0.064 A 
ATOM     64  C   UNL     1      -6.590  17.021  -5.269  1.00  0.00     0.173 A 
ATOM     65  C   UNL     1      -4.989  16.884  -7.058  1.00  0.00     0.173 A 
ATOM     66  F   UNL     1      -7.011  16.686  -4.039  1.00  0.00    -0.203 F 
ATOM     67  C   UNL     1      -7.408  17.819  -6.063  1.00  0.00     0.198 A 
ATOM     68  C   UNL     1      -5.794  17.710  -7.838  1.00  0.00     0.198 A 
ATOM     69  F   UNL     1      -3.833  16.437  -7.572  1.00  0.00    -0.203 F 
ATOM     70  F   UNL     1      -8.595  18.229  -5.598  1.00  0.00    -0.200 F 
ATOM     71  C   UNL     1      -7.007  18.166  -7.345  1.00  0.00     0.200 A 
ATOM     72  F   UNL     1      -5.401  18.054  -9.072  1.00  0.00    -0.200 F 
ATOM     73  F   UNL     1      -7.798  18.930  -8.111  1.00  0.00    -0.200 F 
ENDBRANCH  40  63
ENDBRANCH  14  15
ENDBRANCH   7   9
ENDBRANCH   4   5
ENDBRANCH   3   4
ENDBRANCH   2   3
ENDBRANCH   1   2
BRANCH   1  74
ATOM     74  C   UNL     1       5.964   5.154  -2.994  1.00  0.00     0.021 C 
BRANCH  74  75
ATOM     75  C   UNL     1       7.296   5.765  -3.423  1.00  0.00     0.116 C 
BRANCH  75  76
ATOM     76  N   UNL     1       8.380   4.814  -3.264  1.00  0.00    -0.356 N 
ATOM     77  C   UNL     1       9.249   4.302  -4.178  1.00  0.00     0.224 C 
ATOM     78  H   UNL     1       8.508   4.486  -2.345  1.00  0.00     0.163 HD
ATOM     79  O   UNL     1      10.171   3.615  -3.742  1.00  0.00    -0.275 OA
BRANCH  77  80
ATOM     80  C   UNL     1       9.088   4.644  -5.659  1.00  0.00     0.094 C 
ATOM     81  C   UNL     1       9.431   3.521  -6.690  1.00  0.00     0.002 C 
ATOM     82  C   UNL     1       9.988   5.814  -6.135  1.00  0.00     0.094 C 
ATOM     83  C   UNL     1      10.796   2.867  -6.465  1.00  0.00     0.005 C 
ATOM     84  C   UNL     1       9.767   4.347  -7.945  1.00  0.00     0.009 C 
ATOM     85  C   UNL     1      10.853   5.161  -7.229  1.00  0.00     0.002 C 
ATOM     86  C   UNL     1      11.756   4.034  -6.692  1.00  0.00     0.005 C 
BRANCH  82  87
ATOM     87  C   UNL     1      10.622   6.681  -5.061  1.00  0.00     0.227 C 
ATOM     88  O   UNL     1       9.933   7.155  -4.155  1.00  0.00    -0.275 OA
ATOM     89  N   UNL     1      11.907   7.151  -5.310  1.00  0.00    -0.331 N 
ATOM     90  C   UNL     1      12.943   6.594  -4.439  1.00  0.00     0.181 C 
ATOM     91  C   UNL     1      11.983   8.603  -5.482  1.00  0.00     0.181 C 
ATOM     92  C   UNL     1      14.343   7.147  -4.700  1.00  0.00     0.284 C 
ATOM     93  C   UNL     1      13.409   9.157  -5.646  1.00  0.00     0.284 C 
ATOM     94  N   UNL     1      14.413   8.610  -4.727  1.00  0.00    -0.332 N 
ATOM     95  H   UNL     1      15.316   8.862  -5.129  1.00  0.00     0.348 HD
BRANCH  94  96
ATOM     96  C   UNL     1      14.572   9.273  -3.423  1.00  0.00     0.267 C 
BRANCH  96  97
ATOM     97  C   UNL     1      13.393   9.578  -2.459  1.00  0.00     0.097 C 
BRANCH  97  98
ATOM     98  C   UNL     1      13.047   8.515  -1.440  1.00  0.00    -0.042 A 
ATOM     99  C   UNL     1      11.808   7.860  -1.480  1.00  0.00     0.004 A 
ATOM    100  C   UNL     1      13.946   8.165  -0.424  1.00  0.00     0.004 A 
ATOM    101  C   UNL     1      11.530   6.790  -0.627  1.00  0.00     0.000 A 
ATOM    102  C   UNL     1      13.645   7.132   0.470  1.00  0.00     0.000 A 
ATOM    103  C   UNL     1      12.452   6.423   0.347  1.00  0.00     0.000 A 
ENDBRANCH  97  98
ENDBRANCH  96  97
ENDBRANCH  94  96
ENDBRANCH  82  87
ENDBRANCH  77  80
ENDBRANCH  75  76
ENDBRANCH  74  75
ENDBRANCH   1  74
TORSDOF 17
