REMARK SMILES COCc1cc(C)nc(N/N=C\c2ccc(-c3cccc(C(=O)NCCCCCCNC(=O)c4ccc(-c5c6nc(c(-c7c(F)c(F)c(F)c(F)c7F)c7ccc([nH]7)c(-c7c(F)c(F)c(F)c(F)c7F)c7nc(c(-c8c(F)c(F)c(F)c(F)c8F)c8ccc5[nH]8)C=C7)C=C6)cc4)c3)o2)c1C#N
REMARK SMILES IDX 25 1 24 2 22 3 23 4 21 6 17 7 18 8 97 9 19 10 20 11 16 12
REMARK SMILES IDX 13 13 14 14 98 15 15 16 12 17 11 18 10 19 9 21 4 22 5 23
REMARK SMILES IDX 99 24 6 25 7 26 8 27 3 28 2 29 1 30 100 31 101 32 26 33
REMARK SMILES IDX 27 34 28 35 29 36 30 37 31 38 32 39 33 41 34 42 35 43 96 44
REMARK SMILES IDX 36 45 95 46 37 47 38 48 39 49 89 50 40 51 94 52 88 53 90 54
REMARK SMILES IDX 41 55 93 56 87 57 86 58 42 60 74 61 54 62 73 63 55 64 58 65
REMARK SMILES IDX 72 66 91 67 56 68 57 69 71 71 92 72 59 73 43 74 44 75 52 76
REMARK SMILES IDX 45 77 46 78 50 79 53 80 47 81 48 82 51 83 49 84 75 85 76 86
REMARK SMILES IDX 84 87 77 88 78 89 82 90 85 91 79 92 80 93 83 94 81 95 60 96
REMARK SMILES IDX 61 97 69 98 62 99 63 100 67 101 70 102 64 103 65 104 68 105
REMARK SMILES IDX 66 106
REMARK H PARENT 24 5 10 20 31 40 90 59 58 70
REMARK Flexibility Score: inf
ROOT
ATOM      1  C   UNL     1       4.829  -6.122   1.842  1.00  0.00     0.116 C 
ENDROOT
BRANCH   1   2
ATOM      2  N   UNL     1       4.593  -6.707   0.537  1.00  0.00    -0.352 N 
ATOM      3  C   UNL     1       3.449  -6.921  -0.193  1.00  0.00     0.251 C 
ATOM      4  O   UNL     1       3.585  -7.355  -1.337  1.00  0.00    -0.269 OA
ATOM      5  H   UNL     1       5.414  -7.011   0.086  1.00  0.00     0.163 HD
BRANCH   3   6
ATOM      6  C   UNL     1       2.074  -6.619   0.310  1.00  0.00     0.040 A 
ATOM      7  C   UNL     1       0.510  -5.953   2.073  1.00  0.00     0.018 A 
ATOM      8  C   UNL     1      -0.518  -5.887   1.127  1.00  0.00     0.012 A 
ATOM      9  C   UNL     1       1.762  -6.411   1.653  1.00  0.00     0.025 A 
ATOM     10  C   UNL     1      -0.257  -6.172  -0.218  1.00  0.00     0.002 A 
ATOM     11  C   UNL     1       1.039  -6.505  -0.627  1.00  0.00     0.014 A 
BRANCH   7  12
ATOM     12  C   UNL     1       0.419  -5.315   3.391  1.00  0.00     0.134 A 
ATOM     13  C   UNL     1      -0.673  -4.113   4.871  1.00  0.00     0.147 A 
ATOM     14  C   UNL     1       0.664  -3.960   5.172  1.00  0.00     0.053 A 
ATOM     15  O   UNL     1      -0.824  -5.014   3.850  1.00  0.00    -0.455 OA
ATOM     16  C   UNL     1       1.369  -4.740   4.223  1.00  0.00     0.051 A 
BRANCH  13  17
ATOM     17  C   UNL     1      -1.871  -3.509   5.358  1.00  0.00     0.180 C 
ATOM     18  N   UNL     1      -2.233  -2.266   5.481  1.00  0.00    -0.178 NA
BRANCH  18  19
ATOM     19  N   UNL     1      -1.534  -1.155   5.114  1.00  0.00    -0.260 N 
ATOM     20  H   UNL     1      -1.577  -0.401   5.745  1.00  0.00     0.192 HD
BRANCH  19  21
ATOM     21  C   UNL     1      -0.748  -0.929   3.944  1.00  0.00     0.164 A 
ATOM     22  C   UNL     1       0.715   0.553   2.682  1.00  0.00     0.001 A 
ATOM     23  C   UNL     1       1.332  -0.572   2.162  1.00  0.00     0.031 A 
ATOM     24  C   UNL     1      -0.296   0.374   3.645  1.00  0.00     0.102 A 
ATOM     25  C   UNL     1       0.650  -1.756   2.268  1.00  0.00     0.040 A 
ATOM     26  C   UNL     1       0.953  -2.800   1.240  1.00  0.00     0.067 C 
ATOM     27  N   UNL     1      -0.357  -1.951   3.151  1.00  0.00    -0.233 NA
BRANCH  22  28
ATOM     28  C   UNL     1       1.040   1.857   1.997  1.00  0.00     0.196 C 
BRANCH  28  29
ATOM     29  O   UNL     1       0.350   1.966   0.740  1.00  0.00    -0.380 OA
ATOM     30  C   UNL     1       0.757   1.049  -0.276  1.00  0.00     0.195 C 
ENDBRANCH  28  29
ENDBRANCH  22  28
BRANCH  24  31
ATOM     31  C   UNL     1      -0.881   1.507   4.296  1.00  0.00     0.103 C 
ATOM     32  N   UNL     1      -1.360   2.404   4.851  1.00  0.00    -0.192 NA
ENDBRANCH  24  31
ENDBRANCH  19  21
ENDBRANCH  18  19
ENDBRANCH  13  17
ENDBRANCH   7  12
ENDBRANCH   3   6
ENDBRANCH   1   2
BRANCH   1  33
ATOM     33  C   UNL     1       4.826  -7.193   2.940  1.00  0.00     0.021 C 
BRANCH  33  34
ATOM     34  C   UNL     1       6.181  -7.869   3.147  1.00  0.00     0.002 C 
BRANCH  34  35
ATOM     35  C   UNL     1       7.313  -6.910   3.521  1.00  0.00     0.002 C 
BRANCH  35  36
ATOM     36  C   UNL     1       7.023  -6.026   4.738  1.00  0.00     0.021 C 
BRANCH  36  37
ATOM     37  C   UNL     1       6.779  -6.807   6.025  1.00  0.00     0.116 C 
BRANCH  37  38
ATOM     38  N   UNL     1       7.921  -7.642   6.355  1.00  0.00    -0.352 N 
ATOM     39  C   UNL     1       8.737  -7.618   7.453  1.00  0.00     0.251 C 
ATOM     40  H   UNL     1       8.141  -8.331   5.687  1.00  0.00     0.163 HD
ATOM     41  O   UNL     1       9.830  -8.174   7.413  1.00  0.00    -0.269 OA
BRANCH  39  42
ATOM     42  C   UNL     1       8.303  -6.934   8.687  1.00  0.00     0.039 A 
ATOM     43  C   UNL     1       9.263  -6.277   9.458  1.00  0.00     0.014 A 
ATOM     44  C   UNL     1       6.974  -6.992   9.119  1.00  0.00     0.014 A 
ATOM     45  C   UNL     1       8.884  -5.660  10.648  1.00  0.00     0.010 A 
ATOM     46  C   UNL     1       6.580  -6.296  10.257  1.00  0.00     0.010 A 
ATOM     47  C   UNL     1       7.536  -5.644  11.047  1.00  0.00    -0.014 A 
BRANCH  47  48
ATOM     48  C   UNL     1       7.137  -4.946  12.293  1.00  0.00     0.031 A 
ATOM     49  C   UNL     1       6.544  -5.706  13.445  1.00  0.00     0.074 A 
ATOM     50  C   UNL     1       7.301  -3.612  12.373  1.00  0.00     0.049 A 
ATOM     51  N   UNL     1       6.193  -5.270  14.629  1.00  0.00    -0.248 NA
ATOM     52  C   UNL     1       6.283  -7.138  13.234  1.00  0.00     0.031 C 
ATOM     53  C   UNL     1       7.797  -2.760  11.292  1.00  0.00     0.029 A 
ATOM     54  N   UNL     1       7.075  -2.742  13.408  1.00  0.00    -0.354 N 
ATOM     55  C   UNL     1       5.668  -6.368  15.297  1.00  0.00     0.074 A 
ATOM     56  C   UNL     1       5.681  -7.474  14.364  1.00  0.00     0.031 C 
ATOM     57  C   UNL     1       7.877  -1.496  11.733  1.00  0.00     0.029 A 
ATOM     58  C   UNL     1       7.400  -1.443  13.111  1.00  0.00     0.049 A 
ATOM     59  H   UNL     1       6.715  -3.023  14.281  1.00  0.00     0.167 HD
ATOM     60  C   UNL     1       5.237  -6.452  16.579  1.00  0.00     0.037 A 
ATOM     61  C   UNL     1       7.321  -0.331  13.864  1.00  0.00     0.037 A 
ATOM     62  C   UNL     1       5.231  -5.343  17.499  1.00  0.00     0.049 A 
ATOM     63  C   UNL     1       6.855  -0.449  15.288  1.00  0.00     0.074 A 
ATOM     64  C   UNL     1       4.879  -5.331  18.837  1.00  0.00     0.029 A 
ATOM     65  N   UNL     1       5.577  -4.039  17.168  1.00  0.00    -0.354 N 
ATOM     66  N   UNL     1       6.452  -1.511  15.943  1.00  0.00    -0.248 NA
ATOM     67  C   UNL     1       6.852   0.784  16.084  1.00  0.00     0.031 C 
ATOM     68  C   UNL     1       4.939  -4.010  19.294  1.00  0.00     0.029 A 
ATOM     69  C   UNL     1       5.411  -3.209  18.267  1.00  0.00     0.049 A 
ATOM     70  H   UNL     1       5.895  -3.747  16.283  1.00  0.00     0.167 HD
ATOM     71  C   UNL     1       6.168  -1.082  17.232  1.00  0.00     0.074 A 
ATOM     72  C   UNL     1       6.471   0.335  17.271  1.00  0.00     0.031 C 
ATOM     73  C   UNL     1       5.701  -1.795  18.288  1.00  0.00     0.037 A 
BRANCH  60  74
ATOM     74  C   UNL     1       4.718  -7.784  17.051  1.00  0.00     0.064 A 
ATOM     75  C   UNL     1       5.549  -8.911  17.162  1.00  0.00     0.173 A 
ATOM     76  C   UNL     1       3.368  -7.935  17.404  1.00  0.00     0.173 A 
ATOM     77  F   UNL     1       6.847  -8.830  16.830  1.00  0.00    -0.203 F 
ATOM     78  C   UNL     1       5.039 -10.145  17.558  1.00  0.00     0.198 A 
ATOM     79  C   UNL     1       2.870  -9.160  17.840  1.00  0.00     0.198 A 
ATOM     80  F   UNL     1       2.527  -6.893  17.326  1.00  0.00    -0.203 F 
ATOM     81  F   UNL     1       5.837 -11.222  17.584  1.00  0.00    -0.200 F 
ATOM     82  C   UNL     1       3.702 -10.268  17.903  1.00  0.00     0.200 A 
ATOM     83  F   UNL     1       1.581  -9.272  18.189  1.00  0.00    -0.200 F 
ATOM     84  F   UNL     1       3.212 -11.455  18.285  1.00  0.00    -0.200 F 
ENDBRANCH  60  74
BRANCH  61  85
ATOM     85  C   UNL     1       7.715   0.978  13.280  1.00  0.00     0.064 A 
ATOM     86  C   UNL     1       8.865   1.653  13.710  1.00  0.00     0.173 A 
ATOM     87  C   UNL     1       6.961   1.564  12.253  1.00  0.00     0.173 A 
ATOM     88  F   UNL     1       9.614   1.140  14.699  1.00  0.00    -0.203 F 
ATOM     89  C   UNL     1       9.236   2.873  13.148  1.00  0.00     0.198 A 
ATOM     90  C   UNL     1       7.351   2.766  11.668  1.00  0.00     0.198 A 
ATOM     91  F   UNL     1       5.858   0.952  11.796  1.00  0.00    -0.203 F 
ATOM     92  F   UNL     1      10.317   3.518  13.606  1.00  0.00    -0.200 F 
ATOM     93  C   UNL     1       8.483   3.424  12.122  1.00  0.00     0.200 A 
ATOM     94  F   UNL     1       6.634   3.281  10.660  1.00  0.00    -0.200 F 
ATOM     95  F   UNL     1       8.849   4.589  11.570  1.00  0.00    -0.200 F 
ENDBRANCH  61  85
BRANCH  73  96
ATOM     96  C   UNL     1       5.520  -1.055  19.585  1.00  0.00     0.064 A 
ATOM     97  C   UNL     1       4.548  -0.054  19.742  1.00  0.00     0.173 A 
ATOM     98  C   UNL     1       6.333  -1.354  20.690  1.00  0.00     0.173 A 
ATOM     99  F   UNL     1       3.751   0.280  18.716  1.00  0.00    -0.203 F 
ATOM    100  C   UNL     1       4.434   0.653  20.936  1.00  0.00     0.198 A 
ATOM    101  C   UNL     1       6.187  -0.674  21.896  1.00  0.00     0.198 A 
ATOM    102  F   UNL     1       7.272  -2.308  20.602  1.00  0.00    -0.203 F 
ATOM    103  F   UNL     1       3.551   1.657  21.035  1.00  0.00    -0.200 F 
ATOM    104  C   UNL     1       5.248   0.339  22.013  1.00  0.00     0.200 A 
ATOM    105  F   UNL     1       6.962  -0.994  22.941  1.00  0.00    -0.200 F 
ATOM    106  F   UNL     1       5.138   1.022  23.161  1.00  0.00    -0.200 F 
ENDBRANCH  73  96
ENDBRANCH  47  48
ENDBRANCH  39  42
ENDBRANCH  37  38
ENDBRANCH  36  37
ENDBRANCH  35  36
ENDBRANCH  34  35
ENDBRANCH  33  34
ENDBRANCH   1  33
TORSDOF 20
