REMARK SMILES O=C(NCCCCCCNC(=O)c1ccc(-c2c3nc(c(-c4c(F)c(F)c(F)c(F)c4F)c4ccc([nH]4)c(-c4c(F)c(F)c(F)c(F)c4F)c4nc(c(-c5c(F)c(F)c(F)c(F)c5F)c5ccc2[nH]5)C=C4)C=C3)cc1)c1ccc(NC(=O)[C@@H]2CC=CC[C@@H]2C(=O)Nc2ccc(Br)cc2)cc1
REMARK SMILES IDX 5 1 4 2 3 3 1 4 2 5 76 7 77 8 100 9 78 10 99 11 79 12 80 13
REMARK SMILES IDX 81 14 82 16 83 17 84 18 88 19 85 20 87 21 86 22 89 23 90 24
REMARK SMILES IDX 91 25 92 27 93 28 98 29 94 30 97 31 95 32 96 33 6 34 7 35
REMARK SMILES IDX 8 36 9 37 10 38 11 39 12 41 13 42 14 43 75 44 15 45 74 46
REMARK SMILES IDX 16 47 17 48 18 49 68 50 19 51 73 52 67 53 69 54 20 55 72 56
REMARK SMILES IDX 66 57 65 58 21 60 53 61 33 62 52 63 34 64 37 65 51 66 70 67
REMARK SMILES IDX 35 68 36 69 50 71 71 72 38 73 22 74 23 75 31 76 24 77 25 78
REMARK SMILES IDX 29 79 32 80 26 81 27 82 30 83 28 84 54 85 55 86 63 87 56 88
REMARK SMILES IDX 57 89 61 90 64 91 58 92 59 93 62 94 60 95 39 96 40 97 48 98
REMARK SMILES IDX 41 99 42 100 46 101 49 102 43 103 44 104 47 105 45 106
REMARK H PARENT 3 6 80 15 91 26 10 40 69 59 37 70
REMARK Flexibility Score: inf
ROOT
ATOM      1  C   UNL     1       2.933   8.203   7.066  1.00  0.00     0.021 C 
ENDROOT
BRANCH   1   2
ATOM      2  C   UNL     1       3.114   7.933   5.578  1.00  0.00     0.116 C 
BRANCH   2   3
ATOM      3  N   UNL     1       3.092   9.125   4.746  1.00  0.00    -0.352 N 
ATOM      4  O   UNL     1       3.789  10.454   3.035  1.00  0.00    -0.269 OA
ATOM      5  C   UNL     1       3.868   9.388   3.638  1.00  0.00     0.251 C 
ATOM      6  H   UNL     1       2.449   9.825   5.003  1.00  0.00     0.163 HD
BRANCH   5   7
ATOM      7  C   UNL     1       4.857   8.372   3.224  1.00  0.00     0.039 A 
ATOM      8  C   UNL     1       4.452   7.062   2.962  1.00  0.00     0.016 A 
ATOM      9  C   UNL     1       6.210   8.695   3.275  1.00  0.00     0.016 A 
ATOM     10  C   UNL     1       5.401   6.038   2.926  1.00  0.00     0.027 A 
ATOM     11  C   UNL     1       7.154   7.670   3.186  1.00  0.00     0.027 A 
ATOM     12  C   UNL     1       6.757   6.325   3.068  1.00  0.00     0.041 A 
BRANCH  12  13
ATOM     13  N   UNL     1       7.775   5.376   3.233  1.00  0.00    -0.326 N 
ATOM     14  C   UNL     1       7.849   4.022   3.279  1.00  0.00     0.228 C 
ATOM     15  H   UNL     1       8.658   5.798   3.343  1.00  0.00     0.169 HD
ATOM     16  O   UNL     1       8.848   3.573   3.855  1.00  0.00    -0.274 OA
BRANCH  14  17
ATOM     17  C   UNL     1       6.782   3.075   2.752  1.00  0.00     0.095 C 
ATOM     18  C   UNL     1       7.190   1.612   3.044  1.00  0.00     0.041 C 
ATOM     19  C   UNL     1       6.332   3.231   1.278  1.00  0.00     0.095 C 
ATOM     20  C   UNL     1       6.207   0.616   2.507  1.00  0.00    -0.030 C 
ATOM     21  C   UNL     1       5.088   2.332   1.072  1.00  0.00     0.041 C 
ATOM     22  C   UNL     1       5.240   0.946   1.640  1.00  0.00    -0.030 C 
BRANCH  19  23
ATOM     23  C   UNL     1       7.384   2.942   0.183  1.00  0.00     0.228 C 
ATOM     24  O   UNL     1       7.324   1.981  -0.580  1.00  0.00    -0.274 OA
ATOM     25  N   UNL     1       8.238   3.992  -0.075  1.00  0.00    -0.326 N 
ATOM     26  H   UNL     1       7.950   4.661  -0.738  1.00  0.00     0.169 HD
BRANCH  25  27
ATOM     27  C   UNL     1       9.484   4.179   0.535  1.00  0.00     0.041 A 
ATOM     28  C   UNL     1      10.031   5.467   0.535  1.00  0.00     0.027 A 
ATOM     29  C   UNL     1      10.151   3.142   1.188  1.00  0.00     0.027 A 
ATOM     30  C   UNL     1      11.191   5.732   1.266  1.00  0.00     0.018 A 
ATOM     31  C   UNL     1      11.316   3.405   1.913  1.00  0.00     0.018 A 
ATOM     32  C   UNL     1      11.818   4.702   1.966  1.00  0.00     0.018 A 
ATOM     33  Br  UNL     1      13.347   5.073   3.013  1.00  0.00    -0.051 Br
ENDBRANCH  25  27
ENDBRANCH  19  23
ENDBRANCH  14  17
ENDBRANCH  12  13
ENDBRANCH   5   7
ENDBRANCH   2   3
ENDBRANCH   1   2
BRANCH   1  34
ATOM     34  C   UNL     1       1.582   8.781   7.482  1.00  0.00     0.002 C 
BRANCH  34  35
ATOM     35  C   UNL     1       0.342   8.027   6.997  1.00  0.00     0.002 C 
BRANCH  35  36
ATOM     36  C   UNL     1       0.288   6.526   7.296  1.00  0.00     0.021 C 
BRANCH  36  37
ATOM     37  C   UNL     1       0.503   6.118   8.750  1.00  0.00     0.116 C 
BRANCH  37  38
ATOM     38  N   UNL     1      -0.465   6.703   9.658  1.00  0.00    -0.352 N 
ATOM     39  C   UNL     1      -1.189   6.121  10.668  1.00  0.00     0.251 C 
ATOM     40  H   UNL     1      -0.627   7.666   9.531  1.00  0.00     0.163 HD
ATOM     41  O   UNL     1      -2.039   6.776  11.265  1.00  0.00    -0.269 OA
BRANCH  39  42
ATOM     42  C   UNL     1      -0.983   4.699  11.028  1.00  0.00     0.039 A 
ATOM     43  C   UNL     1      -2.109   3.902  11.259  1.00  0.00     0.014 A 
ATOM     44  C   UNL     1       0.296   4.154  11.174  1.00  0.00     0.014 A 
ATOM     45  C   UNL     1      -1.958   2.550  11.575  1.00  0.00     0.010 A 
ATOM     46  C   UNL     1       0.447   2.792  11.436  1.00  0.00     0.010 A 
ATOM     47  C   UNL     1      -0.678   1.977  11.637  1.00  0.00    -0.014 A 
BRANCH  47  48
ATOM     48  C   UNL     1      -0.500   0.528  11.909  1.00  0.00     0.031 A 
ATOM     49  C   UNL     1       0.124   0.068  13.195  1.00  0.00     0.074 A 
ATOM     50  C   UNL     1      -0.845  -0.372  10.968  1.00  0.00     0.049 A 
ATOM     51  N   UNL     1       0.429  -1.146  13.579  1.00  0.00    -0.248 NA
ATOM     52  C   UNL     1       0.473   1.113  14.169  1.00  0.00     0.031 C 
ATOM     53  C   UNL     1      -1.427  -0.052   9.665  1.00  0.00     0.029 A 
ATOM     54  N   UNL     1      -0.744  -1.741  10.962  1.00  0.00    -0.354 N 
ATOM     55  C   UNL     1       1.026  -1.010  14.825  1.00  0.00     0.074 A 
ATOM     56  C   UNL     1       1.067   0.407  15.121  1.00  0.00     0.031 C 
ATOM     57  C   UNL     1      -1.647  -1.193   8.991  1.00  0.00     0.029 A 
ATOM     58  C   UNL     1      -1.195  -2.320   9.802  1.00  0.00     0.049 A 
ATOM     59  H   UNL     1      -0.382  -2.258  11.717  1.00  0.00     0.167 HD
ATOM     60  C   UNL     1       1.486  -1.979  15.651  1.00  0.00     0.037 A 
ATOM     61  C   UNL     1      -1.235  -3.614   9.432  1.00  0.00     0.037 A 
ATOM     62  C   UNL     1       1.406  -3.389  15.379  1.00  0.00     0.049 A 
ATOM     63  C   UNL     1      -0.733  -4.670  10.376  1.00  0.00     0.074 A 
ATOM     64  C   UNL     1       1.769  -4.448  16.193  1.00  0.00     0.029 A 
ATOM     65  N   UNL     1       0.926  -3.938  14.200  1.00  0.00    -0.354 N 
ATOM     66  N   UNL     1      -0.226  -4.532  11.576  1.00  0.00    -0.248 NA
ATOM     67  C   UNL     1      -0.810  -6.063   9.912  1.00  0.00     0.031 C 
ATOM     68  C   UNL     1       1.537  -5.638  15.494  1.00  0.00     0.029 A 
ATOM     69  C   UNL     1       1.001  -5.320  14.257  1.00  0.00     0.049 A 
ATOM     70  H   UNL     1       0.583  -3.422  13.435  1.00  0.00     0.167 HD
ATOM     71  C   UNL     1       0.053  -5.817  12.021  1.00  0.00     0.074 A 
ATOM     72  C   UNL     1      -0.346  -6.723  10.965  1.00  0.00     0.031 C 
ATOM     73  C   UNL     1       0.591  -6.208  13.201  1.00  0.00     0.037 A 
BRANCH  60  74
ATOM     74  C   UNL     1       2.122  -1.544  16.937  1.00  0.00     0.064 A 
ATOM     75  C   UNL     1       1.356  -1.060  18.007  1.00  0.00     0.173 A 
ATOM     76  C   UNL     1       3.510  -1.647  17.113  1.00  0.00     0.173 A 
ATOM     77  F   UNL     1       0.027  -0.931  17.882  1.00  0.00    -0.203 F 
ATOM     78  C   UNL     1       1.960  -0.671  19.200  1.00  0.00     0.198 A 
ATOM     79  C   UNL     1       4.108  -1.279  18.315  1.00  0.00     0.198 A 
ATOM     80  F   UNL     1       4.284  -2.109  16.120  1.00  0.00    -0.203 F 
ATOM     81  F   UNL     1       1.214  -0.173  20.196  1.00  0.00    -0.200 F 
ATOM     82  C   UNL     1       3.334  -0.785  19.355  1.00  0.00     0.200 A 
ATOM     83  F   UNL     1       5.434  -1.397  18.466  1.00  0.00    -0.200 F 
ATOM     84  F   UNL     1       3.913  -0.413  20.504  1.00  0.00    -0.200 F 
ENDBRANCH  60  74
BRANCH  61  85
ATOM     85  C   UNL     1      -1.804  -3.986   8.113  1.00  0.00     0.064 A 
ATOM     86  C   UNL     1      -3.063  -4.595   8.025  1.00  0.00     0.173 A 
ATOM     87  C   UNL     1      -1.108  -3.740   6.921  1.00  0.00     0.173 A 
ATOM     88  F   UNL     1      -3.753  -4.868   9.142  1.00  0.00    -0.203 F 
ATOM     89  C   UNL     1      -3.602  -4.954   6.793  1.00  0.00     0.198 A 
ATOM     90  C   UNL     1      -1.657  -4.082   5.688  1.00  0.00     0.198 A 
ATOM     91  F   UNL     1       0.099  -3.158   6.956  1.00  0.00    -0.203 F 
ATOM     92  F   UNL     1      -4.794  -5.564   6.737  1.00  0.00    -0.200 F 
ATOM     93  C   UNL     1      -2.901  -4.693   5.625  1.00  0.00     0.200 A 
ATOM     94  F   UNL     1      -0.982  -3.820   4.560  1.00  0.00    -0.200 F 
ATOM     95  F   UNL     1      -3.422  -5.035   4.438  1.00  0.00    -0.200 F 
ENDBRANCH  61  85
BRANCH  73  96
ATOM     96  C   UNL     1       0.751  -7.681  13.425  1.00  0.00     0.064 A 
ATOM     97  C   UNL     1       1.780  -8.407  12.809  1.00  0.00     0.173 A 
ATOM     98  C   UNL     1      -0.113  -8.365  14.293  1.00  0.00     0.173 A 
ATOM     99  F   UNL     1       2.618  -7.798  11.957  1.00  0.00    -0.203 F 
ATOM    100  C   UNL     1       1.929  -9.771  13.042  1.00  0.00     0.198 A 
ATOM    101  C   UNL     1       0.052  -9.725  14.540  1.00  0.00     0.198 A 
ATOM    102  F   UNL     1      -1.110  -7.712  14.908  1.00  0.00    -0.203 F 
ATOM    103  F   UNL     1       2.897 -10.454  12.416  1.00  0.00    -0.200 F 
ATOM    104  C   UNL     1       1.069 -10.428  13.911  1.00  0.00     0.200 A 
ATOM    105  F   UNL     1      -0.775 -10.356  15.385  1.00  0.00    -0.200 F 
ATOM    106  F   UNL     1       1.217 -11.740  14.137  1.00  0.00    -0.200 F 
ENDBRANCH  73  96
ENDBRANCH  47  48
ENDBRANCH  39  42
ENDBRANCH  37  38
ENDBRANCH  36  37
ENDBRANCH  35  36
ENDBRANCH  34  35
ENDBRANCH   1  34
TORSDOF 17
