REMARK SMILES C[N@@H+]1CC[N@H+](Cc2ccc(C#CC(C)(C)O)s2)C[C@H]1C(=O)NCCCCCCNC(=O)c1ccc(-c2c3nc(c(-c4c(F)c(F)c(F)c(F)c4F)c4ccc([nH]4)c(-c4c(F)c(F)c(F)c(F)c4F)c4nc(c(-c5c(F)c(F)c(F)c(F)c5F)c5ccc2[nH]5)C=C4)C=C3)cc1
REMARK SMILES IDX 24 1 23 2 22 3 20 4 21 5 19 7 1 8 2 9 3 10 4 12 18 13 5 14
REMARK SMILES IDX 6 16 7 17 8 18 17 19 9 20 10 21 11 22 12 23 13 24 14 25
REMARK SMILES IDX 15 26 16 27 25 29 26 30 27 31 28 32 29 33 30 34 31 36 32 37
REMARK SMILES IDX 33 38 94 39 34 40 93 41 35 42 36 43 37 44 87 45 38 46 92 47
REMARK SMILES IDX 86 48 88 49 39 50 91 51 85 52 84 53 40 55 72 56 52 57 71 58
REMARK SMILES IDX 53 59 56 60 70 61 89 62 54 63 55 64 69 66 90 67 57 68 41 69
REMARK SMILES IDX 42 70 50 71 43 72 44 73 48 74 51 75 45 76 46 77 49 78 47 79
REMARK SMILES IDX 73 80 74 81 82 82 75 83 76 84 80 85 83 86 77 87 78 88 81 89
REMARK SMILES IDX 79 90 58 91 59 92 67 93 60 94 61 95 65 96 68 97 62 98 63 99
REMARK SMILES IDX 66 100 64 101
REMARK H PARENT 22 6 2 11 5 15 16 28 29 35 88 54 56 65
REMARK Flexibility Score: inf
ROOT
ATOM      1  C   UNL     1       1.714  -1.523  -3.689  1.00  0.00     0.021 C 
ENDROOT
BRANCH   1   2
ATOM      2  C   UNL     1       0.512  -1.862  -2.815  1.00  0.00     0.116 C 
BRANCH   2   3
ATOM      3  N   UNL     1       0.878  -2.747  -1.728  1.00  0.00    -0.351 N 
ATOM      4  C   UNL     1       0.909  -2.481  -0.391  1.00  0.00     0.284 C 
ATOM      5  O   UNL     1       1.306  -3.370   0.367  1.00  0.00    -0.268 OA
ATOM      6  H   UNL     1       1.137  -3.660  -1.990  1.00  0.00     0.163 HD
BRANCH   4   7
ATOM      7  C   UNL     1       0.406  -1.132   0.149  1.00  0.00     0.329 C 
ATOM      8  C   UNL     1       2.513   0.062  -0.098  1.00  0.00     0.333 C 
ATOM      9  N   UNL     1       1.104   0.012  -0.509  1.00  0.00    -0.318 N 
ATOM     10  C   UNL     1       0.439   1.286  -0.196  1.00  0.00     0.325 C 
ATOM     11  H   UNL     1       1.060  -0.133  -1.517  1.00  0.00     0.348 HD
ATOM     12  C   UNL     1      -1.105   1.273  -0.326  1.00  0.00     0.324 C 
ATOM     13  C   UNL     1      -1.148  -1.125   0.032  1.00  0.00     0.339 C 
ATOM     14  N   UNL     1      -1.827   0.155   0.292  1.00  0.00    -0.320 N 
ATOM     15  H   UNL     1      -2.727   0.117  -0.186  1.00  0.00     0.348 HD
BRANCH  14  16
ATOM     16  C   UNL     1      -2.266   0.354   1.681  1.00  0.00     0.310 C 
BRANCH  16  17
ATOM     17  C   UNL     1      -1.166   0.343   2.692  1.00  0.00     0.060 A 
ATOM     18  C   UNL     1      -0.336   1.373   3.087  1.00  0.00     0.022 A 
ATOM     19  S   UNL     1      -0.787  -1.101   3.540  1.00  0.00    -0.126 S 
ATOM     20  C   UNL     1       0.809   0.883   3.781  1.00  0.00     0.029 A 
ATOM     21  C   UNL     1       0.735  -0.475   3.987  1.00  0.00     0.077 A 
BRANCH  21  22
ATOM     22  C   UNL     1       1.729  -1.265   4.614  1.00  0.00    -0.053 C 
ATOM     23  C   UNL     1       2.456  -1.930   5.468  1.00  0.00    -0.063 C 
BRANCH  23  24
ATOM     24  C   UNL     1       3.304  -2.705   6.463  1.00  0.00     0.120 C 
ATOM     25  C   UNL     1       2.513  -2.929   7.750  1.00  0.00     0.056 C 
ATOM     26  C   UNL     1       3.745  -4.029   5.845  1.00  0.00     0.056 C 
BRANCH  24  27
ATOM     27  O   UNL     1       4.458  -1.924   6.762  1.00  0.00    -0.378 OA
ATOM     28  H   UNL     1       4.184  -1.081   7.156  1.00  0.00     0.212 HD
ENDBRANCH  24  27
ENDBRANCH  23  24
ENDBRANCH  21  22
ENDBRANCH  16  17
ENDBRANCH  14  16
ENDBRANCH   4   7
ENDBRANCH   2   3
ENDBRANCH   1   2
BRANCH   1  29
ATOM     29  C   UNL     1       2.291  -2.726  -4.439  1.00  0.00     0.002 C 
BRANCH  29  30
ATOM     30  C   UNL     1       1.266  -3.579  -5.200  1.00  0.00     0.002 C 
BRANCH  30  31
ATOM     31  C   UNL     1       0.327  -2.818  -6.148  1.00  0.00     0.021 C 
BRANCH  31  32
ATOM     32  C   UNL     1       1.051  -2.119  -7.285  1.00  0.00     0.116 C 
BRANCH  32  33
ATOM     33  N   UNL     1       1.684  -3.067  -8.192  1.00  0.00    -0.352 N 
ATOM     34  C   UNL     1       2.433  -2.802  -9.319  1.00  0.00     0.251 C 
ATOM     35  H   UNL     1       1.562  -4.019  -7.972  1.00  0.00     0.163 HD
ATOM     36  O   UNL     1       2.619  -3.655 -10.168  1.00  0.00    -0.269 OA
BRANCH  34  37
ATOM     37  C   UNL     1       2.999  -1.452  -9.482  1.00  0.00     0.039 A 
ATOM     38  C   UNL     1       2.937  -0.808 -10.720  1.00  0.00     0.014 A 
ATOM     39  C   UNL     1       3.571  -0.827  -8.376  1.00  0.00     0.014 A 
ATOM     40  C   UNL     1       3.384   0.506 -10.817  1.00  0.00     0.010 A 
ATOM     41  C   UNL     1       3.893   0.507  -8.441  1.00  0.00     0.010 A 
ATOM     42  C   UNL     1       3.840   1.167  -9.666  1.00  0.00    -0.014 A 
BRANCH  42  43
ATOM     43  C   UNL     1       4.135   2.598  -9.712  1.00  0.00     0.031 A 
ATOM     44  C   UNL     1       3.004   3.444 -10.187  1.00  0.00     0.074 A 
ATOM     45  C   UNL     1       5.245   3.133  -9.157  1.00  0.00     0.049 A 
ATOM     46  N   UNL     1       2.968   4.207 -11.228  1.00  0.00    -0.248 NA
ATOM     47  C   UNL     1       1.712   3.346  -9.485  1.00  0.00     0.031 C 
ATOM     48  C   UNL     1       6.271   2.429  -8.375  1.00  0.00     0.029 A 
ATOM     49  N   UNL     1       5.638   4.437  -9.062  1.00  0.00    -0.354 N 
ATOM     50  C   UNL     1       1.726   4.842 -11.203  1.00  0.00     0.074 A 
ATOM     51  C   UNL     1       0.939   4.149 -10.220  1.00  0.00     0.031 C 
ATOM     52  C   UNL     1       7.008   3.324  -7.685  1.00  0.00     0.029 A 
ATOM     53  C   UNL     1       6.634   4.657  -8.118  1.00  0.00     0.049 A 
ATOM     54  H   UNL     1       5.250   5.156  -9.611  1.00  0.00     0.167 HD
ATOM     55  C   UNL     1       1.566   6.061 -11.793  1.00  0.00     0.037 A 
ATOM     56  C   UNL     1       7.124   5.848  -7.701  1.00  0.00     0.037 A 
ATOM     57  C   UNL     1       2.682   6.348 -12.657  1.00  0.00     0.049 A 
ATOM     58  C   UNL     1       6.811   6.853  -8.739  1.00  0.00     0.074 A 
ATOM     59  C   UNL     1       3.113   5.974 -13.909  1.00  0.00     0.029 A 
ATOM     60  N   UNL     1       3.746   6.907 -12.005  1.00  0.00    -0.354 N 
ATOM     61  N   UNL     1       7.342   6.844  -9.930  1.00  0.00    -0.248 NA
ATOM     62  C   UNL     1       5.634   7.701  -8.585  1.00  0.00     0.031 C 
ATOM     63  C   UNL     1       4.526   6.179 -13.918  1.00  0.00     0.029 A 
ATOM     64  C   UNL     1       4.912   6.703 -12.686  1.00  0.00     0.049 A 
ATOM     65  H   UNL     1       3.680   7.395 -11.152  1.00  0.00     0.167 HD
ATOM     66  C   UNL     1       6.337   7.313 -10.751  1.00  0.00     0.074 A 
ATOM     67  C   UNL     1       5.404   7.998  -9.867  1.00  0.00     0.031 C 
ATOM     68  C   UNL     1       6.183   6.813 -12.010  1.00  0.00     0.037 A 
BRANCH  55  69
ATOM     69  C   UNL     1       0.739   7.210 -11.235  1.00  0.00     0.064 A 
ATOM     70  C   UNL     1       0.705   8.426 -11.958  1.00  0.00     0.173 A 
ATOM     71  C   UNL     1       0.297   7.297  -9.898  1.00  0.00     0.173 A 
ATOM     72  F   UNL     1       1.092   8.471 -13.242  1.00  0.00    -0.203 F 
ATOM     73  C   UNL     1       0.371   9.643 -11.354  1.00  0.00     0.198 A 
ATOM     74  C   UNL     1      -0.080   8.507  -9.312  1.00  0.00     0.198 A 
ATOM     75  F   UNL     1       0.316   6.250  -9.068  1.00  0.00    -0.203 F 
ATOM     76  F   UNL     1       0.490  10.785 -12.044  1.00  0.00    -0.200 F 
ATOM     77  C   UNL     1      -0.006   9.683 -10.026  1.00  0.00     0.200 A 
ATOM     78  F   UNL     1      -0.429   8.528  -8.018  1.00  0.00    -0.200 F 
ATOM     79  F   UNL     1      -0.255  10.853  -9.422  1.00  0.00    -0.200 F 
ENDBRANCH  55  69
BRANCH  56  80
ATOM     80  C   UNL     1       7.686   6.214  -6.384  1.00  0.00     0.064 A 
ATOM     81  C   UNL     1       8.538   7.318  -6.232  1.00  0.00     0.173 A 
ATOM     82  C   UNL     1       7.175   5.645  -5.201  1.00  0.00     0.173 A 
ATOM     83  F   UNL     1       9.037   7.937  -7.311  1.00  0.00    -0.203 F 
ATOM     84  C   UNL     1       8.836   7.844  -4.971  1.00  0.00     0.198 A 
ATOM     85  C   UNL     1       7.475   6.168  -3.943  1.00  0.00     0.198 A 
ATOM     86  F   UNL     1       6.298   4.631  -5.253  1.00  0.00    -0.203 F 
ATOM     87  F   UNL     1       9.602   8.939  -4.868  1.00  0.00    -0.200 F 
ATOM     88  C   UNL     1       8.293   7.277  -3.829  1.00  0.00     0.200 A 
ATOM     89  F   UNL     1       6.915   5.633  -2.849  1.00  0.00    -0.200 F 
ATOM     90  F   UNL     1       8.523   7.823  -2.627  1.00  0.00    -0.200 F 
ENDBRANCH  56  80
BRANCH  68  91
ATOM     91  C   UNL     1       7.378   6.183 -12.649  1.00  0.00     0.064 A 
ATOM     92  C   UNL     1       7.973   4.987 -12.218  1.00  0.00     0.173 A 
ATOM     93  C   UNL     1       7.895   6.789 -13.800  1.00  0.00     0.173 A 
ATOM     94  F   UNL     1       7.483   4.310 -11.172  1.00  0.00    -0.203 F 
ATOM     95  C   UNL     1       9.067   4.447 -12.891  1.00  0.00     0.198 A 
ATOM     96  C   UNL     1       8.963   6.229 -14.492  1.00  0.00     0.198 A 
ATOM     97  F   UNL     1       7.335   7.912 -14.277  1.00  0.00    -0.203 F 
ATOM     98  F   UNL     1       9.635   3.315 -12.451  1.00  0.00    -0.200 F 
ATOM     99  C   UNL     1       9.556   5.065 -14.031  1.00  0.00     0.200 A 
ATOM    100  F   UNL     1       9.404   6.809 -15.616  1.00  0.00    -0.200 F 
ATOM    101  F   UNL     1      10.588   4.529 -14.698  1.00  0.00    -0.200 F 
ENDBRANCH  68  91
ENDBRANCH  42  43
ENDBRANCH  34  37
ENDBRANCH  32  33
ENDBRANCH  31  32
ENDBRANCH  30  31
ENDBRANCH  29  30
ENDBRANCH   1  29
TORSDOF 18
