REMARK SMILES CS(=O)(=O)c1ccc(/C=C(/C(=O)NCCCCCCNC(=O)c2ccc(-c3c4nc(c(-c5c(F)c(F)c(F)c(F)c5F)c5ccc([nH]5)c(-c5c(F)c(F)c(F)c(F)c5F)c5nc(c(-c6c(F)c(F)c(F)c(F)c6F)c6ccc3[nH]6)C=C5)C=C4)cc2)c2ccc(F)cc2)cc1
REMARK SMILES IDX 16 1 15 2 14 3 13 4 11 5 12 6 10 8 9 9 8 10 5 11 6 12 94 13
REMARK SMILES IDX 7 14 93 15 2 16 1 17 3 18 4 19 86 20 87 21 92 22 88 23 91 24
REMARK SMILES IDX 89 25 90 26 17 27 18 28 19 29 20 30 21 31 22 33 23 34 24 35
REMARK SMILES IDX 85 36 25 37 84 38 26 39 27 40 28 41 78 42 29 43 83 44 77 45
REMARK SMILES IDX 79 46 30 47 82 48 76 49 75 50 31 52 63 53 43 54 62 55 44 56
REMARK SMILES IDX 47 57 61 58 80 59 45 60 46 61 60 63 81 64 48 65 32 66 33 67
REMARK SMILES IDX 41 68 34 69 35 70 39 71 42 72 36 73 37 74 40 75 38 76 64 77
REMARK SMILES IDX 65 78 73 79 66 80 67 81 71 82 74 83 68 84 69 85 72 86 70 87
REMARK SMILES IDX 49 88 50 89 58 90 51 91 52 92 56 93 59 94 53 95 54 96 57 97
REMARK SMILES IDX 55 98
REMARK H PARENT 13 7 20 32 79 51 47 62
REMARK Flexibility Score: inf
ROOT
ATOM      1  C   UNL     1       1.587  11.134  -1.710  1.00  0.00     0.002 C 
ENDROOT
BRANCH   1   2
ATOM      2  C   UNL     1       1.314   9.622  -1.646  1.00  0.00     0.021 C 
BRANCH   2   3
ATOM      3  C   UNL     1       1.733   8.873  -2.914  1.00  0.00     0.116 C 
BRANCH   3   4
ATOM      4  N   UNL     1       3.179   8.808  -2.981  1.00  0.00    -0.352 N 
ATOM      5  C   UNL     1       4.100   7.843  -2.731  1.00  0.00     0.251 C 
ATOM      6  O   UNL     1       5.281   8.197  -2.793  1.00  0.00    -0.269 OA
ATOM      7  H   UNL     1       3.586   9.655  -3.275  1.00  0.00     0.163 HD
BRANCH   5   8
ATOM      8  C   UNL     1       3.753   6.391  -2.489  1.00  0.00     0.047 C 
ATOM      9  C   UNL     1       2.636   6.008  -1.828  1.00  0.00     0.022 C 
BRANCH   9  10
ATOM     10  C   UNL     1       2.077   4.650  -1.636  1.00  0.00    -0.025 A 
ATOM     11  C   UNL     1       0.895   2.106  -1.492  1.00  0.00     0.067 A 
ATOM     12  C   UNL     1       2.264   2.250  -1.270  1.00  0.00     0.021 A 
ATOM     13  C   UNL     1       0.100   3.220  -1.752  1.00  0.00     0.021 A 
ATOM     14  C   UNL     1       2.839   3.524  -1.304  1.00  0.00     0.009 A 
ATOM     15  C   UNL     1       0.694   4.484  -1.828  1.00  0.00     0.009 A 
BRANCH  11  16
ATOM     16  S   UNL     1       0.169   0.485  -1.453  1.00  0.00     0.175 S 
ATOM     17  C   UNL     1       0.670  -0.185   0.111  1.00  0.00     0.163 C 
ATOM     18  O   UNL     1       0.804  -0.283  -2.507  1.00  0.00    -0.224 OA
ATOM     19  O   UNL     1      -1.271   0.653  -1.410  1.00  0.00    -0.224 OA
ENDBRANCH  11  16
ENDBRANCH   9  10
BRANCH   8  20
ATOM     20  C   UNL     1       4.795   5.400  -2.859  1.00  0.00    -0.013 A 
ATOM     21  C   UNL     1       5.981   5.368  -2.100  1.00  0.00     0.012 A 
ATOM     22  C   UNL     1       4.607   4.448  -3.871  1.00  0.00     0.012 A 
ATOM     23  C   UNL     1       6.945   4.387  -2.323  1.00  0.00     0.040 A 
ATOM     24  C   UNL     1       5.569   3.455  -4.082  1.00  0.00     0.040 A 
ATOM     25  C   UNL     1       6.723   3.431  -3.304  1.00  0.00     0.123 A 
ATOM     26  F   UNL     1       7.628   2.462  -3.492  1.00  0.00    -0.207 F 
ENDBRANCH   8  20
ENDBRANCH   5   8
ENDBRANCH   3   4
ENDBRANCH   2   3
ENDBRANCH   1   2
BRANCH   1  27
ATOM     27  C   UNL     1       0.837  11.880  -2.821  1.00  0.00     0.002 C 
BRANCH  27  28
ATOM     28  C   UNL     1      -0.680  11.679  -2.820  1.00  0.00     0.021 C 
BRANCH  28  29
ATOM     29  C   UNL     1      -1.374  12.137  -1.542  1.00  0.00     0.116 C 
BRANCH  29  30
ATOM     30  N   UNL     1      -1.291  13.578  -1.366  1.00  0.00    -0.352 N 
ATOM     31  C   UNL     1      -2.299  14.485  -1.159  1.00  0.00     0.251 C 
ATOM     32  H   UNL     1      -0.383  13.957  -1.401  1.00  0.00     0.163 HD
ATOM     33  O   UNL     1      -2.078  15.689  -1.239  1.00  0.00    -0.269 OA
BRANCH  31  34
ATOM     34  C   UNL     1      -3.664  14.007  -0.851  1.00  0.00     0.039 A 
ATOM     35  C   UNL     1      -4.750  14.598  -1.501  1.00  0.00     0.014 A 
ATOM     36  C   UNL     1      -3.871  12.993   0.088  1.00  0.00     0.014 A 
ATOM     37  C   UNL     1      -6.043  14.136  -1.247  1.00  0.00     0.010 A 
ATOM     38  C   UNL     1      -5.152  12.488   0.290  1.00  0.00     0.010 A 
ATOM     39  C   UNL     1      -6.250  13.060  -0.369  1.00  0.00    -0.014 A 
BRANCH  39  40
ATOM     40  C   UNL     1      -7.612  12.526  -0.118  1.00  0.00     0.031 A 
ATOM     41  C   UNL     1      -8.224  12.637   1.250  1.00  0.00     0.074 A 
ATOM     42  C   UNL     1      -8.268  11.884  -1.102  1.00  0.00     0.049 A 
ATOM     43  N   UNL     1      -9.366  12.171   1.688  1.00  0.00    -0.248 NA
ATOM     44  C   UNL     1      -7.432  13.341   2.270  1.00  0.00     0.031 C 
ATOM     45  C   UNL     1      -7.758  11.670  -2.457  1.00  0.00     0.029 A 
ATOM     46  N   UNL     1      -9.502  11.282  -1.111  1.00  0.00    -0.354 N 
ATOM     47  C   UNL     1      -9.423  12.513   3.032  1.00  0.00     0.074 A 
ATOM     48  C   UNL     1      -8.177  13.175   3.353  1.00  0.00     0.031 C 
ATOM     49  C   UNL     1      -8.677  10.998  -3.170  1.00  0.00     0.029 A 
ATOM     50  C   UNL     1      -9.823  10.706  -2.315  1.00  0.00     0.049 A 
ATOM     51  H   UNL     1     -10.098  11.264  -0.328  1.00  0.00     0.167 HD
ATOM     52  C   UNL     1     -10.433  12.316   3.913  1.00  0.00     0.037 A 
ATOM     53  C   UNL     1     -10.918  10.014  -2.685  1.00  0.00     0.037 A 
ATOM     54  C   UNL     1     -11.679  11.675   3.583  1.00  0.00     0.049 A 
ATOM     55  C   UNL     1     -12.028   9.809  -1.690  1.00  0.00     0.074 A 
ATOM     56  C   UNL     1     -12.787  11.474   4.388  1.00  0.00     0.029 A 
ATOM     57  N   UNL     1     -11.981  11.127   2.344  1.00  0.00    -0.354 N 
ATOM     58  N   UNL     1     -12.098  10.194  -0.439  1.00  0.00    -0.248 NA
ATOM     59  C   UNL     1     -13.214   9.082  -2.163  1.00  0.00     0.031 C 
ATOM     60  C   UNL     1     -13.742  10.767   3.649  1.00  0.00     0.029 A 
ATOM     61  C   UNL     1     -13.250  10.571   2.368  1.00  0.00     0.049 A 
ATOM     62  H   UNL     1     -11.381  11.133   1.563  1.00  0.00     0.167 HD
ATOM     63  C   UNL     1     -13.342   9.779   0.018  1.00  0.00     0.074 A 
ATOM     64  C   UNL     1     -13.998   9.126  -1.095  1.00  0.00     0.031 C 
ATOM     65  C   UNL     1     -13.890   9.927   1.250  1.00  0.00     0.037 A 
BRANCH  52  66
ATOM     66  C   UNL     1     -10.228  12.803   5.319  1.00  0.00     0.064 A 
ATOM     67  C   UNL     1     -10.178  14.172   5.622  1.00  0.00     0.173 A 
ATOM     68  C   UNL     1     -10.097  11.892   6.378  1.00  0.00     0.173 A 
ATOM     69  F   UNL     1     -10.285  15.085   4.645  1.00  0.00    -0.203 F 
ATOM     70  C   UNL     1      -9.968  14.611   6.927  1.00  0.00     0.198 A 
ATOM     71  C   UNL     1      -9.920  12.335   7.686  1.00  0.00     0.198 A 
ATOM     72  F   UNL     1     -10.143  10.572   6.145  1.00  0.00    -0.203 F 
ATOM     73  F   UNL     1      -9.866  15.922   7.183  1.00  0.00    -0.200 F 
ATOM     74  C   UNL     1      -9.845  13.693   7.958  1.00  0.00     0.200 A 
ATOM     75  F   UNL     1      -9.813  11.446   8.684  1.00  0.00    -0.200 F 
ATOM     76  F   UNL     1      -9.645  14.116   9.214  1.00  0.00    -0.200 F 
ENDBRANCH  52  66
BRANCH  53  77
ATOM     77  C   UNL     1     -11.024   9.491  -4.071  1.00  0.00     0.064 A 
ATOM     78  C   UNL     1     -11.923  10.054  -4.986  1.00  0.00     0.173 A 
ATOM     79  C   UNL     1     -10.219   8.431  -4.513  1.00  0.00     0.173 A 
ATOM     80  F   UNL     1     -12.727  11.057  -4.603  1.00  0.00    -0.203 F 
ATOM     81  C   UNL     1     -12.025   9.568  -6.287  1.00  0.00     0.198 A 
ATOM     82  C   UNL     1     -10.302   7.963  -5.823  1.00  0.00     0.198 A 
ATOM     83  F   UNL     1      -9.337   7.863  -3.678  1.00  0.00    -0.203 F 
ATOM     84  F   UNL     1     -12.919  10.100  -7.131  1.00  0.00    -0.200 F 
ATOM     85  C   UNL     1     -11.209   8.527  -6.707  1.00  0.00     0.200 A 
ATOM     86  F   UNL     1      -9.501   6.968  -6.229  1.00  0.00    -0.200 F 
ATOM     87  F   UNL     1     -11.301   8.066  -7.962  1.00  0.00    -0.200 F 
ENDBRANCH  53  77
BRANCH  65  88
ATOM     88  C   UNL     1     -15.280   9.397   1.451  1.00  0.00     0.064 A 
ATOM     89  C   UNL     1     -15.540   8.021   1.519  1.00  0.00     0.173 A 
ATOM     90  C   UNL     1     -16.358  10.280   1.617  1.00  0.00     0.173 A 
ATOM     91  F   UNL     1     -14.545   7.136   1.351  1.00  0.00    -0.203 F 
ATOM     92  C   UNL     1     -16.833   7.547   1.724  1.00  0.00     0.198 A 
ATOM     93  C   UNL     1     -17.644   9.803   1.851  1.00  0.00     0.198 A 
ATOM     94  F   UNL     1     -16.160  11.606   1.566  1.00  0.00    -0.203 F 
ATOM     95  F   UNL     1     -17.066   6.228   1.741  1.00  0.00    -0.200 F 
ATOM     96  C   UNL     1     -17.882   8.438   1.897  1.00  0.00     0.200 A 
ATOM     97  F   UNL     1     -18.654  10.665   2.031  1.00  0.00    -0.200 F 
ATOM     98  F   UNL     1     -19.125   7.980   2.102  1.00  0.00    -0.200 F 
ENDBRANCH  65  88
ENDBRANCH  39  40
ENDBRANCH  31  34
ENDBRANCH  29  30
ENDBRANCH  28  29
ENDBRANCH  27  28
ENDBRANCH   1  27
TORSDOF 16
