REMARK SMILES C[C@H](NC1=[NH+]S(=O)(=O)c2ccccc21)C(=O)NCCCCCCNC(=O)c1ccc(-c2c3nc(c(-c4c(F)c(F)c(F)c(F)c4F)c4ccc([nH]4)c(-c4c(F)c(F)c(F)c(F)c4F)c4nc(c(-c5c(F)c(F)c(F)c(F)c5F)c5ccc2[nH]5)C=C4)C=C3)cc1
REMARK SMILES IDX 21 1 20 2 19 3 18 4 17 5 15 6 16 7 2 9 1 10 3 11 4 12 5 14
REMARK SMILES IDX 14 15 6 16 9 18 13 19 7 20 8 21 10 22 12 23 11 24 22 25
REMARK SMILES IDX 23 26 24 27 25 28 26 30 27 31 28 32 89 33 29 34 88 35 30 36
REMARK SMILES IDX 31 37 32 38 82 39 33 40 87 41 81 42 83 43 34 44 86 45 80 46
REMARK SMILES IDX 79 47 35 49 67 50 47 51 66 52 48 53 51 54 65 55 84 56 49 57
REMARK SMILES IDX 50 58 64 60 85 61 52 62 36 63 37 64 45 65 38 66 39 67 43 68
REMARK SMILES IDX 46 69 40 70 41 71 44 72 42 73 68 74 69 75 77 76 70 77 71 78
REMARK SMILES IDX 75 79 78 80 72 81 73 82 76 83 74 84 53 85 54 86 62 87 55 88
REMARK SMILES IDX 56 89 60 90 63 91 57 92 58 93 61 94 59 95
REMARK H PARENT 17 8 3 13 5 17 24 29 83 48 51 59
REMARK Flexibility Score: inf
ROOT
ATOM      1  C   UNL     1      -3.703  -1.184   3.613  1.00  0.00     0.002 C 
ENDROOT
BRANCH   1   2
ATOM      2  C   UNL     1      -3.197   0.004   2.787  1.00  0.00     0.002 C 
BRANCH   2   3
ATOM      3  C   UNL     1      -1.688   0.022   2.519  1.00  0.00     0.021 C 
BRANCH   3   4
ATOM      4  C   UNL     1      -1.166  -1.197   1.758  1.00  0.00     0.116 C 
BRANCH   4   5
ATOM      5  N   UNL     1      -1.592  -1.163   0.370  1.00  0.00    -0.352 N 
ATOM      6  C   UNL     1      -0.868  -1.109  -0.788  1.00  0.00     0.264 C 
ATOM      7  O   UNL     1      -1.499  -1.076  -1.848  1.00  0.00    -0.270 OA
ATOM      8  H   UNL     1      -2.568  -1.183   0.242  1.00  0.00     0.163 HD
BRANCH   6   9
ATOM      9  C   UNL     1       0.674  -1.122  -0.775  1.00  0.00     0.258 C 
ATOM     10  C   UNL     1       1.157  -2.516  -0.371  1.00  0.00     0.069 C 
BRANCH   9  11
ATOM     11  N   UNL     1       1.192  -0.070   0.105  1.00  0.00    -0.262 N 
ATOM     12  C   UNL     1       2.498   0.042   0.498  1.00  0.00     0.292 C 
ATOM     13  H   UNL     1       0.555   0.604   0.437  1.00  0.00     0.306 HD
ATOM     14  N   UNL     1       3.501  -0.492  -0.134  1.00  0.00    -0.162 N 
ATOM     15  C   UNL     1       2.841   0.739   1.759  1.00  0.00     0.087 A 
ATOM     16  S   UNL     1       4.911  -0.227   0.662  1.00  0.00     0.329 S 
ATOM     17  H   UNL     1       3.425  -0.989  -0.980  1.00  0.00     0.327 HD
ATOM     18  C   UNL     1       4.194   0.617   2.002  1.00  0.00     0.124 A 
ATOM     19  C   UNL     1       2.014   1.341   2.692  1.00  0.00     0.018 A 
ATOM     20  O   UNL     1       5.726   0.728  -0.051  1.00  0.00    -0.179 OA
ATOM     21  O   UNL     1       5.433  -1.476   1.179  1.00  0.00    -0.179 OA
ATOM     22  C   UNL     1       4.797   1.042   3.170  1.00  0.00     0.025 A 
ATOM     23  C   UNL     1       2.592   1.796   3.883  1.00  0.00     0.001 A 
ATOM     24  C   UNL     1       3.971   1.640   4.123  1.00  0.00     0.002 A 
ENDBRANCH   9  11
ENDBRANCH   6   9
ENDBRANCH   4   5
ENDBRANCH   3   4
ENDBRANCH   2   3
ENDBRANCH   1   2
BRANCH   1  25
ATOM     25  C   UNL     1      -2.990  -1.409   4.949  1.00  0.00     0.021 C 
BRANCH  25  26
ATOM     26  C   UNL     1      -3.009  -0.218   5.904  1.00  0.00     0.116 C 
BRANCH  26  27
ATOM     27  N   UNL     1      -4.353   0.141   6.321  1.00  0.00    -0.352 N 
ATOM     28  C   UNL     1      -4.845   0.362   7.583  1.00  0.00     0.251 C 
ATOM     29  H   UNL     1      -5.007   0.240   5.592  1.00  0.00     0.163 HD
ATOM     30  O   UNL     1      -6.051   0.509   7.758  1.00  0.00    -0.269 OA
BRANCH  28  31
ATOM     31  C   UNL     1      -3.927   0.403   8.742  1.00  0.00     0.039 A 
ATOM     32  C   UNL     1      -4.280  -0.292   9.903  1.00  0.00     0.014 A 
ATOM     33  C   UNL     1      -2.739   1.138   8.699  1.00  0.00     0.014 A 
ATOM     34  C   UNL     1      -3.415  -0.299  10.999  1.00  0.00     0.010 A 
ATOM     35  C   UNL     1      -1.850   1.084   9.771  1.00  0.00     0.010 A 
ATOM     36  C   UNL     1      -2.181   0.366  10.931  1.00  0.00    -0.014 A 
BRANCH  36  37
ATOM     37  C   UNL     1      -1.223   0.324  12.065  1.00  0.00     0.031 A 
ATOM     38  C   UNL     1      -0.903   1.575  12.831  1.00  0.00     0.074 A 
ATOM     39  C   UNL     1      -0.593  -0.829  12.361  1.00  0.00     0.049 A 
ATOM     40  N   UNL     1      -0.039   1.757  13.797  1.00  0.00    -0.248 NA
ATOM     41  C   UNL     1      -1.635   2.791  12.443  1.00  0.00     0.031 C 
ATOM     42  C   UNL     1      -0.787  -2.102  11.666  1.00  0.00     0.029 A 
ATOM     43  N   UNL     1       0.349  -1.113  13.319  1.00  0.00    -0.354 N 
ATOM     44  C   UNL     1      -0.110   3.106  14.119  1.00  0.00     0.074 A 
ATOM     45  C   UNL     1      -1.070   3.705  13.218  1.00  0.00     0.031 C 
ATOM     46  C   UNL     1      -0.002  -3.034  12.230  1.00  0.00     0.029 A 
ATOM     47  C   UNL     1       0.772  -2.419  13.304  1.00  0.00     0.049 A 
ATOM     48  H   UNL     1       0.688  -0.443  13.956  1.00  0.00     0.167 HD
ATOM     49  C   UNL     1       0.552   3.778  15.091  1.00  0.00     0.037 A 
ATOM     50  C   UNL     1       1.685  -3.047  14.068  1.00  0.00     0.037 A 
ATOM     51  C   UNL     1       1.481   3.174  16.009  1.00  0.00     0.049 A 
ATOM     52  C   UNL     1       2.401  -2.279  15.145  1.00  0.00     0.074 A 
ATOM     53  C   UNL     1       2.152   3.759  17.069  1.00  0.00     0.029 A 
ATOM     54  N   UNL     1       1.868   1.843  15.977  1.00  0.00    -0.354 N 
ATOM     55  N   UNL     1       2.282  -1.017  15.477  1.00  0.00    -0.248 NA
ATOM     56  C   UNL     1       3.374  -3.025  15.955  1.00  0.00     0.031 C 
ATOM     57  C   UNL     1       2.972   2.789  17.657  1.00  0.00     0.029 A 
ATOM     58  C   UNL     1       2.782   1.591  16.988  1.00  0.00     0.049 A 
ATOM     59  H   UNL     1       1.541   1.175  15.332  1.00  0.00     0.167 HD
ATOM     60  C   UNL     1       3.143  -0.823  16.549  1.00  0.00     0.074 A 
ATOM     61  C   UNL     1       3.770  -2.100  16.818  1.00  0.00     0.031 C 
ATOM     62  C   UNL     1       3.390   0.312  17.247  1.00  0.00     0.037 A 
BRANCH  49  63
ATOM     63  C   UNL     1       0.290   5.250  15.213  1.00  0.00     0.064 A 
ATOM     64  C   UNL     1      -0.926   5.741  15.710  1.00  0.00     0.173 A 
ATOM     65  C   UNL     1       1.279   6.181  14.859  1.00  0.00     0.173 A 
ATOM     66  F   UNL     1      -1.908   4.892  16.050  1.00  0.00    -0.203 F 
ATOM     67  C   UNL     1      -1.155   7.110  15.821  1.00  0.00     0.198 A 
ATOM     68  C   UNL     1       1.057   7.548  14.997  1.00  0.00     0.198 A 
ATOM     69  F   UNL     1       2.461   5.763  14.383  1.00  0.00    -0.203 F 
ATOM     70  F   UNL     1      -2.342   7.556  16.253  1.00  0.00    -0.200 F 
ATOM     71  C   UNL     1      -0.161   8.012  15.470  1.00  0.00     0.200 A 
ATOM     72  F   UNL     1       2.021   8.419  14.666  1.00  0.00    -0.200 F 
ATOM     73  F   UNL     1      -0.382   9.329  15.580  1.00  0.00    -0.200 F 
ENDBRANCH  49  63
BRANCH  50  74
ATOM     74  C   UNL     1       1.954  -4.493  13.861  1.00  0.00     0.064 A 
ATOM     75  C   UNL     1       1.522  -5.442  14.797  1.00  0.00     0.173 A 
ATOM     76  C   UNL     1       2.642  -4.954  12.730  1.00  0.00     0.173 A 
ATOM     77  F   UNL     1       0.879  -5.044  15.905  1.00  0.00    -0.203 F 
ATOM     78  C   UNL     1       1.783  -6.799  14.618  1.00  0.00     0.198 A 
ATOM     79  C   UNL     1       2.881  -6.313  12.540  1.00  0.00     0.198 A 
ATOM     80  F   UNL     1       3.071  -4.084  11.804  1.00  0.00    -0.203 F 
ATOM     81  F   UNL     1       1.393  -7.682  15.548  1.00  0.00    -0.200 F 
ATOM     82  C   UNL     1       2.458  -7.234  13.488  1.00  0.00     0.200 A 
ATOM     83  F   UNL     1       3.523  -6.731  11.441  1.00  0.00    -0.200 F 
ATOM     84  F   UNL     1       2.704  -8.539  13.313  1.00  0.00    -0.200 F 
ENDBRANCH  50  74
BRANCH  62  85
ATOM     85  C   UNL     1       4.356   0.217  18.390  1.00  0.00     0.064 A 
ATOM     86  C   UNL     1       5.737   0.105  18.175  1.00  0.00     0.173 A 
ATOM     87  C   UNL     1       3.897   0.275  19.714  1.00  0.00     0.173 A 
ATOM     88  F   UNL     1       6.222   0.030  16.926  1.00  0.00    -0.203 F 
ATOM     89  C   UNL     1       6.623   0.035  19.246  1.00  0.00     0.198 A 
ATOM     90  C   UNL     1       4.788   0.229  20.783  1.00  0.00     0.198 A 
ATOM     91  F   UNL     1       2.585   0.386  19.971  1.00  0.00    -0.203 F 
ATOM     92  F   UNL     1       7.936  -0.111  19.019  1.00  0.00    -0.200 F 
ATOM     93  C   UNL     1       6.149   0.104  20.548  1.00  0.00     0.200 A 
ATOM     94  F   UNL     1       4.330   0.305  22.040  1.00  0.00    -0.200 F 
ATOM     95  F   UNL     1       7.005   0.042  21.578  1.00  0.00    -0.200 F 
ENDBRANCH  62  85
ENDBRANCH  36  37
ENDBRANCH  28  31
ENDBRANCH  26  27
ENDBRANCH  25  26
ENDBRANCH   1  25
TORSDOF 14
