REMARK SMILES COc1ccc(-c2sc(N)nc2C(=O)NCCCCCCNC(=O)c2ccc(-c3c4nc(c(-c5c(F)c(F)c(F)c(F)c5F)c5ccc([nH]5)c(-c5c(F)c(F)c(F)c(F)c5F)c5nc(c(-c6c(F)c(F)c(F)c(F)c6F)c6ccc3[nH]6)C=C5)C=C4)cc2)cc1OC
REMARK SMILES IDX 18 1 17 2 16 3 15 4 13 5 14 6 12 8 7 9 8 10 9 11 11 12 6 13
REMARK SMILES IDX 3 14 4 15 89 16 5 17 88 18 2 19 1 20 90 21 91 22 10 23 19 26
REMARK SMILES IDX 20 27 21 28 22 29 23 30 24 32 25 33 26 34 87 35 27 36 86 37
REMARK SMILES IDX 28 38 29 39 30 40 80 41 31 42 85 43 79 44 81 45 32 46 84 47
REMARK SMILES IDX 78 48 77 49 33 51 65 52 45 53 64 54 46 55 49 56 63 57 82 58
REMARK SMILES IDX 47 59 48 60 62 62 83 63 50 64 34 65 35 66 43 67 36 68 37 69
REMARK SMILES IDX 41 70 44 71 38 72 39 73 42 74 40 75 66 76 67 77 75 78 68 79
REMARK SMILES IDX 69 80 73 81 76 82 70 83 71 84 74 85 72 86 51 87 52 88 60 89
REMARK SMILES IDX 53 90 54 91 58 92 61 93 55 94 56 95 59 96 57 97
REMARK H PARENT 15 7 10 24 10 25 22 31 81 50 49 61
REMARK Flexibility Score: inf
ROOT
ATOM      1  C   UNL     1       7.316  -5.556   6.463  1.00  0.00     0.002 C 
ENDROOT
BRANCH   1   2
ATOM      2  C   UNL     1       6.510  -6.516   5.581  1.00  0.00     0.021 C 
BRANCH   2   3
ATOM      3  C   UNL     1       5.017  -6.585   5.898  1.00  0.00     0.116 C 
BRANCH   3   4
ATOM      4  N   UNL     1       4.358  -5.317   5.659  1.00  0.00    -0.351 N 
ATOM      5  C   UNL     1       3.327  -4.959   4.828  1.00  0.00     0.271 C 
ATOM      6  O   UNL     1       3.007  -3.765   4.852  1.00  0.00    -0.267 OA
ATOM      7  H   UNL     1       4.718  -4.572   6.194  1.00  0.00     0.163 HD
BRANCH   5   8
ATOM      8  C   UNL     1       2.643  -5.942   3.970  1.00  0.00     0.149 A 
ATOM      9  C   UNL     1       1.797  -5.601   2.916  1.00  0.00     0.069 A 
ATOM     10  S   UNL     1       1.156  -7.020   2.192  1.00  0.00    -0.096 S 
ATOM     11  C   UNL     1       2.061  -7.981   3.279  1.00  0.00     0.181 A 
ATOM     12  N   UNL     1       2.759  -7.320   4.162  1.00  0.00    -0.215 NA
BRANCH   9  13
ATOM     13  C   UNL     1       1.468  -4.288   2.360  1.00  0.00    -0.002 A 
ATOM     14  C   UNL     1       0.992  -1.655   1.503  1.00  0.00     0.160 A 
ATOM     15  C   UNL     1      -0.040  -2.415   2.074  1.00  0.00     0.051 A 
ATOM     16  C   UNL     1       2.265  -2.212   1.338  1.00  0.00     0.161 A 
ATOM     17  C   UNL     1       0.194  -3.729   2.497  1.00  0.00     0.014 A 
ATOM     18  C   UNL     1       2.481  -3.530   1.758  1.00  0.00     0.060 A 
BRANCH  14  19
ATOM     19  O   UNL     1       0.752  -0.330   1.258  1.00  0.00    -0.493 OA
ATOM     20  C   UNL     1      -0.020  -0.132   0.076  1.00  0.00     0.278 C 
ENDBRANCH  14  19
BRANCH  16  21
ATOM     21  O   UNL     1       3.401  -1.635   0.841  1.00  0.00    -0.493 OA
ATOM     22  C   UNL     1       3.301  -0.377   0.197  1.00  0.00     0.278 C 
ENDBRANCH  16  21
ENDBRANCH   9  13
BRANCH  11  23
ATOM     23  N   UNL     1       2.057  -9.316   3.222  1.00  0.00    -0.375 N 
ATOM     24  H   UNL     1       1.516  -9.777   2.540  1.00  0.00     0.159 HD
ATOM     25  H   UNL     1       2.594  -9.838   3.860  1.00  0.00     0.159 HD
ENDBRANCH  11  23
ENDBRANCH   5   8
ENDBRANCH   3   4
ENDBRANCH   2   3
ENDBRANCH   1   2
BRANCH   1  26
ATOM     26  C   UNL     1       7.192  -5.785   7.973  1.00  0.00     0.002 C 
BRANCH  26  27
ATOM     27  C   UNL     1       7.488  -7.210   8.447  1.00  0.00     0.021 C 
BRANCH  27  28
ATOM     28  C   UNL     1       8.871  -7.734   8.077  1.00  0.00     0.116 C 
BRANCH  28  29
ATOM     29  N   UNL     1       9.938  -6.979   8.713  1.00  0.00    -0.352 N 
ATOM     30  C   UNL     1      10.988  -7.429   9.473  1.00  0.00     0.251 C 
ATOM     31  H   UNL     1       9.903  -6.004   8.579  1.00  0.00     0.163 HD
ATOM     32  O   UNL     1      11.700  -6.633  10.081  1.00  0.00    -0.269 OA
BRANCH  30  33
ATOM     33  C   UNL     1      11.251  -8.879   9.582  1.00  0.00     0.039 A 
ATOM     34  C   UNL     1      11.522  -9.423  10.840  1.00  0.00     0.014 A 
ATOM     35  C   UNL     1      11.231  -9.700   8.451  1.00  0.00     0.014 A 
ATOM     36  C   UNL     1      11.708 -10.800  10.973  1.00  0.00     0.010 A 
ATOM     37  C   UNL     1      11.343 -11.081   8.596  1.00  0.00     0.010 A 
ATOM     38  C   UNL     1      11.583 -11.645   9.858  1.00  0.00    -0.014 A 
BRANCH  38  39
ATOM     39  C   UNL     1      11.690 -13.120   9.996  1.00  0.00     0.031 A 
ATOM     40  C   UNL     1      12.802 -13.868   9.315  1.00  0.00     0.074 A 
ATOM     41  C   UNL     1      10.749 -13.793  10.687  1.00  0.00     0.049 A 
ATOM     42  N   UNL     1      13.028 -15.157   9.271  1.00  0.00    -0.248 NA
ATOM     43  C   UNL     1      13.774 -13.063   8.559  1.00  0.00     0.031 C 
ATOM     44  C   UNL     1       9.594 -13.186  11.352  1.00  0.00     0.029 A 
ATOM     45  N   UNL     1      10.607 -15.136  10.935  1.00  0.00    -0.354 N 
ATOM     46  C   UNL     1      14.157 -15.316   8.478  1.00  0.00     0.074 A 
ATOM     47  C   UNL     1      14.537 -13.999   8.015  1.00  0.00     0.031 C 
ATOM     48  C   UNL     1       8.877 -14.149  11.952  1.00  0.00     0.029 A 
ATOM     49  C   UNL     1       9.495 -15.443  11.682  1.00  0.00     0.049 A 
ATOM     50  H   UNL     1      11.242 -15.814  10.610  1.00  0.00     0.167 HD
ATOM     51  C   UNL     1      14.829 -16.455   8.184  1.00  0.00     0.037 A 
ATOM     52  C   UNL     1       9.023 -16.635  12.094  1.00  0.00     0.037 A 
ATOM     53  C   UNL     1      14.459 -17.761   8.664  1.00  0.00     0.049 A 
ATOM     54  C   UNL     1       9.781 -17.886  11.741  1.00  0.00     0.074 A 
ATOM     55  C   UNL     1      15.109 -18.967   8.472  1.00  0.00     0.029 A 
ATOM     56  N   UNL     1      13.332 -18.031   9.428  1.00  0.00    -0.354 N 
ATOM     57  N   UNL     1      10.890 -18.017  11.053  1.00  0.00    -0.248 NA
ATOM     58  C   UNL     1       9.226 -19.157  12.228  1.00  0.00     0.031 C 
ATOM     59  C   UNL     1      14.348 -19.975   9.073  1.00  0.00     0.029 A 
ATOM     60  C   UNL     1      13.255 -19.390   9.691  1.00  0.00     0.049 A 
ATOM     61  H   UNL     1      12.684 -17.358   9.737  1.00  0.00     0.167 HD
ATOM     62  C   UNL     1      11.180 -19.374  11.050  1.00  0.00     0.074 A 
ATOM     63  C   UNL     1      10.139 -20.025  11.818  1.00  0.00     0.031 C 
ATOM     64  C   UNL     1      12.216 -20.023  10.464  1.00  0.00     0.037 A 
BRANCH  51  65
ATOM     65  C   UNL     1      16.039 -16.340   7.301  1.00  0.00     0.064 A 
ATOM     66  C   UNL     1      17.217 -15.716   7.742  1.00  0.00     0.173 A 
ATOM     67  C   UNL     1      16.036 -16.897   6.013  1.00  0.00     0.173 A 
ATOM     68  F   UNL     1      17.270 -15.159   8.961  1.00  0.00    -0.203 F 
ATOM     69  C   UNL     1      18.334 -15.626   6.915  1.00  0.00     0.198 A 
ATOM     70  C   UNL     1      17.166 -16.834   5.201  1.00  0.00     0.198 A 
ATOM     71  F   UNL     1      14.940 -17.511   5.543  1.00  0.00    -0.203 F 
ATOM     72  F   UNL     1      19.429 -14.981   7.339  1.00  0.00    -0.200 F 
ATOM     73  C   UNL     1      18.311 -16.192   5.649  1.00  0.00     0.200 A 
ATOM     74  F   UNL     1      17.147 -17.395   3.984  1.00  0.00    -0.200 F 
ATOM     75  F   UNL     1      19.390 -16.113   4.858  1.00  0.00    -0.200 F 
ENDBRANCH  51  65
BRANCH  52  76
ATOM     76  C   UNL     1       7.779 -16.701  12.905  1.00  0.00     0.064 A 
ATOM     77  C   UNL     1       7.818 -17.087  14.253  1.00  0.00     0.173 A 
ATOM     78  C   UNL     1       6.528 -16.390  12.353  1.00  0.00     0.173 A 
ATOM     79  F   UNL     1       8.987 -17.415  14.822  1.00  0.00    -0.203 F 
ATOM     80  C   UNL     1       6.652 -17.180  15.010  1.00  0.00     0.198 A 
ATOM     81  C   UNL     1       5.366 -16.453  13.119  1.00  0.00     0.198 A 
ATOM     82  F   UNL     1       6.436 -16.011  11.069  1.00  0.00    -0.203 F 
ATOM     83  F   UNL     1       6.712 -17.599  16.281  1.00  0.00    -0.200 F 
ATOM     84  C   UNL     1       5.428 -16.857  14.444  1.00  0.00     0.200 A 
ATOM     85  F   UNL     1       4.188 -16.125  12.572  1.00  0.00    -0.200 F 
ATOM     86  F   UNL     1       4.306 -16.943  15.173  1.00  0.00    -0.200 F 
ENDBRANCH  52  76
BRANCH  64  87
ATOM     87  C   UNL     1      12.299 -21.510  10.660  1.00  0.00     0.064 A 
ATOM     88  C   UNL     1      11.400 -22.387  10.037  1.00  0.00     0.173 A 
ATOM     89  C   UNL     1      13.321 -22.065  11.446  1.00  0.00     0.173 A 
ATOM     90  F   UNL     1      10.396 -21.907   9.288  1.00  0.00    -0.203 F 
ATOM     91  C   UNL     1      11.505 -23.765  10.215  1.00  0.00     0.198 A 
ATOM     92  C   UNL     1      13.443 -23.443  11.595  1.00  0.00     0.198 A 
ATOM     93  F   UNL     1      14.212 -21.270  12.058  1.00  0.00    -0.203 F 
ATOM     94  F   UNL     1      10.605 -24.582   9.650  1.00  0.00    -0.200 F 
ATOM     95  C   UNL     1      12.531 -24.291  10.986  1.00  0.00     0.200 A 
ATOM     96  F   UNL     1      14.444 -23.951  12.327  1.00  0.00    -0.200 F 
ATOM     97  F   UNL     1      12.636 -25.618  11.147  1.00  0.00    -0.200 F 
ENDBRANCH  64  87
ENDBRANCH  38  39
ENDBRANCH  30  33
ENDBRANCH  28  29
ENDBRANCH  27  28
ENDBRANCH  26  27
ENDBRANCH   1  26
TORSDOF 17
