REMARK SMILES O=C(Cc1cccc(-c2ccn(C(F)F)c(=O)c2)c1)NCCCCCCNC(=O)c1ccc(-c2c3nc(c(-c4c(F)c(F)c(F)c(F)c4F)c4ccc([nH]4)c(-c4c(F)c(F)c(F)c(F)c4F)c4nc(c(-c5c(F)c(F)c(F)c(F)c5F)c5ccc2[nH]5)C=C4)C=C3)cc1
REMARK SMILES IDX 23 1 22 2 21 3 20 4 1 5 2 6 3 8 4 9 5 10 19 11 6 12 8 13
REMARK SMILES IDX 7 14 9 15 10 16 18 17 11 18 16 19 12 20 17 21 13 22 14 23
REMARK SMILES IDX 15 24 24 25 25 26 26 27 27 28 28 29 29 31 30 32 31 33 92 34
REMARK SMILES IDX 32 35 91 36 33 37 34 38 35 39 85 40 36 41 90 42 84 43 86 44
REMARK SMILES IDX 37 45 89 46 83 47 82 48 38 50 70 51 50 52 69 53 51 54 54 55
REMARK SMILES IDX 68 56 87 57 52 58 53 59 67 61 88 62 55 63 39 64 40 65 48 66
REMARK SMILES IDX 41 67 42 68 46 69 49 70 43 71 44 72 47 73 45 74 71 75 72 76
REMARK SMILES IDX 80 77 73 78 74 79 78 80 81 81 75 82 76 83 79 84 77 85 56 86
REMARK SMILES IDX 57 87 65 88 58 89 59 90 63 91 66 92 60 93 61 94 64 95 62 96
REMARK H PARENT 20 7 27 30 86 49 54 60
REMARK Flexibility Score: inf
ROOT
ATOM      1  C   UNL     1       4.151   2.621   2.524  1.00  0.00     0.002 C 
ENDROOT
BRANCH   1   2
ATOM      2  C   UNL     1       2.653   2.288   2.525  1.00  0.00     0.021 C 
BRANCH   2   3
ATOM      3  C   UNL     1       2.076   1.913   1.163  1.00  0.00     0.116 C 
BRANCH   3   4
ATOM      4  N   UNL     1       2.706   0.729   0.614  1.00  0.00    -0.356 N 
ATOM      5  O   UNL     1       0.779  -0.223  -0.200  1.00  0.00    -0.275 OA
ATOM      6  C   UNL     1       2.001  -0.226  -0.092  1.00  0.00     0.224 C 
ATOM      7  H   UNL     1       3.672   0.601   0.750  1.00  0.00     0.163 HD
BRANCH   6   8
ATOM      8  C   UNL     1       2.877  -1.294  -0.731  1.00  0.00     0.135 C 
BRANCH   8   9
ATOM      9  C   UNL     1       3.803  -0.821  -1.836  1.00  0.00    -0.038 A 
ATOM     10  C   UNL     1       4.675  -1.742  -2.434  1.00  0.00     0.004 A 
ATOM     11  C   UNL     1       3.846   0.509  -2.278  1.00  0.00     0.013 A 
ATOM     12  C   UNL     1       5.575  -1.337  -3.425  1.00  0.00     0.001 A 
ATOM     13  C   UNL     1       4.777   0.934  -3.238  1.00  0.00    -0.018 A 
ATOM     14  C   UNL     1       5.636   0.001  -3.819  1.00  0.00     0.009 A 
BRANCH  13  15
ATOM     15  C   UNL     1       4.838   2.372  -3.549  1.00  0.00    -0.011 A 
ATOM     16  C   UNL     1       5.304   3.341  -2.574  1.00  0.00     0.027 A 
ATOM     17  C   UNL     1       4.354   2.803  -4.725  1.00  0.00     0.080 A 
ATOM     18  C   UNL     1       5.194   4.652  -2.813  1.00  0.00     0.095 A 
ATOM     19  C   UNL     1       4.253   4.262  -5.017  1.00  0.00     0.255 A 
ATOM     20  N   UNL     1       4.665   5.114  -4.003  1.00  0.00    -0.258 N 
ATOM     21  O   UNL     1       3.800   4.612  -6.101  1.00  0.00    -0.269 OA
BRANCH  20  22
ATOM     22  C   UNL     1       4.494   6.526  -4.225  1.00  0.00     0.451 C 
ATOM     23  F   UNL     1       5.159   6.938  -5.331  1.00  0.00    -0.185 F 
ATOM     24  F   UNL     1       3.184   6.836  -4.380  1.00  0.00    -0.185 F 
ENDBRANCH  20  22
ENDBRANCH  13  15
ENDBRANCH   8   9
ENDBRANCH   6   8
ENDBRANCH   3   4
ENDBRANCH   2   3
ENDBRANCH   1   2
BRANCH   1  25
ATOM     25  C   UNL     1       4.561   3.819   1.662  1.00  0.00     0.002 C 
BRANCH  25  26
ATOM     26  C   UNL     1       3.886   5.146   2.016  1.00  0.00     0.021 C 
BRANCH  26  27
ATOM     27  C   UNL     1       4.034   5.586   3.470  1.00  0.00     0.116 C 
BRANCH  27  28
ATOM     28  N   UNL     1       5.419   5.815   3.850  1.00  0.00    -0.352 N 
ATOM     29  C   UNL     1       5.984   6.885   4.497  1.00  0.00     0.251 C 
ATOM     30  H   UNL     1       6.045   5.094   3.608  1.00  0.00     0.163 HD
ATOM     31  O   UNL     1       7.207   6.966   4.595  1.00  0.00    -0.269 OA
BRANCH  29  32
ATOM     32  C   UNL     1       5.132   7.962   5.050  1.00  0.00     0.039 A 
ATOM     33  C   UNL     1       5.521   9.291   4.857  1.00  0.00     0.014 A 
ATOM     34  C   UNL     1       3.962   7.673   5.758  1.00  0.00     0.014 A 
ATOM     35  C   UNL     1       4.702  10.327   5.310  1.00  0.00     0.010 A 
ATOM     36  C   UNL     1       3.111   8.707   6.145  1.00  0.00     0.010 A 
ATOM     37  C   UNL     1       3.469  10.044   5.922  1.00  0.00    -0.014 A 
BRANCH  37  38
ATOM     38  C   UNL     1       2.538  11.138   6.302  1.00  0.00     0.031 A 
ATOM     39  C   UNL     1       2.183  11.381   7.742  1.00  0.00     0.074 A 
ATOM     40  C   UNL     1       1.965  11.882   5.335  1.00  0.00     0.049 A 
ATOM     41  N   UNL     1       1.376  12.274   8.256  1.00  0.00    -0.248 NA
ATOM     42  C   UNL     1       2.797  10.485   8.733  1.00  0.00     0.031 C 
ATOM     43  C   UNL     1       2.184  11.710   3.898  1.00  0.00     0.029 A 
ATOM     44  N   UNL     1       1.080  12.928   5.413  1.00  0.00    -0.354 N 
ATOM     45  C   UNL     1       1.377  12.043   9.625  1.00  0.00     0.074 A 
ATOM     46  C   UNL     1       2.221  10.890   9.856  1.00  0.00     0.031 C 
ATOM     47  C   UNL     1       1.480  12.638   3.232  1.00  0.00     0.029 A 
ATOM     48  C   UNL     1       0.731  13.446   4.190  1.00  0.00     0.049 A 
ATOM     49  H   UNL     1       0.729  13.274   6.266  1.00  0.00     0.167 HD
ATOM     50  C   UNL     1       0.751  12.742  10.603  1.00  0.00     0.037 A 
ATOM     51  C   UNL     1      -0.100  14.458   3.875  1.00  0.00     0.037 A 
ATOM     52  C   UNL     1      -0.078  13.898  10.370  1.00  0.00     0.049 A 
ATOM     53  C   UNL     1      -0.793  15.210   4.977  1.00  0.00     0.074 A 
ATOM     54  C   UNL     1      -0.699  14.716  11.297  1.00  0.00     0.029 A 
ATOM     55  N   UNL     1      -0.411  14.392   9.117  1.00  0.00    -0.354 N 
ATOM     56  N   UNL     1      -0.716  15.037   6.274  1.00  0.00    -0.248 NA
ATOM     57  C   UNL     1      -1.685  16.304   4.569  1.00  0.00     0.031 C 
ATOM     58  C   UNL     1      -1.453  15.670  10.605  1.00  0.00     0.029 A 
ATOM     59  C   UNL     1      -1.256  15.484   9.247  1.00  0.00     0.049 A 
ATOM     60  H   UNL     1      -0.094  14.022   8.261  1.00  0.00     0.167 HD
ATOM     61  C   UNL     1      -1.528  16.012   6.838  1.00  0.00     0.074 A 
ATOM     62  C   UNL     1      -2.072  16.786   5.742  1.00  0.00     0.031 C 
ATOM     63  C   UNL     1      -1.797  16.244   8.147  1.00  0.00     0.037 A 
BRANCH  50  64
ATOM     64  C   UNL     1       0.933  12.270  12.018  1.00  0.00     0.064 A 
ATOM     65  C   UNL     1       2.171  12.364  12.674  1.00  0.00     0.173 A 
ATOM     66  C   UNL     1      -0.148  11.736  12.736  1.00  0.00     0.173 A 
ATOM     67  F   UNL     1       3.240  12.858  12.032  1.00  0.00    -0.203 F 
ATOM     68  C   UNL     1       2.328  11.907  13.981  1.00  0.00     0.198 A 
ATOM     69  C   UNL     1       0.004  11.312  14.054  1.00  0.00     0.198 A 
ATOM     70  F   UNL     1      -1.355  11.629  12.162  1.00  0.00    -0.203 F 
ATOM     71  F   UNL     1       3.533  11.953  14.565  1.00  0.00    -0.200 F 
ATOM     72  C   UNL     1       1.244  11.388  14.671  1.00  0.00     0.200 A 
ATOM     73  F   UNL     1      -1.048  10.823  14.725  1.00  0.00    -0.200 F 
ATOM     74  F   UNL     1       1.395  10.951  15.929  1.00  0.00    -0.200 F 
ENDBRANCH  50  64
BRANCH  51  75
ATOM     75  C   UNL     1      -0.292  14.839   2.452  1.00  0.00     0.064 A 
ATOM     76  C   UNL     1       0.215  16.049   1.958  1.00  0.00     0.173 A 
ATOM     77  C   UNL     1      -0.973  14.002   1.555  1.00  0.00     0.173 A 
ATOM     78  F   UNL     1       0.856  16.891   2.782  1.00  0.00    -0.203 F 
ATOM     79  C   UNL     1       0.036  16.415   0.626  1.00  0.00     0.198 A 
ATOM     80  C   UNL     1      -1.126  14.356   0.216  1.00  0.00     0.198 A 
ATOM     81  F   UNL     1      -1.472  12.831   1.976  1.00  0.00    -0.203 F 
ATOM     82  F   UNL     1       0.497  17.595   0.190  1.00  0.00    -0.200 F 
ATOM     83  C   UNL     1      -0.628  15.565  -0.246  1.00  0.00     0.200 A 
ATOM     84  F   UNL     1      -1.754  13.524  -0.626  1.00  0.00    -0.200 F 
ATOM     85  F   UNL     1      -0.791  15.913  -1.529  1.00  0.00    -0.200 F 
ENDBRANCH  51  75
BRANCH  63  86
ATOM     86  C   UNL     1      -2.706  17.397   8.466  1.00  0.00     0.064 A 
ATOM     87  C   UNL     1      -4.077  17.359   8.172  1.00  0.00     0.173 A 
ATOM     88  C   UNL     1      -2.203  18.546   9.096  1.00  0.00     0.173 A 
ATOM     89  F   UNL     1      -4.606  16.291   7.555  1.00  0.00    -0.203 F 
ATOM     90  C   UNL     1      -4.904  18.440   8.468  1.00  0.00     0.198 A 
ATOM     91  C   UNL     1      -3.038  19.611   9.421  1.00  0.00     0.198 A 
ATOM     92  F   UNL     1      -0.900  18.632   9.406  1.00  0.00    -0.203 F 
ATOM     93  F   UNL     1      -6.199  18.403   8.126  1.00  0.00    -0.200 F 
ATOM     94  C   UNL     1      -4.386  19.561   9.098  1.00  0.00     0.200 A 
ATOM     95  F   UNL     1      -2.538  20.687  10.043  1.00  0.00    -0.200 F 
ATOM     96  F   UNL     1      -5.184  20.599   9.386  1.00  0.00    -0.200 F 
ENDBRANCH  63  86
ENDBRANCH  37  38
ENDBRANCH  29  32
ENDBRANCH  27  28
ENDBRANCH  26  27
ENDBRANCH  25  26
ENDBRANCH   1  25
TORSDOF 16
