REMARK SMILES CN(C)Nc1ncnc(Nc2ccc(C(=O)NCCCCCCNC(=O)c3ccc(-c4c5nc(c(-c6c(F)c(F)c(F)c(F)c6F)c6ccc([nH]6)c(-c6c(F)c(F)c(F)c(F)c6F)c6nc(c(-c7c(F)c(F)c(F)c(F)c7F)c7ccc4[nH]7)C=C6)C=C5)cc3)cc2)c1[N+](=O)[O-]
REMARK SMILES IDX 19 1 18 2 17 3 15 4 16 5 14 7 11 8 12 9 91 10 13 11 90 12
REMARK SMILES IDX 10 13 9 15 5 16 6 17 92 18 7 19 8 20 4 21 2 23 1 24 3 25
REMARK SMILES IDX 93 26 94 27 95 28 20 29 21 30 22 31 23 32 24 33 25 34 26 36
REMARK SMILES IDX 27 37 28 38 89 39 29 40 88 41 30 42 31 43 32 44 82 45 33 46
REMARK SMILES IDX 87 47 81 48 83 49 34 50 86 51 80 52 79 53 35 55 67 56 47 57
REMARK SMILES IDX 66 58 48 59 51 60 65 61 84 62 49 63 50 64 64 66 85 67 52 68
REMARK SMILES IDX 36 69 37 70 45 71 38 72 39 73 43 74 46 75 40 76 41 77 44 78
REMARK SMILES IDX 42 79 68 80 69 81 77 82 70 83 71 84 75 85 78 86 72 87 73 88
REMARK SMILES IDX 76 89 74 90 53 91 54 92 62 93 55 94 56 95 60 96 63 97 57 98
REMARK SMILES IDX 58 99 61 100 59 101
REMARK H PARENT 17 6 10 14 4 22 24 35 83 54 51 65
REMARK Flexibility Score: inf
ROOT
ATOM      1  C   UNL     1       6.010   4.278   7.906  1.00  0.00     0.021 C 
ENDROOT
BRANCH   1   2
ATOM      2  C   UNL     1       6.502   4.961   6.628  1.00  0.00     0.116 C 
BRANCH   2   3
ATOM      3  N   UNL     1       7.810   4.445   6.277  1.00  0.00    -0.352 N 
ATOM      4  C   UNL     1       8.237   3.549   5.333  1.00  0.00     0.251 C 
ATOM      5  O   UNL     1       9.434   3.264   5.322  1.00  0.00    -0.269 OA
ATOM      6  H   UNL     1       8.539   4.813   6.828  1.00  0.00     0.163 HD
BRANCH   4   7
ATOM      7  C   UNL     1       7.347   2.977   4.287  1.00  0.00     0.039 A 
ATOM      8  C   UNL     1       5.796   2.096   2.100  1.00  0.00     0.040 A 
ATOM      9  C   UNL     1       7.179   2.211   1.978  1.00  0.00     0.027 A 
ATOM     10  C   UNL     1       5.214   2.304   3.356  1.00  0.00     0.027 A 
ATOM     11  C   UNL     1       7.944   2.672   3.054  1.00  0.00     0.016 A 
ATOM     12  C   UNL     1       5.987   2.715   4.449  1.00  0.00     0.016 A 
BRANCH   8  13
ATOM     13  N   UNL     1       5.033   1.663   0.999  1.00  0.00    -0.334 N 
ATOM     14  H   UNL     1       5.348   0.864   0.519  1.00  0.00     0.168 HD
BRANCH  13  15
ATOM     15  C   UNL     1       3.855   2.277   0.526  1.00  0.00     0.215 A 
ATOM     16  C   UNL     1       1.799   2.300  -0.665  1.00  0.00     0.225 A 
ATOM     17  N   UNL     1       1.588   3.582  -0.295  1.00  0.00    -0.212 NA
ATOM     18  C   UNL     1       2.978   1.656  -0.350  1.00  0.00     0.354 A 
ATOM     19  C   UNL     1       2.519   4.151   0.471  1.00  0.00     0.227 A 
ATOM     20  N   UNL     1       3.615   3.545   0.932  1.00  0.00    -0.212 NA
BRANCH  16  21
ATOM     21  N   UNL     1       0.665   1.726  -1.247  1.00  0.00    -0.298 N 
ATOM     22  H   UNL     1       0.128   2.291  -1.849  1.00  0.00     0.184 HD
BRANCH  21  23
ATOM     23  N   UNL     1       0.229   0.393  -1.038  1.00  0.00    -0.228 NA
ATOM     24  C   UNL     1       0.133   0.072   0.397  1.00  0.00     0.130 C 
ATOM     25  C   UNL     1      -1.125   0.288  -1.614  1.00  0.00     0.130 C 
ENDBRANCH  21  23
ENDBRANCH  16  21
BRANCH  18  26
ATOM     26  N   UNL     1       3.313   0.392  -0.932  1.00  0.00     0.070 N 
ATOM     27  O   UNL     1       3.658  -0.512  -0.153  1.00  0.00    -0.258 OA
ATOM     28  O   UNL     1       3.354   0.319  -2.167  1.00  0.00    -0.258 OA
ENDBRANCH  18  26
ENDBRANCH  13  15
ENDBRANCH   8  13
ENDBRANCH   4   7
ENDBRANCH   2   3
ENDBRANCH   1   2
BRANCH   1  29
ATOM     29  C   UNL     1       6.689   4.820   9.173  1.00  0.00     0.002 C 
BRANCH  29  30
ATOM     30  C   UNL     1       6.396   6.295   9.475  1.00  0.00     0.002 C 
BRANCH  30  31
ATOM     31  C   UNL     1       4.910   6.645   9.583  1.00  0.00     0.021 C 
BRANCH  31  32
ATOM     32  C   UNL     1       4.177   5.902  10.694  1.00  0.00     0.116 C 
BRANCH  32  33
ATOM     33  N   UNL     1       4.671   6.278  12.009  1.00  0.00    -0.352 N 
ATOM     34  C   UNL     1       3.984   6.788  13.081  1.00  0.00     0.251 C 
ATOM     35  H   UNL     1       5.637   6.148  12.150  1.00  0.00     0.163 HD
ATOM     36  O   UNL     1       4.586   7.273  14.032  1.00  0.00    -0.269 OA
BRANCH  34  37
ATOM     37  C   UNL     1       2.507   6.762  13.080  1.00  0.00     0.039 A 
ATOM     38  C   UNL     1       1.808   7.896  13.497  1.00  0.00     0.014 A 
ATOM     39  C   UNL     1       1.816   5.613  12.682  1.00  0.00     0.014 A 
ATOM     40  C   UNL     1       0.413   7.897  13.468  1.00  0.00     0.010 A 
ATOM     41  C   UNL     1       0.428   5.640  12.584  1.00  0.00     0.010 A 
ATOM     42  C   UNL     1      -0.287   6.779  12.983  1.00  0.00    -0.014 A 
BRANCH  42  43
ATOM     43  C   UNL     1      -1.768   6.780  12.894  1.00  0.00     0.031 A 
ATOM     44  C   UNL     1      -2.574   5.823  13.726  1.00  0.00     0.074 A 
ATOM     45  C   UNL     1      -2.381   7.599  12.018  1.00  0.00     0.049 A 
ATOM     46  N   UNL     1      -3.867   5.621  13.738  1.00  0.00    -0.248 NA
ATOM     47  C   UNL     1      -1.823   4.956  14.648  1.00  0.00     0.031 C 
ATOM     48  C   UNL     1      -1.703   8.537  11.122  1.00  0.00     0.029 A 
ATOM     49  N   UNL     1      -3.712   7.764  11.728  1.00  0.00    -0.354 N 
ATOM     50  C   UNL     1      -4.082   4.603  14.658  1.00  0.00     0.074 A 
ATOM     51  C   UNL     1      -2.782   4.185  15.138  1.00  0.00     0.031 C 
ATOM     52  C   UNL     1      -2.622   9.192  10.395  1.00  0.00     0.029 A 
ATOM     53  C   UNL     1      -3.949   8.694  10.745  1.00  0.00     0.049 A 
ATOM     54  H   UNL     1      -4.428   7.263  12.181  1.00  0.00     0.167 HD
ATOM     55  C   UNL     1      -5.258   4.082  15.082  1.00  0.00     0.037 A 
ATOM     56  C   UNL     1      -5.106   9.092  10.184  1.00  0.00     0.037 A 
ATOM     57  C   UNL     1      -6.548   4.513  14.613  1.00  0.00     0.049 A 
ATOM     58  C   UNL     1      -6.399   8.492  10.666  1.00  0.00     0.074 A 
ATOM     59  C   UNL     1      -7.801   4.084  15.014  1.00  0.00     0.029 A 
ATOM     60  N   UNL     1      -6.750   5.474  13.632  1.00  0.00    -0.354 N 
ATOM     61  N   UNL     1      -6.594   7.575  11.582  1.00  0.00    -0.248 NA
ATOM     62  C   UNL     1      -7.633   8.989  10.043  1.00  0.00     0.031 C 
ATOM     63  C   UNL     1      -8.759   4.750  14.243  1.00  0.00     0.029 A 
ATOM     64  C   UNL     1      -8.107   5.635  13.400  1.00  0.00     0.049 A 
ATOM     65  H   UNL     1      -6.035   5.968  13.170  1.00  0.00     0.167 HD
ATOM     66  C   UNL     1      -7.970   7.404  11.665  1.00  0.00     0.074 A 
ATOM     67  C   UNL     1      -8.561   8.325  10.716  1.00  0.00     0.031 C 
ATOM     68  C   UNL     1      -8.679   6.560  12.454  1.00  0.00     0.037 A 
BRANCH  55  69
ATOM     69  C   UNL     1      -5.199   2.989  16.111  1.00  0.00     0.064 A 
ATOM     70  C   UNL     1      -4.784   3.239  17.428  1.00  0.00     0.173 A 
ATOM     71  C   UNL     1      -5.590   1.681  15.786  1.00  0.00     0.173 A 
ATOM     72  F   UNL     1      -4.389   4.469  17.789  1.00  0.00    -0.203 F 
ATOM     73  C   UNL     1      -4.729   2.215  18.371  1.00  0.00     0.198 A 
ATOM     74  C   UNL     1      -5.566   0.666  16.740  1.00  0.00     0.198 A 
ATOM     75  F   UNL     1      -6.002   1.386  14.543  1.00  0.00    -0.203 F 
ATOM     76  F   UNL     1      -4.275   2.468  19.606  1.00  0.00    -0.200 F 
ATOM     77  C   UNL     1      -5.126   0.932  18.028  1.00  0.00     0.200 A 
ATOM     78  F   UNL     1      -5.963  -0.570  16.411  1.00  0.00    -0.200 F 
ATOM     79  F   UNL     1      -5.078  -0.051  18.937  1.00  0.00    -0.200 F 
ENDBRANCH  55  69
BRANCH  56  80
ATOM     80  C   UNL     1      -5.093  10.127   9.117  1.00  0.00     0.064 A 
ATOM     81  C   UNL     1      -5.608  11.409   9.349  1.00  0.00     0.173 A 
ATOM     82  C   UNL     1      -4.564   9.856   7.846  1.00  0.00     0.173 A 
ATOM     83  F   UNL     1      -6.142  11.710  10.542  1.00  0.00    -0.203 F 
ATOM     84  C   UNL     1      -5.613  12.376   8.345  1.00  0.00     0.198 A 
ATOM     85  C   UNL     1      -4.542  10.832   6.853  1.00  0.00     0.198 A 
ATOM     86  F   UNL     1      -4.052   8.646   7.575  1.00  0.00    -0.203 F 
ATOM     87  F   UNL     1      -6.153  13.579   8.580  1.00  0.00    -0.200 F 
ATOM     88  C   UNL     1      -5.074  12.088   7.100  1.00  0.00     0.200 A 
ATOM     89  F   UNL     1      -4.005  10.555   5.656  1.00  0.00    -0.200 F 
ATOM     90  F   UNL     1      -5.074  13.020   6.136  1.00  0.00    -0.200 F 
ENDBRANCH  56  80
BRANCH  68  91
ATOM     91  C   UNL     1     -10.176   6.616  12.350  1.00  0.00     0.064 A 
ATOM     92  C   UNL     1     -10.855   6.130  11.224  1.00  0.00     0.173 A 
ATOM     93  C   UNL     1     -10.941   7.127  13.410  1.00  0.00     0.173 A 
ATOM     94  F   UNL     1     -10.168   5.645  10.178  1.00  0.00    -0.203 F 
ATOM     95  C   UNL     1     -12.245   6.177  11.151  1.00  0.00     0.198 A 
ATOM     96  C   UNL     1     -12.332   7.144  13.347  1.00  0.00     0.198 A 
ATOM     97  F   UNL     1     -10.341   7.598  14.513  1.00  0.00    -0.203 F 
ATOM     98  F   UNL     1     -12.870   5.752  10.045  1.00  0.00    -0.200 F 
ATOM     99  C   UNL     1     -12.982   6.676  12.215  1.00  0.00     0.200 A 
ATOM    100  F   UNL     1     -13.042   7.612  14.382  1.00  0.00    -0.200 F 
ATOM    101  F   UNL     1     -14.320   6.713  12.146  1.00  0.00    -0.200 F 
ENDBRANCH  68  91
ENDBRANCH  42  43
ENDBRANCH  34  37
ENDBRANCH  32  33
ENDBRANCH  31  32
ENDBRANCH  30  31
ENDBRANCH  29  30
ENDBRANCH   1  29
TORSDOF 18
