REMARK SMILES CC(C)N1C(=O)c2ccccc2N2C(=O)CC[C@]21C(=O)NCCCCCCNC(=O)c1ccc(-c2c3nc(c(-c4c(F)c(F)c(F)c(F)c4F)c4ccc([nH]4)c(-c4c(F)c(F)c(F)c(F)c4F)c4nc(c(-c5c(F)c(F)c(F)c(F)c5F)c5ccc2[nH]5)C=C4)C=C3)cc1
REMARK SMILES IDX 25 1 24 2 23 3 22 4 21 5 19 6 20 7 18 9 4 10 5 11 7 12 6 13
REMARK SMILES IDX 13 14 17 15 8 16 12 17 14 18 16 19 9 20 11 21 15 22 10 23
REMARK SMILES IDX 2 24 1 25 3 26 26 27 27 28 28 29 29 30 30 32 31 33 32 34
REMARK SMILES IDX 93 35 33 36 92 37 34 38 35 39 36 40 86 41 37 42 91 43 85 44
REMARK SMILES IDX 87 45 38 46 90 47 84 48 83 49 39 51 71 52 51 53 70 54 52 55
REMARK SMILES IDX 55 56 69 57 88 58 53 59 54 60 68 62 89 63 56 64 40 65 41 66
REMARK SMILES IDX 49 67 42 68 43 69 47 70 50 71 44 72 45 73 48 74 46 75 72 76
REMARK SMILES IDX 73 77 81 78 74 79 75 80 79 81 82 82 76 83 77 84 80 85 78 86
REMARK SMILES IDX 57 87 58 88 66 89 59 90 60 91 64 92 67 93 61 94 62 95 65 96
REMARK SMILES IDX 63 97
REMARK H PARENT 21 8 28 31 87 50 55 61
REMARK Flexibility Score: inf
ROOT
ATOM      1  C   UNL     1      -1.806   4.099   6.012  1.00  0.00     0.002 C 
ENDROOT
BRANCH   1   2
ATOM      2  C   UNL     1      -1.686   4.578   4.561  1.00  0.00     0.002 C 
BRANCH   2   3
ATOM      3  C   UNL     1      -0.772   3.760   3.641  1.00  0.00     0.021 C 
BRANCH   3   4
ATOM      4  C   UNL     1      -1.071   2.267   3.568  1.00  0.00     0.116 C 
BRANCH   4   5
ATOM      5  N   UNL     1      -2.375   1.966   3.018  1.00  0.00    -0.352 N 
ATOM      6  C   UNL     1      -2.750   1.035   2.087  1.00  0.00     0.267 C 
ATOM      7  O   UNL     1      -3.962   0.799   2.026  1.00  0.00    -0.270 OA
ATOM      8  H   UNL     1      -3.109   2.519   3.370  1.00  0.00     0.163 HD
BRANCH   6   9
ATOM      9  C   UNL     1      -1.683   0.237   1.200  1.00  0.00     0.203 C 
ATOM     10  N   UNL     1      -0.888   1.206   0.417  1.00  0.00    -0.304 N 
ATOM     11  C   UNL     1      -1.569   1.882  -0.607  1.00  0.00     0.258 C 
ATOM     12  C   UNL     1      -2.763   1.210  -1.188  1.00  0.00     0.064 A 
ATOM     13  O   UNL     1      -1.186   2.935  -1.106  1.00  0.00    -0.269 OA
ATOM     14  N   UNL     1      -2.379  -0.658   0.292  1.00  0.00    -0.279 N 
ATOM     15  C   UNL     1      -0.936  -0.723   2.148  1.00  0.00     0.072 C 
ATOM     16  C   UNL     1      -3.467   1.836  -2.226  1.00  0.00     0.016 A 
ATOM     17  C   UNL     1      -3.071  -0.102  -0.805  1.00  0.00     0.059 A 
ATOM     18  C   UNL     1      -2.414  -1.974   0.727  1.00  0.00     0.229 C 
ATOM     19  C   UNL     1      -1.650  -2.061   2.018  1.00  0.00     0.105 C 
ATOM     20  C   UNL     1      -4.481   1.150  -2.892  1.00  0.00     0.001 A 
ATOM     21  C   UNL     1      -4.075  -0.787  -1.496  1.00  0.00     0.027 A 
ATOM     22  O   UNL     1      -2.936  -2.939   0.204  1.00  0.00    -0.274 OA
ATOM     23  C   UNL     1      -4.778  -0.162  -2.532  1.00  0.00     0.002 A 
BRANCH  10  24
ATOM     24  C   UNL     1       0.593   1.181   0.404  1.00  0.00     0.082 C 
ATOM     25  C   UNL     1       1.107   0.056  -0.504  1.00  0.00     0.031 C 
ATOM     26  C   UNL     1       1.277   2.495   0.003  1.00  0.00     0.031 C 
ENDBRANCH  10  24
ENDBRANCH   6   9
ENDBRANCH   4   5
ENDBRANCH   3   4
ENDBRANCH   2   3
ENDBRANCH   1   2
BRANCH   1  27
ATOM     27  C   UNL     1      -0.492   3.869   6.759  1.00  0.00     0.021 C 
BRANCH  27  28
ATOM     28  C   UNL     1       0.464   5.055   6.795  1.00  0.00     0.116 C 
BRANCH  28  29
ATOM     29  N   UNL     1      -0.034   6.179   7.573  1.00  0.00    -0.352 N 
ATOM     30  C   UNL     1       0.604   6.906   8.553  1.00  0.00     0.251 C 
ATOM     31  H   UNL     1      -0.956   6.458   7.371  1.00  0.00     0.163 HD
ATOM     32  O   UNL     1       0.002   7.767   9.185  1.00  0.00    -0.269 OA
BRANCH  30  33
ATOM     33  C   UNL     1       2.017   6.606   8.879  1.00  0.00     0.039 A 
ATOM     34  C   UNL     1       2.969   6.471   7.867  1.00  0.00     0.014 A 
ATOM     35  C   UNL     1       2.375   6.400  10.215  1.00  0.00     0.014 A 
ATOM     36  C   UNL     1       4.224   5.952   8.171  1.00  0.00     0.010 A 
ATOM     37  C   UNL     1       3.663   5.953  10.526  1.00  0.00     0.010 A 
ATOM     38  C   UNL     1       4.577   5.665   9.500  1.00  0.00    -0.014 A 
BRANCH  38  39
ATOM     39  C   UNL     1       5.887   5.024   9.786  1.00  0.00     0.031 A 
ATOM     40  C   UNL     1       5.952   3.617  10.321  1.00  0.00     0.074 A 
ATOM     41  C   UNL     1       7.025   5.683   9.496  1.00  0.00     0.049 A 
ATOM     42  N   UNL     1       7.003   2.884  10.596  1.00  0.00    -0.248 NA
ATOM     43  C   UNL     1       4.671   2.942  10.584  1.00  0.00     0.031 C 
ATOM     44  C   UNL     1       7.095   7.042   8.959  1.00  0.00     0.029 A 
ATOM     45  N   UNL     1       8.337   5.290   9.583  1.00  0.00    -0.354 N 
ATOM     46  C   UNL     1       6.512   1.678  11.078  1.00  0.00     0.074 A 
ATOM     47  C   UNL     1       5.069   1.780  11.084  1.00  0.00     0.031 C 
ATOM     48  C   UNL     1       8.377   7.350   8.714  1.00  0.00     0.029 A 
ATOM     49  C   UNL     1       9.223   6.234   9.126  1.00  0.00     0.049 A 
ATOM     50  H   UNL     1       8.616   4.415   9.939  1.00  0.00     0.167 HD
ATOM     51  C   UNL     1       7.202   0.579  11.466  1.00  0.00     0.037 A 
ATOM     52  C   UNL     1      10.567   6.207   9.052  1.00  0.00     0.037 A 
ATOM     53  C   UNL     1       8.636   0.462  11.432  1.00  0.00     0.049 A 
ATOM     54  C   UNL     1      11.308   4.989   9.522  1.00  0.00     0.074 A 
ATOM     55  C   UNL     1       9.422  -0.624  11.781  1.00  0.00     0.029 A 
ATOM     56  N   UNL     1       9.501   1.466  11.023  1.00  0.00    -0.354 N 
ATOM     57  N   UNL     1      10.830   3.855   9.973  1.00  0.00    -0.248 NA
ATOM     58  C   UNL     1      12.776   5.051   9.485  1.00  0.00     0.031 C 
ATOM     59  C   UNL     1      10.763  -0.265  11.615  1.00  0.00     0.029 A 
ATOM     60  C   UNL     1      10.812   1.031  11.127  1.00  0.00     0.049 A 
ATOM     61  H   UNL     1       9.224   2.356  10.705  1.00  0.00     0.167 HD
ATOM     62  C   UNL     1      11.934   3.069  10.270  1.00  0.00     0.074 A 
ATOM     63  C   UNL     1      13.107   3.845   9.926  1.00  0.00     0.031 C 
ATOM     64  C   UNL     1      11.969   1.817  10.788  1.00  0.00     0.037 A 
BRANCH  51  65
ATOM     65  C   UNL     1       6.419  -0.599  11.968  1.00  0.00     0.064 A 
ATOM     66  C   UNL     1       5.708  -1.432  11.093  1.00  0.00     0.173 A 
ATOM     67  C   UNL     1       6.439  -0.938  13.329  1.00  0.00     0.173 A 
ATOM     68  F   UNL     1       5.649  -1.144   9.784  1.00  0.00    -0.203 F 
ATOM     69  C   UNL     1       5.035  -2.557  11.565  1.00  0.00     0.198 A 
ATOM     70  C   UNL     1       5.784  -2.075  13.794  1.00  0.00     0.198 A 
ATOM     71  F   UNL     1       7.110  -0.175  14.206  1.00  0.00    -0.203 F 
ATOM     72  F   UNL     1       4.338  -3.324  10.715  1.00  0.00    -0.200 F 
ATOM     73  C   UNL     1       5.081  -2.882  12.913  1.00  0.00     0.200 A 
ATOM     74  F   UNL     1       5.838  -2.393  15.095  1.00  0.00    -0.200 F 
ATOM     75  F   UNL     1       4.443  -3.971  13.362  1.00  0.00    -0.200 F 
ENDBRANCH  51  65
BRANCH  52  76
ATOM     76  C   UNL     1      11.290   7.380   8.500  1.00  0.00     0.064 A 
ATOM     77  C   UNL     1      11.908   7.316   7.244  1.00  0.00     0.173 A 
ATOM     78  C   UNL     1      11.347   8.595   9.198  1.00  0.00     0.173 A 
ATOM     79  F   UNL     1      11.896   6.168   6.550  1.00  0.00    -0.203 F 
ATOM     80  C   UNL     1      12.557   8.425   6.707  1.00  0.00     0.198 A 
ATOM     81  C   UNL     1      11.975   9.710   8.649  1.00  0.00     0.198 A 
ATOM     82  F   UNL     1      10.768   8.704  10.402  1.00  0.00    -0.203 F 
ATOM     83  F   UNL     1      13.161   8.332   5.514  1.00  0.00    -0.200 F 
ATOM     84  C   UNL     1      12.582   9.623   7.405  1.00  0.00     0.200 A 
ATOM     85  F   UNL     1      11.983  10.869   9.320  1.00  0.00    -0.200 F 
ATOM     86  F   UNL     1      13.193  10.694   6.880  1.00  0.00    -0.200 F 
ENDBRANCH  52  76
BRANCH  64  87
ATOM     87  C   UNL     1      13.318   1.204  11.017  1.00  0.00     0.064 A 
ATOM     88  C   UNL     1      14.123   1.602  12.094  1.00  0.00     0.173 A 
ATOM     89  C   UNL     1      13.780   0.168  10.193  1.00  0.00     0.173 A 
ATOM     90  F   UNL     1      13.728   2.598  12.900  1.00  0.00    -0.203 F 
ATOM     91  C   UNL     1      15.352   0.991  12.330  1.00  0.00     0.198 A 
ATOM     92  C   UNL     1      14.999  -0.456  10.446  1.00  0.00     0.198 A 
ATOM     93  F   UNL     1      13.042  -0.251   9.155  1.00  0.00    -0.203 F 
ATOM     94  F   UNL     1      16.120   1.406  13.346  1.00  0.00    -0.200 F 
ATOM     95  C   UNL     1      15.784  -0.042  11.511  1.00  0.00     0.200 A 
ATOM     96  F   UNL     1      15.411  -1.461   9.661  1.00  0.00    -0.200 F 
ATOM     97  F   UNL     1      16.962  -0.637  11.747  1.00  0.00    -0.200 F 
ENDBRANCH  64  87
ENDBRANCH  38  39
ENDBRANCH  30  33
ENDBRANCH  28  29
ENDBRANCH  27  28
ENDBRANCH   1  27
TORSDOF 14
