REMARK SMILES O=C(C[C@H]1C(=O)NCC[N@@H+]1Cc1ccc(Cl)c(F)c1)NCCCCCCNC(=O)c1ccc(-c2c3nc(c(-c4c(F)c(F)c(F)c(F)c4F)c4ccc([nH]4)c(-c4c(F)c(F)c(F)c(F)c4F)c4nc(c(-c5c(F)c(F)c(F)c(F)c5F)c5ccc2[nH]5)C=C4)C=C3)cc1
REMARK SMILES IDX 23 1 22 2 21 3 20 4 1 5 2 6 3 8 4 9 5 10 10 11 6 12 7 13
REMARK SMILES IDX 9 14 8 16 11 18 12 19 13 20 19 21 14 22 17 23 15 24 18 25
REMARK SMILES IDX 16 26 24 27 25 28 26 29 27 30 28 31 29 33 30 34 31 35 92 36
REMARK SMILES IDX 32 37 91 38 33 39 34 40 35 41 85 42 36 43 90 44 84 45 86 46
REMARK SMILES IDX 37 47 89 48 83 49 82 50 38 52 70 53 50 54 69 55 51 56 54 57
REMARK SMILES IDX 68 58 87 59 52 60 53 61 67 63 88 64 55 65 39 66 40 67 48 68
REMARK SMILES IDX 41 69 42 70 46 71 49 72 43 73 44 74 47 75 45 76 71 77 72 78
REMARK SMILES IDX 80 79 73 80 74 81 78 82 81 83 75 84 76 85 79 86 77 87 56 88
REMARK SMILES IDX 57 89 65 90 58 91 59 92 63 93 66 94 60 95 61 96 64 97 62 98
REMARK H PARENT 20 7 10 15 7 17 27 32 86 51 54 62
REMARK Flexibility Score: inf
ROOT
ATOM      1  C   UNL     1       7.079   5.082   3.165  1.00  0.00     0.002 C 
ENDROOT
BRANCH   1   2
ATOM      2  C   UNL     1       7.855   3.762   3.277  1.00  0.00     0.021 C 
BRANCH   2   3
ATOM      3  C   UNL     1       7.053   2.500   2.953  1.00  0.00     0.116 C 
BRANCH   3   4
ATOM      4  N   UNL     1       6.554   2.496   1.591  1.00  0.00    -0.356 N 
ATOM      5  O   UNL     1       6.292   0.225   1.414  1.00  0.00    -0.275 OA
ATOM      6  C   UNL     1       6.109   1.351   0.968  1.00  0.00     0.226 C 
ATOM      7  H   UNL     1       6.532   3.345   1.093  1.00  0.00     0.163 HD
BRANCH   6   8
ATOM      8  C   UNL     1       5.345   1.610  -0.322  1.00  0.00     0.175 C 
BRANCH   8   9
ATOM      9  C   UNL     1       3.832   1.890  -0.144  1.00  0.00     0.283 C 
ATOM     10  C   UNL     1       3.374   1.673   1.308  1.00  0.00     0.279 C 
ATOM     11  N   UNL     1       3.434   3.237  -0.667  1.00  0.00    -0.319 N 
ATOM     12  O   UNL     1       3.027   0.574   1.736  1.00  0.00    -0.268 OA
ATOM     13  N   UNL     1       3.415   2.754   2.143  1.00  0.00    -0.345 N 
ATOM     14  C   UNL     1       3.890   4.318   0.207  1.00  0.00     0.284 C 
ATOM     15  H   UNL     1       3.934   3.335  -1.550  1.00  0.00     0.349 HD
ATOM     16  C   UNL     1       3.674   4.108   1.714  1.00  0.00     0.177 C 
ATOM     17  H   UNL     1       3.257   2.599   3.103  1.00  0.00     0.163 HD
BRANCH  11  18
ATOM     18  C   UNL     1       2.018   3.363  -1.074  1.00  0.00     0.299 C 
BRANCH  18  19
ATOM     19  C   UNL     1       0.971   3.251   0.014  1.00  0.00     0.009 A 
ATOM     20  C   UNL     1       0.376   2.013   0.300  1.00  0.00     0.011 A 
ATOM     21  C   UNL     1       0.646   4.351   0.822  1.00  0.00     0.050 A 
ATOM     22  C   UNL     1      -0.431   1.852   1.431  1.00  0.00     0.024 A 
ATOM     23  C   UNL     1      -0.127   4.177   1.968  1.00  0.00     0.142 A 
ATOM     24  C   UNL     1      -0.653   2.929   2.286  1.00  0.00     0.076 A 
ATOM     25  F   UNL     1      -0.296   5.225   2.789  1.00  0.00    -0.205 F 
ATOM     26  Cl  UNL     1      -1.542   2.695   3.740  1.00  0.00    -0.081 Cl
ENDBRANCH  18  19
ENDBRANCH  11  18
ENDBRANCH   8   9
ENDBRANCH   6   8
ENDBRANCH   3   4
ENDBRANCH   2   3
ENDBRANCH   1   2
BRANCH   1  27
ATOM     27  C   UNL     1       5.945   5.270   4.181  1.00  0.00     0.002 C 
BRANCH  27  28
ATOM     28  C   UNL     1       6.365   5.370   5.638  1.00  0.00     0.021 C 
BRANCH  28  29
ATOM     29  C   UNL     1       7.404   6.436   5.929  1.00  0.00     0.116 C 
BRANCH  29  30
ATOM     30  N   UNL     1       6.930   7.786   5.662  1.00  0.00    -0.352 N 
ATOM     31  C   UNL     1       7.039   8.901   6.457  1.00  0.00     0.251 C 
ATOM     32  H   UNL     1       6.472   7.917   4.800  1.00  0.00     0.163 HD
ATOM     33  O   UNL     1       6.469   9.944   6.152  1.00  0.00    -0.269 OA
BRANCH  31  34
ATOM     34  C   UNL     1       7.825   8.822   7.707  1.00  0.00     0.039 A 
ATOM     35  C   UNL     1       7.292   9.356   8.881  1.00  0.00     0.014 A 
ATOM     36  C   UNL     1       9.071   8.188   7.723  1.00  0.00     0.014 A 
ATOM     37  C   UNL     1       7.985   9.201  10.084  1.00  0.00     0.010 A 
ATOM     38  C   UNL     1       9.707   7.946   8.934  1.00  0.00     0.010 A 
ATOM     39  C   UNL     1       9.183   8.468  10.125  1.00  0.00    -0.014 A 
BRANCH  39  40
ATOM     40  C   UNL     1       9.934   8.280  11.392  1.00  0.00     0.031 A 
ATOM     41  C   UNL     1      11.327   8.839  11.518  1.00  0.00     0.074 A 
ATOM     42  C   UNL     1       9.394   7.573  12.403  1.00  0.00     0.049 A 
ATOM     43  N   UNL     1      12.184   8.720  12.499  1.00  0.00    -0.248 NA
ATOM     44  C   UNL     1      11.836   9.612  10.372  1.00  0.00     0.031 C 
ATOM     45  C   UNL     1       8.074   6.939  12.386  1.00  0.00     0.029 A 
ATOM     46  N   UNL     1       9.896   7.258  13.641  1.00  0.00    -0.354 N 
ATOM     47  C   UNL     1      13.326   9.394  12.087  1.00  0.00     0.074 A 
ATOM     48  C   UNL     1      13.085   9.855  10.738  1.00  0.00     0.031 C 
ATOM     49  C   UNL     1       7.864   6.330  13.564  1.00  0.00     0.029 A 
ATOM     50  C   UNL     1       9.045   6.496  14.405  1.00  0.00     0.049 A 
ATOM     51  H   UNL     1      10.783   7.551  13.953  1.00  0.00     0.167 HD
ATOM     52  C   UNL     1      14.461   9.642  12.782  1.00  0.00     0.037 A 
ATOM     53  C   UNL     1       9.207   5.984  15.640  1.00  0.00     0.037 A 
ATOM     54  C   UNL     1      14.692   9.202  14.132  1.00  0.00     0.049 A 
ATOM     55  C   UNL     1      10.485   6.267  16.387  1.00  0.00     0.074 A 
ATOM     56  C   UNL     1      15.802   9.412  14.931  1.00  0.00     0.029 A 
ATOM     57  N   UNL     1      13.789   8.468  14.885  1.00  0.00    -0.354 N 
ATOM     58  N   UNL     1      11.538   6.948  16.003  1.00  0.00    -0.248 NA
ATOM     59  C   UNL     1      10.590   5.724  17.749  1.00  0.00     0.031 C 
ATOM     60  C   UNL     1      15.585   8.776  16.156  1.00  0.00     0.029 A 
ATOM     61  C   UNL     1      14.317   8.218  16.141  1.00  0.00     0.049 A 
ATOM     62  H   UNL     1      12.903   8.169  14.574  1.00  0.00     0.167 HD
ATOM     63  C   UNL     1      12.406   6.953  17.087  1.00  0.00     0.074 A 
ATOM     64  C   UNL     1      11.752   6.218  18.149  1.00  0.00     0.031 C 
ATOM     65  C   UNL     1      13.636   7.513  17.195  1.00  0.00     0.037 A 
BRANCH  52  66
ATOM     66  C   UNL     1      15.528  10.451  12.104  1.00  0.00     0.064 A 
ATOM     67  C   UNL     1      15.349  11.817  11.835  1.00  0.00     0.173 A 
ATOM     68  C   UNL     1      16.759   9.872  11.761  1.00  0.00     0.173 A 
ATOM     69  F   UNL     1      14.184  12.416  12.129  1.00  0.00    -0.203 F 
ATOM     70  C   UNL     1      16.352  12.568  11.229  1.00  0.00     0.198 A 
ATOM     71  C   UNL     1      17.772  10.633  11.184  1.00  0.00     0.198 A 
ATOM     72  F   UNL     1      16.984   8.571  11.997  1.00  0.00    -0.203 F 
ATOM     73  F   UNL     1      16.139  13.859  10.941  1.00  0.00    -0.200 F 
ATOM     74  C   UNL     1      17.566  11.978  10.913  1.00  0.00     0.200 A 
ATOM     75  F   UNL     1      18.950  10.066  10.890  1.00  0.00    -0.200 F 
ATOM     76  F   UNL     1      18.536  12.704  10.341  1.00  0.00    -0.200 F 
ENDBRANCH  52  66
BRANCH  53  77
ATOM     77  C   UNL     1       8.134   5.163  16.263  1.00  0.00     0.064 A 
ATOM     78  C   UNL     1       7.441   5.615  17.396  1.00  0.00     0.173 A 
ATOM     79  C   UNL     1       7.812   3.890  15.771  1.00  0.00     0.173 A 
ATOM     80  F   UNL     1       7.724   6.818  17.918  1.00  0.00    -0.203 F 
ATOM     81  C   UNL     1       6.502   4.810  18.037  1.00  0.00     0.198 A 
ATOM     82  C   UNL     1       6.846   3.099  16.392  1.00  0.00     0.198 A 
ATOM     83  F   UNL     1       8.437   3.411  14.685  1.00  0.00    -0.203 F 
ATOM     84  F   UNL     1       5.909   5.239  19.160  1.00  0.00    -0.200 F 
ATOM     85  C   UNL     1       6.203   3.553  17.533  1.00  0.00     0.200 A 
ATOM     86  F   UNL     1       6.549   1.892  15.892  1.00  0.00    -0.200 F 
ATOM     87  F   UNL     1       5.307   2.775  18.155  1.00  0.00    -0.200 F 
ENDBRANCH  53  77
BRANCH  65  88
ATOM     88  C   UNL     1      14.322   7.420  18.528  1.00  0.00     0.064 A 
ATOM     89  C   UNL     1      14.823   6.207  19.023  1.00  0.00     0.173 A 
ATOM     90  C   UNL     1      14.508   8.574  19.305  1.00  0.00     0.173 A 
ATOM     91  F   UNL     1      14.661   5.073  18.325  1.00  0.00    -0.203 F 
ATOM     92  C   UNL     1      15.451   6.147  20.265  1.00  0.00     0.198 A 
ATOM     93  C   UNL     1      15.168   8.516  20.529  1.00  0.00     0.198 A 
ATOM     94  F   UNL     1      14.059   9.761  18.872  1.00  0.00    -0.203 F 
ATOM     95  F   UNL     1      15.869   4.968  20.745  1.00  0.00    -0.200 F 
ATOM     96  C   UNL     1      15.629   7.301  21.013  1.00  0.00     0.200 A 
ATOM     97  F   UNL     1      15.354   9.636  21.242  1.00  0.00    -0.200 F 
ATOM     98  F   UNL     1      16.238   7.242  22.205  1.00  0.00    -0.200 F 
ENDBRANCH  65  88
ENDBRANCH  39  40
ENDBRANCH  31  34
ENDBRANCH  29  30
ENDBRANCH  28  29
ENDBRANCH  27  28
ENDBRANCH   1  27
TORSDOF 16
