REMARK SMILES O=C(CS[C@H](C(=O)Nc1ccc(C(F)(F)F)cc1)c1ccccc1)NCCCCCCNC(=O)c1ccc(-c2c3nc(c(-c4c(F)c(F)c(F)c(F)c4F)c4ccc([nH]4)c(-c4c(F)c(F)c(F)c(F)c4F)c4nc(c(-c5c(F)c(F)c(F)c(F)c5F)c5ccc2[nH]5)C=C4)C=C3)cc1
REMARK SMILES IDX 27 1 26 2 25 3 1 4 2 5 3 7 4 8 5 9 19 10 20 11 24 12 21 13
REMARK SMILES IDX 23 14 22 15 6 16 7 17 8 18 9 20 10 21 18 22 11 23 17 24
REMARK SMILES IDX 12 25 13 26 14 27 15 28 16 29 28 30 29 31 30 32 31 33 32 34
REMARK SMILES IDX 33 35 34 37 35 38 36 39 97 40 37 41 96 42 38 43 39 44 40 45
REMARK SMILES IDX 90 46 41 47 95 48 89 49 91 50 42 51 94 52 88 53 87 54 43 56
REMARK SMILES IDX 75 57 55 58 74 59 56 60 59 61 73 62 92 63 57 64 58 65 72 67
REMARK SMILES IDX 93 68 60 69 44 70 45 71 53 72 46 73 47 74 51 75 54 76 48 77
REMARK SMILES IDX 49 78 52 79 50 80 76 81 77 82 85 83 78 84 79 85 83 86 86 87
REMARK SMILES IDX 80 88 81 89 84 90 82 91 61 92 62 93 70 94 63 95 64 96 68 97
REMARK SMILES IDX 71 98 65 99 66 100 69 101 67 102
REMARK H PARENT 25 6 8 19 32 36 91 55 59 66
REMARK Flexibility Score: inf
ROOT
ATOM      1  C   UNL     1       0.303  -1.408   1.798  1.00  0.00     0.021 C 
ENDROOT
BRANCH   1   2
ATOM      2  C   UNL     1      -0.327  -0.014   1.761  1.00  0.00     0.116 C 
BRANCH   2   3
ATOM      3  N   UNL     1       0.132   0.793   0.656  1.00  0.00    -0.355 N 
ATOM      4  O   UNL     1      -1.254   2.582   1.095  1.00  0.00    -0.274 OA
ATOM      5  C   UNL     1      -0.380   2.061   0.412  1.00  0.00     0.230 C 
ATOM      6  H   UNL     1       0.826   0.434   0.057  1.00  0.00     0.163 HD
BRANCH   5   7
ATOM      7  C   UNL     1       0.179   2.672  -0.851  1.00  0.00     0.170 C 
BRANCH   7   8
ATOM      8  S   UNL     1       1.027   4.260  -0.701  1.00  0.00    -0.134 SA
BRANCH   8   9
ATOM      9  C   UNL     1       2.668   3.858   0.048  1.00  0.00     0.166 C 
BRANCH   9  10
ATOM     10  C   UNL     1       2.409   3.735   1.558  1.00  0.00    -0.026 A 
ATOM     11  C   UNL     1       2.054   4.870   2.312  1.00  0.00     0.005 A 
ATOM     12  C   UNL     1       2.313   2.493   2.182  1.00  0.00     0.005 A 
ATOM     13  C   UNL     1       1.527   4.747   3.602  1.00  0.00     0.000 A 
ATOM     14  C   UNL     1       1.789   2.376   3.472  1.00  0.00     0.000 A 
ATOM     15  C   UNL     1       1.370   3.494   4.173  1.00  0.00     0.000 A 
ENDBRANCH   9  10
BRANCH   9  16
ATOM     16  C   UNL     1       3.596   2.751  -0.555  1.00  0.00     0.242 C 
ATOM     17  O   UNL     1       4.540   2.320   0.135  1.00  0.00    -0.273 OA
ATOM     18  N   UNL     1       3.517   2.126  -1.768  1.00  0.00    -0.325 N 
ATOM     19  H   UNL     1       4.155   1.383  -1.867  1.00  0.00     0.169 HD
BRANCH  18  20
ATOM     20  C   UNL     1       2.718   2.323  -2.895  1.00  0.00     0.041 A 
ATOM     21  C   UNL     1       2.111   1.189  -3.449  1.00  0.00     0.027 A 
ATOM     22  C   UNL     1       2.398   3.584  -3.378  1.00  0.00     0.027 A 
ATOM     23  C   UNL     1       0.983   1.343  -4.258  1.00  0.00     0.015 A 
ATOM     24  C   UNL     1       1.286   3.739  -4.210  1.00  0.00     0.015 A 
ATOM     25  C   UNL     1       0.511   2.627  -4.571  1.00  0.00     0.056 A 
BRANCH  25  26
ATOM     26  C   UNL     1      -0.854   2.804  -5.194  1.00  0.00     0.416 C 
ATOM     27  F   UNL     1      -0.899   2.415  -6.495  1.00  0.00    -0.166 F 
ATOM     28  F   UNL     1      -1.803   2.068  -4.547  1.00  0.00    -0.166 F 
ATOM     29  F   UNL     1      -1.303   4.089  -5.161  1.00  0.00    -0.166 F 
ENDBRANCH  25  26
ENDBRANCH  18  20
ENDBRANCH   9  16
ENDBRANCH   8   9
ENDBRANCH   7   8
ENDBRANCH   5   7
ENDBRANCH   2   3
ENDBRANCH   1   2
BRANCH   1  30
ATOM     30  C   UNL     1       1.836  -1.529   1.765  1.00  0.00     0.002 C 
BRANCH  30  31
ATOM     31  C   UNL     1       2.674  -1.047   2.952  1.00  0.00     0.002 C 
BRANCH  31  32
ATOM     32  C   UNL     1       2.061  -1.170   4.341  1.00  0.00     0.021 C 
BRANCH  32  33
ATOM     33  C   UNL     1       2.123  -2.580   4.887  1.00  0.00     0.116 C 
BRANCH  33  34
ATOM     34  N   UNL     1       3.491  -2.962   5.211  1.00  0.00    -0.352 N 
ATOM     35  C   UNL     1       3.986  -3.508   6.368  1.00  0.00     0.251 C 
ATOM     36  H   UNL     1       4.154  -2.806   4.500  1.00  0.00     0.163 HD
ATOM     37  O   UNL     1       5.193  -3.561   6.564  1.00  0.00    -0.269 OA
BRANCH  35  38
ATOM     38  C   UNL     1       3.045  -4.025   7.381  1.00  0.00     0.039 A 
ATOM     39  C   UNL     1       3.329  -3.835   8.735  1.00  0.00     0.014 A 
ATOM     40  C   UNL     1       1.890  -4.707   6.990  1.00  0.00     0.014 A 
ATOM     41  C   UNL     1       2.437  -4.313   9.694  1.00  0.00     0.010 A 
ATOM     42  C   UNL     1       0.950  -5.075   7.937  1.00  0.00     0.010 A 
ATOM     43  C   UNL     1       1.235  -4.922   9.299  1.00  0.00    -0.014 A 
BRANCH  43  44
ATOM     44  C   UNL     1       0.296  -5.492  10.291  1.00  0.00     0.031 A 
ATOM     45  C   UNL     1       0.024  -6.972  10.276  1.00  0.00     0.074 A 
ATOM     46  C   UNL     1      -0.334  -4.679  11.157  1.00  0.00     0.049 A 
ATOM     47  N   UNL     1      -0.815  -7.669  10.998  1.00  0.00    -0.248 NA
ATOM     48  C   UNL     1       0.764  -7.774   9.285  1.00  0.00     0.031 C 
ATOM     49  C   UNL     1      -0.185  -3.223  11.215  1.00  0.00     0.029 A 
ATOM     50  N   UNL     1      -1.234  -4.961  12.151  1.00  0.00    -0.354 N 
ATOM     51  C   UNL     1      -0.706  -8.977  10.541  1.00  0.00     0.074 A 
ATOM     52  C   UNL     1       0.208  -8.966   9.424  1.00  0.00     0.031 C 
ATOM     53  C   UNL     1      -0.944  -2.743  12.213  1.00  0.00     0.029 A 
ATOM     54  C   UNL     1      -1.659  -3.851  12.838  1.00  0.00     0.049 A 
ATOM     55  H   UNL     1      -1.546  -5.873  12.354  1.00  0.00     0.167 HD
ATOM     56  C   UNL     1      -1.284 -10.095  11.039  1.00  0.00     0.037 A 
ATOM     57  C   UNL     1      -2.531  -3.749  13.858  1.00  0.00     0.037 A 
ATOM     58  C   UNL     1      -2.170 -10.094  12.171  1.00  0.00     0.049 A 
ATOM     59  C   UNL     1      -3.153  -5.010  14.399  1.00  0.00     0.074 A 
ATOM     60  C   UNL     1      -2.800 -11.163  12.780  1.00  0.00     0.029 A 
ATOM     61  N   UNL     1      -2.543  -8.954  12.872  1.00  0.00    -0.354 N 
ATOM     62  N   UNL     1      -3.003  -6.249  13.994  1.00  0.00    -0.248 NA
ATOM     63  C   UNL     1      -4.051  -4.860  15.551  1.00  0.00     0.031 C 
ATOM     64  C   UNL     1      -3.581 -10.667  13.829  1.00  0.00     0.029 A 
ATOM     65  C   UNL     1      -3.395  -9.296  13.908  1.00  0.00     0.049 A 
ATOM     66  H   UNL     1      -2.245  -8.040  12.663  1.00  0.00     0.167 HD
ATOM     67  C   UNL     1      -3.756  -7.028  14.862  1.00  0.00     0.074 A 
ATOM     68  C   UNL     1      -4.345  -6.122  15.826  1.00  0.00     0.031 C 
ATOM     69  C   UNL     1      -3.947  -8.371  14.864  1.00  0.00     0.037 A 
BRANCH  56  70
ATOM     70  C   UNL     1      -0.951 -11.402  10.378  1.00  0.00     0.064 A 
ATOM     71  C   UNL     1       0.338 -11.954  10.454  1.00  0.00     0.173 A 
ATOM     72  C   UNL     1      -1.930 -12.123   9.679  1.00  0.00     0.173 A 
ATOM     73  F   UNL     1       1.317 -11.298  11.095  1.00  0.00    -0.203 F 
ATOM     74  C   UNL     1       0.642 -13.161   9.829  1.00  0.00     0.198 A 
ATOM     75  C   UNL     1      -1.631 -13.348   9.085  1.00  0.00     0.198 A 
ATOM     76  F   UNL     1      -3.178 -11.644   9.573  1.00  0.00    -0.203 F 
ATOM     77  F   UNL     1       1.895 -13.636   9.868  1.00  0.00    -0.200 F 
ATOM     78  C   UNL     1      -0.344 -13.861   9.153  1.00  0.00     0.200 A 
ATOM     79  F   UNL     1      -2.588 -14.029   8.440  1.00  0.00    -0.200 F 
ATOM     80  F   UNL     1      -0.053 -15.026   8.558  1.00  0.00    -0.200 F 
ENDBRANCH  56  70
BRANCH  57  81
ATOM     81  C   UNL     1      -2.842  -2.421  14.451  1.00  0.00     0.064 A 
ATOM     82  C   UNL     1      -2.456  -2.105  15.761  1.00  0.00     0.173 A 
ATOM     83  C   UNL     1      -3.550  -1.448  13.730  1.00  0.00     0.173 A 
ATOM     84  F   UNL     1      -1.788  -3.005  16.498  1.00  0.00    -0.203 F 
ATOM     85  C   UNL     1      -2.800  -0.884  16.340  1.00  0.00     0.198 A 
ATOM     86  C   UNL     1      -3.863  -0.215  14.298  1.00  0.00     0.198 A 
ATOM     87  F   UNL     1      -3.933  -1.693  12.468  1.00  0.00    -0.203 F 
ATOM     88  F   UNL     1      -2.472  -0.635  17.616  1.00  0.00    -0.200 F 
ATOM     89  C   UNL     1      -3.500   0.061  15.607  1.00  0.00     0.200 A 
ATOM     90  F   UNL     1      -4.524   0.703  13.579  1.00  0.00    -0.200 F 
ATOM     91  F   UNL     1      -3.834   1.232  16.165  1.00  0.00    -0.200 F 
ENDBRANCH  57  81
BRANCH  69  92
ATOM     92  C   UNL     1      -4.780  -8.939  15.975  1.00  0.00     0.064 A 
ATOM     93  C   UNL     1      -6.163  -8.725  16.048  1.00  0.00     0.173 A 
ATOM     94  C   UNL     1      -4.182  -9.732  16.967  1.00  0.00     0.173 A 
ATOM     95  F   UNL     1      -6.778  -7.964  15.130  1.00  0.00    -0.203 F 
ATOM     96  C   UNL     1      -6.913  -9.251  17.096  1.00  0.00     0.198 A 
ATOM     97  C   UNL     1      -4.941 -10.287  17.993  1.00  0.00     0.198 A 
ATOM     98  F   UNL     1      -2.863  -9.976  16.936  1.00  0.00    -0.203 F 
ATOM     99  F   UNL     1      -8.223  -8.982  17.180  1.00  0.00    -0.200 F 
ATOM    100  C   UNL     1      -6.303 -10.037  18.063  1.00  0.00     0.200 A 
ATOM    101  F   UNL     1      -4.353 -11.060  18.916  1.00  0.00    -0.200 F 
ATOM    102  F   UNL     1      -7.027 -10.545  19.069  1.00  0.00    -0.200 F 
ENDBRANCH  69  92
ENDBRANCH  43  44
ENDBRANCH  35  38
ENDBRANCH  33  34
ENDBRANCH  32  33
ENDBRANCH  31  32
ENDBRANCH  30  31
ENDBRANCH   1  30
TORSDOF 19
