REMARK SMILES C[C@@]1(C(=O)NCCCCCCNC(=O)c2ccc(-c3c4nc(c(-c5c(F)c(F)c(F)c(F)c5F)c5ccc([nH]5)c(-c5c(F)c(F)c(F)c(F)c5F)c5nc(c(-c6c(F)c(F)c(F)c(F)c6F)c6ccc3[nH]6)C=C5)C=C4)cc2)COC[C@H]1NC(=O)C[C@@H]1C[NH2+]CCO1
REMARK SMILES IDX 8 1 7 2 6 3 5 4 3 5 4 6 2 8 1 9 78 10 81 11 79 12 80 13
REMARK SMILES IDX 82 14 83 15 84 17 85 18 86 19 87 20 91 21 88 22 90 23 89 24
REMARK SMILES IDX 9 27 10 28 11 29 12 30 13 31 14 33 15 34 16 35 77 36 17 37
REMARK SMILES IDX 76 38 18 39 19 40 20 41 70 42 21 43 75 44 69 45 71 46 22 47
REMARK SMILES IDX 74 48 68 49 67 50 23 52 55 53 35 54 54 55 36 56 39 57 53 58
REMARK SMILES IDX 72 59 37 60 38 61 52 63 73 64 40 65 24 66 25 67 33 68 26 69
REMARK SMILES IDX 27 70 31 71 34 72 28 73 29 74 32 75 30 76 56 77 57 78 65 79
REMARK SMILES IDX 58 80 59 81 63 82 66 83 60 84 61 85 64 86 62 87 41 88 42 89
REMARK SMILES IDX 50 90 43 91 44 92 48 93 51 94 45 95 46 96 49 97 47 98
REMARK H PARENT 5 7 82 16 88 25 88 26 12 32 71 51 39 62
REMARK Flexibility Score: inf
ROOT
ATOM      1  C   UNL     1      -2.839   4.236  -2.572  1.00  0.00     0.002 C 
ENDROOT
BRANCH   1   2
ATOM      2  C   UNL     1      -1.630   4.417  -1.647  1.00  0.00     0.021 C 
BRANCH   2   3
ATOM      3  C   UNL     1      -1.759   3.767  -0.269  1.00  0.00     0.116 C 
BRANCH   3   4
ATOM      4  N   UNL     1      -1.723   2.321  -0.321  1.00  0.00    -0.355 N 
ATOM      5  C   UNL     1      -0.826   1.388   0.085  1.00  0.00     0.230 C 
ATOM      6  O   UNL     1      -1.243   0.224   0.031  1.00  0.00    -0.274 OA
ATOM      7  H   UNL     1      -2.522   1.930  -0.743  1.00  0.00     0.163 HD
BRANCH   5   8
ATOM      8  C   UNL     1       0.596   1.687   0.614  1.00  0.00     0.092 C 
ATOM      9  C   UNL     1       1.317   0.324   0.753  1.00  0.00     0.026 C 
ATOM     10  C   UNL     1       0.491   2.330   1.994  1.00  0.00     0.179 C 
ATOM     11  C   UNL     1       1.397   2.699  -0.229  1.00  0.00     0.125 C 
ATOM     12  O   UNL     1       0.760   3.727   1.850  1.00  0.00    -0.378 OA
ATOM     13  C   UNL     1       1.597   3.899   0.706  1.00  0.00     0.186 C 
BRANCH  11  14
ATOM     14  N   UNL     1       2.704   2.229  -0.702  1.00  0.00    -0.350 N 
ATOM     15  C   UNL     1       3.228   2.090  -1.947  1.00  0.00     0.223 C 
ATOM     16  H   UNL     1       3.318   1.965   0.021  1.00  0.00     0.163 HD
ATOM     17  O   UNL     1       4.421   1.785  -2.025  1.00  0.00    -0.275 OA
BRANCH  15  18
ATOM     18  C   UNL     1       2.413   2.355  -3.194  1.00  0.00     0.138 C 
BRANCH  18  19
ATOM     19  C   UNL     1       1.602   1.165  -3.725  1.00  0.00     0.182 C 
ATOM     20  C   UNL     1       0.105   1.302  -3.383  1.00  0.00     0.293 C 
ATOM     21  O   UNL     1       2.132  -0.073  -3.235  1.00  0.00    -0.366 OA
ATOM     22  N   UNL     1      -0.710   0.161  -3.827  1.00  0.00    -0.342 N 
ATOM     23  C   UNL     1       1.367  -1.198  -3.688  1.00  0.00     0.222 C 
ATOM     24  C   UNL     1      -0.106  -1.069  -3.278  1.00  0.00     0.289 C 
ATOM     25  H   UNL     1      -0.720   0.118  -4.846  1.00  0.00     0.346 HD
ATOM     26  H   UNL     1      -1.671   0.262  -3.498  1.00  0.00     0.346 HD
ENDBRANCH  18  19
ENDBRANCH  15  18
ENDBRANCH  11  14
ENDBRANCH   5   8
ENDBRANCH   3   4
ENDBRANCH   2   3
ENDBRANCH   1   2
BRANCH   1  27
ATOM     27  C   UNL     1      -4.183   4.721  -2.018  1.00  0.00     0.002 C 
BRANCH  27  28
ATOM     28  C   UNL     1      -4.186   6.124  -1.405  1.00  0.00     0.021 C 
BRANCH  28  29
ATOM     29  C   UNL     1      -3.745   7.244  -2.341  1.00  0.00     0.116 C 
BRANCH  29  30
ATOM     30  N   UNL     1      -4.695   7.470  -3.414  1.00  0.00    -0.352 N 
ATOM     31  C   UNL     1      -5.290   8.637  -3.815  1.00  0.00     0.251 C 
ATOM     32  H   UNL     1      -4.949   6.669  -3.927  1.00  0.00     0.163 HD
ATOM     33  O   UNL     1      -6.212   8.605  -4.631  1.00  0.00    -0.269 OA
BRANCH  31  34
ATOM     34  C   UNL     1      -4.844   9.941  -3.275  1.00  0.00     0.039 A 
ATOM     35  C   UNL     1      -5.811  10.898  -2.948  1.00  0.00     0.014 A 
ATOM     36  C   UNL     1      -3.486  10.252  -3.149  1.00  0.00     0.014 A 
ATOM     37  C   UNL     1      -5.420  12.153  -2.476  1.00  0.00     0.010 A 
ATOM     38  C   UNL     1      -3.098  11.483  -2.621  1.00  0.00     0.010 A 
ATOM     39  C   UNL     1      -4.060  12.454  -2.302  1.00  0.00    -0.014 A 
BRANCH  39  40
ATOM     40  C   UNL     1      -3.627  13.800  -1.851  1.00  0.00     0.031 A 
ATOM     41  C   UNL     1      -2.883  14.702  -2.798  1.00  0.00     0.074 A 
ATOM     42  C   UNL     1      -3.867  14.200  -0.588  1.00  0.00     0.049 A 
ATOM     43  N   UNL     1      -2.371  15.889  -2.585  1.00  0.00    -0.248 NA
ATOM     44  C   UNL     1      -2.661  14.190  -4.159  1.00  0.00     0.031 C 
ATOM     45  C   UNL     1      -4.545  13.405   0.436  1.00  0.00     0.029 A 
ATOM     46  N   UNL     1      -3.558  15.374   0.052  1.00  0.00    -0.354 N 
ATOM     47  C   UNL     1      -1.752  16.252  -3.774  1.00  0.00     0.074 A 
ATOM     48  C   UNL     1      -1.912  15.144  -4.691  1.00  0.00     0.031 C 
ATOM     49  C   UNL     1      -4.616  14.120   1.571  1.00  0.00     0.029 A 
ATOM     50  C   UNL     1      -3.968  15.412   1.362  1.00  0.00     0.049 A 
ATOM     51  H   UNL     1      -3.088  16.119  -0.388  1.00  0.00     0.167 HD
ATOM     52  C   UNL     1      -1.126  17.413  -4.082  1.00  0.00     0.037 A 
ATOM     53  C   UNL     1      -3.834  16.381   2.288  1.00  0.00     0.037 A 
ATOM     54  C   UNL     1      -1.003  18.531  -3.185  1.00  0.00     0.049 A 
ATOM     55  C   UNL     1      -3.162  17.673   1.910  1.00  0.00     0.074 A 
ATOM     56  C   UNL     1      -0.432  19.770  -3.419  1.00  0.00     0.029 A 
ATOM     57  N   UNL     1      -1.469  18.546  -1.879  1.00  0.00    -0.354 N 
ATOM     58  N   UNL     1      -2.628  18.025   0.766  1.00  0.00    -0.248 NA
ATOM     59  C   UNL     1      -3.085  18.709   2.951  1.00  0.00     0.031 C 
ATOM     60  C   UNL     1      -0.527  20.525  -2.245  1.00  0.00     0.029 A 
ATOM     61  C   UNL     1      -1.192  19.770  -1.292  1.00  0.00     0.049 A 
ATOM     62  H   UNL     1      -1.928  17.797  -1.434  1.00  0.00     0.167 HD
ATOM     63  C   UNL     1      -2.182  19.329   0.938  1.00  0.00     0.074 A 
ATOM     64  C   UNL     1      -2.517  19.710   2.294  1.00  0.00     0.031 C 
ATOM     65  C   UNL     1      -1.551  20.138   0.052  1.00  0.00     0.037 A 
BRANCH  52  66
ATOM     66  C   UNL     1      -0.530  17.536  -5.454  1.00  0.00     0.064 A 
ATOM     67  C   UNL     1      -1.336  17.670  -6.595  1.00  0.00     0.173 A 
ATOM     68  C   UNL     1       0.862  17.552  -5.627  1.00  0.00     0.173 A 
ATOM     69  F   UNL     1      -2.672  17.647  -6.484  1.00  0.00    -0.203 F 
ATOM     70  C   UNL     1      -0.770  17.788  -7.862  1.00  0.00     0.198 A 
ATOM     71  C   UNL     1       1.425  17.697  -6.893  1.00  0.00     0.198 A 
ATOM     72  F   UNL     1       1.677  17.431  -4.569  1.00  0.00    -0.203 F 
ATOM     73  F   UNL     1      -1.560  17.867  -8.942  1.00  0.00    -0.200 F 
ATOM     74  C   UNL     1       0.609  17.808  -8.009  1.00  0.00     0.200 A 
ATOM     75  F   UNL     1       2.757  17.727  -7.033  1.00  0.00    -0.200 F 
ATOM     76  F   UNL     1       1.152  17.926  -9.228  1.00  0.00    -0.200 F 
ENDBRANCH  52  66
BRANCH  53  77
ATOM     77  C   UNL     1      -4.382  16.182   3.654  1.00  0.00     0.064 A 
ATOM     78  C   UNL     1      -5.514  16.888   4.083  1.00  0.00     0.173 A 
ATOM     79  C   UNL     1      -3.784  15.293   4.558  1.00  0.00     0.173 A 
ATOM     80  F   UNL     1      -6.107  17.765   3.260  1.00  0.00    -0.203 F 
ATOM     81  C   UNL     1      -6.016  16.728   5.373  1.00  0.00     0.198 A 
ATOM     82  C   UNL     1      -4.301  15.115   5.839  1.00  0.00     0.198 A 
ATOM     83  F   UNL     1      -2.701  14.591   4.193  1.00  0.00    -0.203 F 
ATOM     84  F   UNL     1      -7.073  17.448   5.772  1.00  0.00    -0.200 F 
ATOM     85  C   UNL     1      -5.412  15.838   6.248  1.00  0.00     0.200 A 
ATOM     86  F   UNL     1      -3.722  14.246   6.679  1.00  0.00    -0.200 F 
ATOM     87  F   UNL     1      -5.895  15.684   7.488  1.00  0.00    -0.200 F 
ENDBRANCH  53  77
BRANCH  65  88
ATOM     88  C   UNL     1      -1.223  21.529   0.505  1.00  0.00     0.064 A 
ATOM     89  C   UNL     1      -0.184  21.782   1.411  1.00  0.00     0.173 A 
ATOM     90  C   UNL     1      -1.935  22.625  -0.006  1.00  0.00     0.173 A 
ATOM     91  F   UNL     1       0.514  20.765   1.938  1.00  0.00    -0.203 F 
ATOM     92  C   UNL     1       0.116  23.082   1.809  1.00  0.00     0.198 A 
ATOM     93  C   UNL     1      -1.615  23.925   0.374  1.00  0.00     0.198 A 
ATOM     94  F   UNL     1      -2.934  22.435  -0.881  1.00  0.00    -0.203 F 
ATOM     95  F   UNL     1       1.085  23.299   2.709  1.00  0.00    -0.200 F 
ATOM     96  C   UNL     1      -0.595  24.153   1.285  1.00  0.00     0.200 A 
ATOM     97  F   UNL     1      -2.296  24.959  -0.141  1.00  0.00    -0.200 F 
ATOM     98  F   UNL     1      -0.301  25.404   1.665  1.00  0.00    -0.200 F 
ENDBRANCH  65  88
ENDBRANCH  39  40
ENDBRANCH  31  34
ENDBRANCH  29  30
ENDBRANCH  28  29
ENDBRANCH  27  28
ENDBRANCH   1  27
TORSDOF 16
