REMARK SMILES CC(C)[C@H](NC(=O)OCc1ccccc1)C(=O)NCC(=O)NCCCCCCNC(=O)c1ccc(-c2c3nc(c(-c4c(F)c(F)c(F)c(F)c4F)c4ccc([nH]4)c(-c4c(F)c(F)c(F)c(F)c4F)c4nc(c(-c5c(F)c(F)c(F)c(F)c5F)c5ccc2[nH]5)C=C4)C=C3)cc1
REMARK SMILES IDX 23 1 22 2 20 3 21 4 19 6 18 7 16 8 17 9 4 11 2 12 1 13 3 14
REMARK SMILES IDX 5 15 6 16 7 18 8 19 9 20 10 21 11 22 15 23 12 24 14 25 13 26
REMARK SMILES IDX 24 27 25 28 26 29 27 30 28 31 29 32 30 33 31 35 32 36 33 37
REMARK SMILES IDX 94 38 34 39 93 40 35 41 36 42 37 43 87 44 38 45 92 46 86 47
REMARK SMILES IDX 88 48 39 49 91 50 85 51 84 52 40 54 72 55 52 56 71 57 53 58
REMARK SMILES IDX 56 59 70 60 89 61 54 62 55 63 69 65 90 66 57 67 41 68 42 69
REMARK SMILES IDX 50 70 43 71 44 72 48 73 51 74 45 75 46 76 49 77 47 78 73 79
REMARK SMILES IDX 74 80 82 81 75 82 76 83 80 84 83 85 77 86 78 87 81 88 79 89
REMARK SMILES IDX 58 90 59 91 67 92 60 93 61 94 65 95 68 96 62 97 63 98 66 99
REMARK SMILES IDX 64 100
REMARK H PARENT 22 5 18 10 5 17 29 34 88 53 56 64
REMARK Flexibility Score: inf
ROOT
ATOM      1  C   UNL     1       1.610  -3.682   1.148  1.00  0.00     0.116 C 
ENDROOT
BRANCH   1   2
ATOM      2  N   UNL     1       1.764  -4.586   0.030  1.00  0.00    -0.355 N 
ATOM      3  C   UNL     1       0.949  -4.860  -1.021  1.00  0.00     0.239 C 
ATOM      4  O   UNL     1       1.370  -5.653  -1.868  1.00  0.00    -0.273 OA
ATOM      5  H   UNL     1       2.608  -5.093   0.032  1.00  0.00     0.163 HD
BRANCH   3   6
ATOM      6  C   UNL     1      -0.333  -4.062  -1.288  1.00  0.00     0.216 C 
BRANCH   6   7
ATOM      7  N   UNL     1      -1.192  -3.745  -0.160  1.00  0.00    -0.345 N 
ATOM      8  C   UNL     1      -1.609  -2.569   0.386  1.00  0.00     0.243 C 
ATOM      9  O   UNL     1      -2.482  -2.657   1.258  1.00  0.00    -0.273 OA
ATOM     10  H   UNL     1      -1.544  -4.540   0.303  1.00  0.00     0.164 HD
BRANCH   8  11
ATOM     11  C   UNL     1      -1.138  -1.169  -0.098  1.00  0.00     0.177 C 
BRANCH  11  12
ATOM     12  C   UNL     1      -1.966  -0.592  -1.274  1.00  0.00     0.015 C 
ATOM     13  C   UNL     1      -2.221  -1.565  -2.427  1.00  0.00     0.010 C 
ATOM     14  C   UNL     1      -3.300  -0.029  -0.779  1.00  0.00     0.010 C 
ENDBRANCH  11  12
BRANCH  11  15
ATOM     15  N   UNL     1       0.298  -1.050  -0.360  1.00  0.00    -0.309 N 
ATOM     16  C   UNL     1       1.092   0.027  -0.091  1.00  0.00     0.408 C 
ATOM     17  H   UNL     1       0.736  -1.828  -0.774  1.00  0.00     0.167 HD
ATOM     18  O   UNL     1       2.266   0.026  -0.426  1.00  0.00    -0.225 OA
BRANCH  16  19
ATOM     19  O   UNL     1       0.460   1.023   0.574  1.00  0.00    -0.445 OA
BRANCH  19  20
ATOM     20  C   UNL     1       1.221   2.230   0.757  1.00  0.00     0.270 C 
BRANCH  20  21
ATOM     21  C   UNL     1       1.948   2.323   2.083  1.00  0.00    -0.011 A 
ATOM     22  C   UNL     1       2.447   1.196   2.749  1.00  0.00     0.007 A 
ATOM     23  C   UNL     1       2.221   3.590   2.626  1.00  0.00     0.007 A 
ATOM     24  C   UNL     1       3.180   1.329   3.932  1.00  0.00     0.000 A 
ATOM     25  C   UNL     1       2.953   3.723   3.809  1.00  0.00     0.000 A 
ATOM     26  C   UNL     1       3.432   2.591   4.463  1.00  0.00     0.000 A 
ENDBRANCH  20  21
ENDBRANCH  19  20
ENDBRANCH  16  19
ENDBRANCH  11  15
ENDBRANCH   8  11
ENDBRANCH   6   7
ENDBRANCH   3   6
ENDBRANCH   1   2
BRANCH   1  27
ATOM     27  C   UNL     1       1.691  -4.420   2.477  1.00  0.00     0.021 C 
BRANCH  27  28
ATOM     28  C   UNL     1       3.096  -4.924   2.806  1.00  0.00     0.002 C 
BRANCH  28  29
ATOM     29  C   UNL     1       4.180  -3.840   2.789  1.00  0.00     0.002 C 
BRANCH  29  30
ATOM     30  C   UNL     1       3.887  -2.625   3.673  1.00  0.00     0.021 C 
BRANCH  30  31
ATOM     31  C   UNL     1       3.584  -2.959   5.129  1.00  0.00     0.116 C 
BRANCH  31  32
ATOM     32  N   UNL     1       4.645  -3.746   5.732  1.00  0.00    -0.352 N 
ATOM     33  C   UNL     1       5.331  -3.551   6.898  1.00  0.00     0.251 C 
ATOM     34  H   UNL     1       4.911  -4.544   5.222  1.00  0.00     0.163 HD
ATOM     35  O   UNL     1       6.343  -4.208   7.126  1.00  0.00    -0.269 OA
BRANCH  33  36
ATOM     36  C   UNL     1       4.869  -2.549   7.879  1.00  0.00     0.039 A 
ATOM     37  C   UNL     1       5.832  -1.800   8.558  1.00  0.00     0.014 A 
ATOM     38  C   UNL     1       3.512  -2.373   8.167  1.00  0.00     0.014 A 
ATOM     39  C   UNL     1       5.433  -0.859   9.504  1.00  0.00     0.010 A 
ATOM     40  C   UNL     1       3.110  -1.371   9.046  1.00  0.00     0.010 A 
ATOM     41  C   UNL     1       4.068  -0.617   9.738  1.00  0.00    -0.014 A 
BRANCH  41  42
ATOM     42  C   UNL     1       3.660   0.436  10.699  1.00  0.00     0.031 A 
ATOM     43  C   UNL     1       2.913   0.092  11.955  1.00  0.00     0.074 A 
ATOM     44  C   UNL     1       3.963   1.718  10.423  1.00  0.00     0.049 A 
ATOM     45  N   UNL     1       2.560   0.873  12.946  1.00  0.00    -0.248 NA
ATOM     46  C   UNL     1       2.478  -1.304  12.110  1.00  0.00     0.031 C 
ATOM     47  C   UNL     1       4.613   2.182   9.196  1.00  0.00     0.029 A 
ATOM     48  N   UNL     1       3.777   2.861  11.157  1.00  0.00    -0.354 N 
ATOM     49  C   UNL     1       1.860   0.067  13.834  1.00  0.00     0.074 A 
ATOM     50  C   UNL     1       1.782  -1.248  13.235  1.00  0.00     0.031 C 
ATOM     51  C   UNL     1       4.811   3.506   9.280  1.00  0.00     0.029 A 
ATOM     52  C   UNL     1       4.273   3.987  10.548  1.00  0.00     0.049 A 
ATOM     53  H   UNL     1       3.332   2.874  12.034  1.00  0.00     0.167 HD
ATOM     54  C   UNL     1       1.349   0.390  15.047  1.00  0.00     0.037 A 
ATOM     55  C   UNL     1       4.297   5.266  10.968  1.00  0.00     0.037 A 
ATOM     56  C   UNL     1       1.437   1.704  15.634  1.00  0.00     0.049 A 
ATOM     57  C   UNL     1       3.757   5.597  12.330  1.00  0.00     0.074 A 
ATOM     58  C   UNL     1       1.022   2.120  16.886  1.00  0.00     0.029 A 
ATOM     59  N   UNL     1       1.960   2.821  14.996  1.00  0.00    -0.354 N 
ATOM     60  N   UNL     1       3.192   4.806  13.211  1.00  0.00    -0.248 NA
ATOM     61  C   UNL     1       3.877   6.993  12.765  1.00  0.00     0.031 C 
ATOM     62  C   UNL     1       1.227   3.502  16.979  1.00  0.00     0.029 A 
ATOM     63  C   UNL     1       1.845   3.934  15.816  1.00  0.00     0.049 A 
ATOM     64  H   UNL     1       2.356   2.823  14.095  1.00  0.00     0.167 HD
ATOM     65  C   UNL     1       2.908   5.601  14.313  1.00  0.00     0.074 A 
ATOM     66  C   UNL     1       3.386   6.932  13.995  1.00  0.00     0.031 C 
ATOM     67  C   UNL     1       2.308   5.260  15.482  1.00  0.00     0.037 A 
BRANCH  54  68
ATOM     68  C   UNL     1       0.632  -0.693  15.807  1.00  0.00     0.064 A 
ATOM     69  C   UNL     1       1.299  -1.829  16.296  1.00  0.00     0.173 A 
ATOM     70  C   UNL     1      -0.746  -0.591  16.057  1.00  0.00     0.173 A 
ATOM     71  F   UNL     1       2.614  -1.985  16.081  1.00  0.00    -0.203 F 
ATOM     72  C   UNL     1       0.607  -2.840  16.959  1.00  0.00     0.198 A 
ATOM     73  C   UNL     1      -1.427  -1.585  16.755  1.00  0.00     0.198 A 
ATOM     74  F   UNL     1      -1.435   0.474  15.623  1.00  0.00    -0.203 F 
ATOM     75  F   UNL     1       1.254  -3.947  17.350  1.00  0.00    -0.200 F 
ATOM     76  C   UNL     1      -0.753  -2.715  17.193  1.00  0.00     0.200 A 
ATOM     77  F   UNL     1      -2.739  -1.454  16.996  1.00  0.00    -0.200 F 
ATOM     78  F   UNL     1      -1.418  -3.689  17.831  1.00  0.00    -0.200 F 
ENDBRANCH  54  68
BRANCH  55  79
ATOM     79  C   UNL     1       4.888   6.307  10.089  1.00  0.00     0.064 A 
ATOM     80  C   UNL     1       6.107   6.922  10.405  1.00  0.00     0.173 A 
ATOM     81  C   UNL     1       4.265   6.674   8.886  1.00  0.00     0.173 A 
ATOM     82  F   UNL     1       6.736   6.615  11.550  1.00  0.00    -0.203 F 
ATOM     83  C   UNL     1       6.674   7.872   9.558  1.00  0.00     0.198 A 
ATOM     84  C   UNL     1       4.849   7.599   8.025  1.00  0.00     0.198 A 
ATOM     85  F   UNL     1       3.104   6.104   8.531  1.00  0.00    -0.203 F 
ATOM     86  F   UNL     1       7.824   8.470   9.900  1.00  0.00    -0.200 F 
ATOM     87  C   UNL     1       6.050   8.203   8.365  1.00  0.00     0.200 A 
ATOM     88  F   UNL     1       4.254   7.896   6.862  1.00  0.00    -0.200 F 
ATOM     89  F   UNL     1       6.605   9.102   7.541  1.00  0.00    -0.200 F 
ENDBRANCH  55  79
BRANCH  67  90
ATOM     90  C   UNL     1       2.161   6.342  16.515  1.00  0.00     0.064 A 
ATOM     91  C   UNL     1       1.306   7.439  16.327  1.00  0.00     0.173 A 
ATOM     92  C   UNL     1       2.885   6.278  17.716  1.00  0.00     0.173 A 
ATOM     93  F   UNL     1       0.598   7.558  15.193  1.00  0.00    -0.203 F 
ATOM     94  C   UNL     1       1.219   8.453  17.278  1.00  0.00     0.198 A 
ATOM     95  C   UNL     1       2.764   7.272  18.683  1.00  0.00     0.198 A 
ATOM     96  F   UNL     1       3.710   5.247  17.956  1.00  0.00    -0.203 F 
ATOM     97  F   UNL     1       0.452   9.526  17.042  1.00  0.00    -0.200 F 
ATOM     98  C   UNL     1       1.943   8.366  18.457  1.00  0.00     0.200 A 
ATOM     99  F   UNL     1       3.452   7.177  19.830  1.00  0.00    -0.200 F 
ATOM    100  F   UNL     1       1.860   9.343  19.370  1.00  0.00    -0.200 F 
ENDBRANCH  67  90
ENDBRANCH  41  42
ENDBRANCH  33  36
ENDBRANCH  31  32
ENDBRANCH  30  31
ENDBRANCH  29  30
ENDBRANCH  28  29
ENDBRANCH  27  28
ENDBRANCH   1  27
TORSDOF 20
