REMARK SMILES C[C@@H]([NH+]1CCC(CCC(=O)NCCCCCCNC(=O)c2ccc(-c3c4nc(c(-c5c(F)c(F)c(F)c(F)c5F)c5ccc([nH]5)c(-c5c(F)c(F)c(F)c(F)c5F)c5nc(c(-c6c(F)c(F)c(F)c(F)c6F)c6ccc3[nH]6)C=C5)C=C4)cc2)CC1)C1(C)CC1
REMARK SMILES IDX 13 1 12 2 11 3 9 4 10 5 8 7 7 8 6 9 3 10 4 11 85 12 5 14
REMARK SMILES IDX 84 15 2 16 1 17 86 18 87 19 88 20 89 21 14 22 15 23 16 24
REMARK SMILES IDX 17 25 18 26 19 27 20 29 21 30 22 31 83 32 23 33 82 34 24 35
REMARK SMILES IDX 25 36 26 37 76 38 27 39 81 40 75 41 77 42 28 43 80 44 74 45
REMARK SMILES IDX 73 46 29 48 61 49 41 50 60 51 42 52 45 53 59 54 78 55 43 56
REMARK SMILES IDX 44 57 58 59 79 60 46 61 30 62 31 63 39 64 32 65 33 66 37 67
REMARK SMILES IDX 40 68 34 69 35 70 38 71 36 72 62 73 63 74 71 75 64 76 65 77
REMARK SMILES IDX 69 78 72 79 66 80 67 81 70 82 68 83 47 84 48 85 56 86 49 87
REMARK SMILES IDX 50 88 54 89 57 90 51 91 52 92 55 93 53 94
REMARK H PARENT 11 6 3 13 18 28 77 47 45 58
REMARK Flexibility Score: inf
ROOT
ATOM      1  C   UNL     1       3.176  -5.405  -1.421  1.00  0.00     0.021 C 
ENDROOT
BRANCH   1   2
ATOM      2  C   UNL     1       2.381  -6.628  -0.937  1.00  0.00     0.116 C 
BRANCH   2   3
ATOM      3  N   UNL     1       3.213  -7.475  -0.098  1.00  0.00    -0.356 N 
ATOM      4  C   UNL     1       3.223  -7.682   1.248  1.00  0.00     0.220 C 
ATOM      5  O   UNL     1       4.131  -8.373   1.715  1.00  0.00    -0.275 OA
ATOM      6  H   UNL     1       3.890  -7.992  -0.592  1.00  0.00     0.163 HD
BRANCH   4   7
ATOM      7  C   UNL     1       2.141  -7.116   2.152  1.00  0.00     0.100 C 
BRANCH   7   8
ATOM      8  C   UNL     1       2.459  -5.731   2.743  1.00  0.00     0.014 C 
BRANCH   8   9
ATOM      9  C   UNL     1       2.037  -4.573   1.834  1.00  0.00     0.000 C 
ATOM     10  N   UNL     1       0.709  -2.100   0.927  1.00  0.00    -0.332 N 
ATOM     11  C   UNL     1       0.199  -3.436   0.579  1.00  0.00     0.262 C 
ATOM     12  C   UNL     1       2.153  -2.137   1.227  1.00  0.00     0.262 C 
ATOM     13  H   UNL     1       0.258  -1.789   1.787  1.00  0.00     0.348 HD
ATOM     14  C   UNL     1       0.523  -4.476   1.646  1.00  0.00     0.065 C 
ATOM     15  C   UNL     1       2.534  -3.197   2.280  1.00  0.00     0.065 C 
BRANCH  10  16
ATOM     16  C   UNL     1       0.346  -1.111  -0.122  1.00  0.00     0.186 C 
ATOM     17  C   UNL     1       0.975   0.277   0.092  1.00  0.00     0.076 C 
BRANCH  16  18
ATOM     18  C   UNL     1      -1.188  -0.962  -0.214  1.00  0.00     0.019 C 
ATOM     19  C   UNL     1      -1.917  -0.805   1.106  1.00  0.00     0.018 C 
ATOM     20  C   UNL     1      -1.774  -0.216  -1.404  1.00  0.00     0.013 C 
ATOM     21  C   UNL     1      -1.911  -1.704  -1.330  1.00  0.00     0.013 C 
ENDBRANCH  16  18
ENDBRANCH  10  16
ENDBRANCH   8   9
ENDBRANCH   7   8
ENDBRANCH   4   7
ENDBRANCH   2   3
ENDBRANCH   1   2
BRANCH   1  22
ATOM     22  C   UNL     1       3.626  -5.474  -2.880  1.00  0.00     0.002 C 
BRANCH  22  23
ATOM     23  C   UNL     1       2.496  -5.332  -3.905  1.00  0.00     0.002 C 
BRANCH  23  24
ATOM     24  C   UNL     1       1.644  -4.059  -3.800  1.00  0.00     0.021 C 
BRANCH  24  25
ATOM     25  C   UNL     1       2.416  -2.740  -3.821  1.00  0.00     0.116 C 
BRANCH  25  26
ATOM     26  N   UNL     1       3.192  -2.576  -5.037  1.00  0.00    -0.352 N 
ATOM     27  C   UNL     1       3.086  -1.653  -6.047  1.00  0.00     0.251 C 
ATOM     28  H   UNL     1       3.914  -3.236  -5.157  1.00  0.00     0.163 HD
ATOM     29  O   UNL     1       3.709  -1.820  -7.091  1.00  0.00    -0.269 OA
BRANCH  27  30
ATOM     30  C   UNL     1       2.223  -0.460  -5.900  1.00  0.00     0.039 A 
ATOM     31  C   UNL     1       1.448  -0.057  -6.992  1.00  0.00     0.014 A 
ATOM     32  C   UNL     1       2.221   0.300  -4.727  1.00  0.00     0.014 A 
ATOM     33  C   UNL     1       0.633   1.073  -6.892  1.00  0.00     0.010 A 
ATOM     34  C   UNL     1       1.365   1.395  -4.607  1.00  0.00     0.010 A 
ATOM     35  C   UNL     1       0.566   1.794  -5.689  1.00  0.00    -0.014 A 
BRANCH  35  36
ATOM     36  C   UNL     1      -0.337   2.966  -5.550  1.00  0.00     0.031 A 
ATOM     37  C   UNL     1       0.230   4.346  -5.369  1.00  0.00     0.074 A 
ATOM     38  C   UNL     1      -1.670   2.778  -5.533  1.00  0.00     0.049 A 
ATOM     39  N   UNL     1      -0.396   5.479  -5.166  1.00  0.00    -0.248 NA
ATOM     40  C   UNL     1       1.695   4.467  -5.397  1.00  0.00     0.031 C 
ATOM     41  C   UNL     1      -2.341   1.484  -5.663  1.00  0.00     0.029 A 
ATOM     42  N   UNL     1      -2.699   3.674  -5.389  1.00  0.00    -0.354 N 
ATOM     43  C   UNL     1       0.596   6.440  -5.027  1.00  0.00     0.074 A 
ATOM     44  C   UNL     1       1.866   5.753  -5.126  1.00  0.00     0.031 C 
ATOM     45  C   UNL     1      -3.670   1.672  -5.610  1.00  0.00     0.029 A 
ATOM     46  C   UNL     1      -3.943   3.092  -5.407  1.00  0.00     0.049 A 
ATOM     47  H   UNL     1      -2.559   4.643  -5.282  1.00  0.00     0.167 HD
ATOM     48  C   UNL     1       0.459   7.777  -4.850  1.00  0.00     0.037 A 
ATOM     49  C   UNL     1      -5.165   3.640  -5.269  1.00  0.00     0.037 A 
ATOM     50  C   UNL     1      -0.805   8.462  -4.777  1.00  0.00     0.049 A 
ATOM     51  C   UNL     1      -5.288   5.127  -5.074  1.00  0.00     0.074 A 
ATOM     52  C   UNL     1      -1.046   9.820  -4.657  1.00  0.00     0.029 A 
ATOM     53  N   UNL     1      -2.044   7.840  -4.818  1.00  0.00    -0.354 N 
ATOM     54  N   UNL     1      -4.345   6.033  -5.003  1.00  0.00    -0.248 NA
ATOM     55  C   UNL     1      -6.649   5.666  -4.945  1.00  0.00     0.031 C 
ATOM     56  C   UNL     1      -2.429  10.016  -4.585  1.00  0.00     0.029 A 
ATOM     57  C   UNL     1      -3.052   8.784  -4.705  1.00  0.00     0.049 A 
ATOM     58  H   UNL     1      -2.186   6.870  -4.912  1.00  0.00     0.167 HD
ATOM     59  C   UNL     1      -4.995   7.249  -4.848  1.00  0.00     0.074 A 
ATOM     60  C   UNL     1      -6.415   6.968  -4.848  1.00  0.00     0.031 C 
ATOM     61  C   UNL     1      -4.462   8.489  -4.715  1.00  0.00     0.037 A 
BRANCH  48  62
ATOM     62  C   UNL     1       1.713   8.592  -4.723  1.00  0.00     0.064 A 
ATOM     63  C   UNL     1       2.554   8.822  -5.822  1.00  0.00     0.173 A 
ATOM     64  C   UNL     1       2.056   9.185  -3.499  1.00  0.00     0.173 A 
ATOM     65  F   UNL     1       2.276   8.269  -7.012  1.00  0.00    -0.203 F 
ATOM     66  C   UNL     1       3.707   9.593  -5.693  1.00  0.00     0.198 A 
ATOM     67  C   UNL     1       3.195   9.979  -3.381  1.00  0.00     0.198 A 
ATOM     68  F   UNL     1       1.283   9.003  -2.418  1.00  0.00    -0.203 F 
ATOM     69  F   UNL     1       4.519   9.761  -6.746  1.00  0.00    -0.200 F 
ATOM     70  C   UNL     1       4.023  10.176  -4.475  1.00  0.00     0.200 A 
ATOM     71  F   UNL     1       3.492  10.552  -2.206  1.00  0.00    -0.200 F 
ATOM     72  F   UNL     1       5.129  10.923  -4.355  1.00  0.00    -0.200 F 
ENDBRANCH  48  62
BRANCH  49  73
ATOM     73  C   UNL     1      -6.373   2.779  -5.336  1.00  0.00     0.064 A 
ATOM     74  C   UNL     1      -7.243   2.846  -6.432  1.00  0.00     0.173 A 
ATOM     75  C   UNL     1      -6.682   1.874  -4.310  1.00  0.00     0.173 A 
ATOM     76  F   UNL     1      -7.000   3.711  -7.427  1.00  0.00    -0.203 F 
ATOM     77  C   UNL     1      -8.387   2.053  -6.493  1.00  0.00     0.198 A 
ATOM     78  C   UNL     1      -7.811   1.062  -4.384  1.00  0.00     0.198 A 
ATOM     79  F   UNL     1      -5.878   1.768  -3.242  1.00  0.00    -0.203 F 
ATOM     80  F   UNL     1      -9.224   2.166  -7.533  1.00  0.00    -0.200 F 
ATOM     81  C   UNL     1      -8.667   1.157  -5.472  1.00  0.00     0.200 A 
ATOM     82  F   UNL     1      -8.071   0.188  -3.402  1.00  0.00    -0.200 F 
ATOM     83  F   UNL     1      -9.764   0.391  -5.533  1.00  0.00    -0.200 F 
ENDBRANCH  49  73
BRANCH  61  84
ATOM     84  C   UNL     1      -5.418   9.638  -4.591  1.00  0.00     0.064 A 
ATOM     85  C   UNL     1      -6.153   9.859  -3.417  1.00  0.00     0.173 A 
ATOM     86  C   UNL     1      -5.573  10.550  -5.646  1.00  0.00     0.173 A 
ATOM     87  F   UNL     1      -6.052   9.006  -2.387  1.00  0.00    -0.203 F 
ATOM     88  C   UNL     1      -7.026  10.940  -3.313  1.00  0.00     0.198 A 
ATOM     89  C   UNL     1      -6.425  11.644  -5.528  1.00  0.00     0.198 A 
ATOM     90  F   UNL     1      -4.888  10.385  -6.788  1.00  0.00    -0.203 F 
ATOM     91  F   UNL     1      -7.751  11.107  -2.199  1.00  0.00    -0.200 F 
ATOM     92  C   UNL     1      -7.155  11.834  -4.365  1.00  0.00     0.200 A 
ATOM     93  F   UNL     1      -6.540  12.514  -6.541  1.00  0.00    -0.200 F 
ATOM     94  F   UNL     1      -7.991  12.877  -4.260  1.00  0.00    -0.200 F 
ENDBRANCH  61  84
ENDBRANCH  35  36
ENDBRANCH  27  30
ENDBRANCH  25  26
ENDBRANCH  24  25
ENDBRANCH  23  24
ENDBRANCH  22  23
ENDBRANCH   1  22
TORSDOF 17
