REMARK SMILES O=C(CCC(=O)Nc1ncc([N+](=O)[O-])s1)NCCCCCCNC(=O)c1ccc(-c2c3nc(c(-c4c(F)c(F)c(F)c(F)c4F)c4ccc([nH]4)c(-c4c(F)c(F)c(F)c(F)c4F)c4nc(c(-c5c(F)c(F)c(F)c(F)c5F)c5ccc2[nH]5)C=C4)C=C3)cc1
REMARK SMILES IDX 18 1 17 2 16 3 1 4 2 5 3 7 4 8 5 9 6 10 7 11 8 13 9 14 15 15
REMARK SMILES IDX 10 16 11 17 12 18 13 19 14 20 19 21 20 22 21 23 22 24 23 25
REMARK SMILES IDX 24 26 25 28 26 29 27 30 88 31 28 32 87 33 29 34 30 35 31 36
REMARK SMILES IDX 81 37 32 38 86 39 80 40 82 41 33 42 85 43 79 44 78 45 34 47
REMARK SMILES IDX 66 48 46 49 65 50 47 51 50 52 64 53 83 54 48 55 49 56 63 58
REMARK SMILES IDX 84 59 51 60 35 61 36 62 44 63 37 64 38 65 42 66 45 67 39 68
REMARK SMILES IDX 40 69 43 70 41 71 67 72 68 73 76 74 69 75 70 76 74 77 77 78
REMARK SMILES IDX 71 79 72 80 75 81 73 82 52 83 53 84 61 85 54 86 55 87 59 88
REMARK SMILES IDX 62 89 56 90 57 91 60 92 58 93
REMARK H PARENT 16 6 7 12 23 27 82 46 50 57
REMARK Flexibility Score: inf
ROOT
ATOM      1  C   UNL     1       3.107   0.620   3.745  1.00  0.00     0.021 C 
ENDROOT
BRANCH   1   2
ATOM      2  C   UNL     1       2.406   0.693   2.393  1.00  0.00     0.116 C 
BRANCH   2   3
ATOM      3  N   UNL     1       3.145   0.033   1.338  1.00  0.00    -0.356 N 
ATOM      4  O   UNL     1       1.314  -0.843   0.261  1.00  0.00    -0.275 OA
ATOM      5  C   UNL     1       2.522  -0.635   0.306  1.00  0.00     0.220 C 
ATOM      6  H   UNL     1       4.129   0.062   1.358  1.00  0.00     0.163 HD
BRANCH   5   7
ATOM      7  C   UNL     1       3.471  -1.082  -0.788  1.00  0.00     0.110 C 
BRANCH   7   8
ATOM      8  C   UNL     1       3.845   0.023  -1.772  1.00  0.00     0.110 C 
BRANCH   8   9
ATOM      9  C   UNL     1       4.568   1.187  -1.120  1.00  0.00     0.226 C 
ATOM     10  O   UNL     1       5.751   1.061  -0.784  1.00  0.00    -0.275 OA
ATOM     11  N   UNL     1       3.954   2.364  -0.821  1.00  0.00    -0.302 N 
ATOM     12  H   UNL     1       4.535   3.124  -0.590  1.00  0.00     0.172 HD
BRANCH  11  13
ATOM     13  C   UNL     1       2.610   2.589  -0.812  1.00  0.00     0.195 A 
ATOM     14  N   UNL     1       1.648   1.809  -1.227  1.00  0.00    -0.221 NA
ATOM     15  S   UNL     1       2.132   4.013   0.004  1.00  0.00    -0.024 S 
ATOM     16  C   UNL     1       0.445   2.250  -0.707  1.00  0.00     0.212 A 
ATOM     17  C   UNL     1       0.536   3.413   0.017  1.00  0.00     0.345 A 
BRANCH  17  18
ATOM     18  N   UNL     1      -0.503   4.051   0.757  1.00  0.00     0.076 N 
ATOM     19  O   UNL     1      -0.275   5.170   1.230  1.00  0.00    -0.257 OA
ATOM     20  O   UNL     1      -1.555   3.414   0.887  1.00  0.00    -0.257 OA
ENDBRANCH  17  18
ENDBRANCH  11  13
ENDBRANCH   8   9
ENDBRANCH   7   8
ENDBRANCH   5   7
ENDBRANCH   2   3
ENDBRANCH   1   2
BRANCH   1  21
ATOM     21  C   UNL     1       4.543   1.157   3.768  1.00  0.00     0.002 C 
BRANCH  21  22
ATOM     22  C   UNL     1       4.721   2.616   3.339  1.00  0.00     0.002 C 
BRANCH  22  23
ATOM     23  C   UNL     1       3.967   3.653   4.174  1.00  0.00     0.021 C 
BRANCH  23  24
ATOM     24  C   UNL     1       4.161   3.553   5.685  1.00  0.00     0.116 C 
BRANCH  24  25
ATOM     25  N   UNL     1       5.554   3.621   6.093  1.00  0.00    -0.352 N 
ATOM     26  C   UNL     1       6.126   4.260   7.163  1.00  0.00     0.251 C 
ATOM     27  H   UNL     1       6.183   3.134   5.513  1.00  0.00     0.163 HD
ATOM     28  O   UNL     1       7.350   4.275   7.282  1.00  0.00    -0.269 OA
BRANCH  26  29
ATOM     29  C   UNL     1       5.288   4.967   8.157  1.00  0.00     0.039 A 
ATOM     30  C   UNL     1       5.714   6.217   8.615  1.00  0.00     0.014 A 
ATOM     31  C   UNL     1       4.102   4.413   8.649  1.00  0.00     0.014 A 
ATOM     32  C   UNL     1       4.923   6.937   9.512  1.00  0.00     0.010 A 
ATOM     33  C   UNL     1       3.277   5.163   9.486  1.00  0.00     0.010 A 
ATOM     34  C   UNL     1       3.678   6.433   9.927  1.00  0.00    -0.014 A 
BRANCH  34  35
ATOM     35  C   UNL     1       2.787   7.244  10.796  1.00  0.00     0.031 A 
ATOM     36  C   UNL     1       2.445   6.790  12.187  1.00  0.00     0.074 A 
ATOM     37  C   UNL     1       2.250   8.380  10.309  1.00  0.00     0.049 A 
ATOM     38  N   UNL     1       1.703   7.380  13.091  1.00  0.00    -0.248 NA
ATOM     39  C   UNL     1       2.985   5.490  12.612  1.00  0.00     0.031 C 
ATOM     40  C   UNL     1       2.455   8.896   8.955  1.00  0.00     0.029 A 
ATOM     41  N   UNL     1       1.427   9.307  10.897  1.00  0.00    -0.354 N 
ATOM     42  C   UNL     1       1.679   6.522  14.182  1.00  0.00     0.074 A 
ATOM     43  C   UNL     1       2.434   5.345  13.808  1.00  0.00     0.031 C 
ATOM     44  C   UNL     1       1.813  10.068   8.830  1.00  0.00     0.029 A 
ATOM     45  C   UNL     1       1.125  10.369  10.081  1.00  0.00     0.049 A 
ATOM     46  H   UNL     1       1.085   9.219  11.816  1.00  0.00     0.167 HD
ATOM     47  C   UNL     1       1.097   6.706  15.393  1.00  0.00     0.037 A 
ATOM     48  C   UNL     1       0.384  11.468  10.318  1.00  0.00     0.037 A 
ATOM     49  C   UNL     1       0.362   7.888  15.767  1.00  0.00     0.049 A 
ATOM     50  C   UNL     1      -0.248  11.649  11.671  1.00  0.00     0.074 A 
ATOM     51  C   UNL     1      -0.194   8.207  16.994  1.00  0.00     0.029 A 
ATOM     52  N   UNL     1       0.070   8.942  14.913  1.00  0.00    -0.354 N 
ATOM     53  N   UNL     1      -0.183  10.876  12.727  1.00  0.00    -0.248 NA
ATOM     54  C   UNL     1      -1.049  12.866  11.864  1.00  0.00     0.031 C 
ATOM     55  C   UNL     1      -0.871   9.425  16.866  1.00  0.00     0.029 A 
ATOM     56  C   UNL     1      -0.687   9.896  15.576  1.00  0.00     0.049 A 
ATOM     57  H   UNL     1       0.359   9.003  13.974  1.00  0.00     0.167 HD
ATOM     58  C   UNL     1      -0.912  11.522  13.717  1.00  0.00     0.074 A 
ATOM     59  C   UNL     1      -1.389  12.762  13.140  1.00  0.00     0.031 C 
ATOM     60  C   UNL     1      -1.165  11.122  14.989  1.00  0.00     0.037 A 
BRANCH  47  61
ATOM     61  C   UNL     1       1.225   5.598  16.400  1.00  0.00     0.064 A 
ATOM     62  C   UNL     1       2.456   5.273  16.991  1.00  0.00     0.173 A 
ATOM     63  C   UNL     1       0.096   4.866  16.798  1.00  0.00     0.173 A 
ATOM     64  F   UNL     1       3.570   5.934  16.640  1.00  0.00    -0.203 F 
ATOM     65  C   UNL     1       2.559   4.233  17.912  1.00  0.00     0.198 A 
ATOM     66  C   UNL     1       0.196   3.849  17.745  1.00  0.00     0.198 A 
ATOM     67  F   UNL     1      -1.107   5.138  16.272  1.00  0.00    -0.203 F 
ATOM     68  F   UNL     1       3.755   3.904  18.418  1.00  0.00    -0.200 F 
ATOM     69  C   UNL     1       1.428   3.526  18.293  1.00  0.00     0.200 A 
ATOM     70  F   UNL     1      -0.900   3.177  18.122  1.00  0.00    -0.200 F 
ATOM     71  F   UNL     1       1.528   2.528  19.182  1.00  0.00    -0.200 F 
ENDBRANCH  47  61
BRANCH  48  72
ATOM     72  C   UNL     1       0.239  12.507   9.265  1.00  0.00     0.064 A 
ATOM     73  C   UNL     1       0.846  13.762   9.411  1.00  0.00     0.173 A 
ATOM     74  C   UNL     1      -0.502  12.271   8.098  1.00  0.00     0.173 A 
ATOM     75  F   UNL     1       1.548  14.041  10.519  1.00  0.00    -0.203 F 
ATOM     76  C   UNL     1       0.702  14.749   8.438  1.00  0.00     0.198 A 
ATOM     77  C   UNL     1      -0.621  13.249   7.113  1.00  0.00     0.198 A 
ATOM     78  F   UNL     1      -1.098  11.085   7.909  1.00  0.00    -0.203 F 
ATOM     79  F   UNL     1       1.256  15.955   8.624  1.00  0.00    -0.200 F 
ATOM     80  C   UNL     1      -0.026  14.489   7.287  1.00  0.00     0.200 A 
ATOM     81  F   UNL     1      -1.313  12.990   5.995  1.00  0.00    -0.200 F 
ATOM     82  F   UNL     1      -0.160  15.437   6.349  1.00  0.00    -0.200 F 
ENDBRANCH  48  72
BRANCH  60  83
ATOM     83  C   UNL     1      -1.976  12.053  15.846  1.00  0.00     0.064 A 
ATOM     84  C   UNL     1      -3.340  12.277  15.604  1.00  0.00     0.173 A 
ATOM     85  C   UNL     1      -1.383  12.726  16.924  1.00  0.00     0.173 A 
ATOM     86  F   UNL     1      -3.953  11.670  14.576  1.00  0.00    -0.203 F 
ATOM     87  C   UNL     1      -4.068  13.173  16.383  1.00  0.00     0.198 A 
ATOM     88  C   UNL     1      -2.123  13.594  17.723  1.00  0.00     0.198 A 
ATOM     89  F   UNL     1      -0.084  12.543  17.205  1.00  0.00    -0.203 F 
ATOM     90  F   UNL     1      -5.352  13.423  16.090  1.00  0.00    -0.200 F 
ATOM     91  C   UNL     1      -3.461  13.827  17.444  1.00  0.00     0.200 A 
ATOM     92  F   UNL     1      -1.537  14.214  18.757  1.00  0.00    -0.200 F 
ATOM     93  F   UNL     1      -4.162  14.691  18.191  1.00  0.00    -0.200 F 
ENDBRANCH  60  83
ENDBRANCH  34  35
ENDBRANCH  26  29
ENDBRANCH  24  25
ENDBRANCH  23  24
ENDBRANCH  22  23
ENDBRANCH  21  22
ENDBRANCH   1  21
TORSDOF 17
