REMARK SMILES COc1cccc(NC(=O)[C@@H]2[C@@H](C(=O)NCCCCCCNC(=O)c3ccc(-c4c5nc(c(-c6c(F)c(F)c(F)c(F)c6F)c6ccc([nH]6)c(-c6c(F)c(F)c(F)c(F)c6F)c6nc(c(-c7c(F)c(F)c(F)c(F)c7F)c7ccc4[nH]7)C=C6)C=C5)cc3)[C@H]3C=C[C@@H]2C3)c1
REMARK SMILES IDX 18 1 17 2 16 3 15 4 13 5 14 6 12 8 11 9 91 10 88 11 90 12
REMARK SMILES IDX 92 13 89 14 9 15 8 16 10 18 7 19 3 20 4 21 93 22 5 23 6 24
REMARK SMILES IDX 2 25 1 26 19 27 20 28 21 29 22 30 23 31 24 33 25 34 26 35
REMARK SMILES IDX 87 36 27 37 86 38 28 39 29 40 30 41 80 42 31 43 85 44 79 45
REMARK SMILES IDX 81 46 32 47 84 48 78 49 77 50 33 52 65 53 45 54 64 55 46 56
REMARK SMILES IDX 49 57 63 58 82 59 47 60 48 61 62 63 83 64 50 65 34 66 35 67
REMARK SMILES IDX 43 68 36 69 37 70 41 71 44 72 38 73 39 74 42 75 40 76 66 77
REMARK SMILES IDX 67 78 75 79 68 80 69 81 73 82 76 83 70 84 71 85 74 86 72 87
REMARK SMILES IDX 51 88 52 89 60 90 53 91 54 92 58 93 61 94 55 95 56 96 59 97
REMARK SMILES IDX 57 98
REMARK H PARENT 15 7 8 17 22 32 81 51 49 62
REMARK Flexibility Score: inf
ROOT
ATOM      1  C   UNL     1       0.952  12.415  -3.301  1.00  0.00     0.002 C 
ENDROOT
BRANCH   1   2
ATOM      2  C   UNL     1       1.722  12.077  -2.030  1.00  0.00     0.021 C 
BRANCH   2   3
ATOM      3  C   UNL     1       1.879  10.605  -1.683  1.00  0.00     0.116 C 
BRANCH   3   4
ATOM      4  N   UNL     1       2.895   9.906  -2.420  1.00  0.00    -0.356 N 
ATOM      5  C   UNL     1       3.744   8.922  -2.037  1.00  0.00     0.224 C 
ATOM      6  O   UNL     1       4.465   8.476  -2.941  1.00  0.00    -0.275 OA
ATOM      7  H   UNL     1       2.990  10.189  -3.358  1.00  0.00     0.163 HD
BRANCH   5   8
ATOM      8  C   UNL     1       3.840   8.279  -0.646  1.00  0.00     0.098 C 
ATOM      9  C   UNL     1       3.203   6.852  -0.669  1.00  0.00     0.099 C 
ATOM     10  C   UNL     1       2.600   6.726   0.755  1.00  0.00     0.025 C 
ATOM     11  C   UNL     1       3.267   8.863   0.678  1.00  0.00     0.025 C 
ATOM     12  C   UNL     1       1.349   7.552   0.795  1.00  0.00    -0.027 C 
ATOM     13  C   UNL     1       3.514   7.648   1.583  1.00  0.00     0.017 C 
ATOM     14  C   UNL     1       1.746   8.828   0.789  1.00  0.00    -0.027 C 
BRANCH   9  15
ATOM     15  C   UNL     1       4.125   5.668  -0.861  1.00  0.00     0.228 C 
ATOM     16  N   UNL     1       3.606   4.399  -0.970  1.00  0.00    -0.326 N 
ATOM     17  H   UNL     1       4.300   3.700  -0.967  1.00  0.00     0.169 HD
ATOM     18  O   UNL     1       5.351   5.786  -0.808  1.00  0.00    -0.274 OA
BRANCH  16  19
ATOM     19  C   UNL     1       2.296   3.872  -1.087  1.00  0.00     0.044 A 
ATOM     20  C   UNL     1       0.890   1.880  -0.976  1.00  0.00     0.120 A 
ATOM     21  C   UNL     1      -0.231   2.633  -1.307  1.00  0.00     0.046 A 
ATOM     22  C   UNL     1       2.148   2.490  -0.877  1.00  0.00     0.072 A 
ATOM     23  C   UNL     1      -0.101   3.995  -1.525  1.00  0.00     0.006 A 
ATOM     24  C   UNL     1       1.154   4.601  -1.427  1.00  0.00     0.026 A 
BRANCH  20  25
ATOM     25  O   UNL     1       0.674   0.535  -0.854  1.00  0.00    -0.497 OA
ATOM     26  C   UNL     1       1.304  -0.060   0.274  1.00  0.00     0.278 C 
ENDBRANCH  20  25
ENDBRANCH  16  19
ENDBRANCH   9  15
ENDBRANCH   5   8
ENDBRANCH   3   4
ENDBRANCH   2   3
ENDBRANCH   1   2
BRANCH   1  27
ATOM     27  C   UNL     1      -0.457  11.831  -3.429  1.00  0.00     0.002 C 
BRANCH  27  28
ATOM     28  C   UNL     1      -1.396  12.016  -2.234  1.00  0.00     0.021 C 
BRANCH  28  29
ATOM     29  C   UNL     1      -1.557  13.442  -1.715  1.00  0.00     0.116 C 
BRANCH  29  30
ATOM     30  N   UNL     1      -2.006  14.371  -2.736  1.00  0.00    -0.352 N 
ATOM     31  C   UNL     1      -3.039  15.270  -2.713  1.00  0.00     0.251 C 
ATOM     32  H   UNL     1      -1.488  14.353  -3.573  1.00  0.00     0.163 HD
ATOM     33  O   UNL     1      -3.344  15.876  -3.743  1.00  0.00    -0.269 OA
BRANCH  31  34
ATOM     34  C   UNL     1      -3.811  15.510  -1.475  1.00  0.00     0.039 A 
ATOM     35  C   UNL     1      -5.200  15.638  -1.567  1.00  0.00     0.014 A 
ATOM     36  C   UNL     1      -3.180  15.647  -0.235  1.00  0.00     0.014 A 
ATOM     37  C   UNL     1      -5.958  15.857  -0.415  1.00  0.00     0.010 A 
ATOM     38  C   UNL     1      -3.943  15.791   0.923  1.00  0.00     0.010 A 
ATOM     39  C   UNL     1      -5.339  15.909   0.845  1.00  0.00    -0.014 A 
BRANCH  39  40
ATOM     40  C   UNL     1      -6.138  16.114   2.081  1.00  0.00     0.031 A 
ATOM     41  C   UNL     1      -5.947  17.358   2.907  1.00  0.00     0.074 A 
ATOM     42  C   UNL     1      -7.010  15.168   2.479  1.00  0.00     0.049 A 
ATOM     43  N   UNL     1      -6.511  17.697   4.040  1.00  0.00    -0.248 NA
ATOM     44  C   UNL     1      -4.973  18.341   2.407  1.00  0.00     0.031 C 
ATOM     45  C   UNL     1      -7.259  13.902   1.787  1.00  0.00     0.029 A 
ATOM     46  N   UNL     1      -7.846  15.120   3.568  1.00  0.00    -0.354 N 
ATOM     47  C   UNL     1      -5.963  18.926   4.383  1.00  0.00     0.074 A 
ATOM     48  C   UNL     1      -4.971  19.241   3.378  1.00  0.00     0.031 C 
ATOM     49  C   UNL     1      -8.198  13.213   2.454  1.00  0.00     0.029 A 
ATOM     50  C   UNL     1      -8.591  13.968   3.640  1.00  0.00     0.049 A 
ATOM     51  H   UNL     1      -7.904  15.842   4.234  1.00  0.00     0.167 HD
ATOM     52  C   UNL     1      -6.280  19.735   5.422  1.00  0.00     0.037 A 
ATOM     53  C   UNL     1      -9.486  13.565   4.563  1.00  0.00     0.037 A 
ATOM     54  C   UNL     1      -7.274  19.425   6.416  1.00  0.00     0.049 A 
ATOM     55  C   UNL     1      -9.799  14.473   5.724  1.00  0.00     0.074 A 
ATOM     56  C   UNL     1      -7.680  20.183   7.500  1.00  0.00     0.029 A 
ATOM     57  N   UNL     1      -8.021  18.256   6.445  1.00  0.00    -0.354 N 
ATOM     58  N   UNL     1      -9.311  15.657   6.008  1.00  0.00    -0.248 NA
ATOM     59  C   UNL     1     -10.799  13.992   6.687  1.00  0.00     0.031 C 
ATOM     60  C   UNL     1      -8.643  19.457   8.208  1.00  0.00     0.029 A 
ATOM     61  C   UNL     1      -8.880  18.270   7.533  1.00  0.00     0.049 A 
ATOM     62  H   UNL     1      -7.953  17.525   5.789  1.00  0.00     0.167 HD
ATOM     63  C   UNL     1      -9.973  16.078   7.153  1.00  0.00     0.074 A 
ATOM     64  C   UNL     1     -10.908  15.030   7.503  1.00  0.00     0.031 C 
ATOM     65  C   UNL     1      -9.821  17.229   7.854  1.00  0.00     0.037 A 
BRANCH  52  66
ATOM     66  C   UNL     1      -5.551  21.045   5.529  1.00  0.00     0.064 A 
ATOM     67  C   UNL     1      -5.763  22.078   4.601  1.00  0.00     0.173 A 
ATOM     68  C   UNL     1      -4.662  21.289   6.586  1.00  0.00     0.173 A 
ATOM     69  F   UNL     1      -6.594  21.893   3.564  1.00  0.00    -0.203 F 
ATOM     70  C   UNL     1      -5.091  23.292   4.712  1.00  0.00     0.198 A 
ATOM     71  C   UNL     1      -4.017  22.517   6.712  1.00  0.00     0.198 A 
ATOM     72  F   UNL     1      -4.426  20.340   7.505  1.00  0.00    -0.203 F 
ATOM     73  F   UNL     1      -5.271  24.243   3.784  1.00  0.00    -0.200 F 
ATOM     74  C   UNL     1      -4.225  23.514   5.771  1.00  0.00     0.200 A 
ATOM     75  F   UNL     1      -3.192  22.736   7.745  1.00  0.00    -0.200 F 
ATOM     76  F   UNL     1      -3.586  24.687   5.882  1.00  0.00    -0.200 F 
ENDBRANCH  52  66
BRANCH  53  77
ATOM     77  C   UNL     1     -10.167  12.250   4.426  1.00  0.00     0.064 A 
ATOM     78  C   UNL     1     -11.548  12.171   4.191  1.00  0.00     0.173 A 
ATOM     79  C   UNL     1      -9.463  11.045   4.566  1.00  0.00     0.173 A 
ATOM     80  F   UNL     1     -12.270  13.295   4.068  1.00  0.00    -0.203 F 
ATOM     81  C   UNL     1     -12.202  10.942   4.141  1.00  0.00     0.198 A 
ATOM     82  C   UNL     1     -10.113   9.816   4.481  1.00  0.00     0.198 A 
ATOM     83  F   UNL     1      -8.139  11.062   4.785  1.00  0.00    -0.203 F 
ATOM     84  F   UNL     1     -13.532  10.901   3.983  1.00  0.00    -0.200 F 
ATOM     85  C   UNL     1     -11.484   9.765   4.282  1.00  0.00     0.200 A 
ATOM     86  F   UNL     1      -9.411   8.680   4.602  1.00  0.00    -0.200 F 
ATOM     87  F   UNL     1     -12.114   8.584   4.240  1.00  0.00    -0.200 F 
ENDBRANCH  53  77
BRANCH  65  88
ATOM     88  C   UNL     1     -10.729  17.442   9.032  1.00  0.00     0.064 A 
ATOM     89  C   UNL     1     -10.611  16.687  10.208  1.00  0.00     0.173 A 
ATOM     90  C   UNL     1     -11.721  18.436   8.987  1.00  0.00     0.173 A 
ATOM     91  F   UNL     1      -9.689  15.717  10.298  1.00  0.00    -0.203 F 
ATOM     92  C   UNL     1     -11.476  16.893  11.280  1.00  0.00     0.198 A 
ATOM     93  C   UNL     1     -12.559  18.662  10.074  1.00  0.00     0.198 A 
ATOM     94  F   UNL     1     -11.871  19.192   7.890  1.00  0.00    -0.203 F 
ATOM     95  F   UNL     1     -11.384  16.117  12.370  1.00  0.00    -0.200 F 
ATOM     96  C   UNL     1     -12.444  17.884  11.215  1.00  0.00     0.200 A 
ATOM     97  F   UNL     1     -13.483  19.631  10.015  1.00  0.00    -0.200 F 
ATOM     98  F   UNL     1     -13.272  18.082  12.250  1.00  0.00    -0.200 F 
ENDBRANCH  65  88
ENDBRANCH  39  40
ENDBRANCH  31  34
ENDBRANCH  29  30
ENDBRANCH  28  29
ENDBRANCH  27  28
ENDBRANCH   1  27
TORSDOF 16
