REMARK SMILES Cn1ccnc(N[C@H]2C=C[C@H](C(=O)NCCCCCCNC(=O)c3ccc(-c4c5nc(c(-c6c(F)c(F)c(F)c(F)c6F)c6ccc([nH]6)c(-c6c(F)c(F)c(F)c(F)c6F)c6nc(c(-c7c(F)c(F)c(F)c(F)c7F)c7ccc4[nH]7)C=C6)C=C5)cc3)C2)c1=O
REMARK SMILES IDX 17 1 16 2 15 3 14 4 12 5 13 6 11 8 8 9 9 10 87 11 10 12 7 13
REMARK SMILES IDX 6 15 1 16 2 17 3 18 88 19 4 20 89 21 5 22 18 23 19 24 20 25
REMARK SMILES IDX 21 26 22 27 23 29 24 30 25 31 86 32 26 33 85 34 27 35 28 36
REMARK SMILES IDX 29 37 79 38 30 39 84 40 78 41 80 42 31 43 83 44 77 45 76 46
REMARK SMILES IDX 32 48 64 49 44 50 63 51 45 52 48 53 62 54 81 55 46 56 47 57
REMARK SMILES IDX 61 59 82 60 49 61 33 62 34 63 42 64 35 65 36 66 40 67 43 68
REMARK SMILES IDX 37 69 38 70 41 71 39 72 65 73 66 74 74 75 67 76 68 77 72 78
REMARK SMILES IDX 75 79 69 80 70 81 73 82 71 83 50 84 51 85 59 86 52 87 53 88
REMARK SMILES IDX 57 89 60 90 54 91 55 92 58 93 56 94
REMARK H PARENT 14 7 7 14 21 28 80 47 48 58
REMARK Flexibility Score: inf
ROOT
ATOM      1  C   UNL     1      -7.752  -4.540  -1.252  1.00  0.00     0.002 C 
ENDROOT
BRANCH   1   2
ATOM      2  C   UNL     1      -6.824  -3.340  -1.042  1.00  0.00     0.021 C 
BRANCH   2   3
ATOM      3  C   UNL     1      -5.511  -3.671  -0.342  1.00  0.00     0.116 C 
BRANCH   3   4
ATOM      4  N   UNL     1      -4.725  -4.640  -1.084  1.00  0.00    -0.356 N 
ATOM      5  C   UNL     1      -3.371  -4.655  -1.290  1.00  0.00     0.227 C 
ATOM      6  O   UNL     1      -2.877  -5.614  -1.883  1.00  0.00    -0.274 OA
ATOM      7  H   UNL     1      -5.229  -5.380  -1.492  1.00  0.00     0.163 HD
BRANCH   5   8
ATOM      8  C   UNL     1      -2.558  -3.480  -0.763  1.00  0.00     0.103 C 
ATOM      9  C   UNL     1      -0.207  -3.571  -0.070  1.00  0.00     0.104 C 
ATOM     10  C   UNL     1      -1.115  -3.634   1.102  1.00  0.00    -0.006 C 
ATOM     11  C   UNL     1      -1.113  -3.424  -1.292  1.00  0.00     0.046 C 
ATOM     12  C   UNL     1      -2.397  -3.608   0.729  1.00  0.00    -0.016 C 
BRANCH   9  13
ATOM     13  N   UNL     1       0.772  -2.530   0.077  1.00  0.00    -0.359 N 
ATOM     14  H   UNL     1       1.687  -2.870   0.199  1.00  0.00     0.162 HD
BRANCH  13  15
ATOM     15  C   UNL     1       0.697  -1.155   0.084  1.00  0.00     0.193 A 
ATOM     16  C   UNL     1      -1.633   1.901   0.016  1.00  0.00     0.153 C 
ATOM     17  N   UNL     1      -0.454   1.061   0.039  1.00  0.00    -0.314 N 
ATOM     18  C   UNL     1       0.805   1.603   0.013  1.00  0.00     0.109 A 
ATOM     19  C   UNL     1      -0.629  -0.320   0.092  1.00  0.00     0.293 A 
ATOM     20  C   UNL     1       1.885   0.816   0.038  1.00  0.00     0.131 A 
ATOM     21  O   UNL     1      -1.736  -0.840   0.137  1.00  0.00    -0.265 OA
ATOM     22  N   UNL     1       1.865  -0.551   0.074  1.00  0.00    -0.233 NA
ENDBRANCH  13  15
ENDBRANCH   9  13
ENDBRANCH   5   8
ENDBRANCH   3   4
ENDBRANCH   2   3
ENDBRANCH   1   2
BRANCH   1  23
ATOM     23  C   UNL     1      -8.098  -5.323   0.017  1.00  0.00     0.002 C 
BRANCH  23  24
ATOM     24  C   UNL     1      -8.729  -4.495   1.138  1.00  0.00     0.021 C 
BRANCH  24  25
ATOM     25  C   UNL     1      -9.977  -3.721   0.732  1.00  0.00     0.116 C 
BRANCH  25  26
ATOM     26  N   UNL     1     -11.047  -4.595   0.276  1.00  0.00    -0.352 N 
ATOM     27  C   UNL     1     -12.359  -4.643   0.673  1.00  0.00     0.251 C 
ATOM     28  H   UNL     1     -10.792  -5.245  -0.418  1.00  0.00     0.163 HD
ATOM     29  O   UNL     1     -13.084  -5.563   0.309  1.00  0.00    -0.269 OA
BRANCH  27  30
ATOM     30  C   UNL     1     -12.893  -3.594   1.566  1.00  0.00     0.039 A 
ATOM     31  C   UNL     1     -13.684  -3.973   2.653  1.00  0.00     0.014 A 
ATOM     32  C   UNL     1     -12.614  -2.244   1.335  1.00  0.00     0.014 A 
ATOM     33  C   UNL     1     -14.145  -3.002   3.543  1.00  0.00     0.010 A 
ATOM     34  C   UNL     1     -13.006  -1.287   2.267  1.00  0.00     0.010 A 
ATOM     35  C   UNL     1     -13.779  -1.655   3.378  1.00  0.00    -0.014 A 
BRANCH  35  36
ATOM     36  C   UNL     1     -14.194  -0.621   4.361  1.00  0.00     0.031 A 
ATOM     37  C   UNL     1     -15.091   0.508   3.938  1.00  0.00     0.074 A 
ATOM     38  C   UNL     1     -13.715  -0.669   5.619  1.00  0.00     0.049 A 
ATOM     39  N   UNL     1     -15.513   1.536   4.631  1.00  0.00    -0.248 NA
ATOM     40  C   UNL     1     -15.558   0.496   2.542  1.00  0.00     0.031 C 
ATOM     41  C   UNL     1     -12.802  -1.689   6.138  1.00  0.00     0.029 A 
ATOM     42  N   UNL     1     -13.922   0.166   6.689  1.00  0.00    -0.354 N 
ATOM     43  C   UNL     1     -16.281   2.293   3.757  1.00  0.00     0.074 A 
ATOM     44  C   UNL     1     -16.221   1.641   2.467  1.00  0.00     0.031 C 
ATOM     45  C   UNL     1     -12.546  -1.434   7.431  1.00  0.00     0.029 A 
ATOM     46  C   UNL     1     -13.240  -0.211   7.821  1.00  0.00     0.049 A 
ATOM     47  H   UNL     1     -14.503   0.959   6.650  1.00  0.00     0.167 HD
ATOM     48  C   UNL     1     -16.990   3.418   4.013  1.00  0.00     0.037 A 
ATOM     49  C   UNL     1     -13.172   0.372   9.033  1.00  0.00     0.037 A 
ATOM     50  C   UNL     1     -17.061   4.054   5.303  1.00  0.00     0.049 A 
ATOM     51  C   UNL     1     -13.954   1.635   9.284  1.00  0.00     0.074 A 
ATOM     52  C   UNL     1     -17.797   5.164   5.678  1.00  0.00     0.029 A 
ATOM     53  N   UNL     1     -16.363   3.638   6.428  1.00  0.00    -0.354 N 
ATOM     54  N   UNL     1     -14.734   2.302   8.469  1.00  0.00    -0.248 NA
ATOM     55  C   UNL     1     -13.850   2.221  10.627  1.00  0.00     0.031 C 
ATOM     56  C   UNL     1     -17.499   5.456   7.013  1.00  0.00     0.029 A 
ATOM     57  C   UNL     1     -16.630   4.489   7.490  1.00  0.00     0.049 A 
ATOM     58  H   UNL     1     -15.767   2.856   6.467  1.00  0.00     0.167 HD
ATOM     59  C   UNL     1     -15.239   3.364   9.208  1.00  0.00     0.074 A 
ATOM     60  C   UNL     1     -14.689   3.243  10.541  1.00  0.00     0.031 C 
ATOM     61  C   UNL     1     -16.082   4.351   8.816  1.00  0.00     0.037 A 
BRANCH  48  62
ATOM     62  C   UNL     1     -17.750   4.039   2.875  1.00  0.00     0.064 A 
ATOM     63  C   UNL     1     -18.873   3.415   2.310  1.00  0.00     0.173 A 
ATOM     64  C   UNL     1     -17.380   5.297   2.375  1.00  0.00     0.173 A 
ATOM     65  F   UNL     1     -19.264   2.207   2.743  1.00  0.00    -0.203 F 
ATOM     66  C   UNL     1     -19.578   4.013   1.269  1.00  0.00     0.198 A 
ATOM     67  C   UNL     1     -18.108   5.908   1.358  1.00  0.00     0.198 A 
ATOM     68  F   UNL     1     -16.319   5.942   2.883  1.00  0.00    -0.203 F 
ATOM     69  F   UNL     1     -20.617   3.375   0.712  1.00  0.00    -0.200 F 
ATOM     70  C   UNL     1     -19.201   5.263   0.800  1.00  0.00     0.200 A 
ATOM     71  F   UNL     1     -17.752   7.122   0.917  1.00  0.00    -0.200 F 
ATOM     72  F   UNL     1     -19.889   5.843  -0.194  1.00  0.00    -0.200 F 
ENDBRANCH  48  62
BRANCH  49  73
ATOM     73  C   UNL     1     -12.343  -0.235  10.109  1.00  0.00     0.064 A 
ATOM     74  C   UNL     1     -12.936  -0.781  11.256  1.00  0.00     0.173 A 
ATOM     75  C   UNL     1     -10.943  -0.266  10.023  1.00  0.00     0.173 A 
ATOM     76  F   UNL     1     -14.270  -0.757  11.396  1.00  0.00    -0.203 F 
ATOM     77  C   UNL     1     -12.161  -1.307  12.288  1.00  0.00     0.198 A 
ATOM     78  C   UNL     1     -10.170  -0.824  11.039  1.00  0.00     0.198 A 
ATOM     79  F   UNL     1     -10.325   0.237   8.944  1.00  0.00    -0.203 F 
ATOM     80  F   UNL     1     -12.752  -1.769  13.398  1.00  0.00    -0.200 F 
ATOM     81  C   UNL     1     -10.779  -1.333  12.176  1.00  0.00     0.200 A 
ATOM     82  F   UNL     1      -8.836  -0.862  10.919  1.00  0.00    -0.200 F 
ATOM     83  F   UNL     1     -10.034  -1.839  13.168  1.00  0.00    -0.200 F 
ENDBRANCH  49  73
BRANCH  61  84
ATOM     84  C   UNL     1     -16.499   5.355   9.853  1.00  0.00     0.064 A 
ATOM     85  C   UNL     1     -15.603   6.304  10.368  1.00  0.00     0.173 A 
ATOM     86  C   UNL     1     -17.827   5.393  10.308  1.00  0.00     0.173 A 
ATOM     87  F   UNL     1     -14.320   6.303   9.976  1.00  0.00    -0.203 F 
ATOM     88  C   UNL     1     -16.013   7.232  11.321  1.00  0.00     0.198 A 
ATOM     89  C   UNL     1     -18.242   6.346  11.234  1.00  0.00     0.198 A 
ATOM     90  F   UNL     1     -18.727   4.514   9.843  1.00  0.00    -0.203 F 
ATOM     91  F   UNL     1     -15.126   8.094  11.839  1.00  0.00    -0.200 F 
ATOM     92  C   UNL     1     -17.333   7.258  11.747  1.00  0.00     0.200 A 
ATOM     93  F   UNL     1     -19.521   6.380  11.631  1.00  0.00    -0.200 F 
ATOM     94  F   UNL     1     -17.727   8.159  12.657  1.00  0.00    -0.200 F 
ENDBRANCH  61  84
ENDBRANCH  35  36
ENDBRANCH  27  30
ENDBRANCH  25  26
ENDBRANCH  24  25
ENDBRANCH  23  24
ENDBRANCH   1  23
TORSDOF 15
