REMARK SMILES O=C(NCCCCCCNC(=O)[C@H]1CCCCN1C(=O)CSCc1ccccc1)c1ccc(-c2c3nc(c(-c4c(F)c(F)c(F)c(F)c4F)c4ccc([nH]4)c(-c4c(F)c(F)c(F)c(F)c4F)c4nc(c(-c5c(F)c(F)c(F)c(F)c5F)c5ccc2[nH]5)C=C4)C=C3)cc1
REMARK SMILES IDX 8 1 7 2 6 3 5 4 4 5 3 6 1 7 2 8 30 10 31 11 92 12 32 13
REMARK SMILES IDX 91 14 33 15 34 16 35 17 85 18 36 19 90 20 84 21 86 22 37 23
REMARK SMILES IDX 89 24 83 25 82 26 38 28 70 29 50 30 69 31 51 32 54 33 68 34
REMARK SMILES IDX 87 35 52 36 53 37 67 39 88 40 55 41 39 42 40 43 48 44 41 45
REMARK SMILES IDX 42 46 46 47 49 48 43 49 44 50 47 51 45 52 71 53 72 54 80 55
REMARK SMILES IDX 73 56 74 57 78 58 81 59 75 60 76 61 79 62 77 63 56 64 57 65
REMARK SMILES IDX 65 66 58 67 59 68 63 69 66 70 60 71 61 72 64 73 62 74 9 75
REMARK SMILES IDX 10 76 11 77 12 79 13 80 14 81 18 82 15 83 17 84 16 85 19 86
REMARK SMILES IDX 20 87 21 88 22 89 23 90 24 91 25 92 29 93 26 94 28 95 27 96
REMARK H PARENT 3 9 86 27 54 38 10 78
REMARK Flexibility Score: inf
ROOT
ATOM      1  C   UNL     1      11.443   9.151  -4.699  1.00  0.00     0.021 C 
ENDROOT
BRANCH   1   2
ATOM      2  C   UNL     1      12.173   9.415  -6.019  1.00  0.00     0.002 C 
BRANCH   2   3
ATOM      3  C   UNL     1      11.630  10.601  -6.820  1.00  0.00     0.002 C 
BRANCH   3   4
ATOM      4  C   UNL     1      11.509  11.901  -6.024  1.00  0.00     0.021 C 
BRANCH   4   5
ATOM      5  C   UNL     1      12.814  12.357  -5.386  1.00  0.00     0.116 C 
BRANCH   5   6
ATOM      6  N   UNL     1      13.801  12.733  -6.386  1.00  0.00    -0.352 N 
ATOM      7  O   UNL     1      15.028  14.184  -7.612  1.00  0.00    -0.269 OA
ATOM      8  C   UNL     1      14.388  13.956  -6.590  1.00  0.00     0.251 C 
ATOM      9  H   UNL     1      14.086  12.015  -6.996  1.00  0.00     0.163 HD
BRANCH   8  10
ATOM     10  C   UNL     1      14.232  15.003  -5.562  1.00  0.00     0.039 A 
ATOM     11  C   UNL     1      14.407  14.682  -4.214  1.00  0.00     0.014 A 
ATOM     12  C   UNL     1      13.908  16.307  -5.943  1.00  0.00     0.014 A 
ATOM     13  C   UNL     1      14.127  15.628  -3.240  1.00  0.00     0.010 A 
ATOM     14  C   UNL     1      13.726  17.287  -4.963  1.00  0.00     0.010 A 
ATOM     15  C   UNL     1      13.819  16.950  -3.604  1.00  0.00    -0.014 A 
BRANCH  15  16
ATOM     16  C   UNL     1      13.713  17.974  -2.535  1.00  0.00     0.031 A 
ATOM     17  C   UNL     1      12.426  18.696  -2.262  1.00  0.00     0.074 A 
ATOM     18  C   UNL     1      14.806  18.214  -1.784  1.00  0.00     0.049 A 
ATOM     19  N   UNL     1      12.169  19.595  -1.345  1.00  0.00    -0.248 NA
ATOM     20  C   UNL     1      11.280  18.378  -3.127  1.00  0.00     0.031 C 
ATOM     21  C   UNL     1      16.113  17.579  -1.978  1.00  0.00     0.029 A 
ATOM     22  N   UNL     1      14.993  19.031  -0.701  1.00  0.00    -0.354 N 
ATOM     23  C   UNL     1      10.841  19.958  -1.527  1.00  0.00     0.074 A 
ATOM     24  C   UNL     1      10.351  19.203  -2.662  1.00  0.00     0.031 C 
ATOM     25  C   UNL     1      16.949  17.988  -1.015  1.00  0.00     0.029 A 
ATOM     26  C   UNL     1      16.265  18.969  -0.184  1.00  0.00     0.049 A 
ATOM     27  H   UNL     1      14.286  19.607  -0.329  1.00  0.00     0.167 HD
ATOM     28  C   UNL     1      10.103  20.835  -0.804  1.00  0.00     0.037 A 
ATOM     29  C   UNL     1      16.827  19.647   0.832  1.00  0.00     0.037 A 
ATOM     30  C   UNL     1      10.604  21.577   0.326  1.00  0.00     0.049 A 
ATOM     31  C   UNL     1      15.989  20.636   1.588  1.00  0.00     0.074 A 
ATOM     32  C   UNL     1       9.928  22.472   1.139  1.00  0.00     0.029 A 
ATOM     33  N   UNL     1      11.907  21.516   0.801  1.00  0.00    -0.354 N 
ATOM     34  N   UNL     1      14.724  20.942   1.429  1.00  0.00    -0.248 NA
ATOM     35  C   UNL     1      16.658  21.377   2.664  1.00  0.00     0.031 C 
ATOM     36  C   UNL     1      10.834  22.990   2.071  1.00  0.00     0.029 A 
ATOM     37  C   UNL     1      12.060  22.375   1.879  1.00  0.00     0.049 A 
ATOM     38  H   UNL     1      12.618  20.946   0.427  1.00  0.00     0.167 HD
ATOM     39  C   UNL     1      14.441  21.898   2.393  1.00  0.00     0.074 A 
ATOM     40  C   UNL     1      15.658  22.095   3.153  1.00  0.00     0.031 C 
ATOM     41  C   UNL     1      13.281  22.560   2.623  1.00  0.00     0.037 A 
BRANCH  28  42
ATOM     42  C   UNL     1       8.675  21.057  -1.213  1.00  0.00     0.064 A 
ATOM     43  C   UNL     1       7.689  20.080  -1.008  1.00  0.00     0.173 A 
ATOM     44  C   UNL     1       8.271  22.292  -1.746  1.00  0.00     0.173 A 
ATOM     45  F   UNL     1       8.021  18.880  -0.510  1.00  0.00    -0.203 F 
ATOM     46  C   UNL     1       6.357  20.325  -1.336  1.00  0.00     0.198 A 
ATOM     47  C   UNL     1       6.934  22.543  -2.046  1.00  0.00     0.198 A 
ATOM     48  F   UNL     1       9.171  23.264  -1.956  1.00  0.00    -0.203 F 
ATOM     49  F   UNL     1       5.439  19.364  -1.161  1.00  0.00    -0.200 F 
ATOM     50  C   UNL     1       5.979  21.558  -1.845  1.00  0.00     0.200 A 
ATOM     51  F   UNL     1       6.569  23.741  -2.524  1.00  0.00    -0.200 F 
ATOM     52  F   UNL     1       4.695  21.797  -2.143  1.00  0.00    -0.200 F 
ENDBRANCH  28  42
BRANCH  29  53
ATOM     53  C   UNL     1      18.257  19.427   1.173  1.00  0.00     0.064 A 
ATOM     54  C   UNL     1      18.631  18.861   2.399  1.00  0.00     0.173 A 
ATOM     55  C   UNL     1      19.279  19.788   0.282  1.00  0.00     0.173 A 
ATOM     56  F   UNL     1      17.692  18.513   3.291  1.00  0.00    -0.203 F 
ATOM     57  C   UNL     1      19.974  18.694   2.733  1.00  0.00     0.198 A 
ATOM     58  C   UNL     1      20.619  19.585   0.601  1.00  0.00     0.198 A 
ATOM     59  F   UNL     1      18.975  20.326  -0.909  1.00  0.00    -0.203 F 
ATOM     60  F   UNL     1      20.305  18.204   3.935  1.00  0.00    -0.200 F 
ATOM     61  C   UNL     1      20.966  19.050   1.831  1.00  0.00     0.200 A 
ATOM     62  F   UNL     1      21.572  19.911  -0.282  1.00  0.00    -0.200 F 
ATOM     63  F   UNL     1      22.256  18.886   2.152  1.00  0.00    -0.200 F 
ENDBRANCH  29  53
BRANCH  41  64
ATOM     64  C   UNL     1      13.274  23.537   3.762  1.00  0.00     0.064 A 
ATOM     65  C   UNL     1      13.989  24.743   3.701  1.00  0.00     0.173 A 
ATOM     66  C   UNL     1      12.542  23.266   4.927  1.00  0.00     0.173 A 
ATOM     67  F   UNL     1      14.720  25.041   2.616  1.00  0.00    -0.203 F 
ATOM     68  C   UNL     1      14.002  25.623   4.780  1.00  0.00     0.198 A 
ATOM     69  C   UNL     1      12.528  24.164   5.990  1.00  0.00     0.198 A 
ATOM     70  F   UNL     1      11.837  22.129   5.035  1.00  0.00    -0.203 F 
ATOM     71  F   UNL     1      14.745  26.737   4.724  1.00  0.00    -0.200 F 
ATOM     72  C   UNL     1      13.267  25.336   5.920  1.00  0.00     0.200 A 
ATOM     73  F   UNL     1      11.806  23.892   7.086  1.00  0.00    -0.200 F 
ATOM     74  F   UNL     1      13.280  26.183   6.958  1.00  0.00    -0.200 F 
ENDBRANCH  41  64
ENDBRANCH  15  16
ENDBRANCH   8  10
ENDBRANCH   5   6
ENDBRANCH   4   5
ENDBRANCH   3   4
ENDBRANCH   2   3
ENDBRANCH   1   2
BRANCH   1  75
ATOM     75  C   UNL     1       9.975   8.754  -4.874  1.00  0.00     0.116 C 
BRANCH  75  76
ATOM     76  N   UNL     1       9.846   7.403  -5.378  1.00  0.00    -0.354 N 
ATOM     77  C   UNL     1       9.514   6.234  -4.756  1.00  0.00     0.242 C 
ATOM     78  H   UNL     1      10.031   7.311  -6.341  1.00  0.00     0.163 HD
ATOM     79  O   UNL     1       9.419   5.243  -5.488  1.00  0.00    -0.273 OA
BRANCH  77  80
ATOM     80  C   UNL     1       9.092   6.178  -3.258  1.00  0.00     0.174 C 
ATOM     81  C   UNL     1       9.151   4.738  -2.708  1.00  0.00     0.035 C 
ATOM     82  N   UNL     1       9.854   7.058  -2.354  1.00  0.00    -0.330 N 
ATOM     83  C   UNL     1      10.590   4.284  -2.423  1.00  0.00     0.004 C 
ATOM     84  C   UNL     1      11.255   6.679  -2.182  1.00  0.00     0.120 C 
ATOM     85  C   UNL     1      11.335   5.296  -1.549  1.00  0.00     0.022 C 
BRANCH  82  86
ATOM     86  C   UNL     1       9.165   7.988  -1.584  1.00  0.00     0.233 C 
ATOM     87  O   UNL     1       7.931   8.030  -1.572  1.00  0.00    -0.274 OA
BRANCH  86  88
ATOM     88  C   UNL     1       9.948   9.059  -0.843  1.00  0.00     0.170 C 
BRANCH  88  89
ATOM     89  S   UNL     1      10.741   8.481   0.685  1.00  0.00    -0.147 SA
BRANCH  89  90
ATOM     90  C   UNL     1       9.299   7.883   1.605  1.00  0.00     0.105 C 
BRANCH  90  91
ATOM     91  C   UNL     1       8.382   8.905   2.236  1.00  0.00    -0.038 A 
ATOM     92  C   UNL     1       8.600  10.290   2.236  1.00  0.00     0.004 A 
ATOM     93  C   UNL     1       7.247   8.416   2.909  1.00  0.00     0.004 A 
ATOM     94  C   UNL     1       7.701  11.157   2.865  1.00  0.00     0.000 A 
ATOM     95  C   UNL     1       6.358   9.280   3.548  1.00  0.00     0.000 A 
ATOM     96  C   UNL     1       6.582  10.653   3.522  1.00  0.00     0.000 A 
ENDBRANCH  90  91
ENDBRANCH  89  90
ENDBRANCH  88  89
ENDBRANCH  86  88
ENDBRANCH  82  86
ENDBRANCH  77  80
ENDBRANCH  75  76
ENDBRANCH   1  75
TORSDOF 18
