REMARK SMILES COc1ccc(C(=O)Nc2ccccc2C(=O)N[C@@H](C(=O)NCCCCCCNC(=O)c2ccc(-c3c4nc(c(-c5c(F)c(F)c(F)c(F)c5F)c5ccc([nH]5)c(-c5c(F)c(F)c(F)c(F)c5F)c5nc(c(-c6c(F)c(F)c(F)c(F)c6F)c6ccc3[nH]6)C=C5)C=C4)cc2)C(C)C)cc1
REMARK SMILES IDX 24 1 23 2 22 3 20 4 21 5 19 7 18 8 16 9 17 10 15 12 10 13
REMARK SMILES IDX 11 14 12 15 14 16 13 17 9 18 7 19 8 20 6 22 3 23 4 24 99 25
REMARK SMILES IDX 5 26 98 27 2 28 1 29 95 30 96 31 97 32 25 33 26 34 27 35
REMARK SMILES IDX 28 36 29 37 30 38 31 40 32 41 33 42 94 43 34 44 93 45 35 46
REMARK SMILES IDX 36 47 37 48 87 49 38 50 92 51 86 52 88 53 39 54 91 55 85 56
REMARK SMILES IDX 84 57 40 59 72 60 52 61 71 62 53 63 56 64 70 65 89 66 54 67
REMARK SMILES IDX 55 68 69 70 90 71 57 72 41 73 42 74 50 75 43 76 44 77 48 78
REMARK SMILES IDX 51 79 45 80 46 81 49 82 47 83 73 84 74 85 82 86 75 87 76 88
REMARK SMILES IDX 80 89 83 90 77 91 78 92 81 93 79 94 58 95 59 96 67 97 60 98
REMARK SMILES IDX 61 99 65 100 68 101 62 102 63 103 66 104 64 105
REMARK H PARENT 22 6 18 11 9 21 29 39 88 58 56 69
REMARK Flexibility Score: inf
ROOT
ATOM      1  C   UNL     1       4.870   7.651  -3.265  1.00  0.00     0.021 C 
ENDROOT
BRANCH   1   2
ATOM      2  C   UNL     1       4.562   8.164  -1.857  1.00  0.00     0.116 C 
BRANCH   2   3
ATOM      3  N   UNL     1       3.324   8.895  -1.878  1.00  0.00    -0.354 N 
ATOM      4  C   UNL     1       2.085   8.447  -1.560  1.00  0.00     0.242 C 
ATOM      5  O   UNL     1       1.151   9.035  -2.115  1.00  0.00    -0.273 OA
ATOM      6  H   UNL     1       3.384   9.837  -2.159  1.00  0.00     0.163 HD
BRANCH   4   7
ATOM      7  C   UNL     1       1.872   7.263  -0.551  1.00  0.00     0.174 C 
BRANCH   7   8
ATOM      8  N   UNL     1       2.157   6.019  -1.309  1.00  0.00    -0.340 N 
ATOM      9  C   UNL     1       3.216   5.120  -1.433  1.00  0.00     0.254 C 
ATOM     10  O   UNL     1       3.205   4.466  -2.484  1.00  0.00    -0.269 OA
ATOM     11  H   UNL     1       1.396   5.760  -1.876  1.00  0.00     0.164 HD
BRANCH   9  12
ATOM     12  C   UNL     1       4.381   4.856  -0.490  1.00  0.00     0.063 A 
ATOM     13  C   UNL     1       4.553   5.319   0.819  1.00  0.00     0.054 A 
ATOM     14  C   UNL     1       5.792   5.189   1.487  1.00  0.00     0.027 A 
ATOM     15  C   UNL     1       6.792   4.374   0.970  1.00  0.00     0.002 A 
ATOM     16  C   UNL     1       5.412   4.014  -0.979  1.00  0.00     0.016 A 
ATOM     17  C   UNL     1       6.577   3.738  -0.242  1.00  0.00     0.001 A 
BRANCH  13  18
ATOM     18  N   UNL     1       3.508   5.678   1.674  1.00  0.00    -0.321 N 
ATOM     19  C   UNL     1       2.426   4.874   1.971  1.00  0.00     0.255 C 
ATOM     20  O   UNL     1       1.723   5.153   2.939  1.00  0.00    -0.269 OA
ATOM     21  H   UNL     1       3.546   6.568   2.094  1.00  0.00     0.170 HD
BRANCH  19  22
ATOM     22  C   UNL     1       2.155   3.630   1.210  1.00  0.00     0.040 A 
ATOM     23  C   UNL     1       1.497   1.302  -0.181  1.00  0.00     0.118 A 
ATOM     24  C   UNL     1       0.830   2.474  -0.474  1.00  0.00     0.047 A 
ATOM     25  C   UNL     1       2.544   1.300   0.750  1.00  0.00     0.047 A 
ATOM     26  C   UNL     1       1.156   3.617   0.237  1.00  0.00     0.017 A 
ATOM     27  C   UNL     1       2.871   2.464   1.456  1.00  0.00     0.017 A 
BRANCH  23  28
ATOM     28  O   UNL     1       1.077   0.196  -0.862  1.00  0.00    -0.497 OA
ATOM     29  C   UNL     1       0.875  -0.916   0.003  1.00  0.00     0.278 C 
ENDBRANCH  23  28
ENDBRANCH  19  22
ENDBRANCH  13  18
ENDBRANCH   9  12
ENDBRANCH   7   8
BRANCH   7  30
ATOM     30  C   UNL     1       0.382   7.496  -0.018  1.00  0.00     0.015 C 
ATOM     31  C   UNL     1      -0.450   6.444   0.716  1.00  0.00     0.010 C 
ATOM     32  C   UNL     1       0.399   8.721   0.921  1.00  0.00     0.010 C 
ENDBRANCH   7  30
ENDBRANCH   4   7
ENDBRANCH   2   3
ENDBRANCH   1   2
BRANCH   1  33
ATOM     33  C   UNL     1       5.351   8.772  -4.195  1.00  0.00     0.002 C 
BRANCH  33  34
ATOM     34  C   UNL     1       6.664   9.423  -3.747  1.00  0.00     0.002 C 
BRANCH  34  35
ATOM     35  C   UNL     1       7.847   8.456  -3.680  1.00  0.00     0.021 C 
BRANCH  35  36
ATOM     36  C   UNL     1       8.188   7.815  -5.020  1.00  0.00     0.116 C 
BRANCH  36  37
ATOM     37  N   UNL     1       8.522   8.819  -6.019  1.00  0.00    -0.352 N 
ATOM     38  C   UNL     1       9.666   8.962  -6.761  1.00  0.00     0.251 C 
ATOM     39  H   UNL     1       7.825   9.494  -6.188  1.00  0.00     0.163 HD
ATOM     40  O   UNL     1       9.891  10.001  -7.365  1.00  0.00    -0.269 OA
BRANCH  38  41
ATOM     41  C   UNL     1      10.632   7.847  -6.816  1.00  0.00     0.039 A 
ATOM     42  C   UNL     1      11.995   8.126  -6.702  1.00  0.00     0.014 A 
ATOM     43  C   UNL     1      10.188   6.533  -6.988  1.00  0.00     0.014 A 
ATOM     44  C   UNL     1      12.913   7.076  -6.708  1.00  0.00     0.010 A 
ATOM     45  C   UNL     1      11.096   5.484  -6.915  1.00  0.00     0.010 A 
ATOM     46  C   UNL     1      12.467   5.745  -6.783  1.00  0.00    -0.014 A 
BRANCH  46  47
ATOM     47  C   UNL     1      13.424   4.613  -6.728  1.00  0.00     0.031 A 
ATOM     48  C   UNL     1      13.567   3.691  -7.907  1.00  0.00     0.074 A 
ATOM     49  C   UNL     1      14.115   4.383  -5.595  1.00  0.00     0.049 A 
ATOM     50  N   UNL     1      14.295   2.610  -8.028  1.00  0.00    -0.248 NA
ATOM     51  C   UNL     1      12.765   4.009  -9.100  1.00  0.00     0.031 C 
ATOM     52  C   UNL     1      14.024   5.182  -4.372  1.00  0.00     0.029 A 
ATOM     53  N   UNL     1      15.023   3.402  -5.284  1.00  0.00    -0.354 N 
ATOM     54  C   UNL     1      14.030   2.117  -9.298  1.00  0.00     0.074 A 
ATOM     55  C   UNL     1      13.034   2.982  -9.892  1.00  0.00     0.031 C 
ATOM     56  C   UNL     1      14.858   4.673  -3.451  1.00  0.00     0.029 A 
ATOM     57  C   UNL     1      15.509   3.489  -4.002  1.00  0.00     0.049 A 
ATOM     58  H   UNL     1      15.300   2.703  -5.919  1.00  0.00     0.167 HD
ATOM     59  C   UNL     1      14.586   1.051  -9.921  1.00  0.00     0.037 A 
ATOM     60  C   UNL     1      16.372   2.693  -3.342  1.00  0.00     0.037 A 
ATOM     61  C   UNL     1      15.595   0.209  -9.334  1.00  0.00     0.049 A 
ATOM     62  C   UNL     1      16.964   1.507  -4.058  1.00  0.00     0.074 A 
ATOM     63  C   UNL     1      16.266  -0.858  -9.905  1.00  0.00     0.029 A 
ATOM     64  N   UNL     1      16.076   0.338  -8.039  1.00  0.00    -0.354 N 
ATOM     65  N   UNL     1      16.763   1.095  -5.285  1.00  0.00    -0.248 NA
ATOM     66  C   UNL     1      17.911   0.680  -3.297  1.00  0.00     0.031 C 
ATOM     67  C   UNL     1      17.111  -1.410  -8.938  1.00  0.00     0.029 A 
ATOM     68  C   UNL     1      17.016  -0.648  -7.785  1.00  0.00     0.049 A 
ATOM     69  H   UNL     1      15.792   1.028  -7.396  1.00  0.00     0.167 HD
ATOM     70  C   UNL     1      17.581  -0.014  -5.455  1.00  0.00     0.074 A 
ATOM     71  C   UNL     1      18.294  -0.201  -4.209  1.00  0.00     0.031 C 
ATOM     72  C   UNL     1      17.729  -0.808  -6.544  1.00  0.00     0.037 A 
BRANCH  59  73
ATOM     73  C   UNL     1      14.123   0.730 -11.313  1.00  0.00     0.064 A 
ATOM     74  C   UNL     1      14.440   1.554 -12.403  1.00  0.00     0.173 A 
ATOM     75  C   UNL     1      13.408  -0.450 -11.569  1.00  0.00     0.173 A 
ATOM     76  F   UNL     1      15.112   2.699 -12.212  1.00  0.00    -0.203 F 
ATOM     77  C   UNL     1      14.042   1.218 -13.695  1.00  0.00     0.198 A 
ATOM     78  C   UNL     1      13.040  -0.798 -12.866  1.00  0.00     0.198 A 
ATOM     79  F   UNL     1      13.083  -1.276 -10.563  1.00  0.00    -0.203 F 
ATOM     80  F   UNL     1      14.322   2.041 -14.715  1.00  0.00    -0.200 F 
ATOM     81  C   UNL     1      13.352   0.038 -13.927  1.00  0.00     0.200 A 
ATOM     82  F   UNL     1      12.387  -1.948 -13.090  1.00  0.00    -0.200 F 
ATOM     83  F   UNL     1      12.985  -0.292 -15.173  1.00  0.00    -0.200 F 
ENDBRANCH  59  73
BRANCH  60  84
ATOM     84  C   UNL     1      16.739   2.990  -1.932  1.00  0.00     0.064 A 
ATOM     85  C   UNL     1      18.045   3.369  -1.589  1.00  0.00     0.173 A 
ATOM     86  C   UNL     1      15.804   2.869  -0.893  1.00  0.00     0.173 A 
ATOM     87  F   UNL     1      18.982   3.480  -2.543  1.00  0.00    -0.203 F 
ATOM     88  C   UNL     1      18.410   3.580  -0.261  1.00  0.00     0.198 A 
ATOM     89  C   UNL     1      16.161   3.115   0.431  1.00  0.00     0.198 A 
ATOM     90  F   UNL     1      14.538   2.518  -1.165  1.00  0.00    -0.203 F 
ATOM     91  F   UNL     1      19.680   3.878   0.043  1.00  0.00    -0.200 F 
ATOM     92  C   UNL     1      17.466   3.457   0.748  1.00  0.00     0.200 A 
ATOM     93  F   UNL     1      15.241   3.012   1.400  1.00  0.00    -0.200 F 
ATOM     94  F   UNL     1      17.818   3.656   2.025  1.00  0.00    -0.200 F 
ENDBRANCH  60  84
BRANCH  72  95
ATOM     95  C   UNL     1      18.734  -1.921  -6.456  1.00  0.00     0.064 A 
ATOM     96  C   UNL     1      18.521  -3.049  -5.651  1.00  0.00     0.173 A 
ATOM     97  C   UNL     1      19.908  -1.874  -7.223  1.00  0.00     0.173 A 
ATOM     98  F   UNL     1      17.421  -3.136  -4.887  1.00  0.00    -0.203 F 
ATOM     99  C   UNL     1      19.460  -4.075  -5.594  1.00  0.00     0.198 A 
ATOM    100  C   UNL     1      20.828  -2.918  -7.191  1.00  0.00     0.198 A 
ATOM    101  F   UNL     1      20.157  -0.821  -8.017  1.00  0.00    -0.203 F 
ATOM    102  F   UNL     1      19.261  -5.118  -4.776  1.00  0.00    -0.200 F 
ATOM    103  C   UNL     1      20.608  -4.013  -6.370  1.00  0.00     0.200 A 
ATOM    104  F   UNL     1      21.928  -2.864  -7.955  1.00  0.00    -0.200 F 
ATOM    105  F   UNL     1      21.506  -5.006  -6.321  1.00  0.00    -0.200 F 
ENDBRANCH  72  95
ENDBRANCH  46  47
ENDBRANCH  38  41
ENDBRANCH  36  37
ENDBRANCH  35  36
ENDBRANCH  34  35
ENDBRANCH  33  34
ENDBRANCH   1  33
TORSDOF 19
