REMARK SMILES COc1ccc(C)cc1Nc1nc(OCC(=O)NCCCCCCNC(=O)c2ccc(-c3c4nc(c(-c5c(F)c(F)c(F)c(F)c5F)c5ccc([nH]5)c(-c5c(F)c(F)c(F)c(F)c5F)c5nc(c(-c6c(F)c(F)c(F)c(F)c6F)c6ccc3[nH]6)C=C5)C=C4)cc2)cc(C(C)(C)C)n1
REMARK SMILES IDX 20 1 19 2 18 3 16 4 17 5 15 7 14 8 13 9 11 10 12 11 97 12
REMARK SMILES IDX 92 13 91 14 10 15 9 17 3 18 4 19 5 20 8 21 6 22 7 23 2 24
REMARK SMILES IDX 1 25 93 26 94 27 95 28 96 29 21 30 22 31 23 32 24 33 25 34
REMARK SMILES IDX 26 35 27 37 28 38 29 39 90 40 30 41 89 42 31 43 32 44 33 45
REMARK SMILES IDX 83 46 34 47 88 48 82 49 84 50 35 51 87 52 81 53 80 54 36 56
REMARK SMILES IDX 68 57 48 58 67 59 49 60 52 61 66 62 85 63 50 64 51 65 65 67
REMARK SMILES IDX 86 68 53 69 37 70 38 71 46 72 39 73 40 74 44 75 47 76 41 77
REMARK SMILES IDX 42 78 45 79 43 80 69 81 70 82 78 83 71 84 72 85 76 86 79 87
REMARK SMILES IDX 73 88 74 89 77 90 75 91 54 92 55 93 63 94 56 95 57 96 61 97
REMARK SMILES IDX 64 98 58 99 59 100 62 101 60 102
REMARK H PARENT 18 6 10 16 25 36 84 55 52 66
REMARK Flexibility Score: inf
ROOT
ATOM      1  C   UNL     1      -3.922   1.853  -6.588  1.00  0.00     0.021 C 
ENDROOT
BRANCH   1   2
ATOM      2  C   UNL     1      -5.402   1.475  -6.542  1.00  0.00     0.116 C 
BRANCH   2   3
ATOM      3  N   UNL     1      -5.689   0.271  -7.292  1.00  0.00    -0.353 N 
ATOM      4  C   UNL     1      -6.288  -0.875  -6.867  1.00  0.00     0.258 C 
ATOM      5  O   UNL     1      -6.494  -1.772  -7.687  1.00  0.00    -0.271 OA
ATOM      6  H   UNL     1      -5.413   0.283  -8.237  1.00  0.00     0.163 HD
BRANCH   4   7
ATOM      7  C   UNL     1      -6.714  -1.030  -5.398  1.00  0.00     0.331 C 
BRANCH   7   8
ATOM      8  O   UNL     1      -5.733  -0.916  -4.385  1.00  0.00    -0.467 OA
BRANCH   8   9
ATOM      9  C   UNL     1      -4.641  -1.733  -4.448  1.00  0.00     0.218 A 
ATOM     10  C   UNL     1      -2.485  -1.964  -3.727  1.00  0.00     0.230 A 
ATOM     11  N   UNL     1      -3.654  -1.323  -3.638  1.00  0.00    -0.177 NA
ATOM     12  N   UNL     1      -2.278  -3.008  -4.546  1.00  0.00    -0.217 NA
ATOM     13  C   UNL     1      -3.299  -3.463  -5.300  1.00  0.00     0.055 A 
ATOM     14  C   UNL     1      -4.528  -2.840  -5.260  1.00  0.00     0.093 A 
BRANCH  10  15
ATOM     15  N   UNL     1      -1.450  -1.490  -2.933  1.00  0.00    -0.321 N 
ATOM     16  H   UNL     1      -1.710  -1.254  -2.013  1.00  0.00     0.170 HD
BRANCH  15  17
ATOM     17  C   UNL     1      -0.090  -1.292  -3.233  1.00  0.00     0.084 A 
ATOM     18  C   UNL     1       0.814  -0.960  -2.203  1.00  0.00     0.142 A 
ATOM     19  C   UNL     1       2.166  -0.750  -2.499  1.00  0.00     0.049 A 
ATOM     20  C   UNL     1       2.623  -0.831  -3.817  1.00  0.00     0.007 A 
ATOM     21  C   UNL     1       0.399  -1.407  -4.543  1.00  0.00     0.033 A 
ATOM     22  C   UNL     1       1.741  -1.154  -4.850  1.00  0.00    -0.049 A 
ATOM     23  C   UNL     1       2.191  -1.208  -6.279  1.00  0.00     0.044 C 
BRANCH  18  24
ATOM     24  O   UNL     1       0.282  -0.886  -0.936  1.00  0.00    -0.495 OA
ATOM     25  C   UNL     1       0.965  -0.033  -0.025  1.00  0.00     0.278 C 
ENDBRANCH  18  24
ENDBRANCH  15  17
ENDBRANCH  10  15
BRANCH  13  26
ATOM     26  C   UNL     1      -3.012  -4.690  -6.170  1.00  0.00     0.004 C 
ATOM     27  C   UNL     1      -1.690  -4.476  -6.938  1.00  0.00     0.017 C 
ATOM     28  C   UNL     1      -2.869  -5.918  -5.251  1.00  0.00     0.017 C 
ATOM     29  C   UNL     1      -4.109  -4.991  -7.213  1.00  0.00     0.017 C 
ENDBRANCH  13  26
ENDBRANCH   8   9
ENDBRANCH   7   8
ENDBRANCH   4   7
ENDBRANCH   2   3
ENDBRANCH   1   2
BRANCH   1  30
ATOM     30  C   UNL     1      -3.330   2.101  -7.984  1.00  0.00     0.002 C 
BRANCH  30  31
ATOM     31  C   UNL     1      -4.110   3.036  -8.924  1.00  0.00     0.002 C 
BRANCH  31  32
ATOM     32  C   UNL     1      -4.531   4.387  -8.345  1.00  0.00     0.021 C 
BRANCH  32  33
ATOM     33  C   UNL     1      -3.376   5.322  -8.031  1.00  0.00     0.116 C 
BRANCH  33  34
ATOM     34  N   UNL     1      -3.002   6.215  -9.117  1.00  0.00    -0.352 N 
ATOM     35  C   UNL     1      -1.980   7.144  -9.201  1.00  0.00     0.251 C 
ATOM     36  H   UNL     1      -3.567   6.147  -9.921  1.00  0.00     0.163 HD
ATOM     37  O   UNL     1      -1.928   7.888 -10.170  1.00  0.00    -0.269 OA
BRANCH  35  38
ATOM     38  C   UNL     1      -0.871   7.158  -8.207  1.00  0.00     0.039 A 
ATOM     39  C   UNL     1       0.417   7.506  -8.653  1.00  0.00     0.014 A 
ATOM     40  C   UNL     1      -1.033   6.681  -6.914  1.00  0.00     0.014 A 
ATOM     41  C   UNL     1       1.537   7.150  -7.900  1.00  0.00     0.010 A 
ATOM     42  C   UNL     1       0.064   6.218  -6.227  1.00  0.00     0.010 A 
ATOM     43  C   UNL     1       1.349   6.402  -6.747  1.00  0.00    -0.014 A 
BRANCH  43  44
ATOM     44  C   UNL     1       2.383   5.700  -6.002  1.00  0.00     0.031 A 
ATOM     45  C   UNL     1       2.714   6.144  -4.631  1.00  0.00     0.074 A 
ATOM     46  C   UNL     1       2.754   4.479  -6.448  1.00  0.00     0.049 A 
ATOM     47  N   UNL     1       3.588   5.577  -3.876  1.00  0.00    -0.248 NA
ATOM     48  C   UNL     1       2.109   7.321  -4.013  1.00  0.00     0.031 C 
ATOM     49  C   UNL     1       3.288   3.368  -5.664  1.00  0.00     0.029 A 
ATOM     50  N   UNL     1       2.902   4.063  -7.783  1.00  0.00    -0.354 N 
ATOM     51  C   UNL     1       3.467   6.107  -2.612  1.00  0.00     0.074 A 
ATOM     52  C   UNL     1       2.622   7.260  -2.780  1.00  0.00     0.031 C 
ATOM     53  C   UNL     1       3.963   2.544  -6.481  1.00  0.00     0.029 A 
ATOM     54  C   UNL     1       4.033   3.207  -7.769  1.00  0.00     0.049 A 
ATOM     55  H   UNL     1       2.345   4.310  -8.556  1.00  0.00     0.167 HD
ATOM     56  C   UNL     1       4.019   5.415  -1.574  1.00  0.00     0.037 A 
ATOM     57  C   UNL     1       5.199   3.561  -8.385  1.00  0.00     0.037 A 
ATOM     58  C   UNL     1       4.918   4.379  -2.087  1.00  0.00     0.049 A 
ATOM     59  C   UNL     1       6.399   3.594  -7.467  1.00  0.00     0.074 A 
ATOM     60  C   UNL     1       4.819   3.007  -2.236  1.00  0.00     0.029 A 
ATOM     61  N   UNL     1       6.034   4.777  -2.817  1.00  0.00    -0.354 N 
ATOM     62  N   UNL     1       6.324   3.743  -6.173  1.00  0.00    -0.248 NA
ATOM     63  C   UNL     1       7.775   3.464  -7.934  1.00  0.00     0.031 C 
ATOM     64  C   UNL     1       5.855   2.590  -3.116  1.00  0.00     0.029 A 
ATOM     65  C   UNL     1       6.598   3.704  -3.471  1.00  0.00     0.049 A 
ATOM     66  H   UNL     1       6.373   5.700  -2.861  1.00  0.00     0.167 HD
ATOM     67  C   UNL     1       7.585   3.729  -5.633  1.00  0.00     0.074 A 
ATOM     68  C   UNL     1       8.457   3.537  -6.777  1.00  0.00     0.031 C 
ATOM     69  C   UNL     1       7.790   3.885  -4.290  1.00  0.00     0.037 A 
BRANCH  56  70
ATOM     70  C   UNL     1       3.654   5.529  -0.103  1.00  0.00     0.064 A 
ATOM     71  C   UNL     1       4.192   4.610   0.831  1.00  0.00     0.173 A 
ATOM     72  C   UNL     1       2.716   6.425   0.451  1.00  0.00     0.173 A 
ATOM     73  F   UNL     1       5.100   3.694   0.468  1.00  0.00    -0.203 F 
ATOM     74  C   UNL     1       3.803   4.577   2.176  1.00  0.00     0.198 A 
ATOM     75  C   UNL     1       2.347   6.408   1.801  1.00  0.00     0.198 A 
ATOM     76  F   UNL     1       2.081   7.342  -0.278  1.00  0.00    -0.203 F 
ATOM     77  F   UNL     1       4.317   3.648   2.995  1.00  0.00    -0.200 F 
ATOM     78  C   UNL     1       2.881   5.477   2.662  1.00  0.00     0.200 A 
ATOM     79  F   UNL     1       1.447   7.296   2.249  1.00  0.00    -0.200 F 
ATOM     80  F   UNL     1       2.499   5.443   3.946  1.00  0.00    -0.200 F 
ENDBRANCH  56  70
BRANCH  57  81
ATOM     81  C   UNL     1       4.980   4.457  -9.552  1.00  0.00     0.064 A 
ATOM     82  C   UNL     1       4.267   3.940 -10.651  1.00  0.00     0.173 A 
ATOM     83  C   UNL     1       5.047   5.849  -9.417  1.00  0.00     0.173 A 
ATOM     84  F   UNL     1       4.175   2.611 -10.823  1.00  0.00    -0.203 F 
ATOM     85  C   UNL     1       3.535   4.773 -11.494  1.00  0.00     0.198 A 
ATOM     86  C   UNL     1       4.326   6.681 -10.277  1.00  0.00     0.198 A 
ATOM     87  F   UNL     1       5.699   6.401  -8.384  1.00  0.00    -0.203 F 
ATOM     88  F   UNL     1       2.762   4.242 -12.452  1.00  0.00    -0.200 F 
ATOM     89  C   UNL     1       3.539   6.141 -11.285  1.00  0.00     0.200 A 
ATOM     90  F   UNL     1       4.307   8.005 -10.062  1.00  0.00    -0.200 F 
ATOM     91  F   UNL     1       2.751   6.936 -12.023  1.00  0.00    -0.200 F 
ENDBRANCH  57  81
BRANCH  69  92
ATOM     92  C   UNL     1       9.107   4.161  -3.585  1.00  0.00     0.064 A 
ATOM     93  C   UNL     1      10.247   4.701  -4.203  1.00  0.00     0.173 A 
ATOM     94  C   UNL     1       9.202   4.025  -2.174  1.00  0.00     0.173 A 
ATOM     95  F   UNL     1      10.263   5.000  -5.507  1.00  0.00    -0.203 F 
ATOM     96  C   UNL     1      11.403   5.022  -3.482  1.00  0.00     0.198 A 
ATOM     97  C   UNL     1      10.332   4.408  -1.451  1.00  0.00     0.198 A 
ATOM     98  F   UNL     1       8.188   3.546  -1.440  1.00  0.00    -0.203 F 
ATOM     99  F   UNL     1      12.476   5.497  -4.132  1.00  0.00    -0.200 F 
ATOM    100  C   UNL     1      11.441   4.892  -2.108  1.00  0.00     0.200 A 
ATOM    101  F   UNL     1      10.325   4.328  -0.113  1.00  0.00    -0.200 F 
ATOM    102  F   UNL     1      12.530   5.255  -1.418  1.00  0.00    -0.200 F 
ENDBRANCH  69  92
ENDBRANCH  43  44
ENDBRANCH  35  38
ENDBRANCH  33  34
ENDBRANCH  32  33
ENDBRANCH  31  32
ENDBRANCH  30  31
ENDBRANCH   1  30
TORSDOF 19
