REMARK SMILES NS(=O)(=O)CCNC(=O)N1[C@@H]2CC[C@H]1C[C@H](CC(=O)NCCCCCCNC(=O)c1ccc(-c3c4nc(c(-c5c(F)c(F)c(F)c(F)c5F)c5ccc([nH]5)c(-c5c(F)c(F)c(F)c(F)c5F)c5nc(c(-c6c(F)c(F)c(F)c(F)c6F)c6ccc3[nH]6)C=C5)C=C4)cc1)C2
REMARK SMILES IDX 21 1 20 2 18 3 19 4 17 6 16 7 10 8 11 9 14 10 12 11 93 12
REMARK SMILES IDX 13 13 15 14 8 15 7 16 9 18 6 19 5 20 2 21 3 22 4 23 1 24
REMARK SMILES IDX 22 27 23 28 24 29 25 30 26 31 27 32 28 33 29 35 30 36 31 37
REMARK SMILES IDX 92 38 32 39 91 40 33 41 34 42 35 43 85 44 36 45 90 46 84 47
REMARK SMILES IDX 86 48 37 49 89 50 83 51 82 52 38 54 70 55 50 56 69 57 51 58
REMARK SMILES IDX 54 59 68 60 87 61 52 62 53 63 67 65 88 66 55 67 39 68 40 69
REMARK SMILES IDX 48 70 41 71 42 72 46 73 49 74 43 75 44 76 47 77 45 78 71 79
REMARK SMILES IDX 72 80 80 81 73 82 74 83 78 84 81 85 75 86 76 87 79 88 77 89
REMARK SMILES IDX 56 90 57 91 65 92 58 93 59 94 63 95 66 96 60 97 61 98 64 99
REMARK SMILES IDX 62 100
REMARK H PARENT 20 5 7 17 1 25 1 26 27 34 86 53 54 64
REMARK Flexibility Score: inf
ROOT
ATOM      1  C   UNL     1       0.449  -2.780   6.298  1.00  0.00     0.116 C 
ENDROOT
BRANCH   1   2
ATOM      2  N   UNL     1       1.438  -3.447   7.134  1.00  0.00    -0.356 N 
ATOM      3  C   UNL     1       2.721  -3.853   6.912  1.00  0.00     0.220 C 
ATOM      4  O   UNL     1       3.286  -4.462   7.823  1.00  0.00    -0.275 OA
ATOM      5  H   UNL     1       1.115  -3.645   8.043  1.00  0.00     0.163 HD
BRANCH   3   6
ATOM      6  C   UNL     1       3.456  -3.580   5.603  1.00  0.00     0.103 C 
BRANCH   6   7
ATOM      7  C   UNL     1       3.281  -4.683   4.531  1.00  0.00     0.002 C 
ATOM      8  N   UNL     1       2.436  -4.554   1.780  1.00  0.00    -0.319 N 
ATOM      9  C   UNL     1       3.743  -5.142   2.031  1.00  0.00     0.087 C 
ATOM     10  C   UNL     1       1.528  -5.234   2.674  1.00  0.00     0.087 C 
ATOM     11  C   UNL     1       3.436  -6.638   2.204  1.00  0.00     0.027 C 
ATOM     12  C   UNL     1       4.258  -4.494   3.337  1.00  0.00     0.029 C 
ATOM     13  C   UNL     1       1.949  -6.698   2.568  1.00  0.00     0.027 C 
ATOM     14  C   UNL     1       1.814  -4.716   4.076  1.00  0.00     0.029 C 
BRANCH   8  15
ATOM     15  C   UNL     1       2.219  -3.650   0.796  1.00  0.00     0.317 C 
ATOM     16  N   UNL     1       1.124  -2.857   0.789  1.00  0.00    -0.337 N 
ATOM     17  H   UNL     1       0.801  -2.632  -0.114  1.00  0.00     0.165 HD
ATOM     18  O   UNL     1       3.019  -3.487  -0.127  1.00  0.00    -0.249 OA
BRANCH  16  19
ATOM     19  C   UNL     1       0.332  -2.271   1.863  1.00  0.00     0.135 C 
BRANCH  19  20
ATOM     20  C   UNL     1       0.963  -1.009   2.434  1.00  0.00     0.175 C 
BRANCH  20  21
ATOM     21  S   UNL     1       0.505   0.464   1.532  1.00  0.00     0.210 S 
ATOM     22  O   UNL     1       1.294   1.572   2.009  1.00  0.00    -0.213 OA
ATOM     23  O   UNL     1      -0.937   0.539   1.446  1.00  0.00    -0.213 OA
BRANCH  21  24
ATOM     24  N   UNL     1       1.051   0.151  -0.018  1.00  0.00    -0.229 NA
ATOM     25  H   UNL     1       0.834   0.945  -0.621  1.00  0.00     0.137 HD
ATOM     26  H   UNL     1       0.591  -0.685  -0.378  1.00  0.00     0.137 HD
ENDBRANCH  21  24
ENDBRANCH  20  21
ENDBRANCH  19  20
ENDBRANCH  16  19
ENDBRANCH   8  15
ENDBRANCH   6   7
ENDBRANCH   3   6
ENDBRANCH   1   2
BRANCH   1  27
ATOM     27  C   UNL     1      -0.632  -3.769   5.826  1.00  0.00     0.021 C 
BRANCH  27  28
ATOM     28  C   UNL     1      -1.934  -3.743   6.621  1.00  0.00     0.002 C 
BRANCH  28  29
ATOM     29  C   UNL     1      -2.777  -2.485   6.422  1.00  0.00     0.002 C 
BRANCH  29  30
ATOM     30  C   UNL     1      -3.198  -2.198   4.976  1.00  0.00     0.021 C 
BRANCH  30  31
ATOM     31  C   UNL     1      -3.951  -3.333   4.286  1.00  0.00     0.116 C 
BRANCH  31  32
ATOM     32  N   UNL     1      -5.172  -3.686   4.995  1.00  0.00    -0.352 N 
ATOM     33  C   UNL     1      -6.480  -3.520   4.614  1.00  0.00     0.251 C 
ATOM     34  H   UNL     1      -5.040  -4.104   5.876  1.00  0.00     0.163 HD
ATOM     35  O   UNL     1      -7.385  -3.629   5.434  1.00  0.00    -0.269 OA
BRANCH  33  36
ATOM     36  C   UNL     1      -6.794  -3.202   3.207  1.00  0.00     0.039 A 
ATOM     37  C   UNL     1      -7.703  -2.181   2.924  1.00  0.00     0.014 A 
ATOM     38  C   UNL     1      -6.191  -3.920   2.171  1.00  0.00     0.014 A 
ATOM     39  C   UNL     1      -7.954  -1.831   1.595  1.00  0.00     0.010 A 
ATOM     40  C   UNL     1      -6.385  -3.522   0.853  1.00  0.00     0.010 A 
ATOM     41  C   UNL     1      -7.266  -2.472   0.552  1.00  0.00    -0.014 A 
BRANCH  41  42
ATOM     42  C   UNL     1      -7.437  -2.050  -0.861  1.00  0.00     0.031 A 
ATOM     43  C   UNL     1      -8.008  -3.005  -1.871  1.00  0.00     0.074 A 
ATOM     44  C   UNL     1      -6.999  -0.836  -1.248  1.00  0.00     0.049 A 
ATOM     45  N   UNL     1      -8.138  -2.861  -3.166  1.00  0.00    -0.248 NA
ATOM     46  C   UNL     1      -8.468  -4.307  -1.363  1.00  0.00     0.031 C 
ATOM     47  C   UNL     1      -6.386   0.160  -0.369  1.00  0.00     0.029 A 
ATOM     48  N   UNL     1      -6.982  -0.241  -2.486  1.00  0.00    -0.354 N 
ATOM     49  C   UNL     1      -8.678  -4.055  -3.626  1.00  0.00     0.074 A 
ATOM     50  C   UNL     1      -8.805  -4.931  -2.481  1.00  0.00     0.031 C 
ATOM     51  C   UNL     1      -6.066   1.246  -1.090  1.00  0.00     0.029 A 
ATOM     52  C   UNL     1      -6.405   1.006  -2.489  1.00  0.00     0.049 A 
ATOM     53  H   UNL     1      -7.349  -0.668  -3.294  1.00  0.00     0.167 HD
ATOM     54  C   UNL     1      -9.050  -4.382  -4.886  1.00  0.00     0.037 A 
ATOM     55  C   UNL     1      -6.156   1.850  -3.508  1.00  0.00     0.037 A 
ATOM     56  C   UNL     1      -8.937  -3.497  -6.016  1.00  0.00     0.049 A 
ATOM     57  C   UNL     1      -6.558   1.451  -4.903  1.00  0.00     0.074 A 
ATOM     58  C   UNL     1      -9.350  -3.707  -7.320  1.00  0.00     0.029 A 
ATOM     59  N   UNL     1      -8.360  -2.235  -5.979  1.00  0.00    -0.354 N 
ATOM     60  N   UNL     1      -7.139   0.351  -5.315  1.00  0.00    -0.248 NA
ATOM     61  C   UNL     1      -6.270   2.413  -5.976  1.00  0.00     0.031 C 
ATOM     62  C   UNL     1      -8.963  -2.603  -8.085  1.00  0.00     0.029 A 
ATOM     63  C   UNL     1      -8.371  -1.673  -7.245  1.00  0.00     0.049 A 
ATOM     64  H   UNL     1      -7.996  -1.804  -5.172  1.00  0.00     0.167 HD
ATOM     65  C   UNL     1      -7.310   0.498  -6.685  1.00  0.00     0.074 A 
ATOM     66  C   UNL     1      -6.788   1.803  -7.032  1.00  0.00     0.031 C 
ATOM     67  C   UNL     1      -7.850  -0.370  -7.575  1.00  0.00     0.037 A 
BRANCH  54  68
ATOM     68  C   UNL     1      -9.606  -5.758  -5.118  1.00  0.00     0.064 A 
ATOM     69  C   UNL     1     -10.856  -6.146  -4.612  1.00  0.00     0.173 A 
ATOM     70  C   UNL     1      -8.901  -6.686  -5.900  1.00  0.00     0.173 A 
ATOM     71  F   UNL     1     -11.569  -5.302  -3.851  1.00  0.00    -0.203 F 
ATOM     72  C   UNL     1     -11.365  -7.420  -4.855  1.00  0.00     0.198 A 
ATOM     73  C   UNL     1      -9.428  -7.946  -6.170  1.00  0.00     0.198 A 
ATOM     74  F   UNL     1      -7.704  -6.366  -6.415  1.00  0.00    -0.203 F 
ATOM     75  F   UNL     1     -12.538  -7.785  -4.319  1.00  0.00    -0.200 F 
ATOM     76  C   UNL     1     -10.655  -8.315  -5.641  1.00  0.00     0.200 A 
ATOM     77  F   UNL     1      -8.747  -8.804  -6.943  1.00  0.00    -0.200 F 
ATOM     78  F   UNL     1     -11.151  -9.536  -5.884  1.00  0.00    -0.200 F 
ENDBRANCH  54  68
BRANCH  55  79
ATOM     79  C   UNL     1      -5.490   3.154  -3.249  1.00  0.00     0.064 A 
ATOM     80  C   UNL     1      -6.177   4.364  -3.427  1.00  0.00     0.173 A 
ATOM     81  C   UNL     1      -4.152   3.221  -2.834  1.00  0.00     0.173 A 
ATOM     82  F   UNL     1      -7.452   4.354  -3.845  1.00  0.00    -0.203 F 
ATOM     83  C   UNL     1      -5.544   5.588  -3.226  1.00  0.00     0.198 A 
ATOM     84  C   UNL     1      -3.530   4.445  -2.600  1.00  0.00     0.198 A 
ATOM     85  F   UNL     1      -3.448   2.094  -2.649  1.00  0.00    -0.203 F 
ATOM     86  F   UNL     1      -6.207   6.729  -3.460  1.00  0.00    -0.200 F 
ATOM     87  C   UNL     1      -4.223   5.628  -2.806  1.00  0.00     0.200 A 
ATOM     88  F   UNL     1      -2.256   4.478  -2.184  1.00  0.00    -0.200 F 
ATOM     89  F   UNL     1      -3.614   6.806  -2.613  1.00  0.00    -0.200 F 
ENDBRANCH  55  79
BRANCH  67  90
ATOM     90  C   UNL     1      -7.935   0.071  -9.009  1.00  0.00     0.064 A 
ATOM     91  C   UNL     1      -6.792   0.194  -9.812  1.00  0.00     0.173 A 
ATOM     92  C   UNL     1      -9.183   0.325  -9.600  1.00  0.00     0.173 A 
ATOM     93  F   UNL     1      -5.574  -0.022  -9.292  1.00  0.00    -0.203 F 
ATOM     94  C   UNL     1      -6.894   0.575 -11.148  1.00  0.00     0.198 A 
ATOM     95  C   UNL     1      -9.283   0.671 -10.944  1.00  0.00     0.198 A 
ATOM     96  F   UNL     1     -10.308   0.216  -8.878  1.00  0.00    -0.203 F 
ATOM     97  F   UNL     1      -5.784   0.732 -11.884  1.00  0.00    -0.200 F 
ATOM     98  C   UNL     1      -8.139   0.803 -11.715  1.00  0.00     0.200 A 
ATOM     99  F   UNL     1     -10.488   0.873 -11.494  1.00  0.00    -0.200 F 
ATOM    100  F   UNL     1      -8.235   1.156 -13.004  1.00  0.00    -0.200 F 
ENDBRANCH  67  90
ENDBRANCH  41  42
ENDBRANCH  33  36
ENDBRANCH  31  32
ENDBRANCH  30  31
ENDBRANCH  29  30
ENDBRANCH  28  29
ENDBRANCH  27  28
ENDBRANCH   1  27
TORSDOF 19
