REMARK SMILES CN1C(=O)C[C@@H](C(=O)NCCCCCCNC(=O)c2ccc(-c3c4nc(c(-c5c(F)c(F)c(F)c(F)c5F)c5ccc([nH]5)c(-c5c(F)c(F)c(F)c(F)c5F)c5nc(c(-c6c(F)c(F)c(F)c(F)c6F)c6ccc3[nH]6)C=C5)C=C4)cc2)C12CCN(C(=O)c1cccc3ccccc13)CC2
REMARK SMILES IDX 13 1 12 2 11 3 10 4 9 5 7 6 8 7 6 9 1 10 2 11 3 12 82 13
REMARK SMILES IDX 4 14 5 15 83 16 99 17 84 18 98 19 85 20 86 21 87 22 88 23
REMARK SMILES IDX 89 24 97 25 90 26 92 27 96 28 91 29 93 30 95 31 94 32 14 33
REMARK SMILES IDX 15 34 16 35 17 36 18 38 19 39 20 40 81 41 21 42 80 43 22 44
REMARK SMILES IDX 23 45 24 46 74 47 25 48 79 49 73 50 75 51 26 52 78 53 72 54
REMARK SMILES IDX 71 55 27 57 59 58 39 59 58 60 40 61 43 62 57 63 76 64 41 65
REMARK SMILES IDX 42 66 56 68 77 69 44 70 28 71 29 72 37 73 30 74 31 75 35 76
REMARK SMILES IDX 38 77 32 78 33 79 36 80 34 81 60 82 61 83 69 84 62 85 63 86
REMARK SMILES IDX 67 87 70 88 64 89 65 90 68 91 66 92 45 93 46 94 54 95 47 96
REMARK SMILES IDX 48 97 52 98 55 99 49 100 50 101 53 102 51 103
REMARK H PARENT 9 8 16 37 75 56 43 67
REMARK Flexibility Score: inf
ROOT
ATOM      1  C   UNL     1       3.010  -0.913  -6.074  1.00  0.00     0.002 C 
ENDROOT
BRANCH   1   2
ATOM      2  C   UNL     1       1.730  -1.452  -5.439  1.00  0.00     0.002 C 
BRANCH   2   3
ATOM      3  C   UNL     1       1.481  -0.954  -4.019  1.00  0.00     0.021 C 
BRANCH   3   4
ATOM      4  C   UNL     1       1.330   0.567  -3.889  1.00  0.00     0.116 C 
BRANCH   4   5
ATOM      5  N   UNL     1       0.090   1.079  -4.446  1.00  0.00    -0.356 N 
ATOM      6  C   UNL     1      -0.954   1.767  -3.917  1.00  0.00     0.226 C 
ATOM      7  O   UNL     1      -1.852   2.079  -4.708  1.00  0.00    -0.275 OA
ATOM      8  H   UNL     1      -0.015   0.886  -5.406  1.00  0.00     0.163 HD
BRANCH   6   9
ATOM      9  C   UNL     1      -1.111   2.155  -2.441  1.00  0.00     0.113 C 
ATOM     10  C   UNL     1       0.799   0.162   0.111  1.00  0.00     0.147 C 
ATOM     11  N   UNL     1       0.213   1.129  -0.801  1.00  0.00    -0.339 N 
ATOM     12  C   UNL     1       0.836   2.344  -1.060  1.00  0.00     0.223 C 
ATOM     13  C   UNL     1      -1.139   1.026  -1.381  1.00  0.00     0.058 C 
ATOM     14  O   UNL     1       1.916   2.712  -0.635  1.00  0.00    -0.275 OA
ATOM     15  C   UNL     1      -0.033   3.139  -1.992  1.00  0.00     0.116 C 
ATOM     16  C   UNL     1      -1.445  -0.354  -1.986  1.00  0.00     0.051 C 
ATOM     17  C   UNL     1      -2.187   1.283  -0.257  1.00  0.00     0.051 C 
ATOM     18  C   UNL     1      -2.880  -0.488  -2.484  1.00  0.00     0.122 C 
ATOM     19  C   UNL     1      -3.631   0.945  -0.658  1.00  0.00     0.122 C 
ATOM     20  N   UNL     1      -3.725  -0.358  -1.323  1.00  0.00    -0.338 N 
ATOM     21  C   UNL     1      -4.448  -1.398  -0.746  1.00  0.00     0.254 C 
ATOM     22  O   UNL     1      -4.941  -1.307   0.378  1.00  0.00    -0.269 OA
BRANCH  21  23
ATOM     23  C   UNL     1      -4.788  -2.630  -1.518  1.00  0.00     0.047 A 
ATOM     24  C   UNL     1      -6.141  -2.699  -1.894  1.00  0.00     0.014 A 
ATOM     25  C   UNL     1      -3.931  -3.757  -1.700  1.00  0.00    -0.006 A 
ATOM     26  C   UNL     1      -6.679  -3.883  -2.383  1.00  0.00     0.001 A 
ATOM     27  C   UNL     1      -4.512  -4.966  -2.164  1.00  0.00    -0.018 A 
ATOM     28  C   UNL     1      -2.536  -3.779  -1.466  1.00  0.00     0.009 A 
ATOM     29  C   UNL     1      -5.878  -5.017  -2.477  1.00  0.00     0.009 A 
ATOM     30  C   UNL     1      -3.729  -6.124  -2.314  1.00  0.00     0.009 A 
ATOM     31  C   UNL     1      -1.748  -4.905  -1.732  1.00  0.00     0.001 A 
ATOM     32  C   UNL     1      -2.351  -6.089  -2.127  1.00  0.00     0.001 A 
ENDBRANCH  21  23
ENDBRANCH   6   9
ENDBRANCH   4   5
ENDBRANCH   3   4
ENDBRANCH   2   3
ENDBRANCH   1   2
BRANCH   1  33
ATOM     33  C   UNL     1       4.263  -1.066  -5.208  1.00  0.00     0.021 C 
BRANCH  33  34
ATOM     34  C   UNL     1       4.528  -2.488  -4.724  1.00  0.00     0.116 C 
BRANCH  34  35
ATOM     35  N   UNL     1       4.715  -3.408  -5.833  1.00  0.00    -0.352 N 
ATOM     36  C   UNL     1       5.797  -4.198  -6.121  1.00  0.00     0.251 C 
ATOM     37  H   UNL     1       3.962  -3.472  -6.463  1.00  0.00     0.163 HD
ATOM     38  O   UNL     1       5.898  -4.740  -7.216  1.00  0.00    -0.269 OA
BRANCH  36  39
ATOM     39  C   UNL     1       6.849  -4.383  -5.103  1.00  0.00     0.039 A 
ATOM     40  C   UNL     1       8.186  -4.271  -5.487  1.00  0.00     0.014 A 
ATOM     41  C   UNL     1       6.513  -4.666  -3.776  1.00  0.00     0.014 A 
ATOM     42  C   UNL     1       9.189  -4.398  -4.526  1.00  0.00     0.010 A 
ATOM     43  C   UNL     1       7.510  -4.714  -2.807  1.00  0.00     0.010 A 
ATOM     44  C   UNL     1       8.858  -4.592  -3.175  1.00  0.00    -0.014 A 
BRANCH  44  45
ATOM     45  C   UNL     1       9.914  -4.675  -2.135  1.00  0.00     0.031 A 
ATOM     46  C   UNL     1      10.103  -5.942  -1.350  1.00  0.00     0.074 A 
ATOM     47  C   UNL     1      10.663  -3.590  -1.861  1.00  0.00     0.049 A 
ATOM     48  N   UNL     1      10.935  -6.194  -0.371  1.00  0.00    -0.248 NA
ATOM     49  C   UNL     1       9.221  -7.070  -1.692  1.00  0.00     0.031 C 
ATOM     50  C   UNL     1      10.537  -2.289  -2.520  1.00  0.00     0.029 A 
ATOM     51  N   UNL     1      11.673  -3.405  -0.951  1.00  0.00    -0.354 N 
ATOM     52  C   UNL     1      10.669  -7.498   0.025  1.00  0.00     0.074 A 
ATOM     53  C   UNL     1       9.559  -7.966  -0.777  1.00  0.00     0.031 C 
ATOM     54  C   UNL     1      11.449  -1.448  -2.009  1.00  0.00     0.029 A 
ATOM     55  C   UNL     1      12.194  -2.135  -0.959  1.00  0.00     0.049 A 
ATOM     56  H   UNL     1      11.993  -4.115  -0.349  1.00  0.00     0.167 HD
ATOM     57  C   UNL     1      11.308  -8.246   0.956  1.00  0.00     0.037 A 
ATOM     58  C   UNL     1      13.158  -1.583  -0.196  1.00  0.00     0.037 A 
ATOM     59  C   UNL     1      12.423  -7.778   1.738  1.00  0.00     0.049 A 
ATOM     60  C   UNL     1      13.844  -2.431   0.841  1.00  0.00     0.074 A 
ATOM     61  C   UNL     1      13.180  -8.475   2.663  1.00  0.00     0.029 A 
ATOM     62  N   UNL     1      12.933  -6.488   1.694  1.00  0.00    -0.354 N 
ATOM     63  N   UNL     1      13.639  -3.688   1.152  1.00  0.00    -0.248 NA
ATOM     64  C   UNL     1      14.904  -1.785   1.627  1.00  0.00     0.031 C 
ATOM     65  C   UNL     1      14.108  -7.590   3.223  1.00  0.00     0.029 A 
ATOM     66  C   UNL     1      13.976  -6.360   2.599  1.00  0.00     0.049 A 
ATOM     67  H   UNL     1      12.604  -5.770   1.107  1.00  0.00     0.167 HD
ATOM     68  C   UNL     1      14.559  -3.991   2.147  1.00  0.00     0.074 A 
ATOM     69  C   UNL     1      15.336  -2.791   2.374  1.00  0.00     0.031 C 
ATOM     70  C   UNL     1      14.743  -5.159   2.811  1.00  0.00     0.037 A 
BRANCH  57  71
ATOM     71  C   UNL     1      10.814  -9.646   1.185  1.00  0.00     0.064 A 
ATOM     72  C   UNL     1      10.951 -10.648   0.211  1.00  0.00     0.173 A 
ATOM     73  C   UNL     1      10.222 -10.001   2.407  1.00  0.00     0.173 A 
ATOM     74  F   UNL     1      11.500 -10.362  -0.980  1.00  0.00    -0.203 F 
ATOM     75  C   UNL     1      10.484 -11.940   0.439  1.00  0.00     0.198 A 
ATOM     76  C   UNL     1       9.789 -11.302   2.645  1.00  0.00     0.198 A 
ATOM     77  F   UNL     1      10.070  -9.085   3.376  1.00  0.00    -0.203 F 
ATOM     78  F   UNL     1      10.575 -12.864  -0.528  1.00  0.00    -0.200 F 
ATOM     79  C   UNL     1       9.911 -12.268   1.658  1.00  0.00     0.200 A 
ATOM     80  F   UNL     1       9.248 -11.621   3.829  1.00  0.00    -0.200 F 
ATOM     81  F   UNL     1       9.468 -13.514   1.878  1.00  0.00    -0.200 F 
ENDBRANCH  57  71
BRANCH  58  82
ATOM     82  C   UNL     1      13.538  -0.160  -0.396  1.00  0.00     0.064 A 
ATOM     83  C   UNL     1      14.794   0.188  -0.911  1.00  0.00     0.173 A 
ATOM     84  C   UNL     1      12.655   0.882  -0.074  1.00  0.00     0.173 A 
ATOM     85  F   UNL     1      15.681  -0.771  -1.217  1.00  0.00    -0.203 F 
ATOM     86  C   UNL     1      15.162   1.522  -1.074  1.00  0.00     0.198 A 
ATOM     87  C   UNL     1      13.012   2.215  -0.268  1.00  0.00     0.198 A 
ATOM     88  F   UNL     1      11.438   0.604   0.416  1.00  0.00    -0.203 F 
ATOM     89  F   UNL     1      16.389   1.826  -1.520  1.00  0.00    -0.200 F 
ATOM     90  C   UNL     1      14.269   2.534  -0.758  1.00  0.00     0.200 A 
ATOM     91  F   UNL     1      12.139   3.189   0.022  1.00  0.00    -0.200 F 
ATOM     92  F   UNL     1      14.621   3.817  -0.919  1.00  0.00    -0.200 F 
ENDBRANCH  58  82
BRANCH  70  93
ATOM     93  C   UNL     1      15.854  -5.208   3.823  1.00  0.00     0.064 A 
ATOM     94  C   UNL     1      15.781  -4.508   5.036  1.00  0.00     0.173 A 
ATOM     95  C   UNL     1      16.989  -5.999   3.589  1.00  0.00     0.173 A 
ATOM     96  F   UNL     1      14.724  -3.727   5.303  1.00  0.00    -0.203 F 
ATOM     97  C   UNL     1      16.818  -4.575   5.964  1.00  0.00     0.198 A 
ATOM     98  C   UNL     1      18.007  -6.092   4.534  1.00  0.00     0.198 A 
ATOM     99  F   UNL     1      17.106  -6.696   2.448  1.00  0.00    -0.203 F 
ATOM    100  F   UNL     1      16.751  -3.854   7.092  1.00  0.00    -0.200 F 
ATOM    101  C   UNL     1      17.925  -5.372   5.716  1.00  0.00     0.200 A 
ATOM    102  F   UNL     1      19.067  -6.877   4.300  1.00  0.00    -0.200 F 
ATOM    103  F   UNL     1      18.917  -5.442   6.614  1.00  0.00    -0.200 F 
ENDBRANCH  70  93
ENDBRANCH  44  45
ENDBRANCH  36  39
ENDBRANCH  34  35
ENDBRANCH  33  34
ENDBRANCH   1  33
TORSDOF 14
