REMARK SMILES O=C(NCCCCCCNC(=O)C1([C@H]2CCC[C@H]2O)CCCCC1)c1ccc(-c2c3nc(c(-c4c(F)c(F)c(F)c(F)c4F)c4ccc([nH]4)c(-c4c(F)c(F)c(F)c(F)c4F)c4nc(c(-c5c(F)c(F)c(F)c(F)c5F)c5ccc2[nH]5)C=C4)C=C3)cc1
REMARK SMILES IDX 6 1 5 2 4 3 3 4 1 5 2 6 25 8 26 9 87 10 27 11 86 12 28 13
REMARK SMILES IDX 29 14 30 15 80 16 31 17 85 18 79 19 81 20 32 21 84 22 78 23
REMARK SMILES IDX 77 24 33 26 65 27 45 28 64 29 46 30 49 31 63 32 82 33 47 34
REMARK SMILES IDX 48 35 62 37 83 38 50 39 34 40 35 41 43 42 36 43 37 44 41 45
REMARK SMILES IDX 44 46 38 47 39 48 42 49 40 50 66 51 67 52 75 53 68 54 69 55
REMARK SMILES IDX 73 56 76 57 70 58 71 59 74 60 72 61 51 62 52 63 60 64 53 65
REMARK SMILES IDX 54 66 58 67 61 68 55 69 56 70 59 71 57 72 7 73 8 74 9 75
REMARK SMILES IDX 10 76 11 77 12 79 13 80 20 81 24 82 21 83 23 84 22 85 14 86
REMARK SMILES IDX 15 87 18 88 16 89 17 90 19 91
REMARK H PARENT 3 7 81 25 49 36 10 78 19 92
REMARK Flexibility Score: inf
ROOT
ATOM      1  C   UNL     1       3.908   3.539  -1.340  1.00  0.00     0.002 C 
ENDROOT
BRANCH   1   2
ATOM      2  C   UNL     1       4.460   2.127  -1.536  1.00  0.00     0.021 C 
BRANCH   2   3
ATOM      3  C   UNL     1       4.319   1.236  -0.311  1.00  0.00     0.116 C 
BRANCH   3   4
ATOM      4  N   UNL     1       2.924   1.012   0.031  1.00  0.00    -0.352 N 
ATOM      5  O   UNL     1       1.001  -0.166   0.137  1.00  0.00    -0.269 OA
ATOM      6  C   UNL     1       2.223  -0.167   0.066  1.00  0.00     0.251 C 
ATOM      7  H   UNL     1       2.412   1.818   0.270  1.00  0.00     0.163 HD
BRANCH   6   8
ATOM      8  C   UNL     1       2.963  -1.443   0.011  1.00  0.00     0.039 A 
ATOM      9  C   UNL     1       4.116  -1.617   0.780  1.00  0.00     0.014 A 
ATOM     10  C   UNL     1       2.493  -2.475  -0.803  1.00  0.00     0.014 A 
ATOM     11  C   UNL     1       4.872  -2.771   0.636  1.00  0.00     0.010 A 
ATOM     12  C   UNL     1       3.201  -3.676  -0.870  1.00  0.00     0.010 A 
ATOM     13  C   UNL     1       4.405  -3.826  -0.164  1.00  0.00    -0.014 A 
BRANCH  13  14
ATOM     14  C   UNL     1       5.150  -5.108  -0.169  1.00  0.00     0.031 A 
ATOM     15  C   UNL     1       5.789  -5.635  -1.419  1.00  0.00     0.074 A 
ATOM     16  C   UNL     1       5.251  -5.788   0.990  1.00  0.00     0.049 A 
ATOM     17  N   UNL     1       6.468  -6.741  -1.593  1.00  0.00    -0.248 NA
ATOM     18  C   UNL     1       5.644  -4.823  -2.637  1.00  0.00     0.031 C 
ATOM     19  C   UNL     1       4.657  -5.372   2.263  1.00  0.00     0.029 A 
ATOM     20  N   UNL     1       5.893  -6.961   1.292  1.00  0.00    -0.354 N 
ATOM     21  C   UNL     1       6.817  -6.767  -2.937  1.00  0.00     0.074 A 
ATOM     22  C   UNL     1       6.250  -5.580  -3.541  1.00  0.00     0.031 C 
ATOM     23  C   UNL     1       4.998  -6.249   3.217  1.00  0.00     0.029 A 
ATOM     24  C   UNL     1       5.767  -7.328   2.610  1.00  0.00     0.049 A 
ATOM     25  H   UNL     1       6.395  -7.488   0.630  1.00  0.00     0.167 HD
ATOM     26  C   UNL     1       7.550  -7.696  -3.597  1.00  0.00     0.037 A 
ATOM     27  C   UNL     1       6.198  -8.427   3.254  1.00  0.00     0.037 A 
ATOM     28  C   UNL     1       8.111  -8.872  -2.979  1.00  0.00     0.049 A 
ATOM     29  C   UNL     1       6.969  -9.459   2.484  1.00  0.00     0.074 A 
ATOM     30  C   UNL     1       8.895  -9.857  -3.553  1.00  0.00     0.029 A 
ATOM     31  N   UNL     1       7.938  -9.227  -1.647  1.00  0.00    -0.354 N 
ATOM     32  N   UNL     1       7.328  -9.453   1.223  1.00  0.00    -0.248 NA
ATOM     33  C   UNL     1       7.394 -10.652   3.225  1.00  0.00     0.031 C 
ATOM     34  C   UNL     1       9.145 -10.837  -2.587  1.00  0.00     0.029 A 
ATOM     35  C   UNL     1       8.576 -10.431  -1.391  1.00  0.00     0.049 A 
ATOM     36  H   UNL     1       7.435  -8.701  -0.984  1.00  0.00     0.167 HD
ATOM     37  C   UNL     1       8.042 -10.625   1.026  1.00  0.00     0.074 A 
ATOM     38  C   UNL     1       8.082 -11.308   2.303  1.00  0.00     0.031 C 
ATOM     39  C   UNL     1       8.612 -11.095  -0.111  1.00  0.00     0.037 A 
BRANCH  26  40
ATOM     40  C   UNL     1       7.772  -7.498  -5.070  1.00  0.00     0.064 A 
ATOM     41  C   UNL     1       8.600  -6.478  -5.563  1.00  0.00     0.173 A 
ATOM     42  C   UNL     1       7.194  -8.377  -5.999  1.00  0.00     0.173 A 
ATOM     43  F   UNL     1       9.171  -5.604  -4.720  1.00  0.00    -0.203 F 
ATOM     44  C   UNL     1       8.820  -6.331  -6.931  1.00  0.00     0.198 A 
ATOM     45  C   UNL     1       7.442  -8.247  -7.364  1.00  0.00     0.198 A 
ATOM     46  F   UNL     1       6.401  -9.376  -5.583  1.00  0.00    -0.203 F 
ATOM     47  F   UNL     1       9.579  -5.322  -7.381  1.00  0.00    -0.200 F 
ATOM     48  C   UNL     1       8.248  -7.220  -7.829  1.00  0.00     0.200 A 
ATOM     49  F   UNL     1       6.902  -9.117  -8.228  1.00  0.00    -0.200 F 
ATOM     50  F   UNL     1       8.472  -7.084  -9.143  1.00  0.00    -0.200 F 
ENDBRANCH  26  40
BRANCH  27  51
ATOM     51  C   UNL     1       5.895  -8.605   4.698  1.00  0.00     0.064 A 
ATOM     52  C   UNL     1       6.915  -8.594   5.658  1.00  0.00     0.173 A 
ATOM     53  C   UNL     1       4.578  -8.789   5.147  1.00  0.00     0.173 A 
ATOM     54  F   UNL     1       8.192  -8.437   5.277  1.00  0.00    -0.203 F 
ATOM     55  C   UNL     1       6.633  -8.783   7.009  1.00  0.00     0.198 A 
ATOM     56  C   UNL     1       4.294  -8.941   6.502  1.00  0.00     0.198 A 
ATOM     57  F   UNL     1       3.563  -8.799   4.271  1.00  0.00    -0.203 F 
ATOM     58  F   UNL     1       7.633  -8.819   7.900  1.00  0.00    -0.200 F 
ATOM     59  C   UNL     1       5.323  -8.950   7.430  1.00  0.00     0.200 A 
ATOM     60  F   UNL     1       3.024  -9.080   6.906  1.00  0.00    -0.200 F 
ATOM     61  F   UNL     1       5.052  -9.126   8.731  1.00  0.00    -0.200 F 
ENDBRANCH  27  51
BRANCH  39  62
ATOM     62  C   UNL     1       9.367 -12.389  -0.013  1.00  0.00     0.064 A 
ATOM     63  C   UNL     1       8.714 -13.614   0.187  1.00  0.00     0.173 A 
ATOM     64  C   UNL     1      10.764 -12.404  -0.149  1.00  0.00     0.173 A 
ATOM     65  F   UNL     1       7.381 -13.652   0.341  1.00  0.00    -0.203 F 
ATOM     66  C   UNL     1       9.434 -14.802   0.279  1.00  0.00     0.198 A 
ATOM     67  C   UNL     1      11.477 -13.598  -0.093  1.00  0.00     0.198 A 
ATOM     68  F   UNL     1      11.437 -11.261  -0.348  1.00  0.00    -0.203 F 
ATOM     69  F   UNL     1       8.794 -15.953   0.529  1.00  0.00    -0.200 F 
ATOM     70  C   UNL     1      10.813 -14.794   0.130  1.00  0.00     0.200 A 
ATOM     71  F   UNL     1      12.807 -13.590  -0.253  1.00  0.00    -0.200 F 
ATOM     72  F   UNL     1      11.504 -15.940   0.211  1.00  0.00    -0.200 F 
ENDBRANCH  39  62
ENDBRANCH  13  14
ENDBRANCH   6   8
ENDBRANCH   3   4
ENDBRANCH   2   3
ENDBRANCH   1   2
BRANCH   1  73
ATOM     73  C   UNL     1       4.533   4.320  -0.176  1.00  0.00     0.002 C 
BRANCH  73  74
ATOM     74  C   UNL     1       6.064   4.320  -0.150  1.00  0.00     0.021 C 
BRANCH  74  75
ATOM     75  C   UNL     1       6.691   4.851  -1.433  1.00  0.00     0.116 C 
BRANCH  75  76
ATOM     76  N   UNL     1       6.729   6.293  -1.437  1.00  0.00    -0.356 N 
ATOM     77  C   UNL     1       7.731   7.198  -1.363  1.00  0.00     0.226 C 
ATOM     78  H   UNL     1       5.838   6.705  -1.507  1.00  0.00     0.163 HD
ATOM     79  O   UNL     1       7.346   8.377  -1.381  1.00  0.00    -0.274 OA
BRANCH  77  80
ATOM     80  C   UNL     1       9.263   6.864  -1.390  1.00  0.00     0.054 C 
ATOM     81  C   UNL     1       9.910   8.113  -0.682  1.00  0.00     0.017 C 
ATOM     82  C   UNL     1       9.642   5.623  -0.543  1.00  0.00     0.017 C 
ATOM     83  C   UNL     1      11.365   7.994  -0.249  1.00  0.00     0.001 C 
ATOM     84  C   UNL     1      11.088   5.499  -0.068  1.00  0.00     0.001 C 
ATOM     85  C   UNL     1      11.615   6.756   0.592  1.00  0.00     0.000 C 
BRANCH  80  86
ATOM     86  C   UNL     1       9.646   6.842  -2.918  1.00  0.00     0.033 C 
ATOM     87  C   UNL     1      11.137   6.806  -3.306  1.00  0.00     0.007 C 
ATOM     88  C   UNL     1       8.989   5.802  -3.853  1.00  0.00     0.118 C 
ATOM     89  C   UNL     1      11.245   6.004  -4.603  1.00  0.00     0.003 C 
ATOM     90  C   UNL     1       9.821   5.902  -5.128  1.00  0.00     0.032 C 
BRANCH  88  91
ATOM     91  O   UNL     1       9.052   4.468  -3.375  1.00  0.00    -0.393 OA
ATOM     92  H   UNL     1       9.980   4.212  -3.253  1.00  0.00     0.210 HD
ENDBRANCH  88  91
ENDBRANCH  80  86
ENDBRANCH  77  80
ENDBRANCH  75  76
ENDBRANCH  74  75
ENDBRANCH  73  74
ENDBRANCH   1  73
TORSDOF 15
