REMARK SMILES Cn1cnnc1S[C@@H]1CCC[C@]([NH3+])(C(=O)NCCCCCCNC(=O)c2ccc(-c3c4nc(c(-c5c(F)c(F)c(F)c(F)c5F)c5ccc([nH]5)c(-c5c(F)c(F)c(F)c(F)c5F)c5nc(c(-c6c(F)c(F)c(F)c(F)c6F)c6ccc3[nH]6)C=C5)C=C4)cc2)C1
REMARK SMILES IDX 19 1 18 2 17 3 16 4 14 5 15 6 12 8 8 9 9 10 89 11 10 12
REMARK SMILES IDX 11 13 7 14 6 15 1 16 2 17 3 18 4 19 5 20 13 21 20 25 21 26
REMARK SMILES IDX 22 27 23 28 24 29 25 31 26 32 27 33 88 34 28 35 87 36 29 37
REMARK SMILES IDX 30 38 31 39 81 40 32 41 86 42 80 43 82 44 33 45 85 46 79 47
REMARK SMILES IDX 78 48 34 50 66 51 46 52 65 53 47 54 50 55 64 56 83 57 48 58
REMARK SMILES IDX 49 59 63 61 84 62 51 63 35 64 36 65 44 66 37 67 38 68 42 69
REMARK SMILES IDX 45 70 39 71 40 72 43 73 41 74 67 75 68 76 76 77 69 78 70 79
REMARK SMILES IDX 74 80 77 81 71 82 72 83 75 84 73 85 52 86 53 87 61 88 54 89
REMARK SMILES IDX 55 90 59 91 62 92 56 93 57 94 60 95 58 96
REMARK H PARENT 16 7 13 22 13 23 13 24 23 30 82 49 50 60
REMARK Flexibility Score: inf
ROOT
ATOM      1  C   UNL     1       4.978   3.034  -2.838  1.00  0.00     0.002 C 
ENDROOT
BRANCH   1   2
ATOM      2  C   UNL     1       4.885   1.989  -1.725  1.00  0.00     0.021 C 
BRANCH   2   3
ATOM      3  C   UNL     1       4.014   0.786  -2.070  1.00  0.00     0.116 C 
BRANCH   3   4
ATOM      4  N   UNL     1       4.699  -0.194  -2.880  1.00  0.00    -0.351 N 
ATOM      5  C   UNL     1       4.864  -1.533  -2.703  1.00  0.00     0.281 C 
ATOM      6  O   UNL     1       5.465  -2.139  -3.599  1.00  0.00    -0.268 OA
ATOM      7  H   UNL     1       5.115   0.167  -3.695  1.00  0.00     0.163 HD
BRANCH   5   8
ATOM      8  C   UNL     1       4.360  -2.302  -1.426  1.00  0.00     0.175 C 
ATOM      9  C   UNL     1       2.323  -2.864   0.040  1.00  0.00     0.061 C 
ATOM     10  C   UNL     1       3.130  -2.535   1.305  1.00  0.00     0.015 C 
ATOM     11  C   UNL     1       2.820  -2.256  -1.280  1.00  0.00     0.094 C 
ATOM     12  C   UNL     1       4.640  -2.547   1.105  1.00  0.00     0.008 C 
ATOM     13  C   UNL     1       5.082  -1.808  -0.157  1.00  0.00     0.079 C 
BRANCH   9  14
ATOM     14  S   UNL     1       0.551  -2.667   0.403  1.00  0.00    -0.082 SA
BRANCH  14  15
ATOM     15  C   UNL     1      -0.068  -1.110  -0.021  1.00  0.00     0.191 A 
ATOM     16  C   UNL     1       1.675   0.596   0.759  1.00  0.00     0.153 C 
ATOM     17  N   UNL     1       0.414   0.139   0.261  1.00  0.00    -0.312 N 
ATOM     18  C   UNL     1      -0.601   1.010  -0.035  1.00  0.00     0.226 A 
ATOM     19  N   UNL     1      -1.628   0.351  -0.505  1.00  0.00    -0.138 NA
ATOM     20  N   UNL     1      -1.294  -0.980  -0.492  1.00  0.00    -0.124 NA
ENDBRANCH  14  15
ENDBRANCH   9  14
BRANCH   8  21
ATOM     21  N   UNL     1       4.760  -3.734  -1.593  1.00  0.00    -0.345 N 
ATOM     22  H   UNL     1       4.450  -4.270  -0.782  1.00  0.00     0.345 HD
ATOM     23  H   UNL     1       5.775  -3.796  -1.674  1.00  0.00     0.345 HD
ATOM     24  H   UNL     1       4.327  -4.112  -2.436  1.00  0.00     0.345 HD
ENDBRANCH   8  21
ENDBRANCH   5   8
ENDBRANCH   3   4
ENDBRANCH   2   3
ENDBRANCH   1   2
BRANCH   1  25
ATOM     25  C   UNL     1       3.637   3.627  -3.287  1.00  0.00     0.002 C 
BRANCH  25  26
ATOM     26  C   UNL     1       2.780   4.237  -2.174  1.00  0.00     0.021 C 
BRANCH  26  27
ATOM     27  C   UNL     1       3.451   5.364  -1.395  1.00  0.00     0.116 C 
BRANCH  27  28
ATOM     28  N   UNL     1       3.816   6.481  -2.251  1.00  0.00    -0.352 N 
ATOM     29  C   UNL     1       3.476   7.804  -2.156  1.00  0.00     0.251 C 
ATOM     30  H   UNL     1       4.394   6.251  -3.014  1.00  0.00     0.163 HD
ATOM     31  O   UNL     1       3.713   8.569  -3.093  1.00  0.00    -0.269 OA
BRANCH  29  32
ATOM     32  C   UNL     1       2.813   8.319  -0.942  1.00  0.00     0.039 A 
ATOM     33  C   UNL     1       1.744   9.208  -1.080  1.00  0.00     0.014 A 
ATOM     34  C   UNL     1       3.255   7.944   0.330  1.00  0.00     0.014 A 
ATOM     35  C   UNL     1       1.082   9.677   0.056  1.00  0.00     0.010 A 
ATOM     36  C   UNL     1       2.548   8.352   1.457  1.00  0.00     0.010 A 
ATOM     37  C   UNL     1       1.458   9.226   1.332  1.00  0.00    -0.014 A 
BRANCH  37  38
ATOM     38  C   UNL     1       0.720   9.658   2.546  1.00  0.00     0.031 A 
ATOM     39  C   UNL     1       1.413  10.466   3.607  1.00  0.00     0.074 A 
ATOM     40  C   UNL     1      -0.558   9.270   2.720  1.00  0.00     0.049 A 
ATOM     41  N   UNL     1       0.956  10.884   4.761  1.00  0.00    -0.248 NA
ATOM     42  C   UNL     1       2.814  10.830   3.350  1.00  0.00     0.031 C 
ATOM     43  C   UNL     1      -1.326   8.448   1.783  1.00  0.00     0.029 A 
ATOM     44  N   UNL     1      -1.435   9.507   3.749  1.00  0.00    -0.354 N 
ATOM     45  C   UNL     1       2.014  11.547   5.369  1.00  0.00     0.074 A 
ATOM     46  C   UNL     1       3.153  11.424   4.485  1.00  0.00     0.031 C 
ATOM     47  C   UNL     1      -2.565   8.271   2.266  1.00  0.00     0.029 A 
ATOM     48  C   UNL     1      -2.668   8.930   3.565  1.00  0.00     0.049 A 
ATOM     49  H   UNL     1      -1.202  10.039   4.543  1.00  0.00     0.167 HD
ATOM     50  C   UNL     1       2.027  12.218   6.546  1.00  0.00     0.037 A 
ATOM     51  C   UNL     1      -3.756   8.926   4.358  1.00  0.00     0.037 A 
ATOM     52  C   UNL     1       0.886  12.352   7.413  1.00  0.00     0.049 A 
ATOM     53  C   UNL     1      -3.709   9.661   5.670  1.00  0.00     0.074 A 
ATOM     54  C   UNL     1       0.779  13.059   8.597  1.00  0.00     0.029 A 
ATOM     55  N   UNL     1      -0.348  11.757   7.192  1.00  0.00    -0.354 N 
ATOM     56  N   UNL     1      -2.725  10.344   6.202  1.00  0.00    -0.248 NA
ATOM     57  C   UNL     1      -4.928   9.628   6.490  1.00  0.00     0.031 C 
ATOM     58  C   UNL     1      -0.500  12.845   9.122  1.00  0.00     0.029 A 
ATOM     59  C   UNL     1      -1.212  12.056   8.234  1.00  0.00     0.049 A 
ATOM     60  H   UNL     1      -0.577  11.204   6.410  1.00  0.00     0.167 HD
ATOM     61  C   UNL     1      -3.212  10.847   7.401  1.00  0.00     0.074 A 
ATOM     62  C   UNL     1      -4.586  10.402   7.511  1.00  0.00     0.031 C 
ATOM     63  C   UNL     1      -2.579  11.608   8.328  1.00  0.00     0.037 A 
BRANCH  50  64
ATOM     64  C   UNL     1       3.322  12.856   6.966  1.00  0.00     0.064 A 
ATOM     65  C   UNL     1       3.865  13.951   6.276  1.00  0.00     0.173 A 
ATOM     66  C   UNL     1       4.016  12.384   8.090  1.00  0.00     0.173 A 
ATOM     67  F   UNL     1       3.248  14.437   5.187  1.00  0.00    -0.203 F 
ATOM     68  C   UNL     1       5.071  14.524   6.671  1.00  0.00     0.198 A 
ATOM     69  C   UNL     1       5.204  12.981   8.504  1.00  0.00     0.198 A 
ATOM     70  F   UNL     1       3.541  11.344   8.792  1.00  0.00    -0.203 F 
ATOM     71  F   UNL     1       5.599  15.529   5.959  1.00  0.00    -0.200 F 
ATOM     72  C   UNL     1       5.736  14.043   7.789  1.00  0.00     0.200 A 
ATOM     73  F   UNL     1       5.838  12.524   9.593  1.00  0.00    -0.200 F 
ATOM     74  F   UNL     1       6.895  14.597   8.171  1.00  0.00    -0.200 F 
ENDBRANCH  50  64
BRANCH  51  75
ATOM     75  C   UNL     1      -4.989   8.220   3.921  1.00  0.00     0.064 A 
ATOM     76  C   UNL     1      -6.147   8.935   3.585  1.00  0.00     0.173 A 
ATOM     77  C   UNL     1      -5.038   6.821   3.830  1.00  0.00     0.173 A 
ATOM     78  F   UNL     1      -6.156  10.274   3.675  1.00  0.00    -0.203 F 
ATOM     79  C   UNL     1      -7.311   8.278   3.194  1.00  0.00     0.198 A 
ATOM     80  C   UNL     1      -6.194   6.167   3.410  1.00  0.00     0.198 A 
ATOM     81  F   UNL     1      -3.955   6.090   4.135  1.00  0.00    -0.203 F 
ATOM     82  F   UNL     1      -8.417   8.985   2.923  1.00  0.00    -0.200 F 
ATOM     83  C   UNL     1      -7.332   6.895   3.100  1.00  0.00     0.200 A 
ATOM     84  F   UNL     1      -6.204   4.831   3.307  1.00  0.00    -0.200 F 
ATOM     85  F   UNL     1      -8.451   6.264   2.719  1.00  0.00    -0.200 F 
ENDBRANCH  51  75
BRANCH  63  86
ATOM     86  C   UNL     1      -3.376  12.038   9.527  1.00  0.00     0.064 A 
ATOM     87  C   UNL     1      -3.763  11.128  10.522  1.00  0.00     0.173 A 
ATOM     88  C   UNL     1      -3.724  13.387   9.701  1.00  0.00     0.173 A 
ATOM     89  F   UNL     1      -3.468   9.825  10.398  1.00  0.00    -0.203 F 
ATOM     90  C   UNL     1      -4.492  11.548  11.632  1.00  0.00     0.198 A 
ATOM     91  C   UNL     1      -4.423  13.808  10.828  1.00  0.00     0.198 A 
ATOM     92  F   UNL     1      -3.372  14.300   8.783  1.00  0.00    -0.203 F 
ATOM     93  F   UNL     1      -4.896  10.652  12.543  1.00  0.00    -0.200 F 
ATOM     94  C   UNL     1      -4.814  12.888  11.788  1.00  0.00     0.200 A 
ATOM     95  F   UNL     1      -4.718  15.106  10.985  1.00  0.00    -0.200 F 
ATOM     96  F   UNL     1      -5.508  13.291  12.861  1.00  0.00    -0.200 F 
ENDBRANCH  63  86
ENDBRANCH  37  38
ENDBRANCH  29  32
ENDBRANCH  27  28
ENDBRANCH  26  27
ENDBRANCH  25  26
ENDBRANCH   1  25
TORSDOF 16
