REMARK SMILES O=C(NCCCCCCNC(=O)c1cccnc1C(=O)Nc1ccc([N+](=O)[O-])cc1)c1ccc(-c2c3nc(c(-c4c(F)c(F)c(F)c(F)c4F)c4ccc([nH]4)c(-c4c(F)c(F)c(F)c(F)c4F)c4nc(c(-c5c(F)c(F)c(F)c(F)c5F)c5ccc2[nH]5)C=C4)C=C3)cc1
REMARK SMILES IDX 7 1 6 2 5 3 4 4 3 5 1 6 2 7 31 9 32 10 93 11 33 12 92 13
REMARK SMILES IDX 34 14 35 15 36 16 86 17 37 18 91 19 85 20 87 21 38 22 90 23
REMARK SMILES IDX 84 24 83 25 39 27 71 28 51 29 70 30 52 31 55 32 69 33 88 34
REMARK SMILES IDX 53 35 54 36 68 38 89 39 56 40 40 41 41 42 49 43 42 44 43 45
REMARK SMILES IDX 47 46 50 47 44 48 45 49 48 50 46 51 72 52 73 53 81 54 74 55
REMARK SMILES IDX 75 56 79 57 82 58 76 59 77 60 80 61 78 62 57 63 58 64 66 65
REMARK SMILES IDX 59 66 60 67 64 68 67 69 61 70 62 71 65 72 63 73 8 74 9 75
REMARK SMILES IDX 10 76 11 77 12 79 13 80 14 81 18 82 15 83 17 84 16 85 19 86
REMARK SMILES IDX 20 87 21 88 22 90 23 91 30 92 24 93 29 94 25 95 26 96 27 97
REMARK SMILES IDX 28 98
REMARK H PARENT 3 8 87 26 55 37 10 78 21 89
REMARK Flexibility Score: inf
ROOT
ATOM      1  C   UNL     1       5.709   1.518  -3.504  1.00  0.00     0.002 C 
ENDROOT
BRANCH   1   2
ATOM      2  C   UNL     1       4.773   0.308  -3.559  1.00  0.00     0.002 C 
BRANCH   2   3
ATOM      3  C   UNL     1       4.915  -0.671  -2.400  1.00  0.00     0.021 C 
BRANCH   3   4
ATOM      4  C   UNL     1       4.508  -0.104  -1.052  1.00  0.00     0.116 C 
BRANCH   4   5
ATOM      5  N   UNL     1       3.084   0.173  -0.929  1.00  0.00    -0.352 N 
ATOM      6  O   UNL     1       1.100   0.235   0.183  1.00  0.00    -0.269 OA
ATOM      7  C   UNL     1       2.312   0.057   0.206  1.00  0.00     0.251 C 
ATOM      8  H   UNL     1       2.623   0.477  -1.745  1.00  0.00     0.163 HD
BRANCH   7   9
ATOM      9  C   UNL     1       2.988  -0.336   1.459  1.00  0.00     0.039 A 
ATOM     10  C   UNL     1       4.137   0.348   1.857  1.00  0.00     0.014 A 
ATOM     11  C   UNL     1       2.549  -1.461   2.160  1.00  0.00     0.014 A 
ATOM     12  C   UNL     1       4.943  -0.195   2.844  1.00  0.00     0.010 A 
ATOM     13  C   UNL     1       3.307  -1.941   3.232  1.00  0.00     0.010 A 
ATOM     14  C   UNL     1       4.529  -1.333   3.559  1.00  0.00    -0.014 A 
BRANCH  14  15
ATOM     15  C   UNL     1       5.370  -1.804   4.687  1.00  0.00     0.031 A 
ATOM     16  C   UNL     1       6.021  -3.159   4.679  1.00  0.00     0.074 A 
ATOM     17  C   UNL     1       5.587  -0.952   5.708  1.00  0.00     0.049 A 
ATOM     18  N   UNL     1       6.806  -3.700   5.579  1.00  0.00    -0.248 NA
ATOM     19  C   UNL     1       5.757  -4.025   3.520  1.00  0.00     0.031 C 
ATOM     20  C   UNL     1       4.993   0.384   5.824  1.00  0.00     0.029 A 
ATOM     21  N   UNL     1       6.380  -1.058   6.820  1.00  0.00    -0.354 N 
ATOM     22  C   UNL     1       7.115  -4.968   5.106  1.00  0.00     0.074 A 
ATOM     23  C   UNL     1       6.413  -5.130   3.850  1.00  0.00     0.031 C 
ATOM     24  C   UNL     1       5.489   0.995   6.906  1.00  0.00     0.029 A 
ATOM     25  C   UNL     1       6.368   0.068   7.606  1.00  0.00     0.049 A 
ATOM     26  H   UNL     1       6.905  -1.862   7.035  1.00  0.00     0.167 HD
ATOM     27  C   UNL     1       7.917  -5.904   5.670  1.00  0.00     0.037 A 
ATOM     28  C   UNL     1       6.978   0.322   8.777  1.00  0.00     0.037 A 
ATOM     29  C   UNL     1       8.615  -5.728   6.920  1.00  0.00     0.049 A 
ATOM     30  C   UNL     1       7.847  -0.741   9.381  1.00  0.00     0.074 A 
ATOM     31  C   UNL     1       9.451  -6.616   7.577  1.00  0.00     0.029 A 
ATOM     32  N   UNL     1       8.560  -4.583   7.702  1.00  0.00    -0.354 N 
ATOM     33  N   UNL     1       8.135  -1.933   8.919  1.00  0.00    -0.248 NA
ATOM     34  C   UNL     1       8.472  -0.426  10.671  1.00  0.00     0.031 C 
ATOM     35  C   UNL     1       9.870  -6.023   8.773  1.00  0.00     0.029 A 
ATOM     36  C   UNL     1       9.337  -4.746   8.839  1.00  0.00     0.049 A 
ATOM     37  H   UNL     1       8.045  -3.773   7.482  1.00  0.00     0.167 HD
ATOM     38  C   UNL     1       8.979  -2.509   9.856  1.00  0.00     0.074 A 
ATOM     39  C   UNL     1       9.184  -1.520  10.895  1.00  0.00     0.031 C 
ATOM     40  C   UNL     1       9.525  -3.749   9.862  1.00  0.00     0.037 A 
BRANCH  27  41
ATOM     41  C   UNL     1       8.082  -7.213   4.950  1.00  0.00     0.064 A 
ATOM     42  C   UNL     1       8.830  -7.312   3.767  1.00  0.00     0.173 A 
ATOM     43  C   UNL     1       7.543  -8.395   5.483  1.00  0.00     0.173 A 
ATOM     44  F   UNL     1       9.359  -6.213   3.208  1.00  0.00    -0.203 F 
ATOM     45  C   UNL     1       9.016  -8.541   3.135  1.00  0.00     0.198 A 
ATOM     46  C   UNL     1       7.753  -9.625   4.864  1.00  0.00     0.198 A 
ATOM     47  F   UNL     1       6.826  -8.359   6.616  1.00  0.00    -0.203 F 
ATOM     48  F   UNL     1       9.705  -8.605   1.987  1.00  0.00    -0.200 F 
ATOM     49  C   UNL     1       8.485  -9.697   3.689  1.00  0.00     0.200 A 
ATOM     50  F   UNL     1       7.251 -10.742   5.408  1.00  0.00    -0.200 F 
ATOM     51  F   UNL     1       8.677 -10.879   3.087  1.00  0.00    -0.200 F 
ENDBRANCH  27  41
BRANCH  28  52
ATOM     52  C   UNL     1       6.761   1.625   9.454  1.00  0.00     0.064 A 
ATOM     53  C   UNL     1       7.802   2.552   9.597  1.00  0.00     0.173 A 
ATOM     54  C   UNL     1       5.500   1.977   9.960  1.00  0.00     0.173 A 
ATOM     55  F   UNL     1       9.029   2.256   9.143  1.00  0.00    -0.203 F 
ATOM     56  C   UNL     1       7.595   3.772  10.238  1.00  0.00     0.198 A 
ATOM     57  C   UNL     1       5.285   3.211  10.567  1.00  0.00     0.198 A 
ATOM     58  F   UNL     1       4.468   1.129   9.839  1.00  0.00    -0.203 F 
ATOM     59  F   UNL     1       8.618   4.620  10.403  1.00  0.00    -0.200 F 
ATOM     60  C   UNL     1       6.335   4.103  10.715  1.00  0.00     0.200 A 
ATOM     61  F   UNL     1       4.061   3.535  11.005  1.00  0.00    -0.200 F 
ATOM     62  F   UNL     1       6.135   5.280  11.322  1.00  0.00    -0.200 F 
ENDBRANCH  28  52
BRANCH  40  63
ATOM     63  C   UNL     1      10.414  -4.086  11.023  1.00  0.00     0.064 A 
ATOM     64  C   UNL     1       9.894  -4.295  12.309  1.00  0.00     0.173 A 
ATOM     65  C   UNL     1      11.801  -4.200  10.846  1.00  0.00     0.173 A 
ATOM     66  F   UNL     1       8.576  -4.177  12.532  1.00  0.00    -0.203 F 
ATOM     67  C   UNL     1      10.735  -4.570  13.384  1.00  0.00     0.198 A 
ATOM     68  C   UNL     1      12.635  -4.505  11.917  1.00  0.00     0.198 A 
ATOM     69  F   UNL     1      12.346  -4.013   9.635  1.00  0.00    -0.203 F 
ATOM     70  F   UNL     1      10.223  -4.704  14.615  1.00  0.00    -0.200 F 
ATOM     71  C   UNL     1      12.103  -4.679  13.186  1.00  0.00     0.200 A 
ATOM     72  F   UNL     1      13.956  -4.621  11.723  1.00  0.00    -0.200 F 
ATOM     73  F   UNL     1      12.912  -4.940  14.223  1.00  0.00    -0.200 F 
ENDBRANCH  40  63
ENDBRANCH  14  15
ENDBRANCH   7   9
ENDBRANCH   4   5
ENDBRANCH   3   4
ENDBRANCH   2   3
ENDBRANCH   1   2
BRANCH   1  74
ATOM     74  C   UNL     1       7.207   1.283  -3.745  1.00  0.00     0.021 C 
BRANCH  74  75
ATOM     75  C   UNL     1       7.651   0.073  -4.569  1.00  0.00     0.116 C 
BRANCH  75  76
ATOM     76  N   UNL     1       7.250   0.065  -5.970  1.00  0.00    -0.352 N 
ATOM     77  C   UNL     1       7.955   0.411  -7.106  1.00  0.00     0.253 C 
ATOM     78  H   UNL     1       6.327  -0.236  -6.134  1.00  0.00     0.163 HD
ATOM     79  O   UNL     1       7.543   0.112  -8.220  1.00  0.00    -0.269 OA
BRANCH  77  80
ATOM     80  C   UNL     1       9.279   1.008  -6.973  1.00  0.00     0.071 A 
ATOM     81  C   UNL     1      10.259   0.079  -6.552  1.00  0.00     0.018 A 
ATOM     82  C   UNL     1       9.659   2.317  -7.253  1.00  0.00     0.141 A 
ATOM     83  C   UNL     1      11.568   0.472  -6.338  1.00  0.00     0.021 A 
ATOM     84  N   UNL     1      10.959   2.694  -6.994  1.00  0.00    -0.250 NA
ATOM     85  C   UNL     1      11.867   1.794  -6.558  1.00  0.00     0.112 A 
BRANCH  82  86
ATOM     86  C   UNL     1       8.936   3.478  -7.947  1.00  0.00     0.275 C 
ATOM     87  O   UNL     1       9.543   4.553  -8.065  1.00  0.00    -0.267 OA
ATOM     88  N   UNL     1       7.778   3.403  -8.684  1.00  0.00    -0.321 N 
ATOM     89  H   UNL     1       7.844   3.842  -9.562  1.00  0.00     0.170 HD
BRANCH  88  90
ATOM     90  C   UNL     1       6.532   2.833  -8.443  1.00  0.00     0.042 A 
ATOM     91  C   UNL     1       5.796   2.404  -9.558  1.00  0.00     0.033 A 
ATOM     92  C   UNL     1       6.013   2.686  -7.162  1.00  0.00     0.033 A 
ATOM     93  C   UNL     1       4.668   1.602  -9.384  1.00  0.00     0.088 A 
ATOM     94  C   UNL     1       4.857   1.924  -6.985  1.00  0.00     0.088 A 
ATOM     95  C   UNL     1       4.255   1.313  -8.086  1.00  0.00     0.269 A 
BRANCH  95  96
ATOM     96  N   UNL     1       3.283   0.254  -7.851  1.00  0.00     0.062 N 
ATOM     97  O   UNL     1       2.327   0.165  -8.631  1.00  0.00    -0.258 OA
ATOM     98  O   UNL     1       3.497  -0.498  -6.887  1.00  0.00    -0.258 OA
ENDBRANCH  95  96
ENDBRANCH  88  90
ENDBRANCH  82  86
ENDBRANCH  77  80
ENDBRANCH  75  76
ENDBRANCH  74  75
ENDBRANCH   1  74
TORSDOF 16
