REMARK SMILES CCNC(=O)C[NH2+][C@@H](C)[C@@H](C)C(=O)NCCCCCCNC(=O)c1ccc(-c2c3nc(c(-c4c(F)c(F)c(F)c(F)c4F)c4ccc([nH]4)c(-c4c(F)c(F)c(F)c(F)c4F)c4nc(c(-c5c(F)c(F)c(F)c(F)c5F)c5ccc2[nH]5)C=C4)C=C3)cc1
REMARK SMILES IDX 16 1 15 2 14 3 12 4 13 5 10 7 11 8 8 9 9 10 7 11 6 14 4 15
REMARK SMILES IDX 3 16 5 18 2 19 1 20 17 21 18 22 19 23 20 24 21 25 22 26
REMARK SMILES IDX 23 28 24 29 25 30 86 31 26 32 85 33 27 34 28 35 29 36 79 37
REMARK SMILES IDX 30 38 84 39 78 40 80 41 31 42 83 43 77 44 76 45 32 47 64 48
REMARK SMILES IDX 44 49 63 50 45 51 48 52 62 53 81 54 46 55 47 56 61 58 82 59
REMARK SMILES IDX 49 60 33 61 34 62 42 63 35 64 36 65 40 66 43 67 37 68 38 69
REMARK SMILES IDX 41 70 39 71 65 72 66 73 74 74 67 75 68 76 72 77 75 78 69 79
REMARK SMILES IDX 70 80 73 81 71 82 50 83 51 84 59 85 52 86 53 87 57 88 60 89
REMARK SMILES IDX 54 90 55 91 58 92 56 93
REMARK H PARENT 14 6 7 12 7 13 3 17 21 27 80 46 48 57
REMARK Flexibility Score: inf
ROOT
ATOM      1  C   UNL     1      -5.594   0.636   2.123  1.00  0.00     0.021 C 
ENDROOT
BRANCH   1   2
ATOM      2  C   UNL     1      -4.939  -0.321   1.127  1.00  0.00     0.116 C 
BRANCH   2   3
ATOM      3  N   UNL     1      -5.509  -0.174  -0.197  1.00  0.00    -0.356 N 
ATOM      4  C   UNL     1      -4.991   0.314  -1.354  1.00  0.00     0.228 C 
ATOM      5  O   UNL     1      -5.747   0.369  -2.329  1.00  0.00    -0.275 OA
ATOM      6  H   UNL     1      -6.440  -0.484  -0.271  1.00  0.00     0.163 HD
BRANCH   4   7
ATOM      7  C   UNL     1      -3.537   0.761  -1.483  1.00  0.00     0.133 C 
ATOM      8  C   UNL     1      -2.608  -0.449  -1.332  1.00  0.00     0.024 C 
BRANCH   7   9
ATOM      9  C   UNL     1      -3.197   1.982  -0.590  1.00  0.00     0.191 C 
ATOM     10  C   UNL     1      -4.044   3.197  -0.998  1.00  0.00     0.076 C 
BRANCH   9  11
ATOM     11  N   UNL     1      -1.757   2.284  -0.670  1.00  0.00    -0.336 N 
ATOM     12  H   UNL     1      -1.236   1.409  -0.611  1.00  0.00     0.346 HD
ATOM     13  H   UNL     1      -1.592   2.764  -1.555  1.00  0.00     0.346 HD
BRANCH  11  14
ATOM     14  C   UNL     1      -1.300   3.177   0.409  1.00  0.00     0.362 C 
BRANCH  14  15
ATOM     15  C   UNL     1       0.222   3.327   0.363  1.00  0.00     0.275 C 
ATOM     16  N   UNL     1       1.016   2.291   0.769  1.00  0.00    -0.351 N 
ATOM     17  H   UNL     1       1.981   2.483   0.809  1.00  0.00     0.163 HD
ATOM     18  O   UNL     1       0.754   4.373  -0.013  1.00  0.00    -0.269 OA
BRANCH  16  19
ATOM     19  C   UNL     1       0.624   0.948   1.149  1.00  0.00     0.112 C 
ATOM     20  C   UNL     1       1.050  -0.056   0.094  1.00  0.00     0.027 C 
ENDBRANCH  16  19
ENDBRANCH  14  15
ENDBRANCH  11  14
ENDBRANCH   9  11
ENDBRANCH   7   9
ENDBRANCH   4   7
ENDBRANCH   2   3
ENDBRANCH   1   2
BRANCH   1  21
ATOM     21  C   UNL     1      -7.055   0.305   2.450  1.00  0.00     0.002 C 
BRANCH  21  22
ATOM     22  C   UNL     1      -7.301  -1.109   2.984  1.00  0.00     0.002 C 
BRANCH  22  23
ATOM     23  C   UNL     1      -6.445  -1.511   4.187  1.00  0.00     0.021 C 
BRANCH  23  24
ATOM     24  C   UNL     1      -6.590  -0.607   5.406  1.00  0.00     0.116 C 
BRANCH  24  25
ATOM     25  N   UNL     1      -7.935  -0.638   5.958  1.00  0.00    -0.352 N 
ATOM     26  C   UNL     1      -8.339  -0.880   7.245  1.00  0.00     0.251 C 
ATOM     27  H   UNL     1      -8.659  -0.460   5.316  1.00  0.00     0.163 HD
ATOM     28  O   UNL     1      -9.532  -1.048   7.499  1.00  0.00    -0.269 OA
BRANCH  26  29
ATOM     29  C   UNL     1      -7.342  -0.962   8.332  1.00  0.00     0.039 A 
ATOM     30  C   UNL     1      -7.445  -1.994   9.268  1.00  0.00     0.014 A 
ATOM     31  C   UNL     1      -6.315  -0.018   8.436  1.00  0.00     0.014 A 
ATOM     32  C   UNL     1      -6.485  -2.114  10.275  1.00  0.00     0.010 A 
ATOM     33  C   UNL     1      -5.321  -0.179   9.396  1.00  0.00     0.010 A 
ATOM     34  C   UNL     1      -5.399  -1.225  10.329  1.00  0.00    -0.014 A 
BRANCH  34  35
ATOM     35  C   UNL     1      -4.340  -1.368  11.358  1.00  0.00     0.031 A 
ATOM     36  C   UNL     1      -4.150  -0.302  12.399  1.00  0.00     0.074 A 
ATOM     37  C   UNL     1      -3.510  -2.428  11.317  1.00  0.00     0.049 A 
ATOM     38  N   UNL     1      -3.248  -0.217  13.345  1.00  0.00    -0.248 NA
ATOM     39  C   UNL     1      -5.082   0.835  12.355  1.00  0.00     0.031 C 
ATOM     40  C   UNL     1      -3.570  -3.510  10.334  1.00  0.00     0.029 A 
ATOM     41  N   UNL     1      -2.452  -2.767  12.122  1.00  0.00    -0.354 N 
ATOM     42  C   UNL     1      -3.497   0.983  13.997  1.00  0.00     0.074 A 
ATOM     43  C   UNL     1      -4.595   1.621  13.303  1.00  0.00     0.031 C 
ATOM     44  C   UNL     1      -2.613  -4.410  10.614  1.00  0.00     0.029 A 
ATOM     45  C   UNL     1      -1.849  -3.949  11.769  1.00  0.00     0.049 A 
ATOM     46  H   UNL     1      -2.153  -2.215  12.880  1.00  0.00     0.167 HD
ATOM     47  C   UNL     1      -2.882   1.496  15.090  1.00  0.00     0.037 A 
ATOM     48  C   UNL     1      -0.799  -4.588  12.318  1.00  0.00     0.037 A 
ATOM     49  C   UNL     1      -1.802   0.849  15.789  1.00  0.00     0.049 A 
ATOM     50  C   UNL     1      -0.114  -3.984  13.514  1.00  0.00     0.074 A 
ATOM     51  C   UNL     1      -1.149   1.256  16.939  1.00  0.00     0.029 A 
ATOM     52  N   UNL     1      -1.212  -0.344  15.396  1.00  0.00    -0.354 N 
ATOM     53  N   UNL     1      -0.399  -2.881  14.162  1.00  0.00    -0.248 NA
ATOM     54  C   UNL     1       1.039  -4.718  14.053  1.00  0.00     0.031 C 
ATOM     55  C   UNL     1      -0.133   0.335  17.215  1.00  0.00     0.029 A 
ATOM     56  C   UNL     1      -0.185  -0.674  16.266  1.00  0.00     0.049 A 
ATOM     57  H   UNL     1      -1.483  -0.877  14.614  1.00  0.00     0.167 HD
ATOM     58  C   UNL     1       0.515  -2.805  15.204  1.00  0.00     0.074 A 
ATOM     59  C   UNL     1       1.359  -3.978  15.105  1.00  0.00     0.031 C 
ATOM     60  C   UNL     1       0.642  -1.850  16.158  1.00  0.00     0.037 A 
BRANCH  47  61
ATOM     61  C   UNL     1      -3.365   2.828  15.589  1.00  0.00     0.064 A 
ATOM     62  C   UNL     1      -4.635   2.981  16.169  1.00  0.00     0.173 A 
ATOM     63  C   UNL     1      -2.550   3.965  15.491  1.00  0.00     0.173 A 
ATOM     64  F   UNL     1      -5.459   1.928  16.276  1.00  0.00    -0.203 F 
ATOM     65  C   UNL     1      -5.085   4.229  16.591  1.00  0.00     0.198 A 
ATOM     66  C   UNL     1      -2.990   5.206  15.946  1.00  0.00     0.198 A 
ATOM     67  F   UNL     1      -1.324   3.875  14.952  1.00  0.00    -0.203 F 
ATOM     68  F   UNL     1      -6.326   4.361  17.081  1.00  0.00    -0.200 F 
ATOM     69  C   UNL     1      -4.261   5.339  16.484  1.00  0.00     0.200 A 
ATOM     70  F   UNL     1      -2.188   6.275  15.852  1.00  0.00    -0.200 F 
ATOM     71  F   UNL     1      -4.697   6.540  16.888  1.00  0.00    -0.200 F 
ENDBRANCH  47  61
BRANCH  48  72
ATOM     72  C   UNL     1      -0.360  -5.897  11.770  1.00  0.00     0.064 A 
ATOM     73  C   UNL     1      -0.563  -7.078  12.497  1.00  0.00     0.173 A 
ATOM     74  C   UNL     1       0.261  -5.999  10.517  1.00  0.00     0.173 A 
ATOM     75  F   UNL     1      -1.135  -7.027  13.709  1.00  0.00    -0.203 F 
ATOM     76  C   UNL     1      -0.149  -8.311  11.998  1.00  0.00     0.198 A 
ATOM     77  C   UNL     1       0.651  -7.236  10.008  1.00  0.00     0.198 A 
ATOM     78  F   UNL     1       0.474  -4.899   9.781  1.00  0.00    -0.203 F 
ATOM     79  F   UNL     1      -0.322  -9.420  12.730  1.00  0.00    -0.200 F 
ATOM     80  C   UNL     1       0.452  -8.390  10.751  1.00  0.00     0.200 A 
ATOM     81  F   UNL     1       1.219  -7.310   8.796  1.00  0.00    -0.200 F 
ATOM     82  F   UNL     1       0.844  -9.577  10.268  1.00  0.00    -0.200 F 
ENDBRANCH  48  72
BRANCH  60  83
ATOM     83  C   UNL     1       1.708  -2.053  17.195  1.00  0.00     0.064 A 
ATOM     84  C   UNL     1       3.070  -1.911  16.891  1.00  0.00     0.173 A 
ATOM     85  C   UNL     1       1.359  -2.362  18.519  1.00  0.00     0.173 A 
ATOM     86  F   UNL     1       3.456  -1.634  15.636  1.00  0.00    -0.203 F 
ATOM     87  C   UNL     1       4.044  -2.096  17.868  1.00  0.00     0.198 A 
ATOM     88  C   UNL     1       2.335  -2.516  19.500  1.00  0.00     0.198 A 
ATOM     89  F   UNL     1       0.071  -2.503  18.864  1.00  0.00    -0.203 F 
ATOM     90  F   UNL     1       5.341  -2.003  17.544  1.00  0.00    -0.200 F 
ATOM     91  C   UNL     1       3.676  -2.390  19.173  1.00  0.00     0.200 A 
ATOM     92  F   UNL     1       1.976  -2.788  20.763  1.00  0.00    -0.200 F 
ATOM     93  F   UNL     1       4.615  -2.561  20.113  1.00  0.00    -0.200 F 
ENDBRANCH  60  83
ENDBRANCH  34  35
ENDBRANCH  26  29
ENDBRANCH  24  25
ENDBRANCH  23  24
ENDBRANCH  22  23
ENDBRANCH  21  22
ENDBRANCH   1  21
TORSDOF 18
