REMARK SMILES CC1=CC[C@](C(=O)NCCCCCCNC(=O)c2ccc(-c3c4nc(c(-c5c(F)c(F)c(F)c(F)c5F)c5ccc([nH]5)c(-c5c(F)c(F)c(F)c(F)c5F)c5nc(c(-c6c(F)c(F)c(F)c(F)c6F)c6ccc3[nH]6)C=C5)C=C4)cc2)(C(=O)N/N=C/C2=C([O-])CC(C)(C)CC2=O)C[C@@H]1c1ccccc1
REMARK SMILES IDX 11 1 10 2 9 3 8 4 6 5 7 6 5 8 1 9 2 10 3 11 97 12 4 13 96 14
REMARK SMILES IDX 98 15 99 16 103 17 100 18 102 19 101 20 81 21 82 22 83 23
REMARK SMILES IDX 84 25 85 26 86 27 87 28 94 29 88 30 89 31 93 32 95 33 90 34
REMARK SMILES IDX 91 35 92 36 12 37 13 38 14 39 15 40 16 41 17 43 18 44 19 45
REMARK SMILES IDX 80 46 20 47 79 48 21 49 22 50 23 51 73 52 24 53 78 54 72 55
REMARK SMILES IDX 74 56 25 57 77 58 71 59 70 60 26 62 58 63 38 64 57 65 39 66
REMARK SMILES IDX 42 67 56 68 75 69 40 70 41 71 55 73 76 74 43 75 27 76 28 77
REMARK SMILES IDX 36 78 29 79 30 80 34 81 37 82 31 83 32 84 35 85 33 86 59 87
REMARK SMILES IDX 60 88 68 89 61 90 62 91 66 92 69 93 63 94 64 95 67 96 65 97
REMARK SMILES IDX 44 98 45 99 53 100 46 101 47 102 51 103 54 104 48 105 49 106
REMARK SMILES IDX 52 107 50 108
REMARK H PARENT 8 7 83 24 15 42 74 61 42 72
REMARK Flexibility Score: inf
ROOT
ATOM      1  C   UNL     1      -4.427  -1.971  -3.861  1.00  0.00     0.002 C 
ENDROOT
BRANCH   1   2
ATOM      2  C   UNL     1      -3.070  -1.898  -3.138  1.00  0.00     0.021 C 
BRANCH   2   3
ATOM      3  C   UNL     1      -2.681  -0.460  -2.800  1.00  0.00     0.116 C 
BRANCH   3   4
ATOM      4  N   UNL     1      -3.388  -0.025  -1.611  1.00  0.00    -0.355 N 
ATOM      5  C   UNL     1      -3.069   0.108  -0.302  1.00  0.00     0.236 C 
ATOM      6  O   UNL     1      -4.003   0.525   0.397  1.00  0.00    -0.274 OA
ATOM      7  H   UNL     1      -4.319   0.234  -1.800  1.00  0.00     0.163 HD
BRANCH   5   8
ATOM      8  C   UNL     1      -1.667  -0.085   0.313  1.00  0.00     0.133 C 
ATOM      9  C   UNL     1       2.805   0.126   0.014  1.00  0.00     0.040 C 
ATOM     10  C   UNL     1       1.302   0.085   0.106  1.00  0.00    -0.070 C 
ATOM     11  C   UNL     1       0.569   1.199  -0.067  1.00  0.00    -0.026 C 
ATOM     12  C   UNL     1       0.658  -1.270   0.351  1.00  0.00     0.046 C 
ATOM     13  C   UNL     1      -0.933   1.244  -0.050  1.00  0.00     0.054 C 
ATOM     14  C   UNL     1      -0.811  -1.280  -0.173  1.00  0.00     0.040 C 
BRANCH  12  15
ATOM     15  C   UNL     1       0.785  -1.803   1.778  1.00  0.00    -0.041 A 
ATOM     16  C   UNL     1       0.460  -3.147   2.037  1.00  0.00     0.004 A 
ATOM     17  C   UNL     1       1.165  -1.001   2.867  1.00  0.00     0.004 A 
ATOM     18  C   UNL     1       0.468  -3.654   3.339  1.00  0.00     0.000 A 
ATOM     19  C   UNL     1       1.189  -1.512   4.167  1.00  0.00     0.000 A 
ATOM     20  C   UNL     1       0.830  -2.835   4.404  1.00  0.00     0.000 A 
ENDBRANCH  12  15
BRANCH   8  21
ATOM     21  C   UNL     1      -1.865  -0.175   1.855  1.00  0.00     0.256 C 
ATOM     22  O   UNL     1      -1.521   0.745   2.610  1.00  0.00    -0.272 OA
ATOM     23  N   UNL     1      -2.446  -1.282   2.451  1.00  0.00    -0.246 N 
ATOM     24  H   UNL     1      -2.667  -1.185   3.406  1.00  0.00     0.193 HD
BRANCH  23  25
ATOM     25  N   UNL     1      -2.753  -2.492   1.895  1.00  0.00    -0.181 NA
ATOM     26  C   UNL     1      -3.884  -2.547   1.263  1.00  0.00     0.144 C 
BRANCH  26  27
ATOM     27  C   UNL     1      -4.360  -3.778   0.583  1.00  0.00     0.026 C 
ATOM     28  C   UNL     1      -4.184  -5.008   1.101  1.00  0.00    -0.119 C 
ATOM     29  C   UNL     1      -5.139  -3.665  -0.670  1.00  0.00     0.164 C 
ATOM     30  O   UNL     1      -3.464  -5.258   2.254  1.00  0.00    -0.875 OA
ATOM     31  C   UNL     1      -4.757  -6.243   0.444  1.00  0.00     0.026 C 
ATOM     32  C   UNL     1      -5.236  -4.858  -1.603  1.00  0.00     0.087 C 
ATOM     33  O   UNL     1      -5.658  -2.591  -0.976  1.00  0.00    -0.294 OA
ATOM     34  C   UNL     1      -4.638  -6.178  -1.090  1.00  0.00    -0.025 C 
ATOM     35  C   UNL     1      -3.156  -6.310  -1.510  1.00  0.00     0.012 C 
ATOM     36  C   UNL     1      -5.413  -7.336  -1.748  1.00  0.00     0.012 C 
ENDBRANCH  26  27
ENDBRANCH  23  25
ENDBRANCH   8  21
ENDBRANCH   5   8
ENDBRANCH   3   4
ENDBRANCH   2   3
ENDBRANCH   1   2
BRANCH   1  37
ATOM     37  C   UNL     1      -4.359  -1.873  -5.385  1.00  0.00     0.002 C 
BRANCH  37  38
ATOM     38  C   UNL     1      -3.465  -2.907  -6.077  1.00  0.00     0.021 C 
BRANCH  38  39
ATOM     39  C   UNL     1      -3.644  -4.354  -5.624  1.00  0.00     0.116 C 
BRANCH  39  40
ATOM     40  N   UNL     1      -4.949  -4.901  -5.962  1.00  0.00    -0.352 N 
ATOM     41  C   UNL     1      -5.267  -5.900  -6.851  1.00  0.00     0.251 C 
ATOM     42  H   UNL     1      -5.712  -4.498  -5.487  1.00  0.00     0.163 HD
ATOM     43  O   UNL     1      -6.437  -6.143  -7.129  1.00  0.00    -0.269 OA
BRANCH  41  44
ATOM     44  C   UNL     1      -4.184  -6.667  -7.500  1.00  0.00     0.039 A 
ATOM     45  C   UNL     1      -4.159  -6.753  -8.894  1.00  0.00     0.014 A 
ATOM     46  C   UNL     1      -3.184  -7.273  -6.735  1.00  0.00     0.014 A 
ATOM     47  C   UNL     1      -3.083  -7.380  -9.526  1.00  0.00     0.010 A 
ATOM     48  C   UNL     1      -2.079  -7.838  -7.369  1.00  0.00     0.010 A 
ATOM     49  C   UNL     1      -2.014  -7.891  -8.770  1.00  0.00    -0.014 A 
BRANCH  49  50
ATOM     50  C   UNL     1      -0.813  -8.463  -9.433  1.00  0.00     0.031 A 
ATOM     51  C   UNL     1      -0.473  -9.917  -9.265  1.00  0.00     0.074 A 
ATOM     52  C   UNL     1       0.009  -7.658 -10.133  1.00  0.00     0.049 A 
ATOM     53  N   UNL     1       0.558 -10.585  -9.718  1.00  0.00    -0.248 NA
ATOM     54  C   UNL     1      -1.402 -10.722  -8.457  1.00  0.00     0.031 C 
ATOM     55  C   UNL     1      -0.179  -6.219 -10.324  1.00  0.00     0.029 A 
ATOM     56  N   UNL     1       1.177  -7.931 -10.803  1.00  0.00    -0.354 N 
ATOM     57  C   UNL     1       0.407 -11.881  -9.244  1.00  0.00     0.074 A 
ATOM     58  C   UNL     1      -0.784 -11.893  -8.422  1.00  0.00     0.031 C 
ATOM     59  C   UNL     1       0.826  -5.739 -11.074  1.00  0.00     0.029 A 
ATOM     60  C   UNL     1       1.748  -6.827 -11.388  1.00  0.00     0.049 A 
ATOM     61  H   UNL     1       1.567  -8.833 -10.858  1.00  0.00     0.167 HD
ATOM     62  C   UNL     1       1.178 -12.967  -9.491  1.00  0.00     0.037 A 
ATOM     63  C   UNL     1       2.890  -6.704 -12.091  1.00  0.00     0.037 A 
ATOM     64  C   UNL     1       2.352 -12.956 -10.324  1.00  0.00     0.049 A 
ATOM     65  C   UNL     1       3.730  -7.925 -12.351  1.00  0.00     0.074 A 
ATOM     66  C   UNL     1       3.163 -14.018 -10.687  1.00  0.00     0.029 A 
ATOM     67  N   UNL     1       2.888 -11.823 -10.920  1.00  0.00    -0.354 N 
ATOM     68  N   UNL     1       3.534  -9.162 -11.964  1.00  0.00    -0.248 NA
ATOM     69  C   UNL     1       4.947  -7.734 -13.154  1.00  0.00     0.031 C 
ATOM     70  C   UNL     1       4.217 -13.519 -11.460  1.00  0.00     0.029 A 
ATOM     71  C   UNL     1       4.033 -12.156 -11.626  1.00  0.00     0.049 A 
ATOM     72  H   UNL     1       2.510 -10.917 -10.851  1.00  0.00     0.167 HD
ATOM     73  C   UNL     1       4.583  -9.900 -12.495  1.00  0.00     0.074 A 
ATOM     74  C   UNL     1       5.406  -8.974 -13.246  1.00  0.00     0.031 C 
ATOM     75  C   UNL     1       4.842 -11.225 -12.372  1.00  0.00     0.037 A 
BRANCH  62  76
ATOM     76  C   UNL     1       0.772 -14.263  -8.850  1.00  0.00     0.064 A 
ATOM     77  C   UNL     1      -0.387 -14.949  -9.244  1.00  0.00     0.173 A 
ATOM     78  C   UNL     1       1.565 -14.841  -7.847  1.00  0.00     0.173 A 
ATOM     79  F   UNL     1      -1.186 -14.435 -10.192  1.00  0.00    -0.203 F 
ATOM     80  C   UNL     1      -0.756 -16.145  -8.634  1.00  0.00     0.198 A 
ATOM     81  C   UNL     1       1.210 -16.054  -7.262  1.00  0.00     0.198 A 
ATOM     82  F   UNL     1       2.687 -14.232  -7.436  1.00  0.00    -0.203 F 
ATOM     83  F   UNL     1      -1.898 -16.752  -8.989  1.00  0.00    -0.200 F 
ATOM     84  C   UNL     1       0.045 -16.700  -7.648  1.00  0.00     0.200 A 
ATOM     85  F   UNL     1       1.993 -16.596  -6.318  1.00  0.00    -0.200 F 
ATOM     86  F   UNL     1      -0.309 -17.852  -7.064  1.00  0.00    -0.200 F 
ENDBRANCH  62  76
BRANCH  63  87
ATOM     87  C   UNL     1       3.295  -5.374 -12.618  1.00  0.00     0.064 A 
ATOM     88  C   UNL     1       3.267  -5.103 -13.993  1.00  0.00     0.173 A 
ATOM     89  C   UNL     1       3.716  -4.348 -11.759  1.00  0.00     0.173 A 
ATOM     90  F   UNL     1       2.890  -6.058 -14.856  1.00  0.00    -0.203 F 
ATOM     91  C   UNL     1       3.663  -3.863 -14.491  1.00  0.00     0.198 A 
ATOM     92  C   UNL     1       4.085  -3.100 -12.255  1.00  0.00     0.198 A 
ATOM     93  F   UNL     1       3.755  -4.554 -10.434  1.00  0.00    -0.203 F 
ATOM     94  F   UNL     1       3.669  -3.645 -15.813  1.00  0.00    -0.200 F 
ATOM     95  C   UNL     1       4.066  -2.861 -13.621  1.00  0.00     0.200 A 
ATOM     96  F   UNL     1       4.458  -2.129 -11.411  1.00  0.00    -0.200 F 
ATOM     97  F   UNL     1       4.442  -1.667 -14.100  1.00  0.00    -0.200 F 
ENDBRANCH  63  87
BRANCH  75  98
ATOM     98  C   UNL     1       6.048 -11.762 -13.088  1.00  0.00     0.064 A 
ATOM     99  C   UNL     1       7.350 -11.476 -12.653  1.00  0.00     0.173 A 
ATOM    100  C   UNL     1       5.896 -12.606 -14.198  1.00  0.00     0.173 A 
ATOM    101  F   UNL     1       7.549 -10.662 -11.606  1.00  0.00    -0.203 F 
ATOM    102  C   UNL     1       8.457 -11.997 -13.319  1.00  0.00     0.198 A 
ATOM    103  C   UNL     1       7.004 -13.149 -14.843  1.00  0.00     0.198 A 
ATOM    104  F   UNL     1       4.671 -12.915 -14.651  1.00  0.00    -0.203 F 
ATOM    105  F   UNL     1       9.693 -11.673 -12.915  1.00  0.00    -0.200 F 
ATOM    106  C   UNL     1       8.283 -12.839 -14.408  1.00  0.00     0.200 A 
ATOM    107  F   UNL     1       6.833 -13.973 -15.886  1.00  0.00    -0.200 F 
ATOM    108  F   UNL     1       9.349 -13.345 -15.042  1.00  0.00    -0.200 F 
ENDBRANCH  75  98
ENDBRANCH  49  50
ENDBRANCH  41  44
ENDBRANCH  39  40
ENDBRANCH  38  39
ENDBRANCH  37  38
ENDBRANCH   1  37
TORSDOF 17
