REMARK SMILES CN1C(=O)C[C@@H](C(=O)NCCCCCCNC(=O)c2ccc(-c3c4nc(c(-c5c(F)c(F)c(F)c(F)c5F)c5ccc([nH]5)c(-c5c(F)c(F)c(F)c(F)c5F)c5nc(c(-c6c(F)c(F)c(F)c(F)c6F)c6ccc3[nH]6)C=C5)C=C4)cc2)C12CCN(C(=O)c1ccccc1-n1cccn1)CC2
REMARK SMILES IDX 12 1 11 2 10 3 9 4 7 5 8 6 6 8 1 9 2 10 3 11 82 12 4 13 5 14
REMARK SMILES IDX 83 15 100 16 84 17 99 18 85 19 86 20 87 21 88 22 89 23 93 24
REMARK SMILES IDX 90 25 92 26 91 27 94 28 95 29 98 30 96 31 97 32 13 33 14 34
REMARK SMILES IDX 15 35 16 36 17 37 18 39 19 40 20 41 81 42 21 43 80 44 22 45
REMARK SMILES IDX 23 46 24 47 74 48 25 49 79 50 73 51 75 52 26 53 78 54 72 55
REMARK SMILES IDX 71 56 27 58 59 59 39 60 58 61 40 62 43 63 57 64 76 65 41 66
REMARK SMILES IDX 42 67 56 69 77 70 44 71 28 72 29 73 37 74 30 75 31 76 35 77
REMARK SMILES IDX 38 78 32 79 33 80 36 81 34 82 60 83 61 84 69 85 62 86 63 87
REMARK SMILES IDX 67 88 70 89 64 90 65 91 68 92 66 93 45 94 46 95 54 96 47 97
REMARK SMILES IDX 48 98 52 99 55 100 49 101 50 102 53 103 51 104
REMARK H PARENT 9 7 16 38 75 57 43 68
REMARK Flexibility Score: inf
ROOT
ATOM      1  C   UNL     1       0.979   0.529  -5.788  1.00  0.00     0.002 C 
ENDROOT
BRANCH   1   2
ATOM      2  C   UNL     1       0.971   0.237  -4.290  1.00  0.00     0.021 C 
BRANCH   2   3
ATOM      3  C   UNL     1      -0.259  -0.533  -3.793  1.00  0.00     0.116 C 
BRANCH   3   4
ATOM      4  N   UNL     1      -0.276  -1.930  -4.196  1.00  0.00    -0.356 N 
ATOM      5  C   UNL     1      -0.277  -3.103  -3.511  1.00  0.00     0.226 C 
ATOM      6  O   UNL     1      -0.298  -4.131  -4.200  1.00  0.00    -0.275 OA
ATOM      7  H   UNL     1      -0.290  -2.051  -5.173  1.00  0.00     0.163 HD
BRANCH   5   8
ATOM      8  C   UNL     1      -0.241  -3.250  -1.982  1.00  0.00     0.113 C 
ATOM      9  C   UNL     1       1.036  -0.328  -0.004  1.00  0.00     0.147 C 
ATOM     10  N   UNL     1       0.333  -1.402  -0.673  1.00  0.00    -0.339 N 
ATOM     11  C   UNL     1      -1.055  -1.438  -0.659  1.00  0.00     0.223 C 
ATOM     12  C   UNL     1       0.949  -2.631  -1.207  1.00  0.00     0.058 C 
ATOM     13  O   UNL     1      -1.796  -0.586  -0.189  1.00  0.00    -0.275 OA
ATOM     14  C   UNL     1      -1.511  -2.693  -1.339  1.00  0.00     0.116 C 
ATOM     15  C   UNL     1       2.168  -2.393  -2.114  1.00  0.00     0.051 C 
ATOM     16  C   UNL     1       1.414  -3.502  -0.001  1.00  0.00     0.051 C 
ATOM     17  C   UNL     1       2.874  -3.679  -2.519  1.00  0.00     0.122 C 
ATOM     18  C   UNL     1       2.295  -4.701  -0.381  1.00  0.00     0.122 C 
ATOM     19  N   UNL     1       3.357  -4.322  -1.311  1.00  0.00    -0.338 N 
ATOM     20  C   UNL     1       4.692  -4.599  -1.014  1.00  0.00     0.256 C 
ATOM     21  O   UNL     1       5.050  -5.145   0.027  1.00  0.00    -0.269 OA
BRANCH  20  22
ATOM     22  C   UNL     1       5.757  -4.283  -2.004  1.00  0.00     0.065 A 
ATOM     23  C   UNL     1       6.385  -5.397  -2.589  1.00  0.00     0.016 A 
ATOM     24  C   UNL     1       6.121  -2.994  -2.427  1.00  0.00     0.077 A 
ATOM     25  C   UNL     1       7.337  -5.232  -3.599  1.00  0.00     0.001 A 
ATOM     26  C   UNL     1       7.035  -2.842  -3.488  1.00  0.00     0.029 A 
ATOM     27  C   UNL     1       7.650  -3.956  -4.058  1.00  0.00     0.002 A 
BRANCH  24  28
ATOM     28  N   UNL     1       5.635  -1.814  -1.819  1.00  0.00    -0.240 N 
ATOM     29  C   UNL     1       5.309  -1.598  -0.499  1.00  0.00     0.115 A 
ATOM     30  N   UNL     1       5.462  -0.684  -2.560  1.00  0.00    -0.177 NA
ATOM     31  C   UNL     1       4.898  -0.289  -0.395  1.00  0.00     0.042 A 
ATOM     32  C   UNL     1       4.983   0.214  -1.700  1.00  0.00     0.135 A 
ENDBRANCH  24  28
ENDBRANCH  20  22
ENDBRANCH   5   8
ENDBRANCH   3   4
ENDBRANCH   2   3
ENDBRANCH   1   2
BRANCH   1  33
ATOM     33  C   UNL     1      -0.206   1.365  -6.269  1.00  0.00     0.002 C 
BRANCH  33  34
ATOM     34  C   UNL     1      -0.444   2.653  -5.476  1.00  0.00     0.021 C 
BRANCH  34  35
ATOM     35  C   UNL     1       0.765   3.580  -5.396  1.00  0.00     0.116 C 
BRANCH  35  36
ATOM     36  N   UNL     1       1.195   4.018  -6.712  1.00  0.00    -0.352 N 
ATOM     37  C   UNL     1       1.335   5.292  -7.195  1.00  0.00     0.251 C 
ATOM     38  H   UNL     1       1.419   3.298  -7.345  1.00  0.00     0.163 HD
ATOM     39  O   UNL     1       1.479   5.488  -8.398  1.00  0.00    -0.269 OA
BRANCH  37  40
ATOM     40  C   UNL     1       1.302   6.434  -6.260  1.00  0.00     0.039 A 
ATOM     41  C   UNL     1       0.565   7.569  -6.605  1.00  0.00     0.014 A 
ATOM     42  C   UNL     1       2.011   6.391  -5.056  1.00  0.00     0.014 A 
ATOM     43  C   UNL     1       0.508   8.647  -5.723  1.00  0.00     0.010 A 
ATOM     44  C   UNL     1       1.888   7.434  -4.143  1.00  0.00     0.010 A 
ATOM     45  C   UNL     1       1.148   8.579  -4.474  1.00  0.00    -0.014 A 
BRANCH  45  46
ATOM     46  C   UNL     1       1.069   9.706  -3.511  1.00  0.00     0.031 A 
ATOM     47  C   UNL     1       2.315  10.449  -3.118  1.00  0.00     0.074 A 
ATOM     48  C   UNL     1      -0.116  10.026  -2.957  1.00  0.00     0.049 A 
ATOM     49  N   UNL     1       2.461  11.426  -2.258  1.00  0.00    -0.248 NA
ATOM     50  C   UNL     1       3.571  10.021  -3.754  1.00  0.00     0.031 C 
ATOM     51  C   UNL     1      -1.385   9.348  -3.226  1.00  0.00     0.029 A 
ATOM     52  N   UNL     1      -0.445  10.998  -2.046  1.00  0.00    -0.354 N 
ATOM     53  C   UNL     1       3.818  11.718  -2.244  1.00  0.00     0.074 A 
ATOM     54  C   UNL     1       4.463  10.776  -3.131  1.00  0.00     0.031 C 
ATOM     55  C   UNL     1      -2.359   9.942  -2.518  1.00  0.00     0.029 A 
ATOM     56  C   UNL     1      -1.777  11.012  -1.713  1.00  0.00     0.049 A 
ATOM     57  H   UNL     1       0.212  11.626  -1.667  1.00  0.00     0.167 HD
ATOM     58  C   UNL     1       4.464  12.699  -1.570  1.00  0.00     0.037 A 
ATOM     59  C   UNL     1      -2.451  11.796  -0.850  1.00  0.00     0.037 A 
ATOM     60  C   UNL     1       3.813  13.646  -0.703  1.00  0.00     0.049 A 
ATOM     61  C   UNL     1      -1.706  12.868  -0.101  1.00  0.00     0.074 A 
ATOM     62  C   UNL     1       4.367  14.711  -0.016  1.00  0.00     0.029 A 
ATOM     63  N   UNL     1       2.459  13.635  -0.398  1.00  0.00    -0.354 N 
ATOM     64  N   UNL     1      -0.434  13.181  -0.148  1.00  0.00    -0.248 NA
ATOM     65  C   UNL     1      -2.494  13.704   0.815  1.00  0.00     0.031 C 
ATOM     66  C   UNL     1       3.362  15.309   0.749  1.00  0.00     0.029 A 
ATOM     67  C   UNL     1       2.166  14.660   0.488  1.00  0.00     0.049 A 
ATOM     68  H   UNL     1       1.803  12.995  -0.758  1.00  0.00     0.167 HD
ATOM     69  C   UNL     1      -0.275  14.267   0.701  1.00  0.00     0.074 A 
ATOM     70  C   UNL     1      -1.584  14.568   1.241  1.00  0.00     0.031 C 
ATOM     71  C   UNL     1       0.854  14.954   1.007  1.00  0.00     0.037 A 
BRANCH  58  72
ATOM     72  C   UNL     1       5.954  12.800  -1.744  1.00  0.00     0.064 A 
ATOM     73  C   UNL     1       6.531  13.188  -2.963  1.00  0.00     0.173 A 
ATOM     74  C   UNL     1       6.815  12.539  -0.667  1.00  0.00     0.173 A 
ATOM     75  F   UNL     1       5.756  13.438  -4.029  1.00  0.00    -0.203 F 
ATOM     76  C   UNL     1       7.914  13.280  -3.106  1.00  0.00     0.198 A 
ATOM     77  C   UNL     1       8.195  12.667  -0.803  1.00  0.00     0.198 A 
ATOM     78  F   UNL     1       6.318  12.170   0.524  1.00  0.00    -0.203 F 
ATOM     79  F   UNL     1       8.443  13.598  -4.295  1.00  0.00    -0.200 F 
ATOM     80  C   UNL     1       8.744  13.027  -2.024  1.00  0.00     0.200 A 
ATOM     81  F   UNL     1       8.995  12.438   0.248  1.00  0.00    -0.200 F 
ATOM     82  F   UNL     1      10.073  13.125  -2.161  1.00  0.00    -0.200 F 
ENDBRANCH  58  72
BRANCH  59  83
ATOM     83  C   UNL     1      -3.915  11.610  -0.664  1.00  0.00     0.064 A 
ATOM     84  C   UNL     1      -4.826  12.588  -1.088  1.00  0.00     0.173 A 
ATOM     85  C   UNL     1      -4.433  10.460  -0.051  1.00  0.00     0.173 A 
ATOM     86  F   UNL     1      -4.379  13.715  -1.662  1.00  0.00    -0.203 F 
ATOM     87  C   UNL     1      -6.196  12.434  -0.883  1.00  0.00     0.198 A 
ATOM     88  C   UNL     1      -5.805  10.292   0.123  1.00  0.00     0.198 A 
ATOM     89  F   UNL     1      -3.606   9.490   0.367  1.00  0.00    -0.203 F 
ATOM     90  F   UNL     1      -7.039  13.409  -1.251  1.00  0.00    -0.200 F 
ATOM     91  C   UNL     1      -6.685  11.284  -0.284  1.00  0.00     0.200 A 
ATOM     92  F   UNL     1      -6.274   9.171   0.687  1.00  0.00    -0.200 F 
ATOM     93  F   UNL     1      -8.002  11.135  -0.090  1.00  0.00    -0.200 F 
ENDBRANCH  59  83
BRANCH  71  94
ATOM     94  C   UNL     1       0.717  16.132   1.930  1.00  0.00     0.064 A 
ATOM     95  C   UNL     1       0.429  15.976   3.293  1.00  0.00     0.173 A 
ATOM     96  C   UNL     1       0.919  17.435   1.447  1.00  0.00     0.173 A 
ATOM     97  F   UNL     1       0.214  14.753   3.803  1.00  0.00    -0.203 F 
ATOM     98  C   UNL     1       0.319  17.082   4.133  1.00  0.00     0.198 A 
ATOM     99  C   UNL     1       0.844  18.535   2.296  1.00  0.00     0.198 A 
ATOM    100  F   UNL     1       1.205  17.640   0.152  1.00  0.00    -0.203 F 
ATOM    101  F   UNL     1      -0.010  16.912   5.421  1.00  0.00    -0.200 F 
ATOM    102  C   UNL     1       0.535  18.358   3.636  1.00  0.00     0.200 A 
ATOM    103  F   UNL     1       1.071  19.765   1.817  1.00  0.00    -0.200 F 
ATOM    104  F   UNL     1       0.439  19.420   4.447  1.00  0.00    -0.200 F 
ENDBRANCH  71  94
ENDBRANCH  45  46
ENDBRANCH  37  40
ENDBRANCH  35  36
ENDBRANCH  34  35
ENDBRANCH  33  34
ENDBRANCH   1  33
TORSDOF 15
