REMARK SMILES O=C(NCCCCCCNC(=O)[C@H]1C[C@](O)(c2ccc(F)cc2)[C@@H](c2ccc(F)cc2)O1)c1ccc(-c2c3nc(c(-c4c(F)c(F)c(F)c(F)c4F)c4ccc([nH]4)c(-c4c(F)c(F)c(F)c(F)c4F)c4nc(c(-c5c(F)c(F)c(F)c(F)c5F)c5ccc2[nH]5)C=C4)C=C3)cc1
REMARK SMILES IDX 6 1 5 2 4 3 3 4 1 5 2 6 33 8 34 9 95 10 35 11 94 12 36 13
REMARK SMILES IDX 37 14 38 15 88 16 39 17 93 18 87 19 89 20 40 21 92 22 86 23
REMARK SMILES IDX 85 24 41 26 73 27 53 28 72 29 54 30 57 31 71 32 90 33 55 34
REMARK SMILES IDX 56 35 70 37 91 38 58 39 42 40 43 41 51 42 44 43 45 44 49 45
REMARK SMILES IDX 52 46 46 47 47 48 50 49 48 50 74 51 75 52 83 53 76 54 77 55
REMARK SMILES IDX 81 56 84 57 78 58 79 59 82 60 80 61 59 62 60 63 68 64 61 65
REMARK SMILES IDX 62 66 66 67 69 68 63 69 64 70 67 71 65 72 7 73 8 74 9 75
REMARK SMILES IDX 10 76 11 77 12 79 13 80 14 81 32 82 15 83 24 84 17 85 18 86
REMARK SMILES IDX 23 87 19 88 22 89 20 90 21 91 16 92 25 94 26 95 31 96 27 97
REMARK SMILES IDX 30 98 28 99 29 100
REMARK H PARENT 3 7 89 25 57 36 10 78 16 93
REMARK Flexibility Score: inf
ROOT
ATOM      1  C   UNL     1       5.219   2.942   2.763  1.00  0.00     0.002 C 
ENDROOT
BRANCH   1   2
ATOM      2  C   UNL     1       3.791   2.861   3.291  1.00  0.00     0.021 C 
BRANCH   2   3
ATOM      3  C   UNL     1       3.006   4.161   3.222  1.00  0.00     0.116 C 
BRANCH   3   4
ATOM      4  N   UNL     1       2.741   4.590   1.860  1.00  0.00    -0.352 N 
ATOM      5  O   UNL     1       1.461   5.158   0.084  1.00  0.00    -0.269 OA
ATOM      6  C   UNL     1       1.543   4.950   1.291  1.00  0.00     0.251 C 
ATOM      7  H   UNL     1       3.524   4.628   1.264  1.00  0.00     0.163 HD
BRANCH   6   8
ATOM      8  C   UNL     1       0.338   5.058   2.141  1.00  0.00     0.039 A 
ATOM      9  C   UNL     1       0.393   5.726   3.367  1.00  0.00     0.014 A 
ATOM     10  C   UNL     1      -0.857   4.477   1.708  1.00  0.00     0.014 A 
ATOM     11  C   UNL     1      -0.705   5.695   4.218  1.00  0.00     0.010 A 
ATOM     12  C   UNL     1      -1.987   4.524   2.529  1.00  0.00     0.010 A 
ATOM     13  C   UNL     1      -1.913   5.114   3.800  1.00  0.00    -0.014 A 
BRANCH  13  14
ATOM     14  C   UNL     1      -3.107   5.213   4.676  1.00  0.00     0.031 A 
ATOM     15  C   UNL     1      -3.738   3.992   5.280  1.00  0.00     0.074 A 
ATOM     16  C   UNL     1      -3.603   6.436   4.941  1.00  0.00     0.049 A 
ATOM     17  N   UNL     1      -4.782   3.911   6.067  1.00  0.00    -0.248 NA
ATOM     18  C   UNL     1      -3.126   2.693   4.960  1.00  0.00     0.031 C 
ATOM     19  C   UNL     1      -3.070   7.691   4.404  1.00  0.00     0.029 A 
ATOM     20  N   UNL     1      -4.647   6.833   5.736  1.00  0.00    -0.354 N 
ATOM     21  C   UNL     1      -4.961   2.559   6.325  1.00  0.00     0.074 A 
ATOM     22  C   UNL     1      -3.933   1.850   5.593  1.00  0.00     0.031 C 
ATOM     23  C   UNL     1      -3.756   8.718   4.923  1.00  0.00     0.029 A 
ATOM     24  C   UNL     1      -4.818   8.195   5.774  1.00  0.00     0.049 A 
ATOM     25  H   UNL     1      -5.218   6.203   6.233  1.00  0.00     0.167 HD
ATOM     26  C   UNL     1      -5.896   1.971   7.109  1.00  0.00     0.037 A 
ATOM     27  C   UNL     1      -5.740   8.943   6.407  1.00  0.00     0.037 A 
ATOM     28  C   UNL     1      -6.906   2.688   7.845  1.00  0.00     0.049 A 
ATOM     29  C   UNL     1      -6.785   8.261   7.239  1.00  0.00     0.074 A 
ATOM     30  C   UNL     1      -7.878   2.182   8.691  1.00  0.00     0.029 A 
ATOM     31  N   UNL     1      -7.077   4.065   7.821  1.00  0.00    -0.354 N 
ATOM     32  N   UNL     1      -6.933   6.983   7.489  1.00  0.00    -0.248 NA
ATOM     33  C   UNL     1      -7.797   9.119   7.868  1.00  0.00     0.031 C 
ATOM     34  C   UNL     1      -8.665   3.245   9.141  1.00  0.00     0.029 A 
ATOM     35  C   UNL     1      -8.153   4.422   8.618  1.00  0.00     0.049 A 
ATOM     36  H   UNL     1      -6.516   4.696   7.313  1.00  0.00     0.167 HD
ATOM     37  C   UNL     1      -8.045   6.882   8.311  1.00  0.00     0.074 A 
ATOM     38  C   UNL     1      -8.523   8.232   8.534  1.00  0.00     0.031 C 
ATOM     39  C   UNL     1      -8.618   5.769   8.829  1.00  0.00     0.037 A 
BRANCH  26  40
ATOM     40  C   UNL     1      -5.887   0.474   7.218  1.00  0.00     0.064 A 
ATOM     41  C   UNL     1      -6.924  -0.286   6.652  1.00  0.00     0.173 A 
ATOM     42  C   UNL     1      -4.907  -0.203   7.957  1.00  0.00     0.173 A 
ATOM     43  F   UNL     1      -7.891   0.314   5.942  1.00  0.00    -0.203 F 
ATOM     44  C   UNL     1      -6.987  -1.664   6.838  1.00  0.00     0.198 A 
ATOM     45  C   UNL     1      -4.960  -1.586   8.120  1.00  0.00     0.198 A 
ATOM     46  F   UNL     1      -3.891   0.475   8.511  1.00  0.00    -0.203 F 
ATOM     47  F   UNL     1      -8.006  -2.363   6.318  1.00  0.00    -0.200 F 
ATOM     48  C   UNL     1      -6.005  -2.313   7.569  1.00  0.00     0.200 A 
ATOM     49  F   UNL     1      -3.999  -2.215   8.811  1.00  0.00    -0.200 F 
ATOM     50  F   UNL     1      -6.065  -3.641   7.744  1.00  0.00    -0.200 F 
ENDBRANCH  26  40
BRANCH  27  51
ATOM     51  C   UNL     1      -5.697  10.421   6.269  1.00  0.00     0.064 A 
ATOM     52  C   UNL     1      -5.975  11.046   5.045  1.00  0.00     0.173 A 
ATOM     53  C   UNL     1      -5.319  11.232   7.347  1.00  0.00     0.173 A 
ATOM     54  F   UNL     1      -6.334  10.312   3.981  1.00  0.00    -0.203 F 
ATOM     55  C   UNL     1      -5.849  12.425   4.896  1.00  0.00     0.198 A 
ATOM     56  C   UNL     1      -5.221  12.614   7.204  1.00  0.00     0.198 A 
ATOM     57  F   UNL     1      -5.059  10.680   8.541  1.00  0.00    -0.203 F 
ATOM     58  F   UNL     1      -6.075  12.992   3.703  1.00  0.00    -0.200 F 
ATOM     59  C   UNL     1      -5.475  13.208   5.977  1.00  0.00     0.200 A 
ATOM     60  F   UNL     1      -4.879  13.371   8.256  1.00  0.00    -0.200 F 
ATOM     61  F   UNL     1      -5.359  14.536   5.836  1.00  0.00    -0.200 F 
ENDBRANCH  27  51
BRANCH  39  62
ATOM     62  C   UNL     1      -9.823   5.957   9.702  1.00  0.00     0.064 A 
ATOM     63  C   UNL     1      -9.742   5.729  11.084  1.00  0.00     0.173 A 
ATOM     64  C   UNL     1     -11.072   6.295   9.161  1.00  0.00     0.173 A 
ATOM     65  F   UNL     1      -8.570   5.398  11.647  1.00  0.00    -0.203 F 
ATOM     66  C   UNL     1     -10.873   5.815  11.890  1.00  0.00     0.198 A 
ATOM     67  C   UNL     1     -12.195   6.407   9.975  1.00  0.00     0.198 A 
ATOM     68  F   UNL     1     -11.195   6.538   7.847  1.00  0.00    -0.203 F 
ATOM     69  F   UNL     1     -10.779   5.560  13.202  1.00  0.00    -0.200 F 
ATOM     70  C   UNL     1     -12.097   6.157  11.336  1.00  0.00     0.200 A 
ATOM     71  F   UNL     1     -13.373   6.761   9.443  1.00  0.00    -0.200 F 
ATOM     72  F   UNL     1     -13.184   6.249  12.115  1.00  0.00    -0.200 F 
ENDBRANCH  39  62
ENDBRANCH  13  14
ENDBRANCH   6   8
ENDBRANCH   3   4
ENDBRANCH   2   3
ENDBRANCH   1   2
BRANCH   1  73
ATOM     73  C   UNL     1       6.107   4.022   3.390  1.00  0.00     0.002 C 
BRANCH  73  74
ATOM     74  C   UNL     1       6.200   4.047   4.921  1.00  0.00     0.021 C 
BRANCH  74  75
ATOM     75  C   UNL     1       6.536   2.724   5.604  1.00  0.00     0.116 C 
BRANCH  75  76
ATOM     76  N   UNL     1       7.630   2.025   4.970  1.00  0.00    -0.354 N 
ATOM     77  C   UNL     1       8.702   1.388   5.510  1.00  0.00     0.249 C 
ATOM     78  H   UNL     1       7.592   2.006   3.986  1.00  0.00     0.163 HD
ATOM     79  O   UNL     1       9.327   0.639   4.756  1.00  0.00    -0.272 OA
BRANCH  77  80
ATOM     80  C   UNL     1       9.094   1.613   6.983  1.00  0.00     0.211 C 
ATOM     81  C   UNL     1       9.813   0.404   7.557  1.00  0.00     0.085 C 
ATOM     82  O   UNL     1       9.928   2.762   7.128  1.00  0.00    -0.357 OA
ATOM     83  C   UNL     1      11.165   0.895   8.076  1.00  0.00     0.123 C 
ATOM     84  C   UNL     1      11.255   2.353   7.524  1.00  0.00     0.186 C 
BRANCH  83  85
ATOM     85  C   UNL     1      11.243   0.677   9.599  1.00  0.00    -0.013 A 
ATOM     86  C   UNL     1      11.114  -0.647  10.086  1.00  0.00     0.010 A 
ATOM     87  C   UNL     1      11.461   1.692  10.545  1.00  0.00     0.010 A 
ATOM     88  C   UNL     1      11.181  -0.940  11.449  1.00  0.00     0.039 A 
ATOM     89  C   UNL     1      11.538   1.396  11.912  1.00  0.00     0.039 A 
ATOM     90  C   UNL     1      11.395   0.088  12.351  1.00  0.00     0.123 A 
ATOM     91  F   UNL     1      11.468  -0.184  13.660  1.00  0.00    -0.207 F 
ENDBRANCH  83  85
BRANCH  83  92
ATOM     92  O   UNL     1      12.187   0.048   7.528  1.00  0.00    -0.382 OA
ATOM     93  H   UNL     1      12.195   0.135   6.562  1.00  0.00     0.212 HD
ENDBRANCH  83  92
BRANCH  84  94
ATOM     94  C   UNL     1      12.209   2.673   6.378  1.00  0.00    -0.016 A 
ATOM     95  C   UNL     1      12.219   1.942   5.180  1.00  0.00     0.009 A 
ATOM     96  C   UNL     1      13.072   3.783   6.479  1.00  0.00     0.009 A 
ATOM     97  C   UNL     1      13.022   2.326   4.104  1.00  0.00     0.039 A 
ATOM     98  C   UNL     1      13.892   4.156   5.410  1.00  0.00     0.039 A 
ATOM     99  C   UNL     1      13.848   3.432   4.226  1.00  0.00     0.123 A 
ATOM    100  F   UNL     1      14.611   3.809   3.191  1.00  0.00    -0.207 F 
ENDBRANCH  84  94
ENDBRANCH  77  80
ENDBRANCH  75  76
ENDBRANCH  74  75
ENDBRANCH  73  74
ENDBRANCH   1  73
TORSDOF 16
