REMARK SMILES Cc1ccc(-c2nn(-c3ccccc3)cc2[C@@H]2[NH2+][C@H](C(=O)NCCCCCCNC(=O)c3ccc(-c4c5nc(c(-c6c(F)c(F)c(F)c(F)c6F)c6ccc([nH]6)c(-c6c(F)c(F)c(F)c(F)c6F)c6nc(c(-c7c(F)c(F)c(F)c(F)c7F)c7ccc4[nH]7)C=C6)C=C5)cc3)CS2)cc1
REMARK SMILES IDX 25 1 24 2 23 3 22 4 20 5 21 6 19 8 17 9 18 10 96 11 95 14
REMARK SMILES IDX 16 15 6 16 7 17 8 18 15 19 5 20 1 21 2 22 3 23 98 24 4 25
REMARK SMILES IDX 97 26 9 27 10 28 14 29 11 30 13 31 12 32 26 33 27 34 28 35
REMARK SMILES IDX 29 36 30 37 31 39 32 40 33 41 94 42 34 43 93 44 35 45 36 46
REMARK SMILES IDX 37 47 87 48 38 49 92 50 86 51 88 52 39 53 91 54 85 55 84 56
REMARK SMILES IDX 40 58 72 59 52 60 71 61 53 62 56 63 70 64 89 65 54 66 55 67
REMARK SMILES IDX 69 69 90 70 57 71 41 72 42 73 50 74 43 75 44 76 48 77 51 78
REMARK SMILES IDX 45 79 46 80 49 81 47 82 73 83 74 84 82 85 75 86 76 87 80 88
REMARK SMILES IDX 83 89 77 90 78 91 81 92 79 93 58 94 59 95 67 96 60 97 61 98
REMARK SMILES IDX 65 99 68 100 62 101 63 102 66 103 64 104
REMARK H PARENT 22 7 18 12 18 13 29 38 88 57 56 68
REMARK Flexibility Score: inf
ROOT
ATOM      1  C   UNL     1      -4.781  -1.385  -3.508  1.00  0.00     0.002 C 
ENDROOT
BRANCH   1   2
ATOM      2  C   UNL     1      -4.321  -2.077  -2.195  1.00  0.00     0.021 C 
BRANCH   2   3
ATOM      3  C   UNL     1      -4.957  -1.813  -0.828  1.00  0.00     0.116 C 
BRANCH   3   4
ATOM      4  N   UNL     1      -5.859  -2.830  -0.309  1.00  0.00    -0.351 N 
ATOM      5  C   UNL     1      -6.160  -3.227   0.965  1.00  0.00     0.279 C 
ATOM      6  O   UNL     1      -7.188  -3.919   1.065  1.00  0.00    -0.268 OA
ATOM      7  H   UNL     1      -6.345  -3.326  -1.007  1.00  0.00     0.163 HD
BRANCH   5   8
ATOM      8  C   UNL     1      -5.357  -2.963   2.271  1.00  0.00     0.283 C 
ATOM      9  C   UNL     1      -4.062  -1.002   2.872  1.00  0.00     0.278 C 
ATOM     10  N   UNL     1      -4.048  -2.276   2.144  1.00  0.00    -0.320 N 
ATOM     11  S   UNL     1      -5.134  -1.257   4.297  1.00  0.00    -0.087 SA
ATOM     12  H   UNL     1      -3.317  -2.874   2.528  1.00  0.00     0.348 HD
ATOM     13  H   UNL     1      -3.869  -2.090   1.157  1.00  0.00     0.348 HD
ATOM     14  C   UNL     1      -6.240  -2.342   3.363  1.00  0.00     0.151 C 
BRANCH   9  15
ATOM     15  C   UNL     1      -4.520   0.070   1.938  1.00  0.00     0.067 A 
ATOM     16  C   UNL     1      -3.750   0.805   0.962  1.00  0.00     0.103 A 
ATOM     17  N   UNL     1      -4.538   1.695   0.312  1.00  0.00    -0.167 NA
ATOM     18  N   UNL     1      -5.801   1.397   0.715  1.00  0.00    -0.240 N 
ATOM     19  C   UNL     1      -5.807   0.538   1.770  1.00  0.00     0.126 A 
BRANCH  16  20
ATOM     20  C   UNL     1      -2.315   0.639   0.619  1.00  0.00     0.003 A 
ATOM     21  C   UNL     1       1.930   0.131  -0.188  1.00  0.00     0.044 C 
ATOM     22  C   UNL     1       0.462   0.322   0.056  1.00  0.00    -0.051 A 
ATOM     23  C   UNL     1      -0.344  -0.789   0.283  1.00  0.00     0.004 A 
ATOM     24  C   UNL     1      -0.135   1.589   0.063  1.00  0.00     0.004 A 
ATOM     25  C   UNL     1      -1.705  -0.627   0.561  1.00  0.00     0.011 A 
ATOM     26  C   UNL     1      -1.508   1.744   0.334  1.00  0.00     0.011 A 
ENDBRANCH  16  20
BRANCH  18  27
ATOM     27  C   UNL     1      -6.957   1.722  -0.035  1.00  0.00     0.065 A 
ATOM     28  C   UNL     1      -7.771   0.682  -0.524  1.00  0.00     0.028 A 
ATOM     29  C   UNL     1      -7.291   3.050  -0.281  1.00  0.00     0.028 A 
ATOM     30  C   UNL     1      -8.867   0.973  -1.335  1.00  0.00     0.002 A 
ATOM     31  C   UNL     1      -8.445   3.333  -1.020  1.00  0.00     0.002 A 
ATOM     32  C   UNL     1      -9.212   2.300  -1.572  1.00  0.00     0.000 A 
ENDBRANCH  18  27
ENDBRANCH   9  15
ENDBRANCH   5   8
ENDBRANCH   3   4
ENDBRANCH   2   3
ENDBRANCH   1   2
BRANCH   1  33
ATOM     33  C   UNL     1      -5.853  -0.287  -3.602  1.00  0.00     0.002 C 
BRANCH  33  34
ATOM     34  C   UNL     1      -5.506   1.109  -3.080  1.00  0.00     0.021 C 
BRANCH  34  35
ATOM     35  C   UNL     1      -4.659   2.026  -3.963  1.00  0.00     0.116 C 
BRANCH  35  36
ATOM     36  N   UNL     1      -5.408   3.029  -4.739  1.00  0.00    -0.352 N 
ATOM     37  C   UNL     1      -4.899   4.057  -5.534  1.00  0.00     0.251 C 
ATOM     38  H   UNL     1      -6.389   2.966  -4.692  1.00  0.00     0.163 HD
ATOM     39  O   UNL     1      -5.612   4.842  -6.127  1.00  0.00    -0.269 OA
BRANCH  37  40
ATOM     40  C   UNL     1      -3.430   4.092  -5.720  1.00  0.00     0.039 A 
ATOM     41  C   UNL     1      -2.947   3.639  -6.951  1.00  0.00     0.014 A 
ATOM     42  C   UNL     1      -2.629   4.112  -4.583  1.00  0.00     0.014 A 
ATOM     43  C   UNL     1      -1.770   2.903  -6.968  1.00  0.00     0.010 A 
ATOM     44  C   UNL     1      -1.509   3.305  -4.583  1.00  0.00     0.010 A 
ATOM     45  C   UNL     1      -1.145   2.621  -5.753  1.00  0.00    -0.014 A 
BRANCH  45  46
ATOM     46  C   UNL     1      -0.195   1.527  -5.589  1.00  0.00     0.031 A 
ATOM     47  C   UNL     1       1.236   1.825  -5.409  1.00  0.00     0.074 A 
ATOM     48  C   UNL     1      -0.618   0.242  -5.564  1.00  0.00     0.049 A 
ATOM     49  N   UNL     1       2.180   0.963  -5.578  1.00  0.00    -0.248 NA
ATOM     50  C   UNL     1       1.727   3.169  -5.131  1.00  0.00     0.031 C 
ATOM     51  C   UNL     1       0.140  -0.928  -5.126  1.00  0.00     0.029 A 
ATOM     52  N   UNL     1      -1.779  -0.295  -6.144  1.00  0.00    -0.354 N 
ATOM     53  C   UNL     1       3.358   1.544  -5.180  1.00  0.00     0.074 A 
ATOM     54  C   UNL     1       3.041   2.944  -5.053  1.00  0.00     0.031 C 
ATOM     55  C   UNL     1      -0.385  -2.024  -5.693  1.00  0.00     0.029 A 
ATOM     56  C   UNL     1      -1.416  -1.584  -6.612  1.00  0.00     0.049 A 
ATOM     57  H   UNL     1      -2.662   0.134  -6.213  1.00  0.00     0.167 HD
ATOM     58  C   UNL     1       4.418   0.734  -4.897  1.00  0.00     0.037 A 
ATOM     59  C   UNL     1      -1.481  -1.901  -7.937  1.00  0.00     0.037 A 
ATOM     60  C   UNL     1       4.189  -0.623  -5.409  1.00  0.00     0.049 A 
ATOM     61  C   UNL     1      -0.156  -2.272  -8.569  1.00  0.00     0.074 A 
ATOM     62  C   UNL     1       3.870  -1.849  -4.849  1.00  0.00     0.029 A 
ATOM     63  N   UNL     1       4.042  -0.784  -6.777  1.00  0.00    -0.354 N 
ATOM     64  N   UNL     1       0.986  -2.256  -7.940  1.00  0.00    -0.248 NA
ATOM     65  C   UNL     1      -0.002  -2.584  -9.992  1.00  0.00     0.031 C 
ATOM     66  C   UNL     1       3.501  -2.736  -5.905  1.00  0.00     0.029 A 
ATOM     67  C   UNL     1       3.609  -2.053  -7.103  1.00  0.00     0.049 A 
ATOM     68  H   UNL     1       4.225  -0.077  -7.438  1.00  0.00     0.167 HD
ATOM     69  C   UNL     1       1.998  -2.452  -8.839  1.00  0.00     0.074 A 
ATOM     70  C   UNL     1       1.334  -2.672 -10.109  1.00  0.00     0.031 C 
ATOM     71  C   UNL     1       3.313  -2.361  -8.493  1.00  0.00     0.037 A 
BRANCH  58  72
ATOM     72  C   UNL     1       5.600   1.097  -4.013  1.00  0.00     0.064 A 
ATOM     73  C   UNL     1       6.523   0.097  -3.627  1.00  0.00     0.173 A 
ATOM     74  C   UNL     1       5.836   2.353  -3.413  1.00  0.00     0.173 A 
ATOM     75  F   UNL     1       6.462  -1.143  -4.132  1.00  0.00    -0.203 F 
ATOM     76  C   UNL     1       7.538   0.321  -2.688  1.00  0.00     0.198 A 
ATOM     77  C   UNL     1       6.863   2.583  -2.493  1.00  0.00     0.198 A 
ATOM     78  F   UNL     1       5.084   3.425  -3.655  1.00  0.00    -0.203 F 
ATOM     79  F   UNL     1       8.344  -0.687  -2.328  1.00  0.00    -0.200 F 
ATOM     80  C   UNL     1       7.704   1.563  -2.115  1.00  0.00     0.200 A 
ATOM     81  F   UNL     1       7.007   3.805  -1.960  1.00  0.00    -0.200 F 
ATOM     82  F   UNL     1       8.660   1.777  -1.203  1.00  0.00    -0.200 F 
ENDBRANCH  58  72
BRANCH  59  83
ATOM     83  C   UNL     1      -2.592  -1.201  -8.630  1.00  0.00     0.064 A 
ATOM     84  C   UNL     1      -3.911  -1.497  -8.233  1.00  0.00     0.173 A 
ATOM     85  C   UNL     1      -2.374  -0.011  -9.332  1.00  0.00     0.173 A 
ATOM     86  F   UNL     1      -4.169  -2.627  -7.554  1.00  0.00    -0.203 F 
ATOM     87  C   UNL     1      -4.940  -0.578  -8.414  1.00  0.00     0.198 A 
ATOM     88  C   UNL     1      -3.412   0.900  -9.525  1.00  0.00     0.198 A 
ATOM     89  F   UNL     1      -1.137   0.330  -9.720  1.00  0.00    -0.203 F 
ATOM     90  F   UNL     1      -6.158  -0.834  -7.915  1.00  0.00    -0.200 F 
ATOM     91  C   UNL     1      -4.682   0.633  -9.033  1.00  0.00     0.200 A 
ATOM     92  F   UNL     1      -3.159   2.082 -10.104  1.00  0.00    -0.200 F 
ATOM     93  F   UNL     1      -5.645   1.561  -9.119  1.00  0.00    -0.200 F 
ENDBRANCH  59  83
BRANCH  71  94
ATOM     94  C   UNL     1       4.431  -2.552  -9.470  1.00  0.00     0.064 A 
ATOM     95  C   UNL     1       4.514  -3.683 -10.296  1.00  0.00     0.173 A 
ATOM     96  C   UNL     1       5.522  -1.661  -9.512  1.00  0.00     0.173 A 
ATOM     97  F   UNL     1       3.530  -4.595 -10.304  1.00  0.00    -0.203 F 
ATOM     98  C   UNL     1       5.621  -3.905 -11.117  1.00  0.00     0.198 A 
ATOM     99  C   UNL     1       6.646  -1.910 -10.296  1.00  0.00     0.198 A 
ATOM    100  F   UNL     1       5.512  -0.518  -8.809  1.00  0.00    -0.203 F 
ATOM    101  F   UNL     1       5.650  -4.979 -11.919  1.00  0.00    -0.200 F 
ATOM    102  C   UNL     1       6.694  -3.030 -11.103  1.00  0.00     0.200 A 
ATOM    103  F   UNL     1       7.681  -1.058 -10.265  1.00  0.00    -0.200 F 
ATOM    104  F   UNL     1       7.768  -3.262 -11.869  1.00  0.00    -0.200 F 
ENDBRANCH  71  94
ENDBRANCH  45  46
ENDBRANCH  37  40
ENDBRANCH  35  36
ENDBRANCH  34  35
ENDBRANCH  33  34
ENDBRANCH   1  33
TORSDOF 16
