REMARK SMILES CC[NH+](CC)[C@](C)(C(=O)NCCCCCCNC(=O)c1ccc(-c2c3nc(c(-c4c(F)c(F)c(F)c(F)c4F)c4ccc([nH]4)c(-c4c(F)c(F)c(F)c(F)c4F)c4nc(c(-c5c(F)c(F)c(F)c(F)c5F)c5ccc2[nH]5)C=C4)C=C3)cc1)c1cc(F)c(C)cc1F
REMARK SMILES IDX 13 1 12 2 11 3 10 4 8 5 9 6 6 8 7 9 3 10 2 12 1 13 4 14 5 15
REMARK SMILES IDX 83 16 84 17 90 18 85 19 89 20 91 21 86 22 87 23 88 24 14 25
REMARK SMILES IDX 15 26 16 27 17 28 18 29 19 31 20 32 21 33 82 34 22 35 81 36
REMARK SMILES IDX 23 37 24 38 25 39 75 40 26 41 80 42 74 43 76 44 27 45 79 46
REMARK SMILES IDX 73 47 72 48 28 50 60 51 40 52 59 53 41 54 44 55 58 56 77 57
REMARK SMILES IDX 42 58 43 59 57 61 78 62 45 63 29 64 30 65 38 66 31 67 32 68
REMARK SMILES IDX 36 69 39 70 33 71 34 72 37 73 35 74 61 75 62 76 70 77 63 78
REMARK SMILES IDX 64 79 68 80 71 81 65 82 66 83 69 84 67 85 46 86 47 87 55 88
REMARK SMILES IDX 48 89 49 90 53 91 56 92 50 93 51 94 54 95 52 96
REMARK H PARENT 10 7 3 11 17 30 76 49 44 60
REMARK Flexibility Score: inf
ROOT
ATOM      1  C   UNL     1       0.904  -1.089  -2.694  1.00  0.00     0.002 C 
ENDROOT
BRANCH   1   2
ATOM      2  C   UNL     1       0.201  -0.665  -1.402  1.00  0.00     0.021 C 
BRANCH   2   3
ATOM      3  C   UNL     1       1.107  -0.593  -0.183  1.00  0.00     0.116 C 
BRANCH   3   4
ATOM      4  N   UNL     1       2.086   0.469  -0.232  1.00  0.00    -0.350 N 
ATOM      5  C   UNL     1       2.837   1.039   0.767  1.00  0.00     0.286 C 
ATOM      6  O   UNL     1       3.873   1.596   0.378  1.00  0.00    -0.267 OA
ATOM      7  H   UNL     1       2.240   0.846  -1.129  1.00  0.00     0.163 HD
BRANCH   5   8
ATOM      8  C   UNL     1       2.431   0.998   2.307  1.00  0.00     0.202 C 
ATOM      9  C   UNL     1       0.890   1.161   2.476  1.00  0.00     0.096 C 
BRANCH   8  10
ATOM     10  N   UNL     1       2.982  -0.236   3.035  1.00  0.00    -0.319 N 
ATOM     11  H   UNL     1       3.951   0.041   3.189  1.00  0.00     0.349 HD
BRANCH  10  12
ATOM     12  C   UNL     1       3.078  -1.502   2.285  1.00  0.00     0.259 C 
ATOM     13  C   UNL     1       4.213  -1.652   1.274  1.00  0.00     0.071 C 
ENDBRANCH  10  12
BRANCH  10  14
ATOM     14  C   UNL     1       2.260  -0.488   4.314  1.00  0.00     0.259 C 
ATOM     15  C   UNL     1       2.993  -1.422   5.278  1.00  0.00     0.071 C 
ENDBRANCH  10  14
ENDBRANCH   8  10
BRANCH   8  16
ATOM     16  C   UNL     1       3.006   2.321   2.945  1.00  0.00     0.060 A 
ATOM     17  C   UNL     1       3.818   2.337   4.093  1.00  0.00     0.053 A 
ATOM     18  C   UNL     1       2.619   3.574   2.427  1.00  0.00     0.133 A 
ATOM     19  C   UNL     1       4.095   3.535   4.755  1.00  0.00     0.126 A 
ATOM     20  C   UNL     1       2.927   4.775   3.071  1.00  0.00     0.046 A 
ATOM     21  F   UNL     1       1.872   3.642   1.315  1.00  0.00    -0.206 F 
ATOM     22  F   UNL     1       4.771   3.490   5.912  1.00  0.00    -0.207 F 
ATOM     23  C   UNL     1       3.639   4.762   4.271  1.00  0.00    -0.012 A 
ATOM     24  C   UNL     1       3.841   6.014   5.067  1.00  0.00     0.047 C 
ENDBRANCH   8  16
ENDBRANCH   5   8
ENDBRANCH   3   4
ENDBRANCH   2   3
ENDBRANCH   1   2
BRANCH   1  25
ATOM     25  C   UNL     1       1.767  -2.356  -2.612  1.00  0.00     0.002 C 
BRANCH  25  26
ATOM     26  C   UNL     1       1.087  -3.603  -2.042  1.00  0.00     0.021 C 
BRANCH  26  27
ATOM     27  C   UNL     1      -0.237  -3.980  -2.691  1.00  0.00     0.116 C 
BRANCH  27  28
ATOM     28  N   UNL     1      -0.123  -4.203  -4.119  1.00  0.00    -0.352 N 
ATOM     29  C   UNL     1      -0.686  -5.189  -4.891  1.00  0.00     0.251 C 
ATOM     30  H   UNL     1       0.438  -3.556  -4.604  1.00  0.00     0.163 HD
ATOM     31  O   UNL     1      -0.378  -5.299  -6.071  1.00  0.00    -0.269 OA
BRANCH  29  32
ATOM     32  C   UNL     1      -1.648  -6.138  -4.288  1.00  0.00     0.039 A 
ATOM     33  C   UNL     1      -1.544  -7.492  -4.614  1.00  0.00     0.014 A 
ATOM     34  C   UNL     1      -2.655  -5.700  -3.424  1.00  0.00     0.014 A 
ATOM     35  C   UNL     1      -2.425  -8.412  -4.043  1.00  0.00     0.010 A 
ATOM     36  C   UNL     1      -3.477  -6.627  -2.790  1.00  0.00     0.010 A 
ATOM     37  C   UNL     1      -3.385  -7.990  -3.109  1.00  0.00    -0.014 A 
BRANCH  37  38
ATOM     38  C   UNL     1      -4.332  -8.954  -2.494  1.00  0.00     0.031 A 
ATOM     39  C   UNL     1      -5.809  -8.822  -2.754  1.00  0.00     0.074 A 
ATOM     40  C   UNL     1      -3.873  -9.920  -1.675  1.00  0.00     0.049 A 
ATOM     41  N   UNL     1      -6.803  -9.523  -2.271  1.00  0.00    -0.248 NA
ATOM     42  C   UNL     1      -6.226  -7.737  -3.657  1.00  0.00     0.031 C 
ATOM     43  C   UNL     1      -2.469 -10.130  -1.318  1.00  0.00     0.029 A 
ATOM     44  N   UNL     1      -4.540 -10.906  -0.992  1.00  0.00    -0.354 N 
ATOM     45  C   UNL     1      -7.956  -8.960  -2.804  1.00  0.00     0.074 A 
ATOM     46  C   UNL     1      -7.546  -7.817  -3.589  1.00  0.00     0.031 C 
ATOM     47  C   UNL     1      -2.377 -11.195  -0.506  1.00  0.00     0.029 A 
ATOM     48  C   UNL     1      -3.716 -11.718  -0.252  1.00  0.00     0.049 A 
ATOM     49  H   UNL     1      -5.517 -11.020  -1.029  1.00  0.00     0.167 HD
ATOM     50  C   UNL     1      -9.238  -9.377  -2.676  1.00  0.00     0.037 A 
ATOM     51  C   UNL     1      -4.011 -12.763   0.545  1.00  0.00     0.037 A 
ATOM     52  C   UNL     1      -9.640 -10.527  -1.910  1.00  0.00     0.049 A 
ATOM     53  C   UNL     1      -5.449 -13.188   0.691  1.00  0.00     0.074 A 
ATOM     54  C   UNL     1     -10.908 -11.054  -1.744  1.00  0.00     0.029 A 
ATOM     55  N   UNL     1      -8.774 -11.330  -1.181  1.00  0.00    -0.354 N 
ATOM     56  N   UNL     1      -6.525 -12.683   0.138  1.00  0.00    -0.248 NA
ATOM     57  C   UNL     1      -5.712 -14.339   1.566  1.00  0.00     0.031 C 
ATOM     58  C   UNL     1     -10.818 -12.145  -0.874  1.00  0.00     0.029 A 
ATOM     59  C   UNL     1      -9.485 -12.338  -0.550  1.00  0.00     0.049 A 
ATOM     60  H   UNL     1      -7.800 -11.202  -1.122  1.00  0.00     0.167 HD
ATOM     61  C   UNL     1      -7.582 -13.478   0.560  1.00  0.00     0.074 A 
ATOM     62  C   UNL     1      -7.016 -14.506   1.408  1.00  0.00     0.031 C 
ATOM     63  C   UNL     1      -8.902 -13.369   0.272  1.00  0.00     0.037 A 
BRANCH  50  64
ATOM     64  C   UNL     1     -10.300  -8.587  -3.388  1.00  0.00     0.064 A 
ATOM     65  C   UNL     1     -10.391  -8.571  -4.789  1.00  0.00     0.173 A 
ATOM     66  C   UNL     1     -11.261  -7.867  -2.663  1.00  0.00     0.173 A 
ATOM     67  F   UNL     1      -9.490  -9.232  -5.532  1.00  0.00    -0.203 F 
ATOM     68  C   UNL     1     -11.383  -7.838  -5.436  1.00  0.00     0.198 A 
ATOM     69  C   UNL     1     -12.273  -7.164  -3.313  1.00  0.00     0.198 A 
ATOM     70  F   UNL     1     -11.226  -7.851  -1.322  1.00  0.00    -0.203 F 
ATOM     71  F   UNL     1     -11.414  -7.794  -6.775  1.00  0.00    -0.200 F 
ATOM     72  C   UNL     1     -12.328  -7.143  -4.698  1.00  0.00     0.200 A 
ATOM     73  F   UNL     1     -13.195  -6.505  -2.597  1.00  0.00    -0.200 F 
ATOM     74  F   UNL     1     -13.288  -6.447  -5.322  1.00  0.00    -0.200 F 
ENDBRANCH  50  64
BRANCH  51  75
ATOM     75  C   UNL     1      -2.927 -13.502   1.248  1.00  0.00     0.064 A 
ATOM     76  C   UNL     1      -2.631 -14.832   0.919  1.00  0.00     0.173 A 
ATOM     77  C   UNL     1      -2.188 -12.907   2.281  1.00  0.00     0.173 A 
ATOM     78  F   UNL     1      -3.323 -15.453  -0.049  1.00  0.00    -0.203 F 
ATOM     79  C   UNL     1      -1.663 -15.550   1.619  1.00  0.00     0.198 A 
ATOM     80  C   UNL     1      -1.196 -13.616   2.957  1.00  0.00     0.198 A 
ATOM     81  F   UNL     1      -2.425 -11.635   2.631  1.00  0.00    -0.203 F 
ATOM     82  F   UNL     1      -1.447 -16.840   1.325  1.00  0.00    -0.200 F 
ATOM     83  C   UNL     1      -0.944 -14.940   2.634  1.00  0.00     0.200 A 
ATOM     84  F   UNL     1      -0.491 -13.017   3.926  1.00  0.00    -0.200 F 
ATOM     85  F   UNL     1      -0.016 -15.632   3.310  1.00  0.00    -0.200 F 
ENDBRANCH  51  75
BRANCH  63  86
ATOM     86  C   UNL     1      -9.820 -14.424   0.820  1.00  0.00     0.064 A 
ATOM     87  C   UNL     1     -10.112 -14.518   2.189  1.00  0.00     0.173 A 
ATOM     88  C   UNL     1     -10.445 -15.334  -0.048  1.00  0.00     0.173 A 
ATOM     89  F   UNL     1      -9.532 -13.682   3.063  1.00  0.00    -0.203 F 
ATOM     90  C   UNL     1     -10.969 -15.505   2.671  1.00  0.00     0.198 A 
ATOM     91  C   UNL     1     -11.330 -16.294   0.434  1.00  0.00     0.198 A 
ATOM     92  F   UNL     1     -10.209 -15.282  -1.367  1.00  0.00    -0.203 F 
ATOM     93  F   UNL     1     -11.188 -15.612   3.989  1.00  0.00    -0.200 F 
ATOM     94  C   UNL     1     -11.583 -16.386   1.794  1.00  0.00     0.200 A 
ATOM     95  F   UNL     1     -11.936 -17.132  -0.419  1.00  0.00    -0.200 F 
ATOM     96  F   UNL     1     -12.414 -17.328   2.259  1.00  0.00    -0.200 F 
ENDBRANCH  63  86
ENDBRANCH  37  38
ENDBRANCH  29  32
ENDBRANCH  27  28
ENDBRANCH  26  27
ENDBRANCH  25  26
ENDBRANCH   1  25
TORSDOF 17
