REMARK SMILES CC[C@](C)(NC(=O)c1ccc2ccccc2c1O)C(=O)NCCCCCCNC(=O)c1ccc(-c2c3nc(c(-c4c(F)c(F)c(F)c(F)c4F)c4ccc([nH]4)c(-c4c(F)c(F)c(F)c(F)c4F)c4nc(c(-c5c(F)c(F)c(F)c(F)c5F)c5ccc2[nH]5)C=C4)C=C3)cc1
REMARK SMILES IDX 24 1 23 2 22 3 21 4 19 5 20 6 3 8 4 9 2 10 1 11 5 12 6 13
REMARK SMILES IDX 7 15 8 16 9 17 17 18 10 19 16 20 11 21 15 22 12 23 14 24
REMARK SMILES IDX 13 25 18 26 25 28 26 29 27 30 28 31 29 32 30 34 31 35 32 36
REMARK SMILES IDX 93 37 33 38 92 39 34 40 35 41 36 42 86 43 37 44 91 45 85 46
REMARK SMILES IDX 87 47 38 48 90 49 84 50 83 51 39 53 71 54 51 55 70 56 52 57
REMARK SMILES IDX 55 58 69 59 88 60 53 61 54 62 68 64 89 65 56 66 40 67 41 68
REMARK SMILES IDX 49 69 42 70 43 71 47 72 50 73 44 74 45 75 48 76 46 77 72 78
REMARK SMILES IDX 73 79 81 80 74 81 75 82 79 83 82 84 76 85 77 86 80 87 78 88
REMARK SMILES IDX 57 89 58 90 66 91 59 92 60 93 64 94 67 95 61 96 62 97 65 98
REMARK SMILES IDX 63 99
REMARK H PARENT 21 7 5 14 18 27 28 33 87 52 55 63
REMARK Flexibility Score: inf
ROOT
ATOM      1  C   UNL     1       3.911   2.801   5.670  1.00  0.00     0.002 C 
ENDROOT
BRANCH   1   2
ATOM      2  C   UNL     1       2.406   2.933   5.346  1.00  0.00     0.021 C 
BRANCH   2   3
ATOM      3  C   UNL     1       1.938   3.381   3.939  1.00  0.00     0.116 C 
BRANCH   3   4
ATOM      4  N   UNL     1       2.364   2.678   2.718  1.00  0.00    -0.354 N 
ATOM      5  C   UNL     1       2.033   1.559   1.986  1.00  0.00     0.245 C 
ATOM      6  O   UNL     1       2.650   1.451   0.914  1.00  0.00    -0.272 OA
ATOM      7  H   UNL     1       3.116   3.152   2.295  1.00  0.00     0.163 HD
BRANCH   5   8
ATOM      8  C   UNL     1       0.906   0.479   2.362  1.00  0.00     0.116 C 
ATOM      9  C   UNL     1       0.873  -0.626   1.274  1.00  0.00     0.045 C 
BRANCH   8  10
ATOM     10  C   UNL     1      -0.431   1.307   2.304  1.00  0.00     0.035 C 
ATOM     11  C   UNL     1      -1.055   1.480   0.918  1.00  0.00     0.007 C 
ENDBRANCH   8  10
BRANCH   8  12
ATOM     12  N   UNL     1       0.940  -0.296   3.709  1.00  0.00    -0.338 N 
ATOM     13  C   UNL     1       1.681  -1.432   4.132  1.00  0.00     0.255 C 
ATOM     14  H   UNL     1       0.336   0.067   4.397  1.00  0.00     0.164 HD
ATOM     15  O   UNL     1       1.084  -2.294   4.776  1.00  0.00    -0.269 OA
BRANCH  13  16
ATOM     16  C   UNL     1       3.178  -1.533   3.998  1.00  0.00     0.082 A 
ATOM     17  C   UNL     1       3.947  -2.630   4.377  1.00  0.00     0.018 A 
ATOM     18  C   UNL     1       3.893  -0.389   3.726  1.00  0.00     0.136 A 
ATOM     19  C   UNL     1       5.366  -2.534   4.394  1.00  0.00     0.010 A 
ATOM     20  C   UNL     1       5.273  -0.285   3.554  1.00  0.00     0.024 A 
ATOM     21  C   UNL     1       6.051  -1.363   3.962  1.00  0.00    -0.015 A 
ATOM     22  C   UNL     1       5.857   0.911   3.081  1.00  0.00     0.012 A 
ATOM     23  C   UNL     1       7.452  -1.163   3.970  1.00  0.00     0.009 A 
ATOM     24  C   UNL     1       7.230   1.081   3.072  1.00  0.00     0.001 A 
ATOM     25  C   UNL     1       8.028   0.048   3.540  1.00  0.00     0.001 A 
BRANCH  18  26
ATOM     26  O   UNL     1       3.273   0.782   3.950  1.00  0.00    -0.506 OA
ATOM     27  H   UNL     1       2.345   0.804   4.077  1.00  0.00     0.293 HD
ENDBRANCH  18  26
ENDBRANCH  13  16
ENDBRANCH   8  12
ENDBRANCH   5   8
ENDBRANCH   3   4
ENDBRANCH   2   3
ENDBRANCH   1   2
BRANCH   1  28
ATOM     28  C   UNL     1       4.755   4.064   5.654  1.00  0.00     0.002 C 
BRANCH  28  29
ATOM     29  C   UNL     1       4.351   5.086   6.700  1.00  0.00     0.021 C 
BRANCH  29  30
ATOM     30  C   UNL     1       4.368   4.553   8.127  1.00  0.00     0.116 C 
BRANCH  30  31
ATOM     31  N   UNL     1       5.719   4.273   8.597  1.00  0.00    -0.352 N 
ATOM     32  C   UNL     1       6.346   4.798   9.700  1.00  0.00     0.251 C 
ATOM     33  H   UNL     1       6.242   3.634   8.062  1.00  0.00     0.163 HD
ATOM     34  O   UNL     1       7.554   4.671   9.874  1.00  0.00    -0.269 OA
BRANCH  32  35
ATOM     35  C   UNL     1       5.529   5.545  10.674  1.00  0.00     0.039 A 
ATOM     36  C   UNL     1       5.910   6.835  11.041  1.00  0.00     0.014 A 
ATOM     37  C   UNL     1       4.341   4.983  11.155  1.00  0.00     0.014 A 
ATOM     38  C   UNL     1       5.066   7.585  11.859  1.00  0.00     0.010 A 
ATOM     39  C   UNL     1       3.463   5.764  11.895  1.00  0.00     0.010 A 
ATOM     40  C   UNL     1       3.823   7.067  12.266  1.00  0.00    -0.014 A 
BRANCH  40  41
ATOM     41  C   UNL     1       2.896   7.886  13.085  1.00  0.00     0.031 A 
ATOM     42  C   UNL     1       2.544   7.460  14.482  1.00  0.00     0.074 A 
ATOM     43  C   UNL     1       2.348   8.995  12.553  1.00  0.00     0.049 A 
ATOM     44  N   UNL     1       1.791   8.065  15.366  1.00  0.00    -0.248 NA
ATOM     45  C   UNL     1       3.085   6.171  14.939  1.00  0.00     0.031 C 
ATOM     46  C   UNL     1       2.561   9.470  11.185  1.00  0.00     0.029 A 
ATOM     47  N   UNL     1       1.509   9.931  13.102  1.00  0.00    -0.354 N 
ATOM     48  C   UNL     1       1.763   7.227  16.473  1.00  0.00     0.074 A 
ATOM     49  C   UNL     1       2.517   6.043  16.128  1.00  0.00     0.031 C 
ATOM     50  C   UNL     1       1.916  10.635  11.019  1.00  0.00     0.029 A 
ATOM     51  C   UNL     1       1.218  10.972  12.255  1.00  0.00     0.049 A 
ATOM     52  H   UNL     1       1.150   9.863  14.016  1.00  0.00     0.167 HD
ATOM     53  C   UNL     1       1.184   7.440  17.679  1.00  0.00     0.037 A 
ATOM     54  C   UNL     1       0.481  12.079  12.461  1.00  0.00     0.037 A 
ATOM     55  C   UNL     1       0.451   8.632  18.019  1.00  0.00     0.049 A 
ATOM     56  C   UNL     1      -0.148  12.294  13.811  1.00  0.00     0.074 A 
ATOM     57  C   UNL     1      -0.109   8.985  19.234  1.00  0.00     0.029 A 
ATOM     58  N   UNL     1       0.167   9.662  17.133  1.00  0.00    -0.354 N 
ATOM     59  N   UNL     1      -0.085  11.545  14.885  1.00  0.00    -0.248 NA
ATOM     60  C   UNL     1      -0.944  13.517  13.977  1.00  0.00     0.031 C 
ATOM     61  C   UNL     1      -0.788  10.197  19.066  1.00  0.00     0.029 A 
ATOM     62  C   UNL     1      -0.595  10.634  17.764  1.00  0.00     0.049 A 
ATOM     63  H   UNL     1       0.462   9.697  16.195  1.00  0.00     0.167 HD
ATOM     64  C   UNL     1      -0.809  12.215  15.862  1.00  0.00     0.074 A 
ATOM     65  C   UNL     1      -1.279  13.445  15.257  1.00  0.00     0.031 C 
ATOM     66  C   UNL     1      -1.065  11.847  17.142  1.00  0.00     0.037 A 
BRANCH  53  67
ATOM     67  C   UNL     1       1.313   6.355  18.711  1.00  0.00     0.064 A 
ATOM     68  C   UNL     1       2.549   6.024  19.290  1.00  0.00     0.173 A 
ATOM     69  C   UNL     1       0.182   5.642  19.137  1.00  0.00     0.173 A 
ATOM     70  F   UNL     1       3.666   6.663  18.912  1.00  0.00    -0.203 F 
ATOM     71  C   UNL     1       2.653   4.995  20.224  1.00  0.00     0.198 A 
ATOM     72  C   UNL     1       0.283   4.639  20.098  1.00  0.00     0.198 A 
ATOM     73  F   UNL     1      -1.026   5.918  18.622  1.00  0.00    -0.203 F 
ATOM     74  F   UNL     1       3.853   4.655  20.714  1.00  0.00    -0.200 F 
ATOM     75  C   UNL     1       1.519   4.309  20.632  1.00  0.00     0.200 A 
ATOM     76  F   UNL     1      -0.815   3.987  20.502  1.00  0.00    -0.200 F 
ATOM     77  F   UNL     1       1.620   3.322  21.533  1.00  0.00    -0.200 F 
ENDBRANCH  53  67
BRANCH  54  78
ATOM     78  C   UNL     1       0.345  13.094  11.383  1.00  0.00     0.064 A 
ATOM     79  C   UNL     1       0.940  14.358  11.507  1.00  0.00     0.173 A 
ATOM     80  C   UNL     1      -0.378  12.827  10.212  1.00  0.00     0.173 A 
ATOM     81  F   UNL     1       1.626  14.668  12.617  1.00  0.00    -0.203 F 
ATOM     82  C   UNL     1       0.800  15.322  10.511  1.00  0.00     0.198 A 
ATOM     83  C   UNL     1      -0.491  13.781   9.203  1.00  0.00     0.198 A 
ATOM     84  F   UNL     1      -0.961  11.632  10.040  1.00  0.00    -0.203 F 
ATOM     85  F   UNL     1       1.340  16.537  10.677  1.00  0.00    -0.200 F 
ATOM     86  C   UNL     1       0.090  15.030   9.357  1.00  0.00     0.200 A 
ATOM     87  F   UNL     1      -1.164  13.489   8.081  1.00  0.00    -0.200 F 
ATOM     88  F   UNL     1      -0.040  15.955   8.396  1.00  0.00    -0.200 F 
ENDBRANCH  54  78
BRANCH  66  89
ATOM     89  C   UNL     1      -1.873  12.802  17.976  1.00  0.00     0.064 A 
ATOM     90  C   UNL     1      -3.231  13.041  17.715  1.00  0.00     0.173 A 
ATOM     91  C   UNL     1      -1.282  13.485  19.050  1.00  0.00     0.173 A 
ATOM     92  F   UNL     1      -3.841  12.424  16.691  1.00  0.00    -0.203 F 
ATOM     93  C   UNL     1      -3.954  13.962  18.468  1.00  0.00     0.198 A 
ATOM     94  C   UNL     1      -2.019  14.376  19.826  1.00  0.00     0.198 A 
ATOM     95  F   UNL     1       0.010  13.286  19.350  1.00  0.00    -0.203 F 
ATOM     96  F   UNL     1      -5.229  14.228  18.154  1.00  0.00    -0.200 F 
ATOM     97  C   UNL     1      -3.349  14.624  19.526  1.00  0.00     0.200 A 
ATOM     98  F   UNL     1      -1.437  15.002  20.858  1.00  0.00    -0.200 F 
ATOM     99  F   UNL     1      -4.045  15.513  20.248  1.00  0.00    -0.200 F 
ENDBRANCH  66  89
ENDBRANCH  40  41
ENDBRANCH  32  35
ENDBRANCH  30  31
ENDBRANCH  29  30
ENDBRANCH  28  29
ENDBRANCH   1  28
TORSDOF 17
