REMARK SMILES C[C@@H](NC(=O)[C@H]1CC=CC[C@@H]1C(=O)NCCCCCCNC(=O)c1ccc(-c2c3nc(c(-c4c(F)c(F)c(F)c(F)c4F)c4ccc([nH]4)c(-c4c(F)c(F)c(F)c(F)c4F)c4nc(c(-c5c(F)c(F)c(F)c(F)c5F)c5ccc2[nH]5)C=C4)C=C3)cc1)c1ccc(-n2ccnc2)cc1
REMARK SMILES IDX 16 1 15 2 14 3 12 4 13 5 11 7 6 8 7 9 8 10 10 11 9 12 4 13
REMARK SMILES IDX 3 14 5 16 2 17 1 18 87 19 88 20 97 21 89 22 96 23 90 24
REMARK SMILES IDX 91 25 92 26 95 27 93 28 94 29 17 30 18 31 19 32 20 33 21 34
REMARK SMILES IDX 22 35 23 37 24 38 25 39 86 40 26 41 85 42 27 43 28 44 29 45
REMARK SMILES IDX 79 46 30 47 84 48 78 49 80 50 31 51 83 52 77 53 76 54 32 56
REMARK SMILES IDX 64 57 44 58 63 59 45 60 48 61 62 62 81 63 46 64 47 65 61 67
REMARK SMILES IDX 82 68 49 69 33 70 34 71 42 72 35 73 36 74 40 75 43 76 37 77
REMARK SMILES IDX 38 78 41 79 39 80 65 81 66 82 74 83 67 84 68 85 72 86 75 87
REMARK SMILES IDX 69 88 70 89 73 90 71 91 50 92 51 93 59 94 52 95 53 96 57 97
REMARK SMILES IDX 60 98 54 99 55 100 58 101 56 102
REMARK H PARENT 14 6 3 15 21 36 80 55 48 66
REMARK Flexibility Score: inf
ROOT
ATOM      1  C   UNL     1      -5.014  -4.795   0.988  1.00  0.00     0.021 C 
ENDROOT
BRANCH   1   2
ATOM      2  C   UNL     1      -4.293  -4.605  -0.363  1.00  0.00     0.116 C 
BRANCH   2   3
ATOM      3  N   UNL     1      -4.082  -3.184  -0.776  1.00  0.00    -0.356 N 
ATOM      4  C   UNL     1      -2.805  -2.414  -0.867  1.00  0.00     0.224 C 
ATOM      5  O   UNL     1      -2.638  -2.639  -2.121  1.00  0.00    -0.275 OA
ATOM      6  H   UNL     1      -4.896  -2.687  -1.022  1.00  0.00     0.163 HD
BRANCH   4   7
ATOM      7  C   UNL     1      -1.689  -1.202   0.578  1.00  0.00     0.095 C 
ATOM      8  C   UNL     1      -0.671  -1.781   1.967  1.00  0.00     0.095 C 
ATOM      9  C   UNL     1      -1.062  -1.343   3.396  1.00  0.00     0.041 C 
ATOM     10  C   UNL     1      -1.746  -0.051   3.597  1.00  0.00    -0.030 C 
ATOM     11  C   UNL     1      -1.915   0.449   1.163  1.00  0.00     0.041 C 
ATOM     12  C   UNL     1      -2.131   0.741   2.605  1.00  0.00    -0.030 C 
BRANCH   8  13
ATOM     13  C   UNL     1       0.849  -1.750   1.650  1.00  0.00     0.224 C 
ATOM     14  N   UNL     1       1.332  -2.302   0.482  1.00  0.00    -0.349 N 
ATOM     15  H   UNL     1       2.153  -2.833   0.595  1.00  0.00     0.164 HD
ATOM     16  O   UNL     1       1.682  -1.463   2.513  1.00  0.00    -0.275 OA
BRANCH  14  17
ATOM     17  C   UNL     1       0.836  -2.238  -0.915  1.00  0.00     0.109 C 
ATOM     18  C   UNL     1       1.434  -0.964  -1.528  1.00  0.00     0.036 C 
BRANCH  17  19
ATOM     19  C   UNL     1      -0.691  -2.293  -0.958  1.00  0.00    -0.026 A 
ATOM     20  C   UNL     1      -1.567  -0.818  -1.557  1.00  0.00     0.008 A 
ATOM     21  C   UNL     1      -1.440  -3.312   0.317  1.00  0.00     0.008 A 
ATOM     22  C   UNL     1      -3.139  -0.373  -0.855  1.00  0.00     0.027 A 
ATOM     23  C   UNL     1      -2.921  -2.710   1.191  1.00  0.00     0.027 A 
ATOM     24  C   UNL     1      -3.794  -1.256   0.563  1.00  0.00     0.046 A 
BRANCH  24  25
ATOM     25  N   UNL     1      -5.145  -1.039   0.916  1.00  0.00    -0.306 N 
ATOM     26  C   UNL     1      -5.798  -1.453   2.047  1.00  0.00     0.113 A 
ATOM     27  C   UNL     1      -6.112  -0.544   0.072  1.00  0.00     0.204 A 
ATOM     28  C   UNL     1      -7.137  -1.249   1.796  1.00  0.00     0.131 A 
ATOM     29  N   UNL     1      -7.322  -0.671   0.571  1.00  0.00    -0.245 NA
ENDBRANCH  24  25
ENDBRANCH  17  19
ENDBRANCH  14  17
ENDBRANCH   8  13
ENDBRANCH   4   7
ENDBRANCH   2   3
ENDBRANCH   1   2
BRANCH   1  30
ATOM     30  C   UNL     1      -6.477  -5.232   0.978  1.00  0.00     0.002 C 
BRANCH  30  31
ATOM     31  C   UNL     1      -6.739  -6.698   0.649  1.00  0.00     0.002 C 
BRANCH  31  32
ATOM     32  C   UNL     1      -5.971  -7.731   1.482  1.00  0.00     0.021 C 
BRANCH  32  33
ATOM     33  C   UNL     1      -6.106  -7.614   3.002  1.00  0.00     0.116 C 
BRANCH  33  34
ATOM     34  N   UNL     1      -7.478  -7.767   3.457  1.00  0.00    -0.352 N 
ATOM     35  C   UNL     1      -8.092  -8.790   4.134  1.00  0.00     0.251 C 
ATOM     36  H   UNL     1      -8.066  -7.007   3.243  1.00  0.00     0.163 HD
ATOM     37  O   UNL     1      -9.316  -8.795   4.239  1.00  0.00    -0.269 OA
BRANCH  35  38
ATOM     38  C   UNL     1      -7.314  -9.893   4.743  1.00  0.00     0.039 A 
ATOM     39  C   UNL     1      -7.822 -11.195   4.657  1.00  0.00     0.014 A 
ATOM     40  C   UNL     1      -6.152  -9.653   5.481  1.00  0.00     0.014 A 
ATOM     41  C   UNL     1      -7.153 -12.253   5.279  1.00  0.00     0.010 A 
ATOM     42  C   UNL     1      -5.450 -10.718   6.049  1.00  0.00     0.010 A 
ATOM     43  C   UNL     1      -5.954 -12.025   5.972  1.00  0.00    -0.014 A 
BRANCH  43  44
ATOM     44  C   UNL     1      -5.250 -13.136   6.664  1.00  0.00     0.031 A 
ATOM     45  C   UNL     1      -5.161 -13.153   8.166  1.00  0.00     0.074 A 
ATOM     46  C   UNL     1      -4.653 -14.105   5.946  1.00  0.00     0.049 A 
ATOM     47  N   UNL     1      -4.555 -14.006   8.954  1.00  0.00    -0.248 NA
ATOM     48  C   UNL     1      -5.820 -12.046   8.876  1.00  0.00     0.031 C 
ATOM     49  C   UNL     1      -4.622 -14.175   4.486  1.00  0.00     0.029 A 
ATOM     50  N   UNL     1      -3.948 -15.212   6.349  1.00  0.00    -0.354 N 
ATOM     51  C   UNL     1      -4.745 -13.530  10.245  1.00  0.00     0.074 A 
ATOM     52  C   UNL     1      -5.476 -12.286  10.133  1.00  0.00     0.031 C 
ATOM     53  C   UNL     1      -3.943 -15.273   4.114  1.00  0.00     0.029 A 
ATOM     54  C   UNL     1      -3.475 -15.972   5.308  1.00  0.00     0.049 A 
ATOM     55  H   UNL     1      -3.796 -15.439   7.295  1.00  0.00     0.167 HD
ATOM     56  C   UNL     1      -4.368 -14.091  11.420  1.00  0.00     0.037 A 
ATOM     57  C   UNL     1      -2.749 -17.106   5.316  1.00  0.00     0.037 A 
ATOM     58  C   UNL     1      -3.665 -15.342  11.533  1.00  0.00     0.049 A 
ATOM     59  C   UNL     1      -2.378 -17.734   6.632  1.00  0.00     0.074 A 
ATOM     60  C   UNL     1      -3.272 -16.016  12.676  1.00  0.00     0.029 A 
ATOM     61  N   UNL     1      -3.253 -16.112  10.454  1.00  0.00    -0.354 N 
ATOM     62  N   UNL     1      -2.613 -17.304   7.848  1.00  0.00    -0.248 NA
ATOM     63  C   UNL     1      -1.659 -19.014   6.576  1.00  0.00     0.031 C 
ATOM     64  C   UNL     1      -2.599 -17.180  12.289  1.00  0.00     0.029 A 
ATOM     65  C   UNL     1      -2.607 -17.252  10.905  1.00  0.00     0.049 A 
ATOM     66  H   UNL     1      -3.398 -15.882   9.508  1.00  0.00     0.167 HD
ATOM     67  C   UNL     1      -2.094 -18.268   8.701  1.00  0.00     0.074 A 
ATOM     68  C   UNL     1      -1.545 -19.315   7.862  1.00  0.00     0.031 C 
ATOM     69  C   UNL     1      -2.073 -18.285  10.056  1.00  0.00     0.037 A 
BRANCH  56  70
ATOM     70  C   UNL     1      -4.721 -13.351  12.678  1.00  0.00     0.064 A 
ATOM     71  C   UNL     1      -6.050 -13.243  13.118  1.00  0.00     0.173 A 
ATOM     72  C   UNL     1      -3.723 -12.749  13.459  1.00  0.00     0.173 A 
ATOM     73  F   UNL     1      -7.044 -13.790  12.402  1.00  0.00    -0.203 F 
ATOM     74  C   UNL     1      -6.370 -12.527  14.268  1.00  0.00     0.198 A 
ATOM     75  C   UNL     1      -4.043 -12.059  14.626  1.00  0.00     0.198 A 
ATOM     76  F   UNL     1      -2.435 -12.827  13.089  1.00  0.00    -0.203 F 
ATOM     77  F   UNL     1      -7.651 -12.387  14.634  1.00  0.00    -0.200 F 
ATOM     78  C   UNL     1      -5.366 -11.939  15.024  1.00  0.00     0.200 A 
ATOM     79  F   UNL     1      -3.071 -11.501  15.361  1.00  0.00    -0.200 F 
ATOM     80  F   UNL     1      -5.675 -11.248  16.130  1.00  0.00    -0.200 F 
ENDBRANCH  56  70
BRANCH  57  81
ATOM     81  C   UNL     1      -2.365 -17.740   4.030  1.00  0.00     0.064 A 
ATOM     82  C   UNL     1      -2.981 -18.922   3.598  1.00  0.00     0.173 A 
ATOM     83  C   UNL     1      -1.391 -17.168   3.198  1.00  0.00     0.173 A 
ATOM     84  F   UNL     1      -3.904 -19.516   4.369  1.00  0.00    -0.203 F 
ATOM     85  C   UNL     1      -2.629 -19.517   2.388  1.00  0.00     0.198 A 
ATOM     86  C   UNL     1      -1.057 -17.750   1.977  1.00  0.00     0.198 A 
ATOM     87  F   UNL     1      -0.778 -16.033   3.564  1.00  0.00    -0.203 F 
ATOM     88  F   UNL     1      -3.209 -20.665   2.014  1.00  0.00    -0.200 F 
ATOM     89  C   UNL     1      -1.672 -18.926   1.575  1.00  0.00     0.200 A 
ATOM     90  F   UNL     1      -0.143 -17.170   1.188  1.00  0.00    -0.200 F 
ATOM     91  F   UNL     1      -1.341 -19.493   0.407  1.00  0.00    -0.200 F 
ENDBRANCH  57  81
BRANCH  69  92
ATOM     92  C   UNL     1      -1.463 -19.486  10.717  1.00  0.00     0.064 A 
ATOM     93  C   UNL     1      -0.077 -19.697  10.723  1.00  0.00     0.173 A 
ATOM     94  C   UNL     1      -2.275 -20.419  11.380  1.00  0.00     0.173 A 
ATOM     95  F   UNL     1       0.739 -18.841  10.091  1.00  0.00    -0.203 F 
ATOM     96  C   UNL     1       0.473 -20.814  11.348  1.00  0.00     0.198 A 
ATOM     97  C   UNL     1      -1.720 -21.520  12.025  1.00  0.00     0.198 A 
ATOM     98  F   UNL     1      -3.607 -20.259  11.406  1.00  0.00    -0.203 F 
ATOM     99  F   UNL     1       1.796 -21.019  11.304  1.00  0.00    -0.200 F 
ATOM    100  C   UNL     1      -0.348 -21.720  12.003  1.00  0.00     0.200 A 
ATOM    101  F   UNL     1      -2.513 -22.390  12.666  1.00  0.00    -0.200 F 
ATOM    102  F   UNL     1       0.184 -22.792  12.607  1.00  0.00    -0.200 F 
ENDBRANCH  69  92
ENDBRANCH  43  44
ENDBRANCH  35  38
ENDBRANCH  33  34
ENDBRANCH  32  33
ENDBRANCH  31  32
ENDBRANCH  30  31
ENDBRANCH   1  30
TORSDOF 17
