REMARK SMILES Cc1ccc(Cl)c(Nc2ccccc2C(=O)N[C@@H](C)C(=O)NCCCCCCNC(=O)c2ccc(-c3c4nc(c(-c5c(F)c(F)c(F)c(F)c5F)c5ccc([nH]5)c(-c5c(F)c(F)c(F)c(F)c5F)c5nc(c(-c6c(F)c(F)c(F)c(F)c6F)c6ccc3[nH]6)C=C5)C=C4)cc2)c1Cl
REMARK SMILES IDX 24 1 23 2 22 3 20 4 21 5 18 7 19 8 17 9 15 10 16 11 14 13
REMARK SMILES IDX 9 14 10 15 11 16 13 17 12 18 8 19 7 21 1 22 2 23 3 24 95 25
REMARK SMILES IDX 4 26 96 27 5 28 6 29 25 30 26 31 27 32 28 33 29 34 30 35
REMARK SMILES IDX 31 37 32 38 33 39 94 40 34 41 93 42 35 43 36 44 37 45 87 46
REMARK SMILES IDX 38 47 92 48 86 49 88 50 39 51 91 52 85 53 84 54 40 56 72 57
REMARK SMILES IDX 52 58 71 59 53 60 56 61 70 62 89 63 54 64 55 65 69 67 90 68
REMARK SMILES IDX 57 69 41 70 42 71 50 72 43 73 44 74 48 75 51 76 45 77 46 78
REMARK SMILES IDX 49 79 47 80 73 81 74 82 82 83 75 84 76 85 80 86 83 87 77 88
REMARK SMILES IDX 78 89 81 90 79 91 58 92 59 93 67 94 60 95 61 96 65 97 68 98
REMARK SMILES IDX 62 99 63 100 66 101 64 102
REMARK H PARENT 22 6 17 12 8 20 29 36 88 55 56 66
REMARK Flexibility Score: inf
ROOT
ATOM      1  C   UNL     1      -0.383   2.566   3.378  1.00  0.00     0.021 C 
ENDROOT
BRANCH   1   2
ATOM      2  C   UNL     1      -1.577   1.626   3.162  1.00  0.00     0.116 C 
BRANCH   2   3
ATOM      3  N   UNL     1      -1.608   1.050   1.837  1.00  0.00    -0.354 N 
ATOM      4  C   UNL     1      -0.668   0.093   1.587  1.00  0.00     0.242 C 
ATOM      5  O   UNL     1       0.462   0.476   1.290  1.00  0.00    -0.273 OA
ATOM      6  H   UNL     1      -2.264   1.331   1.158  1.00  0.00     0.163 HD
BRANCH   4   7
ATOM      7  C   UNL     1      -1.052  -1.395   1.746  1.00  0.00     0.168 C 
ATOM      8  C   UNL     1      -2.361  -1.665   2.471  1.00  0.00     0.041 C 
BRANCH   7   9
ATOM      9  N   UNL     1       0.095  -1.963   2.431  1.00  0.00    -0.340 N 
ATOM     10  C   UNL     1       1.300  -2.315   1.860  1.00  0.00     0.254 C 
ATOM     11  O   UNL     1       2.306  -2.058   2.529  1.00  0.00    -0.269 OA
ATOM     12  H   UNL     1       0.004  -2.111   3.400  1.00  0.00     0.164 HD
BRANCH  10  13
ATOM     13  C   UNL     1       1.427  -3.226   0.675  1.00  0.00     0.063 A 
ATOM     14  C   UNL     1       0.791  -3.213  -0.585  1.00  0.00     0.051 A 
ATOM     15  C   UNL     1       1.012  -4.315  -1.450  1.00  0.00     0.027 A 
ATOM     16  C   UNL     1       1.890  -5.351  -1.135  1.00  0.00     0.002 A 
ATOM     17  C   UNL     1       2.337  -4.278   0.957  1.00  0.00     0.016 A 
ATOM     18  C   UNL     1       2.577  -5.319   0.063  1.00  0.00     0.001 A 
BRANCH  14  19
ATOM     19  N   UNL     1       0.026  -2.184  -1.172  1.00  0.00    -0.352 N 
ATOM     20  H   UNL     1      -0.863  -2.488  -1.466  1.00  0.00     0.167 HD
BRANCH  19  21
ATOM     21  C   UNL     1       0.253  -0.806  -1.435  1.00  0.00     0.077 A 
ATOM     22  C   UNL     1       2.817   1.993  -0.911  1.00  0.00     0.046 C 
ATOM     23  C   UNL     1       1.557   1.273  -1.315  1.00  0.00    -0.030 A 
ATOM     24  C   UNL     1       0.401   2.027  -1.568  1.00  0.00     0.006 A 
ATOM     25  C   UNL     1       1.492  -0.143  -1.317  1.00  0.00     0.069 A 
ATOM     26  C   UNL     1      -0.812   1.391  -1.796  1.00  0.00     0.023 A 
ATOM     27  Cl  UNL     1       2.986  -1.026  -1.234  1.00  0.00    -0.082 Cl
ATOM     28  C   UNL     1      -0.885  -0.001  -1.711  1.00  0.00     0.066 A 
ATOM     29  Cl  UNL     1      -2.458  -0.719  -1.881  1.00  0.00    -0.082 Cl
ENDBRANCH  19  21
ENDBRANCH  14  19
ENDBRANCH  10  13
ENDBRANCH   7   9
ENDBRANCH   4   7
ENDBRANCH   2   3
ENDBRANCH   1   2
BRANCH   1  30
ATOM     30  C   UNL     1      -0.326   3.784   2.447  1.00  0.00     0.002 C 
BRANCH  30  31
ATOM     31  C   UNL     1      -1.608   4.619   2.379  1.00  0.00     0.002 C 
BRANCH  31  32
ATOM     32  C   UNL     1      -2.244   4.946   3.728  1.00  0.00     0.021 C 
BRANCH  32  33
ATOM     33  C   UNL     1      -1.302   5.587   4.732  1.00  0.00     0.116 C 
BRANCH  33  34
ATOM     34  N   UNL     1      -0.992   6.960   4.391  1.00  0.00    -0.352 N 
ATOM     35  C   UNL     1      -1.096   8.070   5.194  1.00  0.00     0.251 C 
ATOM     36  H   UNL     1      -0.669   7.116   3.475  1.00  0.00     0.163 HD
ATOM     37  O   UNL     1      -0.988   9.193   4.726  1.00  0.00    -0.269 OA
BRANCH  35  38
ATOM     38  C   UNL     1      -1.376   7.884   6.636  1.00  0.00     0.039 A 
ATOM     39  C   UNL     1      -2.377   8.652   7.229  1.00  0.00     0.014 A 
ATOM     40  C   UNL     1      -0.675   6.933   7.386  1.00  0.00     0.014 A 
ATOM     41  C   UNL     1      -2.702   8.441   8.569  1.00  0.00     0.010 A 
ATOM     42  C   UNL     1      -1.063   6.662   8.694  1.00  0.00     0.010 A 
ATOM     43  C   UNL     1      -2.065   7.428   9.306  1.00  0.00    -0.014 A 
BRANCH  43  44
ATOM     44  C   UNL     1      -2.418   7.187  10.729  1.00  0.00     0.031 A 
ATOM     45  C   UNL     1      -1.389   7.397  11.805  1.00  0.00     0.074 A 
ATOM     46  C   UNL     1      -3.652   6.752  11.048  1.00  0.00     0.049 A 
ATOM     47  N   UNL     1      -1.498   7.233  13.100  1.00  0.00    -0.248 NA
ATOM     48  C   UNL     1      -0.049   7.823  11.368  1.00  0.00     0.031 C 
ATOM     49  C   UNL     1      -4.721   6.462  10.090  1.00  0.00     0.029 A 
ATOM     50  N   UNL     1      -4.217   6.477  12.268  1.00  0.00    -0.354 N 
ATOM     51  C   UNL     1      -0.246   7.526  13.624  1.00  0.00     0.074 A 
ATOM     52  C   UNL     1       0.626   7.811  12.507  1.00  0.00     0.031 C 
ATOM     53  C   UNL     1      -5.821   6.084  10.760  1.00  0.00     0.029 A 
ATOM     54  C   UNL     1      -5.526   6.066  12.190  1.00  0.00     0.049 A 
ATOM     55  H   UNL     1      -3.731   6.566  13.120  1.00  0.00     0.167 HD
ATOM     56  C   UNL     1       0.136   7.581  14.922  1.00  0.00     0.037 A 
ATOM     57  C   UNL     1      -6.388   5.713  13.162  1.00  0.00     0.037 A 
ATOM     58  C   UNL     1      -0.742   7.316  16.032  1.00  0.00     0.049 A 
ATOM     59  C   UNL     1      -5.935   5.772  14.597  1.00  0.00     0.074 A 
ATOM     60  C   UNL     1      -0.470   7.400  17.386  1.00  0.00     0.029 A 
ATOM     61  N   UNL     1      -2.062   6.906  15.913  1.00  0.00    -0.354 N 
ATOM     62  N   UNL     1      -4.772   6.127  15.086  1.00  0.00    -0.248 NA
ATOM     63  C   UNL     1      -6.921   5.389  15.617  1.00  0.00     0.031 C 
ATOM     64  C   UNL     1      -1.607   6.984  18.086  1.00  0.00     0.029 A 
ATOM     65  C   UNL     1      -2.610   6.706  17.170  1.00  0.00     0.049 A 
ATOM     66  H   UNL     1      -2.539   6.777  15.062  1.00  0.00     0.167 HD
ATOM     67  C   UNL     1      -4.894   6.041  16.466  1.00  0.00     0.074 A 
ATOM     68  C   UNL     1      -6.252   5.618  16.738  1.00  0.00     0.031 C 
ATOM     69  C   UNL     1      -3.966   6.290  17.424  1.00  0.00     0.037 A 
BRANCH  56  70
ATOM     70  C   UNL     1       1.565   7.943  15.213  1.00  0.00     0.064 A 
ATOM     71  C   UNL     1       2.070   9.228  14.955  1.00  0.00     0.173 A 
ATOM     72  C   UNL     1       2.435   7.003  15.786  1.00  0.00     0.173 A 
ATOM     73  F   UNL     1       1.285  10.162  14.398  1.00  0.00    -0.203 F 
ATOM     74  C   UNL     1       3.397   9.546  15.228  1.00  0.00     0.198 A 
ATOM     75  C   UNL     1       3.753   7.336  16.090  1.00  0.00     0.198 A 
ATOM     76  F   UNL     1       2.006   5.762  16.058  1.00  0.00    -0.203 F 
ATOM     77  F   UNL     1       3.870  10.762  14.921  1.00  0.00    -0.200 F 
ATOM     78  C   UNL     1       4.235   8.603  15.803  1.00  0.00     0.200 A 
ATOM     79  F   UNL     1       4.557   6.428  16.661  1.00  0.00    -0.200 F 
ATOM     80  F   UNL     1       5.511   8.914  16.073  1.00  0.00    -0.200 F 
ENDBRANCH  56  70
BRANCH  57  81
ATOM     81  C   UNL     1      -7.773   5.297  12.815  1.00  0.00     0.064 A 
ATOM     82  C   UNL     1      -8.876   6.086  13.171  1.00  0.00     0.173 A 
ATOM     83  C   UNL     1      -8.024   4.098  12.130  1.00  0.00     0.173 A 
ATOM     84  F   UNL     1      -8.691   7.231  13.843  1.00  0.00    -0.203 F 
ATOM     85  C   UNL     1     -10.177   5.680  12.878  1.00  0.00     0.198 A 
ATOM     86  C   UNL     1      -9.323   3.710  11.809  1.00  0.00     0.198 A 
ATOM     87  F   UNL     1      -7.004   3.309  11.760  1.00  0.00    -0.203 F 
ATOM     88  F   UNL     1     -11.215   6.428  13.277  1.00  0.00    -0.200 F 
ATOM     89  C   UNL     1     -10.399   4.495  12.193  1.00  0.00     0.200 A 
ATOM     90  F   UNL     1      -9.531   2.573  11.131  1.00  0.00    -0.200 F 
ATOM     91  F   UNL     1     -11.649   4.107  11.908  1.00  0.00    -0.200 F 
ENDBRANCH  57  81
BRANCH  69  92
ATOM     92  C   UNL     1      -4.399   6.151  18.856  1.00  0.00     0.064 A 
ATOM     93  C   UNL     1      -4.682   4.901  19.426  1.00  0.00     0.173 A 
ATOM     94  C   UNL     1      -4.496   7.284  19.679  1.00  0.00     0.173 A 
ATOM     95  F   UNL     1      -4.618   3.788  18.679  1.00  0.00    -0.203 F 
ATOM     96  C   UNL     1      -5.079   4.794  20.756  1.00  0.00     0.198 A 
ATOM     97  C   UNL     1      -4.857   7.169  21.018  1.00  0.00     0.198 A 
ATOM     98  F   UNL     1      -4.227   8.503  19.188  1.00  0.00    -0.203 F 
ATOM     99  F   UNL     1      -5.401   3.595  21.263  1.00  0.00    -0.200 F 
ATOM    100  C   UNL     1      -5.158   5.926  21.553  1.00  0.00     0.200 A 
ATOM    101  F   UNL     1      -4.915   8.263  21.791  1.00  0.00    -0.200 F 
ATOM    102  F   UNL     1      -5.533   5.820  22.835  1.00  0.00    -0.200 F 
ENDBRANCH  69  92
ENDBRANCH  43  44
ENDBRANCH  35  38
ENDBRANCH  33  34
ENDBRANCH  32  33
ENDBRANCH  31  32
ENDBRANCH  30  31
ENDBRANCH   1  30
TORSDOF 17
