REMARK SMILES O=C(NCCCCCCNC(=O)c1[nH]ncc1C[N@H+]1CCC[C@@H](C(=O)c2ccc(Oc3ccccc3)cc2)C1)c1ccc(-c2c3nc(c(-c4c(F)c(F)c(F)c(F)c4F)c4ccc([nH]4)c(-c4c(F)c(F)c(F)c(F)c4F)c4nc(c(-c5c(F)c(F)c(F)c(F)c5F)c5ccc2[nH]5)C=C4)C=C3)cc1
REMARK SMILES IDX 8 1 7 2 6 3 5 4 4 5 3 6 1 7 2 8 40 10 41 11 102 12 42 13
REMARK SMILES IDX 101 14 43 15 44 16 45 17 95 18 46 19 100 20 94 21 96 22
REMARK SMILES IDX 47 23 99 24 93 25 92 26 48 28 80 29 60 30 79 31 61 32 64 33
REMARK SMILES IDX 78 34 97 35 62 36 63 37 77 39 98 40 65 41 49 42 50 43 58 44
REMARK SMILES IDX 51 45 52 46 56 47 59 48 53 49 54 50 57 51 55 52 81 53 82 54
REMARK SMILES IDX 90 55 83 56 84 57 88 58 91 59 85 60 86 61 89 62 87 63 66 64
REMARK SMILES IDX 67 65 75 66 68 67 69 68 73 69 76 70 70 71 71 72 74 73 72 74
REMARK SMILES IDX 9 75 10 76 11 77 12 79 13 80 14 81 17 82 15 83 16 85 18 86
REMARK SMILES IDX 19 87 20 88 39 89 21 91 23 92 22 93 24 94 25 95 26 96 27 97
REMARK SMILES IDX 38 98 28 99 37 100 29 101 30 102 31 103 32 104 36 105 33 106
REMARK SMILES IDX 35 107 34 108
REMARK H PARENT 3 9 96 27 64 38 10 78 14 84 19 90
REMARK Flexibility Score: inf
ROOT
ATOM      1  C   UNL     1       6.028   3.566  -2.598  1.00  0.00     0.021 C 
ENDROOT
BRANCH   1   2
ATOM      2  C   UNL     1       4.518   3.407  -2.796  1.00  0.00     0.002 C 
BRANCH   2   3
ATOM      3  C   UNL     1       4.045   2.068  -3.370  1.00  0.00     0.002 C 
BRANCH   3   4
ATOM      4  C   UNL     1       4.558   0.813  -2.666  1.00  0.00     0.021 C 
BRANCH   4   5
ATOM      5  C   UNL     1       4.343   0.770  -1.161  1.00  0.00     0.116 C 
BRANCH   5   6
ATOM      6  N   UNL     1       2.942   0.747  -0.779  1.00  0.00    -0.352 N 
ATOM      7  O   UNL     1       1.098  -0.018   0.279  1.00  0.00    -0.269 OA
ATOM      8  C   UNL     1       2.317  -0.053   0.149  1.00  0.00     0.251 C 
ATOM      9  H   UNL     1       2.362   1.390  -1.247  1.00  0.00     0.163 HD
BRANCH   8  10
ATOM     10  C   UNL     1       3.121  -0.984   0.973  1.00  0.00     0.039 A 
ATOM     11  C   UNL     1       4.315  -0.566   1.563  1.00  0.00     0.014 A 
ATOM     12  C   UNL     1       2.674  -2.298   1.151  1.00  0.00     0.014 A 
ATOM     13  C   UNL     1       5.131  -1.493   2.199  1.00  0.00     0.010 A 
ATOM     14  C   UNL     1       3.453  -3.208   1.875  1.00  0.00     0.010 A 
ATOM     15  C   UNL     1       4.702  -2.819   2.380  1.00  0.00    -0.014 A 
BRANCH  15  16
ATOM     16  C   UNL     1       5.557  -3.740   3.172  1.00  0.00     0.031 A 
ATOM     17  C   UNL     1       6.209  -4.943   2.552  1.00  0.00     0.074 A 
ATOM     18  C   UNL     1       5.790  -3.434   4.464  1.00  0.00     0.049 A 
ATOM     19  N   UNL     1       7.045  -5.795   3.091  1.00  0.00    -0.248 NA
ATOM     20  C   UNL     1       5.878  -5.237   1.149  1.00  0.00     0.031 C 
ATOM     21  C   UNL     1       5.186  -2.307   5.179  1.00  0.00     0.029 A 
ATOM     22  N   UNL     1       6.615  -4.012   5.393  1.00  0.00    -0.354 N 
ATOM     23  C   UNL     1       7.333  -6.727   2.104  1.00  0.00     0.074 A 
ATOM     24  C   UNL     1       6.561  -6.355   0.937  1.00  0.00     0.031 C 
ATOM     25  C   UNL     1       5.707  -2.239   6.412  1.00  0.00     0.029 A 
ATOM     26  C   UNL     1       6.635  -3.347   6.594  1.00  0.00     0.049 A 
ATOM     27  H   UNL     1       7.142  -4.825   5.216  1.00  0.00     0.167 HD
ATOM     28  C   UNL     1       8.174  -7.789   2.166  1.00  0.00     0.037 A 
ATOM     29  C   UNL     1       7.322  -3.603   7.722  1.00  0.00     0.037 A 
ATOM     30  C   UNL     1       8.946  -8.149   3.329  1.00  0.00     0.049 A 
ATOM     31  C   UNL     1       8.255  -4.777   7.753  1.00  0.00     0.074 A 
ATOM     32  C   UNL     1       9.831  -9.203   3.487  1.00  0.00     0.029 A 
ATOM     33  N   UNL     1       8.928  -7.462   4.534  1.00  0.00    -0.354 N 
ATOM     34  N   UNL     1       8.533  -5.637   6.804  1.00  0.00    -0.248 NA
ATOM     35  C   UNL     1       8.971  -5.018   9.013  1.00  0.00     0.031 C 
ATOM     36  C   UNL     1      10.322  -9.173   4.797  1.00  0.00     0.029 A 
ATOM     37  C   UNL     1       9.777  -8.076   5.443  1.00  0.00     0.049 A 
ATOM     38  H   UNL     1       8.391  -6.658   4.717  1.00  0.00     0.167 HD
ATOM     39  C   UNL     1       9.451  -6.521   7.349  1.00  0.00     0.074 A 
ATOM     40  C   UNL     1       9.716  -6.068   8.699  1.00  0.00     0.031 C 
ATOM     41  C   UNL     1      10.015  -7.618   6.787  1.00  0.00     0.037 A 
BRANCH  28  42
ATOM     42  C   UNL     1       8.308  -8.648   0.942  1.00  0.00     0.064 A 
ATOM     43  C   UNL     1       9.015  -8.209  -0.187  1.00  0.00     0.173 A 
ATOM     44  C   UNL     1       7.784  -9.950   0.923  1.00  0.00     0.173 A 
ATOM     45  F   UNL     1       9.525  -6.969  -0.224  1.00  0.00    -0.203 F 
ATOM     46  C   UNL     1       9.182  -9.037  -1.294  1.00  0.00     0.198 A 
ATOM     47  C   UNL     1       7.974 -10.784  -0.176  1.00  0.00     0.198 A 
ATOM     48  F   UNL     1       7.105 -10.421   1.980  1.00  0.00    -0.203 F 
ATOM     49  F   UNL     1       9.837  -8.586  -2.374  1.00  0.00    -0.200 F 
ATOM     50  C   UNL     1       8.669 -10.326  -1.285  1.00  0.00     0.200 A 
ATOM     51  F   UNL     1       7.487 -12.033  -0.161  1.00  0.00    -0.200 F 
ATOM     52  F   UNL     1       8.844 -11.126  -2.346  1.00  0.00    -0.200 F 
ENDBRANCH  28  42
BRANCH  29  53
ATOM     53  C   UNL     1       7.141  -2.728   8.908  1.00  0.00     0.064 A 
ATOM     54  C   UNL     1       8.172  -1.891   9.355  1.00  0.00     0.173 A 
ATOM     55  C   UNL     1       5.927  -2.703   9.610  1.00  0.00     0.173 A 
ATOM     56  F   UNL     1       9.357  -1.893   8.727  1.00  0.00    -0.203 F 
ATOM     57  C   UNL     1       8.000  -1.074  10.470  1.00  0.00     0.198 A 
ATOM     58  C   UNL     1       5.745  -1.862  10.704  1.00  0.00     0.198 A 
ATOM     59  F   UNL     1       4.907  -3.480   9.216  1.00  0.00    -0.203 F 
ATOM     60  F   UNL     1       9.015  -0.314  10.904  1.00  0.00    -0.200 F 
ATOM     61  C   UNL     1       6.785  -1.054  11.139  1.00  0.00     0.200 A 
ATOM     62  F   UNL     1       4.564  -1.833  11.335  1.00  0.00    -0.200 F 
ATOM     63  F   UNL     1       6.617  -0.261  12.206  1.00  0.00    -0.200 F 
ENDBRANCH  29  53
BRANCH  41  64
ATOM     64  C   UNL     1      10.969  -8.396   7.643  1.00  0.00     0.064 A 
ATOM     65  C   UNL     1      10.515  -9.177   8.716  1.00  0.00     0.173 A 
ATOM     66  C   UNL     1      12.348  -8.359   7.391  1.00  0.00     0.173 A 
ATOM     67  F   UNL     1       9.206  -9.229   9.007  1.00  0.00    -0.203 F 
ATOM     68  C   UNL     1      11.411  -9.867   9.527  1.00  0.00     0.198 A 
ATOM     69  C   UNL     1      13.239  -9.072   8.187  1.00  0.00     0.198 A 
ATOM     70  F   UNL     1      12.831  -7.630   6.374  1.00  0.00    -0.203 F 
ATOM     71  F   UNL     1      10.960 -10.561  10.581  1.00  0.00    -0.200 F 
ATOM     72  C   UNL     1      12.771  -9.817   9.260  1.00  0.00     0.200 A 
ATOM     73  F   UNL     1      14.552  -9.030   7.924  1.00  0.00    -0.200 F 
ATOM     74  F   UNL     1      13.633 -10.477  10.045  1.00  0.00    -0.200 F 
ENDBRANCH  41  64
ENDBRANCH  15  16
ENDBRANCH   8  10
ENDBRANCH   5   6
ENDBRANCH   4   5
ENDBRANCH   3   4
ENDBRANCH   2   3
ENDBRANCH   1   2
BRANCH   1  75
ATOM     75  C   UNL     1       6.888   3.227  -3.810  1.00  0.00     0.116 C 
BRANCH  75  76
ATOM     76  N   UNL     1       6.618   4.082  -4.951  1.00  0.00    -0.351 N 
ATOM     77  C   UNL     1       7.508   4.784  -5.721  1.00  0.00     0.269 C 
ATOM     78  H   UNL     1       5.671   4.170  -5.205  1.00  0.00     0.163 HD
ATOM     79  O   UNL     1       7.076   5.607  -6.528  1.00  0.00    -0.268 OA
BRANCH  77  80
ATOM     80  C   UNL     1       8.908   4.586  -5.496  1.00  0.00     0.131 A 
ATOM     81  N   UNL     1       9.758   5.639  -5.297  1.00  0.00    -0.272 N 
ATOM     82  C   UNL     1       9.706   3.447  -5.458  1.00  0.00     0.057 A 
ATOM     83  N   UNL     1      10.986   5.271  -4.905  1.00  0.00    -0.183 NA
ATOM     84  H   UNL     1       9.492   6.578  -5.429  1.00  0.00     0.190 HD
ATOM     85  C   UNL     1      10.957   3.943  -5.011  1.00  0.00     0.145 A 
BRANCH  82  86
ATOM     86  C   UNL     1       9.315   2.028  -5.744  1.00  0.00     0.303 C 
BRANCH  86  87
ATOM     87  N   UNL     1       9.937   1.441  -6.941  1.00  0.00    -0.330 N 
ATOM     88  C   UNL     1       9.614   2.168  -8.175  1.00  0.00     0.262 C 
ATOM     89  C   UNL     1      11.377   1.229  -6.783  1.00  0.00     0.274 C 
ATOM     90  H   UNL     1       9.517   0.517  -7.042  1.00  0.00     0.348 HD
ATOM     91  C   UNL     1      10.178   1.448  -9.404  1.00  0.00     0.062 C 
ATOM     92  C   UNL     1      12.001   0.494  -7.974  1.00  0.00     0.116 C 
ATOM     93  C   UNL     1      11.684   1.225  -9.278  1.00  0.00     0.023 C 
BRANCH  92  94
ATOM     94  C   UNL     1      13.499   0.446  -7.722  1.00  0.00     0.171 C 
ATOM     95  O   UNL     1      14.157   1.431  -7.394  1.00  0.00    -0.294 OA
BRANCH  94  96
ATOM     96  C   UNL     1      14.181  -0.861  -7.801  1.00  0.00     0.018 A 
ATOM     97  C   UNL     1      15.076  -1.210  -6.785  1.00  0.00     0.015 A 
ATOM     98  C   UNL     1      13.958  -1.720  -8.877  1.00  0.00     0.015 A 
ATOM     99  C   UNL     1      15.754  -2.427  -6.850  1.00  0.00     0.048 A 
ATOM    100  C   UNL     1      14.641  -2.936  -8.938  1.00  0.00     0.048 A 
ATOM    101  C   UNL     1      15.555  -3.285  -7.935  1.00  0.00     0.127 A 
BRANCH 101 102
ATOM    102  O   UNL     1      16.292  -4.451  -7.903  1.00  0.00    -0.457 OA
BRANCH 102 103
ATOM    103  C   UNL     1      16.310  -5.228  -9.034  1.00  0.00     0.127 A 
ATOM    104  C   UNL     1      15.682  -6.470  -8.983  1.00  0.00     0.047 A 
ATOM    105  C   UNL     1      16.967  -4.806 -10.192  1.00  0.00     0.047 A 
ATOM    106  C   UNL     1      15.660  -7.276 -10.119  1.00  0.00     0.004 A 
ATOM    107  C   UNL     1      16.935  -5.611 -11.330  1.00  0.00     0.004 A 
ATOM    108  C   UNL     1      16.277  -6.842 -11.294  1.00  0.00     0.000 A 
ENDBRANCH 102 103
ENDBRANCH 101 102
ENDBRANCH  94  96
ENDBRANCH  92  94
ENDBRANCH  86  87
ENDBRANCH  82  86
ENDBRANCH  77  80
ENDBRANCH  75  76
ENDBRANCH   1  75
TORSDOF 19
