REMARK SMILES Cn1ccc(Nc2nccc(C(=O)NCCCCCCNC(=O)c3ccc(-c4c5nc(c(-c6c(F)c(F)c(F)c(F)c6F)c6ccc([nH]6)c(-c6c(F)c(F)c(F)c(F)c6F)c6nc(c(-c7c(F)c(F)c(F)c(F)c7F)c7ccc4[nH]7)C=C6)C=C5)cc3)c2N)n1
REMARK SMILES IDX 17 1 16 2 15 3 14 4 12 5 13 6 11 8 7 9 8 10 87 11 9 12 10 13
REMARK SMILES IDX 6 14 5 16 1 17 2 18 3 19 89 20 4 21 88 22 18 25 19 26 20 27
REMARK SMILES IDX 21 28 22 29 23 31 24 32 25 33 86 34 26 35 85 36 27 37 28 38
REMARK SMILES IDX 29 39 79 40 30 41 84 42 78 43 80 44 31 45 83 46 77 47 76 48
REMARK SMILES IDX 32 50 64 51 44 52 63 53 45 54 48 55 62 56 81 57 46 58 47 59
REMARK SMILES IDX 61 61 82 62 49 63 33 64 34 65 42 66 35 67 36 68 40 69 43 70
REMARK SMILES IDX 37 71 38 72 41 73 39 74 65 75 66 76 74 77 67 78 68 79 72 80
REMARK SMILES IDX 75 81 69 82 70 83 73 84 71 85 50 86 51 87 59 88 52 89 53 90
REMARK SMILES IDX 57 91 60 92 54 93 55 94 58 95 56 96
REMARK H PARENT 14 7 6 15 88 23 88 24 21 30 80 49 48 60
REMARK Flexibility Score: inf
ROOT
ATOM      1  C   UNL     1      -0.141   3.776   5.838  1.00  0.00     0.002 C 
ENDROOT
BRANCH   1   2
ATOM      2  C   UNL     1       0.522   3.422   4.504  1.00  0.00     0.021 C 
BRANCH   2   3
ATOM      3  C   UNL     1      -0.232   3.961   3.281  1.00  0.00     0.116 C 
BRANCH   3   4
ATOM      4  N   UNL     1       0.245   5.297   2.970  1.00  0.00    -0.352 N 
ATOM      5  C   UNL     1       1.129   5.763   2.030  1.00  0.00     0.253 C 
ATOM      6  O   UNL     1       1.414   6.963   2.084  1.00  0.00    -0.269 OA
ATOM      7  H   UNL     1      -0.137   6.000   3.543  1.00  0.00     0.163 HD
BRANCH   5   8
ATOM      8  C   UNL     1       1.677   4.957   0.902  1.00  0.00     0.068 A 
ATOM      9  C   UNL     1       2.387   3.008  -0.319  1.00  0.00     0.155 A 
ATOM     10  N   UNL     1       2.631   3.715  -1.444  1.00  0.00    -0.237 NA
ATOM     11  C   UNL     1       2.027   3.603   0.919  1.00  0.00     0.088 A 
ATOM     12  C   UNL     1       2.373   5.034  -1.399  1.00  0.00     0.114 A 
ATOM     13  C   UNL     1       1.868   5.679  -0.286  1.00  0.00     0.036 A 
BRANCH   9  14
ATOM     14  N   UNL     1       2.473   1.604  -0.442  1.00  0.00    -0.322 N 
ATOM     15  H   UNL     1       3.337   1.220  -0.715  1.00  0.00     0.170 HD
BRANCH  14  16
ATOM     16  C   UNL     1       1.446   0.747  -0.208  1.00  0.00     0.153 A 
ATOM     17  C   UNL     1      -1.931  -0.071   0.065  1.00  0.00     0.173 C 
ATOM     18  N   UNL     1      -0.488  -0.084   0.029  1.00  0.00    -0.274 N 
ATOM     19  C   UNL     1       0.325  -1.168  -0.101  1.00  0.00     0.110 A 
ATOM     20  N   UNL     1       0.179   1.079   0.060  1.00  0.00    -0.155 NA
ATOM     21  C   UNL     1       1.591  -0.658  -0.284  1.00  0.00     0.068 A 
ENDBRANCH  14  16
ENDBRANCH   9  14
BRANCH  11  22
ATOM     22  N   UNL     1       2.233   2.873   2.105  1.00  0.00    -0.395 N 
ATOM     23  H   UNL     1       2.479   1.920   2.061  1.00  0.00     0.156 HD
ATOM     24  H   UNL     1       2.132   3.314   2.979  1.00  0.00     0.156 HD
ENDBRANCH  11  22
ENDBRANCH   5   8
ENDBRANCH   3   4
ENDBRANCH   2   3
ENDBRANCH   1   2
BRANCH   1  25
ATOM     25  C   UNL     1      -1.442   3.017   6.119  1.00  0.00     0.002 C 
BRANCH  25  26
ATOM     26  C   UNL     1      -1.324   1.490   6.100  1.00  0.00     0.021 C 
BRANCH  26  27
ATOM     27  C   UNL     1      -0.302   0.917   7.079  1.00  0.00     0.116 C 
BRANCH  27  28
ATOM     28  N   UNL     1      -0.666   1.191   8.461  1.00  0.00    -0.352 N 
ATOM     29  C   UNL     1      -0.954   0.317   9.479  1.00  0.00     0.251 C 
ATOM     30  H   UNL     1      -0.712   2.144   8.701  1.00  0.00     0.163 HD
ATOM     31  O   UNL     1      -1.474   0.720  10.514  1.00  0.00    -0.269 OA
BRANCH  29  32
ATOM     32  C   UNL     1      -0.646  -1.121   9.326  1.00  0.00     0.039 A 
ATOM     33  C   UNL     1      -1.597  -2.063   9.726  1.00  0.00     0.014 A 
ATOM     34  C   UNL     1       0.586  -1.538   8.814  1.00  0.00     0.014 A 
ATOM     35  C   UNL     1      -1.336  -3.424   9.557  1.00  0.00     0.010 A 
ATOM     36  C   UNL     1       0.819  -2.892   8.585  1.00  0.00     0.010 A 
ATOM     37  C   UNL     1      -0.140  -3.848   8.954  1.00  0.00    -0.014 A 
BRANCH  37  38
ATOM     38  C   UNL     1       0.120  -5.285   8.690  1.00  0.00     0.031 A 
ATOM     39  C   UNL     1       1.245  -5.994   9.390  1.00  0.00     0.074 A 
ATOM     40  C   UNL     1      -0.616  -5.931   7.766  1.00  0.00     0.049 A 
ATOM     41  N   UNL     1       1.671  -7.223   9.237  1.00  0.00    -0.248 NA
ATOM     42  C   UNL     1       2.009  -5.212  10.373  1.00  0.00     0.031 C 
ATOM     43  C   UNL     1      -1.704  -5.338   6.987  1.00  0.00     0.029 A 
ATOM     44  N   UNL     1      -0.553  -7.226   7.315  1.00  0.00    -0.354 N 
ATOM     45  C   UNL     1       2.757  -7.355  10.093  1.00  0.00     0.074 A 
ATOM     46  C   UNL     1       2.956  -6.069  10.725  1.00  0.00     0.031 C 
ATOM     47  C   UNL     1      -2.218  -6.269   6.169  1.00  0.00     0.029 A 
ATOM     48  C   UNL     1      -1.473  -7.513   6.336  1.00  0.00     0.049 A 
ATOM     49  H   UNL     1       0.091  -7.886   7.660  1.00  0.00     0.167 HD
ATOM     50  C   UNL     1       3.505  -8.457  10.344  1.00  0.00     0.037 A 
ATOM     51  C   UNL     1      -1.684  -8.649   5.645  1.00  0.00     0.037 A 
ATOM     52  C   UNL     1       3.288  -9.740   9.729  1.00  0.00     0.049 A 
ATOM     53  C   UNL     1      -0.833  -9.855   5.937  1.00  0.00     0.074 A 
ATOM     54  C   UNL     1       3.949 -10.933   9.964  1.00  0.00     0.029 A 
ATOM     55  N   UNL     1       2.338  -9.997   8.751  1.00  0.00    -0.354 N 
ATOM     56  N   UNL     1       0.145  -9.988   6.799  1.00  0.00    -0.248 NA
ATOM     57  C   UNL     1      -1.120 -11.070   5.162  1.00  0.00     0.031 C 
ATOM     58  C   UNL     1       3.432 -11.899   9.095  1.00  0.00     0.029 A 
ATOM     59  C   UNL     1       2.413 -11.322   8.354  1.00  0.00     0.049 A 
ATOM     60  H   UNL     1       1.704  -9.335   8.392  1.00  0.00     0.167 HD
ATOM     61  C   UNL     1       0.574 -11.303   6.689  1.00  0.00     0.074 A 
ATOM     62  C   UNL     1      -0.262 -11.933   5.688  1.00  0.00     0.031 C 
ATOM     63  C   UNL     1       1.573 -11.933   7.356  1.00  0.00     0.037 A 
BRANCH  50  64
ATOM     64  C   UNL     1       4.629  -8.323  11.331  1.00  0.00     0.064 A 
ATOM     65  C   UNL     1       4.388  -8.149  12.702  1.00  0.00     0.173 A 
ATOM     66  C   UNL     1       5.963  -8.412  10.906  1.00  0.00     0.173 A 
ATOM     67  F   UNL     1       3.131  -8.049  13.159  1.00  0.00    -0.203 F 
ATOM     68  C   UNL     1       5.441  -8.039  13.607  1.00  0.00     0.198 A 
ATOM     69  C   UNL     1       7.013  -8.332  11.818  1.00  0.00     0.198 A 
ATOM     70  F   UNL     1       6.250  -8.585   9.607  1.00  0.00    -0.203 F 
ATOM     71  F   UNL     1       5.186  -7.825  14.905  1.00  0.00    -0.200 F 
ATOM     72  C   UNL     1       6.751  -8.138  13.166  1.00  0.00     0.200 A 
ATOM     73  F   UNL     1       8.279  -8.441  11.392  1.00  0.00    -0.200 F 
ATOM     74  F   UNL     1       7.763  -8.040  14.039  1.00  0.00    -0.200 F 
ENDBRANCH  50  64
BRANCH  51  75
ATOM     75  C   UNL     1      -2.761  -8.705   4.622  1.00  0.00     0.064 A 
ATOM     76  C   UNL     1      -3.913  -9.475   4.833  1.00  0.00     0.173 A 
ATOM     77  C   UNL     1      -2.663  -7.993   3.418  1.00  0.00     0.173 A 
ATOM     78  F   UNL     1      -4.044 -10.189   5.961  1.00  0.00    -0.203 F 
ATOM     79  C   UNL     1      -4.917  -9.547   3.870  1.00  0.00     0.198 A 
ATOM     80  C   UNL     1      -3.680  -8.043   2.468  1.00  0.00     0.198 A 
ATOM     81  F   UNL     1      -1.583  -7.237   3.170  1.00  0.00    -0.203 F 
ATOM     82  F   UNL     1      -5.988 -10.325   4.078  1.00  0.00    -0.200 F 
ATOM     83  C   UNL     1      -4.803  -8.826   2.691  1.00  0.00     0.200 A 
ATOM     84  F   UNL     1      -3.573  -7.332   1.337  1.00  0.00    -0.200 F 
ATOM     85  F   UNL     1      -5.771  -8.890   1.767  1.00  0.00    -0.200 F 
ENDBRANCH  51  75
BRANCH  63  86
ATOM     86  C   UNL     1       1.800 -13.383   7.041  1.00  0.00     0.064 A 
ATOM     87  C   UNL     1       2.364 -13.791   5.824  1.00  0.00     0.173 A 
ATOM     88  C   UNL     1       1.480 -14.373   7.982  1.00  0.00     0.173 A 
ATOM     89  F   UNL     1       2.672 -12.884   4.884  1.00  0.00    -0.203 F 
ATOM     90  C   UNL     1       2.577 -15.140   5.550  1.00  0.00     0.198 A 
ATOM     91  C   UNL     1       1.722 -15.718   7.718  1.00  0.00     0.198 A 
ATOM     92  F   UNL     1       0.943 -14.035   9.164  1.00  0.00    -0.203 F 
ATOM     93  F   UNL     1       3.072 -15.510   4.361  1.00  0.00    -0.200 F 
ATOM     94  C   UNL     1       2.263 -16.101   6.500  1.00  0.00     0.200 A 
ATOM     95  F   UNL     1       1.430 -16.645   8.641  1.00  0.00    -0.200 F 
ATOM     96  F   UNL     1       2.474 -17.398   6.237  1.00  0.00    -0.200 F 
ENDBRANCH  63  86
ENDBRANCH  37  38
ENDBRANCH  29  32
ENDBRANCH  27  28
ENDBRANCH  26  27
ENDBRANCH  25  26
ENDBRANCH   1  25
TORSDOF 16
