REMARK SMILES O=C(C[N@@H+]1CCC[C@H]1C(=O)NCCCCCCNC(=O)c1ccc(-c2c3nc(c(-c4c(F)c(F)c(F)c(F)c4F)c4ccc([nH]4)c(-c4c(F)c(F)c(F)c(F)c4F)c4nc(c(-c5c(F)c(F)c(F)c(F)c5F)c5ccc2[nH]5)C=C4)C=C3)cc1)Nc1ccc(F)c(F)c1F
REMARK SMILES IDX 14 1 13 2 12 3 11 4 9 5 10 6 8 8 4 9 5 10 6 12 7 13 3 14
REMARK SMILES IDX 2 15 1 16 84 17 85 19 86 20 92 21 87 22 90 23 93 24 88 25
REMARK SMILES IDX 91 26 89 27 15 28 16 29 17 30 18 31 19 32 20 34 21 35 22 36
REMARK SMILES IDX 83 37 23 38 82 39 24 40 25 41 26 42 76 43 27 44 81 45 75 46
REMARK SMILES IDX 77 47 28 48 80 49 74 50 73 51 29 53 61 54 41 55 60 56 42 57
REMARK SMILES IDX 45 58 59 59 78 60 43 61 44 62 58 64 79 65 46 66 30 67 31 68
REMARK SMILES IDX 39 69 32 70 33 71 37 72 40 73 34 74 35 75 38 76 36 77 62 78
REMARK SMILES IDX 63 79 71 80 64 81 65 82 69 83 72 84 66 85 67 86 70 87 68 88
REMARK SMILES IDX 47 89 48 90 56 91 49 92 50 93 54 94 57 95 51 96 52 97 55 98
REMARK SMILES IDX 53 99
REMARK H PARENT 11 7 4 11 84 18 18 33 77 52 45 63
REMARK Flexibility Score: inf
ROOT
ATOM      1  C   UNL     1       8.711  -1.448   3.488  1.00  0.00     0.002 C 
ENDROOT
BRANCH   1   2
ATOM      2  C   UNL     1       7.477  -1.406   2.583  1.00  0.00     0.021 C 
BRANCH   2   3
ATOM      3  C   UNL     1       6.460  -2.507   2.891  1.00  0.00     0.116 C 
BRANCH   3   4
ATOM      4  N   UNL     1       5.432  -2.044   3.798  1.00  0.00    -0.351 N 
ATOM      5  C   UNL     1       4.164  -1.589   3.587  1.00  0.00     0.278 C 
ATOM      6  O   UNL     1       3.562  -1.182   4.589  1.00  0.00    -0.268 OA
ATOM      7  H   UNL     1       5.698  -2.059   4.745  1.00  0.00     0.163 HD
BRANCH   5   8
ATOM      8  C   UNL     1       3.461  -1.575   2.206  1.00  0.00     0.274 C 
ATOM      9  N   UNL     1       4.075  -0.575   1.290  1.00  0.00    -0.317 N 
ATOM     10  C   UNL     1       4.736  -1.315   0.222  1.00  0.00     0.263 C 
ATOM     11  H   UNL     1       4.779  -0.016   1.772  1.00  0.00     0.349 HD
ATOM     12  C   UNL     1       4.027  -2.651   0.111  1.00  0.00     0.068 C 
ATOM     13  C   UNL     1       3.447  -2.920   1.488  1.00  0.00     0.081 C 
BRANCH   9  14
ATOM     14  C   UNL     1       3.099   0.454   0.840  1.00  0.00     0.364 C 
BRANCH  14  15
ATOM     15  C   UNL     1       2.061  -0.043  -0.186  1.00  0.00     0.279 C 
ATOM     16  O   UNL     1       0.999  -0.561   0.147  1.00  0.00    -0.268 OA
ATOM     17  N   UNL     1       2.518   0.042  -1.498  1.00  0.00    -0.319 N 
ATOM     18  H   UNL     1       3.344   0.546  -1.679  1.00  0.00     0.170 HD
BRANCH  17  19
ATOM     19  C   UNL     1       1.847  -0.564  -2.573  1.00  0.00     0.080 A 
ATOM     20  C   UNL     1       2.519  -1.568  -3.283  1.00  0.00     0.032 A 
ATOM     21  C   UNL     1       0.571  -0.161  -2.974  1.00  0.00     0.185 A 
ATOM     22  C   UNL     1       1.890  -2.204  -4.353  1.00  0.00     0.045 A 
ATOM     23  C   UNL     1      -0.027  -0.755  -4.079  1.00  0.00     0.196 A 
ATOM     24  F   UNL     1      -0.033   0.872  -2.368  1.00  0.00    -0.201 F 
ATOM     25  C   UNL     1       0.625  -1.783  -4.752  1.00  0.00     0.162 A 
ATOM     26  F   UNL     1      -1.214  -0.316  -4.521  1.00  0.00    -0.200 F 
ATOM     27  F   UNL     1       0.049  -2.371  -5.809  1.00  0.00    -0.204 F 
ENDBRANCH  17  19
ENDBRANCH  14  15
ENDBRANCH   9  14
ENDBRANCH   5   8
ENDBRANCH   3   4
ENDBRANCH   2   3
ENDBRANCH   1   2
BRANCH   1  28
ATOM     28  C   UNL     1       9.582  -2.702   3.323  1.00  0.00     0.002 C 
BRANCH  28  29
ATOM     29  C   UNL     1      10.092  -2.966   1.902  1.00  0.00     0.021 C 
BRANCH  29  30
ATOM     30  C   UNL     1      10.963  -1.854   1.324  1.00  0.00     0.116 C 
BRANCH  30  31
ATOM     31  N   UNL     1      12.179  -1.665   2.102  1.00  0.00    -0.352 N 
ATOM     32  C   UNL     1      13.486  -1.772   1.714  1.00  0.00     0.251 C 
ATOM     33  H   UNL     1      12.040  -1.424   3.047  1.00  0.00     0.163 HD
ATOM     34  O   UNL     1      14.382  -1.823   2.562  1.00  0.00    -0.269 OA
BRANCH  32  35
ATOM     35  C   UNL     1      13.835  -1.831   0.282  1.00  0.00     0.039 A 
ATOM     36  C   UNL     1      14.808  -2.740  -0.145  1.00  0.00     0.014 A 
ATOM     37  C   UNL     1      13.230  -0.966  -0.635  1.00  0.00     0.014 A 
ATOM     38  C   UNL     1      15.137  -2.816  -1.499  1.00  0.00     0.010 A 
ATOM     39  C   UNL     1      13.510  -1.089  -1.993  1.00  0.00     0.010 A 
ATOM     40  C   UNL     1      14.472  -2.010  -2.437  1.00  0.00    -0.014 A 
BRANCH  40  41
ATOM     41  C   UNL     1      14.773  -2.108  -3.887  1.00  0.00     0.031 A 
ATOM     42  C   UNL     1      15.380  -0.941  -4.612  1.00  0.00     0.074 A 
ATOM     43  C   UNL     1      14.438  -3.225  -4.560  1.00  0.00     0.049 A 
ATOM     44  N   UNL     1      15.647  -0.804  -5.887  1.00  0.00    -0.248 NA
ATOM     45  C   UNL     1      15.706   0.244  -3.802  1.00  0.00     0.031 C 
ATOM     46  C   UNL     1      13.803  -4.406  -3.974  1.00  0.00     0.029 A 
ATOM     47  N   UNL     1      14.574  -3.545  -5.888  1.00  0.00    -0.354 N 
ATOM     48  C   UNL     1      16.155   0.480  -6.032  1.00  0.00     0.074 A 
ATOM     49  C   UNL     1      16.111   1.102  -4.727  1.00  0.00     0.031 C 
ATOM     50  C   UNL     1      13.621  -5.328  -4.933  1.00  0.00     0.029 A 
ATOM     51  C   UNL     1      14.092  -4.791  -6.206  1.00  0.00     0.049 A 
ATOM     52  H   UNL     1      14.979  -2.938  -6.550  1.00  0.00     0.167 HD
ATOM     53  C   UNL     1      16.635   1.077  -7.149  1.00  0.00     0.037 A 
ATOM     54  C   UNL     1      14.031  -5.425  -7.392  1.00  0.00     0.037 A 
ATOM     55  C   UNL     1      16.702   0.442  -8.439  1.00  0.00     0.049 A 
ATOM     56  C   UNL     1      14.571  -4.739  -8.618  1.00  0.00     0.074 A 
ATOM     57  C   UNL     1      17.229   0.938  -9.619  1.00  0.00     0.029 A 
ATOM     58  N   UNL     1      16.224  -0.830  -8.719  1.00  0.00    -0.354 N 
ATOM     59  N   UNL     1      15.111  -3.549  -8.730  1.00  0.00    -0.248 NA
ATOM     60  C   UNL     1      14.499  -5.486  -9.881  1.00  0.00     0.031 C 
ATOM     61  C   UNL     1      17.027  -0.015 -10.623  1.00  0.00     0.029 A 
ATOM     62  C   UNL     1      16.422  -1.126 -10.058  1.00  0.00     0.049 A 
ATOM     63  H   UNL     1      15.806  -1.433  -8.062  1.00  0.00     0.167 HD
ATOM     64  C   UNL     1      15.469  -3.417 -10.065  1.00  0.00     0.074 A 
ATOM     65  C   UNL     1      15.098  -4.654 -10.721  1.00  0.00     0.031 C 
ATOM     66  C   UNL     1      16.052  -2.366 -10.692  1.00  0.00     0.037 A 
BRANCH  53  67
ATOM     67  C   UNL     1      17.130   2.489  -7.025  1.00  0.00     0.064 A 
ATOM     68  C   UNL     1      18.305   2.799  -6.324  1.00  0.00     0.173 A 
ATOM     69  C   UNL     1      16.441   3.542  -7.646  1.00  0.00     0.173 A 
ATOM     70  F   UNL     1      18.995   1.831  -5.702  1.00  0.00    -0.203 F 
ATOM     71  C   UNL     1      18.756   4.113  -6.224  1.00  0.00     0.198 A 
ATOM     72  C   UNL     1      16.912   4.851  -7.571  1.00  0.00     0.198 A 
ATOM     73  F   UNL     1      15.315   3.301  -8.334  1.00  0.00    -0.203 F 
ATOM     74  F   UNL     1      19.853   4.391  -5.506  1.00  0.00    -0.200 F 
ATOM     75  C   UNL     1      18.063   5.136  -6.854  1.00  0.00     0.200 A 
ATOM     76  F   UNL     1      16.248   5.836  -8.191  1.00  0.00    -0.200 F 
ATOM     77  F   UNL     1      18.502   6.399  -6.763  1.00  0.00    -0.200 F 
ENDBRANCH  53  67
BRANCH  54  78
ATOM     78  C   UNL     1      13.457  -6.793  -7.474  1.00  0.00     0.064 A 
ATOM     79  C   UNL     1      14.274  -7.900  -7.746  1.00  0.00     0.173 A 
ATOM     80  C   UNL     1      12.087  -7.023  -7.285  1.00  0.00     0.173 A 
ATOM     81  F   UNL     1      15.587  -7.728  -7.953  1.00  0.00    -0.203 F 
ATOM     82  C   UNL     1      13.738  -9.182  -7.847  1.00  0.00     0.198 A 
ATOM     83  C   UNL     1      11.557  -8.309  -7.358  1.00  0.00     0.198 A 
ATOM     84  F   UNL     1      11.264  -5.999  -7.015  1.00  0.00    -0.203 F 
ATOM     85  F   UNL     1      14.533 -10.216  -8.154  1.00  0.00    -0.200 F 
ATOM     86  C   UNL     1      12.381  -9.387  -7.648  1.00  0.00     0.200 A 
ATOM     87  F   UNL     1      10.248  -8.505  -7.148  1.00  0.00    -0.200 F 
ATOM     88  F   UNL     1      11.866 -10.620  -7.741  1.00  0.00    -0.200 F 
ENDBRANCH  54  78
BRANCH  66  89
ATOM     89  C   UNL     1      16.358  -2.521 -12.153  1.00  0.00     0.064 A 
ATOM     90  C   UNL     1      15.343  -2.520 -13.121  1.00  0.00     0.173 A 
ATOM     91  C   UNL     1      17.686  -2.630 -12.592  1.00  0.00     0.173 A 
ATOM     92  F   UNL     1      14.056  -2.434 -12.751  1.00  0.00    -0.203 F 
ATOM     93  C   UNL     1      15.646  -2.650 -14.474  1.00  0.00     0.198 A 
ATOM     94  C   UNL     1      17.987  -2.728 -13.948  1.00  0.00     0.198 A 
ATOM     95  F   UNL     1      18.694  -2.628 -11.707  1.00  0.00    -0.203 F 
ATOM     96  F   UNL     1      14.658  -2.695 -15.378  1.00  0.00    -0.200 F 
ATOM     97  C   UNL     1      16.967  -2.745 -14.886  1.00  0.00     0.200 A 
ATOM     98  F   UNL     1      19.264  -2.806 -14.345  1.00  0.00    -0.200 F 
ATOM     99  F   UNL     1      17.256  -2.862 -16.190  1.00  0.00    -0.200 F 
ENDBRANCH  66  89
ENDBRANCH  40  41
ENDBRANCH  32  35
ENDBRANCH  30  31
ENDBRANCH  29  30
ENDBRANCH  28  29
ENDBRANCH   1  28
TORSDOF 16
