REMARK SMILES O=C(NCCCCCCNC(=O)[C@@H]1C[C@@H]2CC[C@H]1N2c1ncnc2c1CCCCC2)c1ccc(-c2c3nc(c(-c4c(F)c(F)c(F)c(F)c4F)c4ccc([nH]4)c(-c4c(F)c(F)c(F)c(F)c4F)c4nc(c(-c5c(F)c(F)c(F)c(F)c5F)c5ccc2[nH]5)C=C4)C=C3)cc1
REMARK SMILES IDX 8 1 7 2 6 3 5 4 4 5 3 6 1 7 2 8 31 10 32 11 93 12 33 13
REMARK SMILES IDX 92 14 34 15 35 16 36 17 86 18 37 19 91 20 85 21 87 22 38 23
REMARK SMILES IDX 90 24 84 25 83 26 39 28 71 29 51 30 70 31 52 32 55 33 69 34
REMARK SMILES IDX 88 35 53 36 54 37 68 39 89 40 56 41 40 42 41 43 49 44 42 45
REMARK SMILES IDX 43 46 47 47 50 48 44 49 45 50 48 51 46 52 72 53 73 54 81 55
REMARK SMILES IDX 74 56 75 57 79 58 82 59 76 60 77 61 80 62 78 63 57 64 58 65
REMARK SMILES IDX 66 66 59 67 60 68 64 69 67 70 61 71 62 72 65 73 63 74 9 75
REMARK SMILES IDX 10 76 11 77 12 79 13 80 14 81 18 82 15 83 17 84 19 85 16 86
REMARK SMILES IDX 20 87 21 88 25 89 22 90 24 91 23 92 26 93 27 94 28 95 29 96
REMARK SMILES IDX 30 98
REMARK H PARENT 3 9 87 27 55 38 10 78
REMARK Flexibility Score: 80.00
ROOT
ATOM      1  C   UNL     1       6.262  -0.571   4.327  1.00  0.00     0.021 C 
ENDROOT
BRANCH   1   2
ATOM      2  C   UNL     1       4.749  -0.328   4.371  1.00  0.00     0.002 C 
BRANCH   2   3
ATOM      3  C   UNL     1       4.278   1.014   3.802  1.00  0.00     0.002 C 
BRANCH   3   4
ATOM      4  C   UNL     1       4.747   1.321   2.380  1.00  0.00     0.021 C 
BRANCH   4   5
ATOM      5  C   UNL     1       4.433   0.239   1.354  1.00  0.00     0.116 C 
BRANCH   5   6
ATOM      6  N   UNL     1       3.005   0.032   1.178  1.00  0.00    -0.352 N 
ATOM      7  O   UNL     1       1.051  -0.032   0.044  1.00  0.00    -0.269 OA
ATOM      8  C   UNL     1       2.278   0.000   0.015  1.00  0.00     0.251 C 
ATOM      9  H   UNL     1       2.490  -0.105   2.006  1.00  0.00     0.163 HD
BRANCH   8  10
ATOM     10  C   UNL     1       2.984   0.031  -1.283  1.00  0.00     0.039 A 
ATOM     11  C   UNL     1       4.086  -0.798  -1.508  1.00  0.00     0.014 A 
ATOM     12  C   UNL     1       2.542   0.904  -2.280  1.00  0.00     0.014 A 
ATOM     13  C   UNL     1       4.825  -0.659  -2.676  1.00  0.00     0.010 A 
ATOM     14  C   UNL     1       3.238   0.984  -3.488  1.00  0.00     0.010 A 
ATOM     15  C   UNL     1       4.401   0.223  -3.685  1.00  0.00    -0.014 A 
BRANCH  15  16
ATOM     16  C   UNL     1       5.159   0.286  -4.959  1.00  0.00     0.031 A 
ATOM     17  C   UNL     1       5.904   1.527  -5.358  1.00  0.00     0.074 A 
ATOM     18  C   UNL     1       5.204  -0.815  -5.735  1.00  0.00     0.049 A 
ATOM     19  N   UNL     1       6.638   1.740  -6.422  1.00  0.00    -0.248 NA
ATOM     20  C   UNL     1       5.819   2.680  -4.449  1.00  0.00     0.031 C 
ATOM     21  C   UNL     1       4.526  -2.078  -5.438  1.00  0.00     0.029 A 
ATOM     22  N   UNL     1       5.863  -1.060  -6.912  1.00  0.00    -0.354 N 
ATOM     23  C   UNL     1       7.102   3.044  -6.310  1.00  0.00     0.074 A 
ATOM     24  C   UNL     1       6.535   3.591  -5.096  1.00  0.00     0.031 C 
ATOM     25  C   UNL     1       4.848  -2.981  -6.375  1.00  0.00     0.029 A 
ATOM     26  C   UNL     1       5.699  -2.343  -7.373  1.00  0.00     0.049 A 
ATOM     27  H   UNL     1       6.402  -0.382  -7.381  1.00  0.00     0.167 HD
ATOM     28  C   UNL     1       7.940   3.712  -7.138  1.00  0.00     0.037 A 
ATOM     29  C   UNL     1       6.173  -2.938  -8.484  1.00  0.00     0.037 A 
ATOM     30  C   UNL     1       8.498   3.159  -8.346  1.00  0.00     0.049 A 
ATOM     31  C   UNL     1       7.035  -2.144  -9.423  1.00  0.00     0.074 A 
ATOM     32  C   UNL     1       9.356   3.758  -9.252  1.00  0.00     0.029 A 
ATOM     33  N   UNL     1       8.253   1.877  -8.817  1.00  0.00    -0.354 N 
ATOM     34  N   UNL     1       7.478  -0.917  -9.299  1.00  0.00    -0.248 NA
ATOM     35  C   UNL     1       7.455  -2.813 -10.660  1.00  0.00     0.031 C 
ATOM     36  C   UNL     1       9.592   2.858 -10.295  1.00  0.00     0.029 A 
ATOM     37  C   UNL     1       8.926   1.676 -10.013  1.00  0.00     0.049 A 
ATOM     38  H   UNL     1       7.686   1.209  -8.369  1.00  0.00     0.167 HD
ATOM     39  C   UNL     1       8.245  -0.673 -10.429  1.00  0.00     0.074 A 
ATOM     40  C   UNL     1       8.224  -1.888 -11.217  1.00  0.00     0.031 C 
ATOM     41  C   UNL     1       8.900   0.459 -10.784  1.00  0.00     0.037 A 
BRANCH  28  42
ATOM     42  C   UNL     1       8.316   5.120  -6.774  1.00  0.00     0.064 A 
ATOM     43  C   UNL     1       9.181   5.391  -5.704  1.00  0.00     0.173 A 
ATOM     44  C   UNL     1       7.878   6.203  -7.554  1.00  0.00     0.173 A 
ATOM     45  F   UNL     1       9.621   4.394  -4.922  1.00  0.00    -0.203 F 
ATOM     46  C   UNL     1       9.586   6.694  -5.421  1.00  0.00     0.198 A 
ATOM     47  C   UNL     1       8.307   7.500  -7.285  1.00  0.00     0.198 A 
ATOM     48  F   UNL     1       7.055   5.999  -8.593  1.00  0.00    -0.203 F 
ATOM     49  F   UNL     1      10.390   6.931  -4.376  1.00  0.00    -0.200 F 
ATOM     50  C   UNL     1       9.158   7.745  -6.218  1.00  0.00     0.200 A 
ATOM     51  F   UNL     1       7.904   8.513  -8.065  1.00  0.00    -0.200 F 
ATOM     52  F   UNL     1       9.565   8.995  -5.956  1.00  0.00    -0.200 F 
ENDBRANCH  28  42
BRANCH  29  53
ATOM     53  C   UNL     1       5.848  -4.363  -8.754  1.00  0.00     0.064 A 
ATOM     54  C   UNL     1       6.845  -5.346  -8.715  1.00  0.00     0.173 A 
ATOM     55  C   UNL     1       4.536  -4.775  -9.035  1.00  0.00     0.173 A 
ATOM     56  F   UNL     1       8.117  -4.999  -8.469  1.00  0.00    -0.203 F 
ATOM     57  C   UNL     1       6.545  -6.685  -8.956  1.00  0.00     0.198 A 
ATOM     58  C   UNL     1       4.232  -6.118  -9.244  1.00  0.00     0.198 A 
ATOM     59  F   UNL     1       3.543  -3.874  -9.080  1.00  0.00    -0.203 F 
ATOM     60  F   UNL     1       7.525  -7.599  -8.950  1.00  0.00    -0.200 F 
ATOM     61  C   UNL     1       5.238  -7.071  -9.211  1.00  0.00     0.200 A 
ATOM     62  F   UNL     1       2.965  -6.488  -9.471  1.00  0.00    -0.200 F 
ATOM     63  F   UNL     1       4.949  -8.361  -9.430  1.00  0.00    -0.200 F 
ENDBRANCH  29  53
BRANCH  41  64
ATOM     64  C   UNL     1       9.670   0.437 -12.072  1.00  0.00     0.064 A 
ATOM     65  C   UNL     1       9.018   0.440 -13.314  1.00  0.00     0.173 A 
ATOM     66  C   UNL     1      11.072   0.480 -12.064  1.00  0.00     0.173 A 
ATOM     67  F   UNL     1       7.679   0.384 -13.374  1.00  0.00    -0.203 F 
ATOM     68  C   UNL     1       9.744   0.472 -14.502  1.00  0.00     0.198 A 
ATOM     69  C   UNL     1      11.793   0.544 -13.253  1.00  0.00     0.198 A 
ATOM     70  F   UNL     1      11.743   0.485 -10.902  1.00  0.00    -0.203 F 
ATOM     71  F   UNL     1       9.102   0.435 -15.678  1.00  0.00    -0.200 F 
ATOM     72  C   UNL     1      11.129   0.535 -14.470  1.00  0.00     0.200 A 
ATOM     73  F   UNL     1      13.131   0.622 -13.220  1.00  0.00    -0.200 F 
ATOM     74  F   UNL     1      11.825   0.583 -15.615  1.00  0.00    -0.200 F 
ENDBRANCH  41  64
ENDBRANCH  15  16
ENDBRANCH   8  10
ENDBRANCH   5   6
ENDBRANCH   4   5
ENDBRANCH   3   4
ENDBRANCH   2   3
ENDBRANCH   1   2
BRANCH   1  75
ATOM     75  C   UNL     1       7.103   0.481   5.043  1.00  0.00     0.116 C 
BRANCH  75  76
ATOM     76  N   UNL     1       6.831   0.513   6.465  1.00  0.00    -0.356 N 
ATOM     77  C   UNL     1       7.698   0.700   7.500  1.00  0.00     0.225 C 
ATOM     78  H   UNL     1       5.889   0.382   6.719  1.00  0.00     0.163 HD
ATOM     79  O   UNL     1       7.248   0.661   8.644  1.00  0.00    -0.275 OA
BRANCH  77  80
ATOM     80  C   UNL     1       9.158   0.974   7.193  1.00  0.00     0.103 C 
ATOM     81  C   UNL     1      10.061   1.103   8.443  1.00  0.00     0.040 C 
ATOM     82  C   UNL     1       9.353   2.345   6.502  1.00  0.00     0.096 C 
ATOM     83  C   UNL     1      10.672   2.506   8.277  1.00  0.00     0.085 C 
ATOM     84  C   UNL     1       8.669   3.465   7.320  1.00  0.00     0.028 C 
ATOM     85  N   UNL     1      10.735   2.663   6.833  1.00  0.00    -0.349 N 
ATOM     86  C   UNL     1       9.576   3.560   8.570  1.00  0.00     0.027 C 
BRANCH  85  87
ATOM     87  C   UNL     1      11.827   2.472   6.047  1.00  0.00     0.135 A 
ATOM     88  N   UNL     1      12.742   1.575   6.453  1.00  0.00    -0.219 NA
ATOM     89  C   UNL     1      12.043   3.279   4.926  1.00  0.00     0.016 A 
ATOM     90  C   UNL     1      13.867   1.488   5.733  1.00  0.00     0.224 A 
ATOM     91  C   UNL     1      13.273   3.143   4.288  1.00  0.00     0.049 A 
ATOM     92  N   UNL     1      14.189   2.231   4.668  1.00  0.00    -0.241 NA
BRANCH  89  93
ATOM     93  C   UNL     1      11.096   4.370   4.503  1.00  0.00     0.041 C 
BRANCH  93  94
ATOM     94  C   UNL     1      11.610   5.751   4.903  1.00  0.00     0.005 C 
BRANCH  94  95
ATOM     95  C   UNL     1      12.602   6.329   3.896  1.00  0.00     0.001 C 
BRANCH  95  96
ATOM     96  C   UNL     1      13.895   5.529   3.719  1.00  0.00     0.006 CG0
ATOM     97  G   UNL     1      13.699   4.099   3.199  1.00  0.00     0.000 G0
ENDBRANCH  95  96
ENDBRANCH  94  95
ENDBRANCH  93  94
ENDBRANCH  89  93
BRANCH  91  98
ATOM     98  C   UNL     1      13.699   4.099   3.199  1.00  0.00     0.057 CG0
ATOM     99  G   UNL     1      13.895   5.529   3.719  1.00  0.00     0.000 G0
ENDBRANCH  91  98
ENDBRANCH  85  87
ENDBRANCH  77  80
ENDBRANCH  75  76
ENDBRANCH   1  75
TORSDOF 14
