REMARK SMILES C[C@@H](C(=O)NCCCCCCNC(=O)c1ccc(-c2c3nc(c(-c4c(F)c(F)c(F)c(F)c4F)c4ccc([nH]4)c(-c4c(F)c(F)c(F)c(F)c4F)c4nc(c(-c5c(F)c(F)c(F)c(F)c5F)c5ccc2[nH]5)C=C4)C=C3)cc1)c1ccc(C[C@H]2CCCC2=O)cc1[N+](=O)[O-]
REMARK SMILES IDX 8 1 7 2 6 3 5 4 3 5 4 6 2 8 1 9 78 10 79 11 90 12 80 13
REMARK SMILES IDX 89 14 81 15 91 16 92 17 93 18 82 19 83 20 84 21 87 22 85 23
REMARK SMILES IDX 86 24 88 25 9 26 10 27 11 28 12 29 13 30 14 32 15 33 16 34
REMARK SMILES IDX 77 35 17 36 76 37 18 38 19 39 20 40 70 41 21 42 75 43 69 44
REMARK SMILES IDX 71 45 22 46 74 47 68 48 67 49 23 51 55 52 35 53 54 54 36 55
REMARK SMILES IDX 39 56 53 57 72 58 37 59 38 60 52 62 73 63 40 64 24 65 25 66
REMARK SMILES IDX 33 67 26 68 27 69 31 70 34 71 28 72 29 73 32 74 30 75 56 76
REMARK SMILES IDX 57 77 65 78 58 79 59 80 63 81 66 82 60 83 61 84 64 85 62 86
REMARK SMILES IDX 41 87 42 88 50 89 43 90 44 91 48 92 51 93 45 94 46 95 49 96
REMARK SMILES IDX 47 97
REMARK H PARENT 5 7 12 31 71 50 39 61
REMARK Flexibility Score: inf
ROOT
ATOM      1  C   UNL     1       4.884  -2.114  -1.974  1.00  0.00     0.002 C 
ENDROOT
BRANCH   1   2
ATOM      2  C   UNL     1       4.179  -1.033  -1.141  1.00  0.00     0.021 C 
BRANCH   2   3
ATOM      3  C   UNL     1       3.421  -0.001  -1.976  1.00  0.00     0.116 C 
BRANCH   3   4
ATOM      4  N   UNL     1       2.361  -0.635  -2.725  1.00  0.00    -0.356 N 
ATOM      5  C   UNL     1       1.023  -0.683  -2.505  1.00  0.00     0.227 C 
ATOM      6  O   UNL     1       0.359  -1.324  -3.325  1.00  0.00    -0.274 OA
ATOM      7  H   UNL     1       2.661  -1.114  -3.531  1.00  0.00     0.163 HD
BRANCH   5   8
ATOM      8  C   UNL     1       0.364   0.152  -1.395  1.00  0.00     0.112 C 
ATOM      9  C   UNL     1       0.829  -0.003   0.059  1.00  0.00     0.023 C 
BRANCH   8  10
ATOM     10  C   UNL     1      -1.164   0.087  -1.443  1.00  0.00     0.042 A 
ATOM     11  C   UNL     1      -1.837   1.319  -1.576  1.00  0.00     0.012 A 
ATOM     12  C   UNL     1      -1.957  -1.083  -1.359  1.00  0.00     0.273 A 
ATOM     13  C   UNL     1      -3.230   1.394  -1.579  1.00  0.00     0.004 A 
ATOM     14  C   UNL     1      -3.362  -0.994  -1.319  1.00  0.00     0.089 A 
ATOM     15  C   UNL     1      -4.005   0.246  -1.401  1.00  0.00    -0.040 A 
BRANCH  12  16
ATOM     16  N   UNL     1      -1.401  -2.449  -1.315  1.00  0.00     0.063 N 
ATOM     17  O   UNL     1      -2.071  -3.352  -1.840  1.00  0.00    -0.258 OA
ATOM     18  O   UNL     1      -0.345  -2.639  -0.698  1.00  0.00    -0.258 OA
ENDBRANCH  12  16
BRANCH  15  19
ATOM     19  C   UNL     1      -5.507   0.342  -1.280  1.00  0.00     0.047 C 
BRANCH  19  20
ATOM     20  C   UNL     1      -6.036   0.890   0.052  1.00  0.00     0.060 C 
ATOM     21  C   UNL     1      -5.539   0.194   1.324  1.00  0.00     0.012 C 
ATOM     22  C   UNL     1      -5.622   2.324   0.295  1.00  0.00     0.136 C 
ATOM     23  C   UNL     1      -4.396   1.047   1.863  1.00  0.00     0.009 C 
ATOM     24  C   UNL     1      -4.768   2.483   1.525  1.00  0.00     0.076 C 
ATOM     25  O   UNL     1      -5.949   3.260  -0.425  1.00  0.00    -0.299 OA
ENDBRANCH  19  20
ENDBRANCH  15  19
ENDBRANCH   8  10
ENDBRANCH   5   8
ENDBRANCH   3   4
ENDBRANCH   2   3
ENDBRANCH   1   2
BRANCH   1  26
ATOM     26  C   UNL     1       5.826  -1.587  -3.061  1.00  0.00     0.002 C 
BRANCH  26  27
ATOM     27  C   UNL     1       6.881  -0.592  -2.572  1.00  0.00     0.021 C 
BRANCH  27  28
ATOM     28  C   UNL     1       7.804  -1.135  -1.490  1.00  0.00     0.116 C 
BRANCH  28  29
ATOM     29  N   UNL     1       8.634  -2.222  -1.976  1.00  0.00    -0.352 N 
ATOM     30  C   UNL     1       9.987  -2.394  -1.857  1.00  0.00     0.251 C 
ATOM     31  H   UNL     1       8.157  -2.936  -2.458  1.00  0.00     0.163 HD
ATOM     32  O   UNL     1      10.556  -3.279  -2.497  1.00  0.00    -0.269 OA
BRANCH  30  33
ATOM     33  C   UNL     1      10.775  -1.512  -0.971  1.00  0.00     0.039 A 
ATOM     34  C   UNL     1      12.021  -1.057  -1.409  1.00  0.00     0.014 A 
ATOM     35  C   UNL     1      10.309  -1.164   0.301  1.00  0.00     0.014 A 
ATOM     36  C   UNL     1      12.790  -0.237  -0.582  1.00  0.00     0.010 A 
ATOM     37  C   UNL     1      11.041  -0.285   1.093  1.00  0.00     0.010 A 
ATOM     38  C   UNL     1      12.301   0.165   0.672  1.00  0.00    -0.014 A 
BRANCH  38  39
ATOM     39  C   UNL     1      13.124   1.003   1.579  1.00  0.00     0.031 A 
ATOM     40  C   UNL     1      13.610   0.436   2.886  1.00  0.00     0.074 A 
ATOM     41  C   UNL     1      13.404   2.277   1.248  1.00  0.00     0.049 A 
ATOM     42  N   UNL     1      14.313   1.010   3.830  1.00  0.00    -0.248 NA
ATOM     43  C   UNL     1      13.228  -0.953   3.187  1.00  0.00     0.031 C 
ATOM     44  C   UNL     1      12.953   2.954   0.032  1.00  0.00     0.029 A 
ATOM     45  N   UNL     1      14.134   3.232   1.910  1.00  0.00    -0.354 N 
ATOM     46  C   UNL     1      14.435   0.063   4.838  1.00  0.00     0.074 A 
ATOM     47  C   UNL     1      13.690  -1.103   4.418  1.00  0.00     0.031 C 
ATOM     48  C   UNL     1      13.442   4.205   0.019  1.00  0.00     0.029 A 
ATOM     49  C   UNL     1      14.214   4.427   1.238  1.00  0.00     0.049 A 
ATOM     50  H   UNL     1      14.560   3.076   2.783  1.00  0.00     0.167 HD
ATOM     51  C   UNL     1      15.130   0.147   5.998  1.00  0.00     0.037 A 
ATOM     52  C   UNL     1      14.847   5.569   1.568  1.00  0.00     0.037 A 
ATOM     53  C   UNL     1      15.905   1.293   6.393  1.00  0.00     0.049 A 
ATOM     54  C   UNL     1      15.630   5.628   2.852  1.00  0.00     0.074 A 
ATOM     55  C   UNL     1      16.698   1.455   7.514  1.00  0.00     0.029 A 
ATOM     56  N   UNL     1      15.986   2.475   5.671  1.00  0.00    -0.354 N 
ATOM     57  N   UNL     1      15.800   4.702   3.764  1.00  0.00    -0.248 NA
ATOM     58  C   UNL     1      16.322   6.891   3.145  1.00  0.00     0.031 C 
ATOM     59  C   UNL     1      17.226   2.751   7.493  1.00  0.00     0.029 A 
ATOM     60  C   UNL     1      16.803   3.378   6.332  1.00  0.00     0.049 A 
ATOM     61  H   UNL     1      15.530   2.647   4.816  1.00  0.00     0.167 HD
ATOM     62  C   UNL     1      16.647   5.253   4.716  1.00  0.00     0.074 A 
ATOM     63  C   UNL     1      16.963   6.593   4.265  1.00  0.00     0.031 C 
ATOM     64  C   UNL     1      17.123   4.700   5.858  1.00  0.00     0.037 A 
BRANCH  51  65
ATOM     65  C   UNL     1      15.082  -1.036   6.923  1.00  0.00     0.064 A 
ATOM     66  C   UNL     1      15.706  -2.251   6.601  1.00  0.00     0.173 A 
ATOM     67  C   UNL     1      14.425  -0.945   8.159  1.00  0.00     0.173 A 
ATOM     68  F   UNL     1      16.337  -2.396   5.426  1.00  0.00    -0.203 F 
ATOM     69  C   UNL     1      15.643  -3.341   7.466  1.00  0.00     0.198 A 
ATOM     70  C   UNL     1      14.392  -2.026   9.036  1.00  0.00     0.198 A 
ATOM     71  F   UNL     1      13.816   0.195   8.520  1.00  0.00    -0.203 F 
ATOM     72  F   UNL     1      16.198  -4.508   7.111  1.00  0.00    -0.200 F 
ATOM     73  C   UNL     1      14.993  -3.226   8.685  1.00  0.00     0.200 A 
ATOM     74  F   UNL     1      13.774  -1.909  10.219  1.00  0.00    -0.200 F 
ATOM     75  F   UNL     1      14.938  -4.274   9.518  1.00  0.00    -0.200 F 
ENDBRANCH  51  65
BRANCH  52  76
ATOM     76  C   UNL     1      14.810   6.733   0.645  1.00  0.00     0.064 A 
ATOM     77  C   UNL     1      15.961   7.136  -0.048  1.00  0.00     0.173 A 
ATOM     78  C   UNL     1      13.635   7.471   0.443  1.00  0.00     0.173 A 
ATOM     79  F   UNL     1      17.113   6.473   0.128  1.00  0.00    -0.203 F 
ATOM     80  C   UNL     1      15.944   8.246  -0.888  1.00  0.00     0.198 A 
ATOM     81  C   UNL     1      13.613   8.565  -0.420  1.00  0.00     0.198 A 
ATOM     82  F   UNL     1      12.506   7.123   1.077  1.00  0.00    -0.203 F 
ATOM     83  F   UNL     1      17.070   8.637  -1.500  1.00  0.00    -0.200 F 
ATOM     84  C   UNL     1      14.769   8.957  -1.077  1.00  0.00     0.200 A 
ATOM     85  F   UNL     1      12.472   9.241  -0.611  1.00  0.00    -0.200 F 
ATOM     86  F   UNL     1      14.752  10.024  -1.887  1.00  0.00    -0.200 F 
ENDBRANCH  52  76
BRANCH  64  87
ATOM     87  C   UNL     1      18.081   5.520   6.672  1.00  0.00     0.064 A 
ATOM     88  C   UNL     1      17.662   6.644   7.399  1.00  0.00     0.173 A 
ATOM     89  C   UNL     1      19.434   5.153   6.750  1.00  0.00     0.173 A 
ATOM     90  F   UNL     1      16.382   7.043   7.346  1.00  0.00    -0.203 F 
ATOM     91  C   UNL     1      18.569   7.389   8.148  1.00  0.00     0.198 A 
ATOM     92  C   UNL     1      20.331   5.882   7.525  1.00  0.00     0.198 A 
ATOM     93  F   UNL     1      19.884   4.081   6.080  1.00  0.00    -0.203 F 
ATOM     94  F   UNL     1      18.157   8.490   8.791  1.00  0.00    -0.200 F 
ATOM     95  C   UNL     1      19.900   7.005   8.216  1.00  0.00     0.200 A 
ATOM     96  F   UNL     1      21.613   5.500   7.601  1.00  0.00    -0.200 F 
ATOM     97  F   UNL     1      20.770   7.721   8.941  1.00  0.00    -0.200 F 
ENDBRANCH  64  87
ENDBRANCH  38  39
ENDBRANCH  30  33
ENDBRANCH  28  29
ENDBRANCH  27  28
ENDBRANCH  26  27
ENDBRANCH   1  26
TORSDOF 17
