REMARK SMILES CCC(CC)(NC(=O)Nc1cc(Cl)cc(Cl)c1)C(=O)NCCCCCCNC(=O)c1ccc(-c2c3nc(c(-c4c(F)c(F)c(F)c(F)c4F)c4ccc([nH]4)c(-c4c(F)c(F)c(F)c(F)c4F)c4nc(c(-c5c(F)c(F)c(F)c(F)c5F)c5ccc2[nH]5)C=C4)C=C3)cc1
REMARK SMILES IDX 23 1 22 2 21 3 20 4 18 5 19 6 3 8 2 9 1 10 4 11 5 12 6 13
REMARK SMILES IDX 7 14 8 16 9 17 10 19 11 20 17 21 12 22 15 23 13 24 14 25
REMARK SMILES IDX 16 26 24 27 25 28 26 29 27 30 28 31 29 33 30 34 31 35 92 36
REMARK SMILES IDX 32 37 91 38 33 39 34 40 35 41 85 42 36 43 90 44 84 45 86 46
REMARK SMILES IDX 37 47 89 48 83 49 82 50 38 52 70 53 50 54 69 55 51 56 54 57
REMARK SMILES IDX 68 58 87 59 52 60 53 61 67 63 88 64 55 65 39 66 40 67 48 68
REMARK SMILES IDX 41 69 42 70 46 71 49 72 43 73 44 74 47 75 45 76 71 77 72 78
REMARK SMILES IDX 80 79 73 80 74 81 78 82 81 83 75 84 76 85 79 86 77 87 56 88
REMARK SMILES IDX 57 89 65 90 58 91 59 92 63 93 66 94 60 95 61 96 64 97 62 98
REMARK H PARENT 20 7 6 15 9 18 27 32 86 51 54 62
REMARK Flexibility Score: inf
ROOT
ATOM      1  C   UNL     1       4.071   2.722   5.819  1.00  0.00     0.002 C 
ENDROOT
BRANCH   1   2
ATOM      2  C   UNL     1       2.534   2.723   5.876  1.00  0.00     0.021 C 
BRANCH   2   3
ATOM      3  C   UNL     1       1.793   3.193   4.606  1.00  0.00     0.116 C 
BRANCH   3   4
ATOM      4  N   UNL     1       2.393   2.627   3.405  1.00  0.00    -0.354 N 
ATOM      5  C   UNL     1       1.820   2.160   2.227  1.00  0.00     0.245 C 
ATOM      6  O   UNL     1       2.107   2.647   1.137  1.00  0.00    -0.272 OA
ATOM      7  H   UNL     1       3.375   2.565   3.431  1.00  0.00     0.163 HD
BRANCH   5   8
ATOM      8  C   UNL     1       0.744   1.066   2.406  1.00  0.00     0.120 C 
BRANCH   8   9
ATOM      9  C   UNL     1       0.561  -0.101   1.415  1.00  0.00     0.035 C 
ATOM     10  C   UNL     1       0.676   0.181  -0.066  1.00  0.00     0.007 C 
ENDBRANCH   8   9
BRANCH   8  11
ATOM     11  C   UNL     1      -0.505   2.038   2.370  1.00  0.00     0.035 C 
ATOM     12  C   UNL     1      -1.934   1.542   2.308  1.00  0.00     0.007 C 
ENDBRANCH   8  11
BRANCH   8  13
ATOM     13  N   UNL     1       1.073   0.429   3.709  1.00  0.00    -0.323 N 
ATOM     14  C   UNL     1       2.132  -0.264   4.175  1.00  0.00     0.320 C 
ATOM     15  H   UNL     1       0.361   0.538   4.380  1.00  0.00     0.166 HD
ATOM     16  O   UNL     1       1.950  -0.847   5.252  1.00  0.00    -0.248 OA
ATOM     17  N   UNL     1       3.369  -0.412   3.640  1.00  0.00    -0.308 N 
ATOM     18  H   UNL     1       3.921  -0.937   4.262  1.00  0.00     0.171 HD
BRANCH  17  19
ATOM     19  C   UNL     1       4.154  -0.081   2.502  1.00  0.00     0.045 A 
ATOM     20  C   UNL     1       4.578   1.191   2.098  1.00  0.00     0.046 A 
ATOM     21  C   UNL     1       4.773  -1.152   1.850  1.00  0.00     0.046 A 
ATOM     22  C   UNL     1       5.303   1.397   0.917  1.00  0.00     0.044 A 
ATOM     23  C   UNL     1       5.561  -0.951   0.706  1.00  0.00     0.044 A 
ATOM     24  Cl  UNL     1       5.647   3.002   0.391  1.00  0.00    -0.084 Cl
ATOM     25  C   UNL     1       5.771   0.321   0.192  1.00  0.00     0.041 A 
ATOM     26  Cl  UNL     1       6.294  -2.300  -0.068  1.00  0.00    -0.084 Cl
ENDBRANCH  17  19
ENDBRANCH   8  13
ENDBRANCH   5   8
ENDBRANCH   3   4
ENDBRANCH   2   3
ENDBRANCH   1   2
BRANCH   1  27
ATOM     27  C   UNL     1       4.703   4.044   5.391  1.00  0.00     0.002 C 
BRANCH  27  28
ATOM     28  C   UNL     1       4.246   5.247   6.210  1.00  0.00     0.021 C 
BRANCH  28  29
ATOM     29  C   UNL     1       4.414   5.083   7.713  1.00  0.00     0.116 C 
BRANCH  29  30
ATOM     30  N   UNL     1       5.807   5.045   8.118  1.00  0.00    -0.352 N 
ATOM     31  C   UNL     1       6.421   5.741   9.133  1.00  0.00     0.251 C 
ATOM     32  H   UNL     1       6.387   4.442   7.599  1.00  0.00     0.163 HD
ATOM     33  O   UNL     1       7.635   5.728   9.253  1.00  0.00    -0.269 OA
BRANCH  31  34
ATOM     34  C   UNL     1       5.590   6.545  10.058  1.00  0.00     0.039 A 
ATOM     35  C   UNL     1       5.981   7.854  10.339  1.00  0.00     0.014 A 
ATOM     36  C   UNL     1       4.418   6.024  10.615  1.00  0.00     0.014 A 
ATOM     37  C   UNL     1       5.164   8.661  11.132  1.00  0.00     0.010 A 
ATOM     38  C   UNL     1       3.562   6.856  11.333  1.00  0.00     0.010 A 
ATOM     39  C   UNL     1       3.929   8.182  11.604  1.00  0.00    -0.014 A 
BRANCH  39  40
ATOM     40  C   UNL     1       3.015   9.075  12.361  1.00  0.00     0.031 A 
ATOM     41  C   UNL     1       2.662   8.781  13.792  1.00  0.00     0.074 A 
ATOM     42  C   UNL     1       2.479  10.146  11.742  1.00  0.00     0.049 A 
ATOM     43  N   UNL     1       1.920   9.474  14.620  1.00  0.00    -0.248 NA
ATOM     44  C   UNL     1       3.188   7.532  14.362  1.00  0.00     0.031 C 
ATOM     45  C   UNL     1       2.694  10.504  10.339  1.00  0.00     0.029 A 
ATOM     46  N   UNL     1       1.654  11.135  12.214  1.00  0.00    -0.354 N 
ATOM     47  C   UNL     1       1.887   8.743  15.801  1.00  0.00     0.074 A 
ATOM     48  C   UNL     1       2.628   7.524  15.562  1.00  0.00     0.031 C 
ATOM     49  C   UNL     1       2.063  11.659  10.079  1.00  0.00     0.029 A 
ATOM     50  C   UNL     1       1.368  12.103  11.283  1.00  0.00     0.049 A 
ATOM     51  H   UNL     1       1.300  11.150  13.133  1.00  0.00     0.167 HD
ATOM     52  C   UNL     1       1.310   9.070  16.983  1.00  0.00     0.037 A 
ATOM     53  C   UNL     1       0.636  13.228  11.391  1.00  0.00     0.037 A 
ATOM     54  C   UNL     1       0.582  10.292  17.217  1.00  0.00     0.049 A 
ATOM     55  C   UNL     1      -0.000  13.563  12.712  1.00  0.00     0.074 A 
ATOM     56  C   UNL     1       0.025  10.752  18.397  1.00  0.00     0.029 A 
ATOM     57  N   UNL     1       0.297  11.241  16.245  1.00  0.00    -0.354 N 
ATOM     58  N   UNL     1       0.057  12.915  13.850  1.00  0.00    -0.248 NA
ATOM     59  C   UNL     1      -0.796  14.796  12.763  1.00  0.00     0.031 C 
ATOM     60  C   UNL     1      -0.656  11.944  18.124  1.00  0.00     0.029 A 
ATOM     61  C   UNL     1      -0.464  12.265  16.790  1.00  0.00     0.049 A 
ATOM     62  H   UNL     1       0.591  11.195  15.307  1.00  0.00     0.167 HD
ATOM     63  C   UNL     1      -0.672  13.671  14.758  1.00  0.00     0.074 A 
ATOM     64  C   UNL     1      -1.137  14.842  14.042  1.00  0.00     0.031 C 
ATOM     65  C   UNL     1      -0.935  13.419  16.065  1.00  0.00     0.037 A 
BRANCH  52  66
ATOM     66  C   UNL     1       1.431   8.083  18.111  1.00  0.00     0.064 A 
ATOM     67  C   UNL     1       2.663   7.797  18.719  1.00  0.00     0.173 A 
ATOM     68  C   UNL     1       0.292   7.428  18.606  1.00  0.00     0.173 A 
ATOM     69  F   UNL     1       3.786   8.387  18.281  1.00  0.00    -0.203 F 
ATOM     70  C   UNL     1       2.757   6.865  19.750  1.00  0.00     0.198 A 
ATOM     71  C   UNL     1       0.385   6.524  19.662  1.00  0.00     0.198 A 
ATOM     72  F   UNL     1      -0.913   7.666  18.068  1.00  0.00    -0.203 F 
ATOM     73  F   UNL     1       3.955   6.563  20.272  1.00  0.00    -0.200 F 
ATOM     74  C   UNL     1       1.617   6.235  20.225  1.00  0.00     0.200 A 
ATOM     75  F   UNL     1      -0.721   5.928  20.129  1.00  0.00    -0.200 F 
ATOM     76  F   UNL     1       1.708   5.341  21.220  1.00  0.00    -0.200 F 
ENDBRANCH  52  66
BRANCH  53  77
ATOM     77  C   UNL     1       0.500  14.141  10.225  1.00  0.00     0.064 A 
ATOM     78  C   UNL     1       1.090  15.414  10.237  1.00  0.00     0.173 A 
ATOM     79  C   UNL     1      -0.219  13.768   9.081  1.00  0.00     0.173 A 
ATOM     80  F   UNL     1       1.771  15.826  11.317  1.00  0.00    -0.203 F 
ATOM     81  C   UNL     1       0.948  16.285   9.159  1.00  0.00     0.198 A 
ATOM     82  C   UNL     1      -0.334  14.627   7.990  1.00  0.00     0.198 A 
ATOM     83  F   UNL     1      -0.799  12.560   9.016  1.00  0.00    -0.203 F 
ATOM     84  F   UNL     1       1.480  17.513   9.218  1.00  0.00    -0.200 F 
ATOM     85  C   UNL     1       0.242  15.888   8.034  1.00  0.00     0.200 A 
ATOM     86  F   UNL     1      -1.003  14.234   6.898  1.00  0.00    -0.200 F 
ATOM     87  F   UNL     1       0.110  16.723   6.994  1.00  0.00    -0.200 F 
ENDBRANCH  53  77
BRANCH  65  88
ATOM     88  C   UNL     1      -1.747  14.444  16.807  1.00  0.00     0.064 A 
ATOM     89  C   UNL     1      -3.101  14.669  16.512  1.00  0.00     0.173 A 
ATOM     90  C   UNL     1      -1.164  15.214  17.825  1.00  0.00     0.173 A 
ATOM     91  F   UNL     1      -3.706  13.971  15.539  1.00  0.00    -0.203 F 
ATOM     92  C   UNL     1      -3.825  15.658  17.174  1.00  0.00     0.198 A 
ATOM     93  C   UNL     1      -1.902  16.174  18.513  1.00  0.00     0.198 A 
ATOM     94  F   UNL     1       0.124  15.036  18.157  1.00  0.00    -0.203 F 
ATOM     95  F   UNL     1      -5.095  15.905  16.822  1.00  0.00    -0.200 F 
ATOM     96  C   UNL     1      -3.227  16.405  18.177  1.00  0.00     0.200 A 
ATOM     97  F   UNL     1      -1.327  16.883  19.494  1.00  0.00    -0.200 F 
ATOM     98  F   UNL     1      -3.924  17.358  18.811  1.00  0.00    -0.200 F 
ENDBRANCH  65  88
ENDBRANCH  39  40
ENDBRANCH  31  34
ENDBRANCH  29  30
ENDBRANCH  28  29
ENDBRANCH  27  28
ENDBRANCH   1  27
TORSDOF 17
