REMARK SMILES Cc1cc(Nc2nc3c(c(OCC(=O)NCCCCCCNC(=O)c4ccc(-c5c6nc(c(-c7c(F)c(F)c(F)c(F)c7F)c7ccc([nH]7)c(-c7c(F)c(F)c(F)c(F)c7F)c7nc(c(-c8c(F)c(F)c(F)c(F)c8F)c8ccc5[nH]8)C=C7)C=C6)cc4)n2)CCCC3)ccc1Br
REMARK SMILES IDX 17 1 16 2 15 3 13 4 14 5 12 7 11 8 10 9 6 10 7 11 88 12 8 13
REMARK SMILES IDX 9 14 92 15 89 16 91 17 90 18 5 19 4 21 1 22 2 23 3 24 95 25
REMARK SMILES IDX 94 26 96 27 93 28 18 29 19 30 20 31 21 32 22 33 23 34 24 36
REMARK SMILES IDX 25 37 26 38 87 39 27 40 86 41 28 42 29 43 30 44 80 45 31 46
REMARK SMILES IDX 85 47 79 48 81 49 32 50 84 51 78 52 77 53 33 55 65 56 45 57
REMARK SMILES IDX 64 58 46 59 49 60 63 61 82 62 47 63 48 64 62 66 83 67 50 68
REMARK SMILES IDX 34 69 35 70 43 71 36 72 37 73 41 74 44 75 38 76 39 77 42 78
REMARK SMILES IDX 40 79 66 80 67 81 75 82 68 83 69 84 73 85 76 86 70 87 71 88
REMARK SMILES IDX 74 89 72 90 51 91 52 92 60 93 53 94 54 95 58 96 61 97 55 98
REMARK SMILES IDX 56 99 59 100 57 101
REMARK H PARENT 15 6 5 20 22 35 81 54 49 65
REMARK Flexibility Score: inf
ROOT
ATOM      1  C   UNL     1      10.519   2.654  -0.228  1.00  0.00     0.021 C 
ENDROOT
BRANCH   1   2
ATOM      2  C   UNL     1      10.412   2.534  -1.749  1.00  0.00     0.116 C 
BRANCH   2   3
ATOM      3  N   UNL     1       9.703   1.331  -2.137  1.00  0.00    -0.353 N 
ATOM      4  C   UNL     1       8.453   1.204  -2.673  1.00  0.00     0.258 C 
ATOM      5  O   UNL     1       8.038   0.072  -2.932  1.00  0.00    -0.271 OA
ATOM      6  H   UNL     1      10.191   0.488  -1.994  1.00  0.00     0.163 HD
BRANCH   4   7
ATOM      7  C   UNL     1       7.658   2.464  -3.032  1.00  0.00     0.331 C 
BRANCH   7   8
ATOM      8  O   UNL     1       7.561   3.464  -2.030  1.00  0.00    -0.467 OA
BRANCH   8   9
ATOM      9  C   UNL     1       6.722   3.144  -0.982  1.00  0.00     0.222 A 
ATOM     10  C   UNL     1       5.228   1.730  -0.011  1.00  0.00     0.230 A 
ATOM     11  N   UNL     1       5.019   2.579   1.007  1.00  0.00    -0.217 NA
ATOM     12  N   UNL     1       6.108   1.954  -0.989  1.00  0.00    -0.177 NA
ATOM     13  C   UNL     1       5.710   3.735   1.025  1.00  0.00     0.053 A 
ATOM     14  C   UNL     1       6.561   4.100   0.001  1.00  0.00     0.036 A 
ATOM     15  C   UNL     1       5.439   4.650   2.190  1.00  0.00     0.057 C 
ATOM     16  C   UNL     1       7.299   5.405  -0.012  1.00  0.00     0.043 C 
ATOM     17  C   UNL     1       6.477   5.762   2.331  1.00  0.00     0.007 C 
ATOM     18  C   UNL     1       6.731   6.420   0.980  1.00  0.00     0.005 C 
BRANCH  10  19
ATOM     19  N   UNL     1       4.462   0.573  -0.128  1.00  0.00    -0.324 N 
ATOM     20  H   UNL     1       4.959  -0.260  -0.293  1.00  0.00     0.170 HD
BRANCH  19  21
ATOM     21  C   UNL     1       3.066   0.450  -0.040  1.00  0.00     0.041 A 
ATOM     22  C   UNL     1       0.516  -2.391   0.000  1.00  0.00     0.045 C 
ATOM     23  C   UNL     1       1.085  -1.000   0.013  1.00  0.00    -0.035 A 
ATOM     24  C   UNL     1       2.482  -0.826  -0.037  1.00  0.00     0.030 A 
ATOM     25  C   UNL     1       0.268   0.139   0.063  1.00  0.00     0.021 A 
ATOM     26  C   UNL     1       0.835   1.412   0.095  1.00  0.00     0.018 A 
ATOM     27  Br  UNL     1      -1.627   0.025   0.083  1.00  0.00    -0.051 Br
ATOM     28  C   UNL     1       2.221   1.561   0.060  1.00  0.00     0.027 A 
ENDBRANCH  19  21
ENDBRANCH  10  19
ENDBRANCH   8   9
ENDBRANCH   7   8
ENDBRANCH   4   7
ENDBRANCH   2   3
ENDBRANCH   1   2
BRANCH   1  29
ATOM     29  C   UNL     1      11.316   1.522   0.435  1.00  0.00     0.002 C 
BRANCH  29  30
ATOM     30  C   UNL     1      12.744   1.337  -0.087  1.00  0.00     0.002 C 
BRANCH  30  31
ATOM     31  C   UNL     1      13.630   2.580   0.002  1.00  0.00     0.021 C 
BRANCH  31  32
ATOM     32  C   UNL     1      13.799   3.137   1.411  1.00  0.00     0.116 C 
BRANCH  32  33
ATOM     33  N   UNL     1      14.486   2.206   2.293  1.00  0.00    -0.352 N 
ATOM     34  C   UNL     1      15.637   2.383   3.017  1.00  0.00     0.251 C 
ATOM     35  H   UNL     1      14.063   1.321   2.383  1.00  0.00     0.163 HD
ATOM     36  O   UNL     1      16.180   1.429   3.568  1.00  0.00    -0.269 OA
BRANCH  34  37
ATOM     37  C   UNL     1      16.241   3.728   3.116  1.00  0.00     0.039 A 
ATOM     38  C   UNL     1      17.617   3.868   2.923  1.00  0.00     0.014 A 
ATOM     39  C   UNL     1      15.451   4.847   3.397  1.00  0.00     0.014 A 
ATOM     40  C   UNL     1      18.192   5.139   2.951  1.00  0.00     0.010 A 
ATOM     41  C   UNL     1      16.012   6.119   3.349  1.00  0.00     0.010 A 
ATOM     42  C   UNL     1      17.389   6.277   3.133  1.00  0.00    -0.014 A 
BRANCH  42  43
ATOM     43  C   UNL     1      17.978   7.639   3.116  1.00  0.00     0.031 A 
ATOM     44  C   UNL     1      17.958   8.482   4.360  1.00  0.00     0.074 A 
ATOM     45  C   UNL     1      18.498   8.129   1.974  1.00  0.00     0.049 A 
ATOM     46  N   UNL     1      18.386   9.707   4.536  1.00  0.00    -0.248 NA
ATOM     47  C   UNL     1      17.362   7.877   5.562  1.00  0.00     0.031 C 
ATOM     48  C   UNL     1      18.548   7.417   0.696  1.00  0.00     0.029 A 
ATOM     49  N   UNL     1      19.085   9.340   1.702  1.00  0.00    -0.354 N 
ATOM     50  C   UNL     1      18.111  10.014   5.862  1.00  0.00     0.074 A 
ATOM     51  C   UNL     1      17.423   8.877   6.429  1.00  0.00     0.031 C 
ATOM     52  C   UNL     1      19.164   8.189  -0.213  1.00  0.00     0.029 A 
ATOM     53  C   UNL     1      19.516   9.465   0.403  1.00  0.00     0.049 A 
ATOM     54  H   UNL     1      19.189  10.051   2.375  1.00  0.00     0.167 HD
ATOM     55  C   UNL     1      18.436  11.133   6.551  1.00  0.00     0.037 A 
ATOM     56  C   UNL     1      20.124  10.494  -0.219  1.00  0.00     0.037 A 
ATOM     57  C   UNL     1      19.139  12.254   5.988  1.00  0.00     0.049 A 
ATOM     58  C   UNL     1      20.433  11.743   0.561  1.00  0.00     0.074 A 
ATOM     59  C   UNL     1      19.546  13.418   6.616  1.00  0.00     0.029 A 
ATOM     60  N   UNL     1      19.541  12.352   4.664  1.00  0.00    -0.354 N 
ATOM     61  N   UNL     1      20.217  12.002   1.828  1.00  0.00    -0.248 NA
ATOM     62  C   UNL     1      21.074  12.844  -0.173  1.00  0.00     0.031 C 
ATOM     63  C   UNL     1      20.148  14.242   5.662  1.00  0.00     0.029 A 
ATOM     64  C   UNL     1      20.168  13.569   4.451  1.00  0.00     0.049 A 
ATOM     65  H   UNL     1      19.401  11.659   3.978  1.00  0.00     0.167 HD
ATOM     66  C   UNL     1      20.715  13.279   2.049  1.00  0.00     0.074 A 
ATOM     67  C   UNL     1      21.261  13.737   0.788  1.00  0.00     0.031 C 
ATOM     68  C   UNL     1      20.715  14.008   3.192  1.00  0.00     0.037 A 
BRANCH  55  69
ATOM     69  C   UNL     1      18.053  11.197   8.001  1.00  0.00     0.064 A 
ATOM     70  C   UNL     1      18.695  10.401   8.962  1.00  0.00     0.173 A 
ATOM     71  C   UNL     1      17.089  12.114   8.447  1.00  0.00     0.173 A 
ATOM     72  F   UNL     1      19.616   9.500   8.587  1.00  0.00    -0.203 F 
ATOM     73  C   UNL     1      18.375  10.510  10.313  1.00  0.00     0.198 A 
ATOM     74  C   UNL     1      16.794  12.241   9.801  1.00  0.00     0.198 A 
ATOM     75  F   UNL     1      16.448  12.902   7.570  1.00  0.00    -0.203 F 
ATOM     76  F   UNL     1      18.976   9.713  11.208  1.00  0.00    -0.200 F 
ATOM     77  C   UNL     1      17.433  11.437  10.732  1.00  0.00     0.200 A 
ATOM     78  F   UNL     1      15.894  13.149  10.207  1.00  0.00    -0.200 F 
ATOM     79  F   UNL     1      17.141  11.554  12.035  1.00  0.00    -0.200 F 
ENDBRANCH  55  69
BRANCH  56  80
ATOM     80  C   UNL     1      20.510  10.370  -1.650  1.00  0.00     0.064 A 
ATOM     81  C   UNL     1      21.859  10.307  -2.027  1.00  0.00     0.173 A 
ATOM     82  C   UNL     1      19.546  10.301  -2.667  1.00  0.00     0.173 A 
ATOM     83  F   UNL     1      22.819  10.390  -1.094  1.00  0.00    -0.203 F 
ATOM     84  C   UNL     1      22.229  10.193  -3.365  1.00  0.00     0.198 A 
ATOM     85  C   UNL     1      19.917  10.156  -4.002  1.00  0.00     0.198 A 
ATOM     86  F   UNL     1      18.241  10.354  -2.361  1.00  0.00    -0.203 F 
ATOM     87  F   UNL     1      23.526  10.174  -3.700  1.00  0.00    -0.200 F 
ATOM     88  C   UNL     1      21.258  10.109  -4.351  1.00  0.00     0.200 A 
ATOM     89  F   UNL     1      18.974  10.060  -4.950  1.00  0.00    -0.200 F 
ATOM     90  F   UNL     1      21.614   9.988  -5.637  1.00  0.00    -0.200 F 
ENDBRANCH  56  80
BRANCH  68  91
ATOM     91  C   UNL     1      21.338  15.373   3.150  1.00  0.00     0.064 A 
ATOM     92  C   UNL     1      20.717  16.442   2.489  1.00  0.00     0.173 A 
ATOM     93  C   UNL     1      22.526  15.634   3.851  1.00  0.00     0.173 A 
ATOM     94  F   UNL     1      19.587  16.241   1.795  1.00  0.00    -0.203 F 
ATOM     95  C   UNL     1      21.269  17.720   2.519  1.00  0.00     0.198 A 
ATOM     96  C   UNL     1      23.058  16.919   3.907  1.00  0.00     0.198 A 
ATOM     97  F   UNL     1      23.155  14.648   4.508  1.00  0.00    -0.203 F 
ATOM     98  F   UNL     1      20.677  18.719   1.852  1.00  0.00    -0.200 F 
ATOM     99  C   UNL     1      22.431  17.960   3.238  1.00  0.00     0.200 A 
ATOM    100  F   UNL     1      24.170  17.153   4.617  1.00  0.00    -0.200 F 
ATOM    101  F   UNL     1      22.949  19.195   3.284  1.00  0.00    -0.200 F 
ENDBRANCH  68  91
ENDBRANCH  42  43
ENDBRANCH  34  37
ENDBRANCH  32  33
ENDBRANCH  31  32
ENDBRANCH  30  31
ENDBRANCH  29  30
ENDBRANCH   1  29
TORSDOF 17
