REMARK SMILES COC(=O)C[C@H](c1ccc(C(=O)NCCCCCCNC(=O)c2ccc(-c3c4nc(c(-c5c(F)c(F)c(F)c(F)c5F)c5ccc([nH]5)c(-c5c(F)c(F)c(F)c(F)c5F)c5nc(c(-c6c(F)c(F)c(F)c(F)c6F)c6ccc3[nH]6)C=C5)C=C4)cc2)cc1)c1c(O)n[nH]c1C
REMARK SMILES IDX 15 1 14 2 13 3 11 4 12 5 10 7 7 8 8 9 87 10 9 11 86 12 6 13
REMARK SMILES IDX 5 14 3 15 4 16 2 17 1 18 88 19 89 20 93 21 91 22 92 23 94 24
REMARK SMILES IDX 90 26 16 28 17 29 18 30 19 31 20 32 21 33 22 35 23 36 24 37
REMARK SMILES IDX 85 38 25 39 84 40 26 41 27 42 28 43 78 44 29 45 83 46 77 47
REMARK SMILES IDX 79 48 30 49 82 50 76 51 75 52 31 54 63 55 43 56 62 57 44 58
REMARK SMILES IDX 47 59 61 60 80 61 45 62 46 63 60 65 81 66 48 67 32 68 33 69
REMARK SMILES IDX 41 70 34 71 35 72 39 73 42 74 36 75 37 76 40 77 38 78 64 79
REMARK SMILES IDX 65 80 73 81 66 82 67 83 71 84 74 85 68 86 69 87 72 88 70 89
REMARK SMILES IDX 49 90 50 91 58 92 51 93 52 94 56 95 59 96 53 97 54 98 57 99
REMARK SMILES IDX 55 100
REMARK H PARENT 13 6 92 25 90 27 20 34 79 53 47 64
REMARK Flexibility Score: inf
ROOT
ATOM      1  C   UNL     1       1.959  -0.036   6.283  1.00  0.00     0.021 C 
ENDROOT
BRANCH   1   2
ATOM      2  C   UNL     1       1.129  -0.422   5.058  1.00  0.00     0.116 C 
BRANCH   2   3
ATOM      3  N   UNL     1      -0.273  -0.146   5.304  1.00  0.00    -0.352 N 
ATOM      4  C   UNL     1      -1.105   0.817   4.799  1.00  0.00     0.251 C 
ATOM      5  O   UNL     1      -2.280   0.833   5.163  1.00  0.00    -0.269 OA
ATOM      6  H   UNL     1      -0.701  -0.757   5.947  1.00  0.00     0.163 HD
BRANCH   4   7
ATOM      7  C   UNL     1      -0.647   1.778   3.768  1.00  0.00     0.039 A 
ATOM      8  C   UNL     1       0.124   3.484   1.659  1.00  0.00    -0.040 A 
ATOM      9  C   UNL     1      -1.135   2.862   1.660  1.00  0.00     0.005 A 
ATOM     10  C   UNL     1       0.964   3.287   2.769  1.00  0.00     0.005 A 
ATOM     11  C   UNL     1      -1.516   2.018   2.702  1.00  0.00     0.014 A 
ATOM     12  C   UNL     1       0.573   2.455   3.824  1.00  0.00     0.014 A 
BRANCH   8  13
ATOM     13  C   UNL     1       0.608   4.324   0.483  1.00  0.00     0.068 C 
BRANCH  13  14
ATOM     14  C   UNL     1       0.111   3.878  -0.898  1.00  0.00     0.136 C 
BRANCH  14  15
ATOM     15  C   UNL     1       0.395   2.419  -1.159  1.00  0.00     0.306 C 
ATOM     16  O   UNL     1      -0.439   1.631  -1.583  1.00  0.00    -0.252 OA
BRANCH  15  17
ATOM     17  O   UNL     1       1.695   2.110  -0.897  1.00  0.00    -0.469 OA
ATOM     18  C   UNL     1       1.995   0.718  -1.018  1.00  0.00     0.282 C 
ENDBRANCH  15  17
ENDBRANCH  14  15
ENDBRANCH  13  14
BRANCH  13  19
ATOM     19  C   UNL     1       0.270   5.761   0.778  1.00  0.00     0.044 A 
ATOM     20  C   UNL     1      -0.879   6.343   1.346  1.00  0.00     0.234 A 
ATOM     21  C   UNL     1       1.048   6.877   0.483  1.00  0.00     0.040 A 
ATOM     22  N   UNL     1      -0.846   7.661   1.458  1.00  0.00    -0.137 NA
ATOM     23  N   UNL     1       0.348   7.969   0.929  1.00  0.00    -0.279 N 
ATOM     24  C   UNL     1       2.365   7.013  -0.182  1.00  0.00     0.066 C 
ATOM     25  H   UNL     1       0.688   8.890   0.866  1.00  0.00     0.190 HD
BRANCH  20  26
ATOM     26  O   UNL     1      -2.003   5.787   1.782  1.00  0.00    -0.492 OA
ATOM     27  H   UNL     1      -2.113   4.857   1.740  1.00  0.00     0.295 HD
ENDBRANCH  20  26
ENDBRANCH  13  19
ENDBRANCH   8  13
ENDBRANCH   4   7
ENDBRANCH   2   3
ENDBRANCH   1   2
BRANCH   1  28
ATOM     28  C   UNL     1       1.788  -1.004   7.462  1.00  0.00     0.002 C 
BRANCH  28  29
ATOM     29  C   UNL     1       2.288  -2.429   7.199  1.00  0.00     0.002 C 
BRANCH  29  30
ATOM     30  C   UNL     1       3.754  -2.533   6.769  1.00  0.00     0.021 C 
BRANCH  30  31
ATOM     31  C   UNL     1       4.752  -1.942   7.762  1.00  0.00     0.116 C 
BRANCH  31  32
ATOM     32  N   UNL     1       4.720  -2.636   9.038  1.00  0.00    -0.352 N 
ATOM     33  C   UNL     1       5.745  -3.183   9.764  1.00  0.00     0.251 C 
ATOM     34  H   UNL     1       3.827  -2.727   9.442  1.00  0.00     0.163 HD
ATOM     35  O   UNL     1       5.497  -3.914  10.718  1.00  0.00    -0.269 OA
BRANCH  33  36
ATOM     36  C   UNL     1       7.153  -2.908   9.402  1.00  0.00     0.039 A 
ATOM     37  C   UNL     1       8.074  -3.957   9.467  1.00  0.00     0.014 A 
ATOM     38  C   UNL     1       7.580  -1.622   9.054  1.00  0.00     0.014 A 
ATOM     39  C   UNL     1       9.412  -3.725   9.149  1.00  0.00     0.010 A 
ATOM     40  C   UNL     1       8.904  -1.406   8.675  1.00  0.00     0.010 A 
ATOM     41  C   UNL     1       9.835  -2.453   8.732  1.00  0.00    -0.014 A 
BRANCH  41  42
ATOM     42  C   UNL     1      11.252  -2.222   8.357  1.00  0.00     0.031 A 
ATOM     43  C   UNL     1      12.134  -1.339   9.193  1.00  0.00     0.074 A 
ATOM     44  C   UNL     1      11.739  -2.801   7.242  1.00  0.00     0.049 A 
ATOM     45  N   UNL     1      13.406  -1.063   9.046  1.00  0.00    -0.248 NA
ATOM     46  C   UNL     1      11.500  -0.655  10.331  1.00  0.00     0.031 C 
ATOM     47  C   UNL     1      10.964  -3.623   6.312  1.00  0.00     0.029 A 
ATOM     48  N   UNL     1      13.001  -2.791   6.706  1.00  0.00    -0.354 N 
ATOM     49  C   UNL     1      13.721  -0.174  10.065  1.00  0.00     0.074 A 
ATOM     50  C   UNL     1      12.497   0.088  10.790  1.00  0.00     0.031 C 
ATOM     51  C   UNL     1      11.774  -4.067   5.339  1.00  0.00     0.029 A 
ATOM     52  C   UNL     1      13.119  -3.547   5.567  1.00  0.00     0.049 A 
ATOM     53  H   UNL     1      13.751  -2.288   7.100  1.00  0.00     0.167 HD
ATOM     54  C   UNL     1      14.928   0.356  10.382  1.00  0.00     0.037 A 
ATOM     55  C   UNL     1      14.196  -3.806   4.802  1.00  0.00     0.037 A 
ATOM     56  C   UNL     1      16.148   0.074   9.672  1.00  0.00     0.049 A 
ATOM     57  C   UNL     1      15.531  -3.239   5.199  1.00  0.00     0.074 A 
ATOM     58  C   UNL     1      17.432   0.510   9.952  1.00  0.00     0.029 A 
ATOM     59  N   UNL     1      16.235  -0.717   8.536  1.00  0.00    -0.354 N 
ATOM     60  N   UNL     1      15.834  -2.467   6.214  1.00  0.00    -0.248 NA
ATOM     61  C   UNL     1      16.677  -3.595   4.351  1.00  0.00     0.031 C 
ATOM     62  C   UNL     1      18.290   0.013   8.963  1.00  0.00     0.029 A 
ATOM     63  C   UNL     1      17.547  -0.768   8.092  1.00  0.00     0.049 A 
ATOM     64  H   UNL     1      15.476  -1.175   8.108  1.00  0.00     0.167 HD
ATOM     65  C   UNL     1      17.203  -2.260   6.140  1.00  0.00     0.074 A 
ATOM     66  C   UNL     1      17.677  -3.009   4.994  1.00  0.00     0.031 C 
ATOM     67  C   UNL     1      17.999  -1.512   6.944  1.00  0.00     0.037 A 
BRANCH  54  68
ATOM     68  C   UNL     1      14.986   1.290  11.555  1.00  0.00     0.064 A 
ATOM     69  C   UNL     1      14.828   0.828  12.871  1.00  0.00     0.173 A 
ATOM     70  C   UNL     1      15.237   2.658  11.367  1.00  0.00     0.173 A 
ATOM     71  F   UNL     1      14.575  -0.469  13.104  1.00  0.00    -0.203 F 
ATOM     72  C   UNL     1      14.889   1.704  13.952  1.00  0.00     0.198 A 
ATOM     73  C   UNL     1      15.326   3.526  12.452  1.00  0.00     0.198 A 
ATOM     74  F   UNL     1      15.401   3.152  10.131  1.00  0.00    -0.203 F 
ATOM     75  F   UNL     1      14.687   1.247  15.195  1.00  0.00    -0.200 F 
ATOM     76  C   UNL     1      15.145   3.051  13.742  1.00  0.00     0.200 A 
ATOM     77  F   UNL     1      15.584   4.826  12.249  1.00  0.00    -0.200 F 
ATOM     78  F   UNL     1      15.209   3.892  14.784  1.00  0.00    -0.200 F 
ENDBRANCH  54  68
BRANCH  55  79
ATOM     79  C   UNL     1      14.063  -4.685   3.613  1.00  0.00     0.064 A 
ATOM     80  C   UNL     1      14.609  -5.976   3.608  1.00  0.00     0.173 A 
ATOM     81  C   UNL     1      13.384  -4.258   2.463  1.00  0.00     0.173 A 
ATOM     82  F   UNL     1      15.283  -6.421   4.679  1.00  0.00    -0.203 F 
ATOM     83  C   UNL     1      14.499  -6.800   2.490  1.00  0.00     0.198 A 
ATOM     84  C   UNL     1      13.252  -5.092   1.355  1.00  0.00     0.198 A 
ATOM     85  F   UNL     1      12.838  -3.034   2.421  1.00  0.00    -0.203 F 
ATOM     86  F   UNL     1      15.067  -8.013   2.497  1.00  0.00    -0.200 F 
ATOM     87  C   UNL     1      13.816  -6.359   1.367  1.00  0.00     0.200 A 
ATOM     88  F   UNL     1      12.580  -4.668   0.276  1.00  0.00    -0.200 F 
ATOM     89  F   UNL     1      13.706  -7.153   0.293  1.00  0.00    -0.200 F 
ENDBRANCH  55  79
BRANCH  67  90
ATOM     90  C   UNL     1      19.462  -1.483   6.614  1.00  0.00     0.064 A 
ATOM     91  C   UNL     1      19.946  -0.802   5.486  1.00  0.00     0.173 A 
ATOM     92  C   UNL     1      20.392  -2.139   7.435  1.00  0.00     0.173 A 
ATOM     93  F   UNL     1      19.094  -0.173   4.662  1.00  0.00    -0.203 F 
ATOM     94  C   UNL     1      21.302  -0.809   5.173  1.00  0.00     0.198 A 
ATOM     95  C   UNL     1      21.751  -2.119   7.135  1.00  0.00     0.198 A 
ATOM     96  F   UNL     1      19.982  -2.799   8.528  1.00  0.00    -0.203 F 
ATOM     97  F   UNL     1      21.733  -0.202   4.059  1.00  0.00    -0.200 F 
ATOM     98  C   UNL     1      22.203  -1.464   5.999  1.00  0.00     0.200 A 
ATOM     99  F   UNL     1      22.623  -2.743   7.939  1.00  0.00    -0.200 F 
ATOM    100  F   UNL     1      23.508  -1.474   5.694  1.00  0.00    -0.200 F 
ENDBRANCH  67  90
ENDBRANCH  41  42
ENDBRANCH  33  36
ENDBRANCH  31  32
ENDBRANCH  30  31
ENDBRANCH  29  30
ENDBRANCH  28  29
ENDBRANCH   1  28
TORSDOF 19
