REMARK SMILES Cc1cc(C)c2c(c1)C=C(C(=O)NCCCCCCNC(=O)c1ccc(-c3c4nc(c(-c5c(F)c(F)c(F)c(F)c5F)c5ccc([nH]5)c(-c5c(F)c(F)c(F)c(F)c5F)c5nc(c(-c6c(F)c(F)c(F)c(F)c6F)c6ccc3[nH]6)C=C5)C=C4)cc1)[C@@H](C(F)(F)F)O2
REMARK SMILES IDX 17 1 16 2 15 3 14 4 13 5 11 6 12 7 10 9 1 10 2 11 3 12 8 13
REMARK SMILES IDX 4 14 7 15 5 16 6 17 9 18 91 19 86 20 87 21 88 22 89 23 90 24
REMARK SMILES IDX 18 25 19 26 20 27 21 28 22 30 23 31 24 32 85 33 25 34 84 35
REMARK SMILES IDX 26 36 27 37 28 38 78 39 29 40 83 41 77 42 79 43 30 44 82 45
REMARK SMILES IDX 76 46 75 47 31 49 63 50 43 51 62 52 44 53 47 54 61 55 80 56
REMARK SMILES IDX 45 57 46 58 60 60 81 61 48 62 32 63 33 64 41 65 34 66 35 67
REMARK SMILES IDX 39 68 42 69 36 70 37 71 40 72 38 73 64 74 65 75 73 76 66 77
REMARK SMILES IDX 67 78 71 79 74 80 68 81 69 82 72 83 70 84 49 85 50 86 58 87
REMARK SMILES IDX 51 88 52 89 56 90 59 91 53 92 54 93 57 94 55 95
REMARK H PARENT 13 8 20 29 79 48 47 59
REMARK Flexibility Score: inf
ROOT
ATOM      1  C   UNL     1      -2.789  -4.629  10.594  1.00  0.00     0.002 C 
ENDROOT
BRANCH   1   2
ATOM      2  C   UNL     1      -1.537  -3.761  10.411  1.00  0.00     0.002 C 
BRANCH   2   3
ATOM      3  C   UNL     1      -0.852  -3.901   9.050  1.00  0.00     0.021 C 
BRANCH   3   4
ATOM      4  C   UNL     1      -1.787  -3.638   7.875  1.00  0.00     0.116 C 
BRANCH   4   5
ATOM      5  N   UNL     1      -1.880  -2.223   7.562  1.00  0.00    -0.352 N 
ATOM      6  C   UNL     1      -1.645  -1.427   6.492  1.00  0.00     0.251 C 
ATOM      7  O   UNL     1      -1.905  -0.231   6.656  1.00  0.00    -0.270 OA
ATOM      8  H   UNL     1      -2.200  -1.704   8.335  1.00  0.00     0.163 HD
BRANCH   6   9
ATOM      9  C   UNL     1      -1.103  -1.894   5.181  1.00  0.00     0.067 C 
ATOM     10  C   UNL     1       1.021   0.269  -0.223  1.00  0.00     0.044 C 
ATOM     11  C   UNL     1       0.674  -0.750   0.822  1.00  0.00    -0.050 A 
ATOM     12  C   UNL     1       0.971  -2.102   0.595  1.00  0.00     0.010 A 
ATOM     13  C   UNL     1       0.100  -0.365   2.042  1.00  0.00     0.015 A 
ATOM     14  C   UNL     1       0.691  -3.068   1.565  1.00  0.00    -0.008 A 
ATOM     15  C   UNL     1      -0.186  -1.320   3.021  1.00  0.00     0.018 A 
ATOM     16  C   UNL     1       1.018  -4.515   1.331  1.00  0.00     0.048 C 
ATOM     17  C   UNL     1       0.108  -2.662   2.771  1.00  0.00     0.130 A 
ATOM     18  C   UNL     1      -0.735  -0.932   4.316  1.00  0.00     0.025 C 
ATOM     19  O   UNL     1      -0.101  -3.641   3.695  1.00  0.00    -0.475 OA
ATOM     20  C   UNL     1      -0.981  -3.340   4.800  1.00  0.00     0.314 C 
BRANCH  20  21
ATOM     21  C   UNL     1      -2.342  -4.011   4.545  1.00  0.00     0.429 C 
ATOM     22  F   UNL     1      -2.218  -5.362   4.597  1.00  0.00    -0.167 F 
ATOM     23  F   UNL     1      -3.272  -3.684   5.473  1.00  0.00    -0.167 F 
ATOM     24  F   UNL     1      -2.862  -3.697   3.338  1.00  0.00    -0.167 F 
ENDBRANCH  20  21
ENDBRANCH   6   9
ENDBRANCH   4   5
ENDBRANCH   3   4
ENDBRANCH   2   3
ENDBRANCH   1   2
BRANCH   1  25
ATOM     25  C   UNL     1      -2.610  -6.111  10.251  1.00  0.00     0.021 C 
BRANCH  25  26
ATOM     26  C   UNL     1      -1.521  -6.811  11.055  1.00  0.00     0.116 C 
BRANCH  26  27
ATOM     27  N   UNL     1      -1.788  -6.756  12.483  1.00  0.00    -0.352 N 
ATOM     28  C   UNL     1      -1.876  -7.779  13.387  1.00  0.00     0.251 C 
ATOM     29  H   UNL     1      -1.924  -5.853  12.852  1.00  0.00     0.163 HD
ATOM     30  O   UNL     1      -2.332  -7.580  14.511  1.00  0.00    -0.269 OA
BRANCH  28  31
ATOM     31  C   UNL     1      -1.430  -9.131  13.002  1.00  0.00     0.039 A 
ATOM     32  C   UNL     1      -2.231 -10.226  13.327  1.00  0.00     0.014 A 
ATOM     33  C   UNL     1      -0.219  -9.312  12.326  1.00  0.00     0.014 A 
ATOM     34  C   UNL     1      -1.842 -11.505  12.929  1.00  0.00     0.010 A 
ATOM     35  C   UNL     1       0.132 -10.576  11.867  1.00  0.00     0.010 A 
ATOM     36  C   UNL     1      -0.673 -11.684  12.171  1.00  0.00    -0.014 A 
BRANCH  36  37
ATOM     37  C   UNL     1      -0.272 -13.028  11.690  1.00  0.00     0.031 A 
ATOM     38  C   UNL     1       0.990 -13.662  12.201  1.00  0.00     0.074 A 
ATOM     39  C   UNL     1      -1.021 -13.649  10.760  1.00  0.00     0.049 A 
ATOM     40  N   UNL     1       1.539 -14.800  11.859  1.00  0.00    -0.248 NA
ATOM     41  C   UNL     1       1.747 -12.910  13.215  1.00  0.00     0.031 C 
ATOM     42  C   UNL     1      -2.250 -13.116  10.173  1.00  0.00     0.029 A 
ATOM     43  N   UNL     1      -0.857 -14.864  10.143  1.00  0.00    -0.354 N 
ATOM     44  C   UNL     1       2.700 -14.899  12.614  1.00  0.00     0.074 A 
ATOM     45  C   UNL     1       2.811 -13.680  13.386  1.00  0.00     0.031 C 
ATOM     46  C   UNL     1      -2.747 -14.011   9.305  1.00  0.00     0.029 A 
ATOM     47  C   UNL     1      -1.849 -15.160   9.241  1.00  0.00     0.049 A 
ATOM     48  H   UNL     1      -0.100 -15.465  10.329  1.00  0.00     0.167 HD
ATOM     49  C   UNL     1       3.577 -15.928  12.678  1.00  0.00     0.037 A 
ATOM     50  C   UNL     1      -2.012 -16.237   8.449  1.00  0.00     0.037 A 
ATOM     51  C   UNL     1       3.453 -17.141  11.914  1.00  0.00     0.049 A 
ATOM     52  C   UNL     1      -1.001 -17.349   8.510  1.00  0.00     0.074 A 
ATOM     53  C   UNL     1       4.276 -18.253  11.923  1.00  0.00     0.029 A 
ATOM     54  N   UNL     1       2.438 -17.402  11.003  1.00  0.00    -0.354 N 
ATOM     55  N   UNL     1       0.073 -17.451   9.256  1.00  0.00    -0.248 NA
ATOM     56  C   UNL     1      -1.226 -18.500   7.624  1.00  0.00     0.031 C 
ATOM     57  C   UNL     1       3.790 -19.164  10.982  1.00  0.00     0.029 A 
ATOM     58  C   UNL     1       2.627 -18.650  10.432  1.00  0.00     0.049 A 
ATOM     59  H   UNL     1       1.695 -16.791  10.794  1.00  0.00     0.167 HD
ATOM     60  C   UNL     1       0.631 -18.686   8.957  1.00  0.00     0.074 A 
ATOM     61  C   UNL     1      -0.229 -19.303   7.968  1.00  0.00     0.031 C 
ATOM     62  C   UNL     1       1.753 -19.257   9.458  1.00  0.00     0.037 A 
BRANCH  49  63
ATOM     63  C   UNL     1       4.744 -15.797  13.613  1.00  0.00     0.064 A 
ATOM     64  C   UNL     1       4.573 -15.824  15.006  1.00  0.00     0.173 A 
ATOM     65  C   UNL     1       6.053 -15.712  13.116  1.00  0.00     0.173 A 
ATOM     66  F   UNL     1       3.342 -15.891  15.534  1.00  0.00    -0.203 F 
ATOM     67  C   UNL     1       5.667 -15.756  15.864  1.00  0.00     0.198 A 
ATOM     68  C   UNL     1       7.147 -15.677  13.977  1.00  0.00     0.198 A 
ATOM     69  F   UNL     1       6.275 -15.685  11.793  1.00  0.00    -0.203 F 
ATOM     70  F   UNL     1       5.476 -15.746  17.191  1.00  0.00    -0.200 F 
ATOM     71  C   UNL     1       6.953 -15.695  15.350  1.00  0.00     0.200 A 
ATOM     72  F   UNL     1       8.390 -15.633  13.478  1.00  0.00    -0.200 F 
ATOM     73  F   UNL     1       8.006 -15.650  16.177  1.00  0.00    -0.200 F 
ENDBRANCH  49  63
BRANCH  50  74
ATOM     74  C   UNL     1      -3.205 -16.328   7.566  1.00  0.00     0.064 A 
ATOM     75  C   UNL     1      -4.218 -17.262   7.823  1.00  0.00     0.173 A 
ATOM     76  C   UNL     1      -3.372 -15.471   6.467  1.00  0.00     0.173 A 
ATOM     77  F   UNL     1      -4.096 -18.115   8.850  1.00  0.00    -0.203 F 
ATOM     78  C   UNL     1      -5.346 -17.343   7.010  1.00  0.00     0.198 A 
ATOM     79  C   UNL     1      -4.514 -15.533   5.673  1.00  0.00     0.198 A 
ATOM     80  F   UNL     1      -2.434 -14.556   6.181  1.00  0.00    -0.203 F 
ATOM     81  F   UNL     1      -6.282 -18.270   7.258  1.00  0.00    -0.200 F 
ATOM     82  C   UNL     1      -5.498 -16.473   5.941  1.00  0.00     0.200 A 
ATOM     83  F   UNL     1      -4.665 -14.678   4.652  1.00  0.00    -0.200 F 
ATOM     84  F   UNL     1      -6.591 -16.542   5.168  1.00  0.00    -0.200 F 
ENDBRANCH  50  74
BRANCH  62  85
ATOM     85  C   UNL     1       2.103 -20.639   8.984  1.00  0.00     0.064 A 
ATOM     86  C   UNL     1       2.569 -20.878   7.683  1.00  0.00     0.173 A 
ATOM     87  C   UNL     1       2.037 -21.727   9.868  1.00  0.00     0.173 A 
ATOM     88  F   UNL     1       2.640 -19.873   6.796  1.00  0.00    -0.203 F 
ATOM     89  C   UNL     1       2.934 -22.159   7.279  1.00  0.00     0.198 A 
ATOM     90  C   UNL     1       2.436 -23.000   9.471  1.00  0.00     0.198 A 
ATOM     91  F   UNL     1       1.608 -21.551  11.128  1.00  0.00    -0.203 F 
ATOM     92  F   UNL     1       3.335 -22.372   6.018  1.00  0.00    -0.200 F 
ATOM     93  C   UNL     1       2.878 -23.216   8.175  1.00  0.00     0.200 A 
ATOM     94  F   UNL     1       2.400 -24.015  10.345  1.00  0.00    -0.200 F 
ATOM     95  F   UNL     1       3.247 -24.445   7.788  1.00  0.00    -0.200 F 
ENDBRANCH  62  85
ENDBRANCH  36  37
ENDBRANCH  28  31
ENDBRANCH  26  27
ENDBRANCH  25  26
ENDBRANCH   1  25
TORSDOF 14
