REMARK SMILES COc1ccc(-c2cc(C(=O)NCCCCCCNC(=O)c3ccc(-c4c5nc(c(-c6c(F)c(F)c(F)c(F)c6F)c6ccc([nH]6)c(-c6c(F)c(F)c(F)c(F)c6F)c6nc(c(-c7c(F)c(F)c(F)c(F)c7F)c7ccc4[nH]7)C=C6)C=C5)cc3)nc(=O)n2C)cc1
REMARK SMILES IDX 15 1 14 2 13 3 12 4 10 5 11 6 9 8 7 9 8 10 88 11 86 12 89 13
REMARK SMILES IDX 85 14 87 15 6 16 3 17 4 18 91 19 5 20 90 21 2 22 1 23 16 24
REMARK SMILES IDX 17 25 18 26 19 27 20 28 21 30 22 31 23 32 84 33 24 34 83 35
REMARK SMILES IDX 25 36 26 37 27 38 77 39 28 40 82 41 76 42 78 43 29 44 81 45
REMARK SMILES IDX 75 46 74 47 30 49 62 50 42 51 61 52 43 53 46 54 60 55 79 56
REMARK SMILES IDX 44 57 45 58 59 60 80 61 47 62 31 63 32 64 40 65 33 66 34 67
REMARK SMILES IDX 38 68 41 69 35 70 36 71 39 72 37 73 63 74 64 75 72 76 65 77
REMARK SMILES IDX 66 78 70 79 73 80 67 81 68 82 71 83 69 84 48 85 49 86 57 87
REMARK SMILES IDX 50 88 51 89 55 90 58 91 52 92 53 93 56 94 54 95
REMARK H PARENT 12 7 19 29 78 48 46 59
REMARK Flexibility Score: inf
ROOT
ATOM      1  C   UNL     1       0.747  13.530  -1.119  1.00  0.00     0.002 C 
ENDROOT
BRANCH   1   2
ATOM      2  C   UNL     1       1.362  12.354  -1.885  1.00  0.00     0.021 C 
BRANCH   2   3
ATOM      3  C   UNL     1       2.137  11.387  -0.993  1.00  0.00     0.116 C 
BRANCH   3   4
ATOM      4  N   UNL     1       1.230  10.610  -0.169  1.00  0.00    -0.351 N 
ATOM      5  C   UNL     1       0.902   9.278  -0.194  1.00  0.00     0.270 C 
ATOM      6  O   UNL     1       0.028   8.864   0.563  1.00  0.00    -0.268 OA
ATOM      7  H   UNL     1       0.769  11.129   0.529  1.00  0.00     0.163 HD
BRANCH   5   8
ATOM      8  C   UNL     1       1.611   8.282  -1.116  1.00  0.00     0.136 A 
ATOM      9  C   UNL     1       1.851   6.000  -1.732  1.00  0.00     0.055 A 
ATOM     10  C   UNL     1       1.230   6.874  -0.933  1.00  0.00     0.061 A 
ATOM     11  N   UNL     1       2.795   6.430  -2.651  1.00  0.00    -0.295 N 
ATOM     12  C   UNL     1       3.139   7.782  -2.759  1.00  0.00     0.348 A 
ATOM     13  C   UNL     1       3.506   5.525  -3.539  1.00  0.00     0.155 C 
ATOM     14  N   UNL     1       2.486   8.686  -1.972  1.00  0.00    -0.188 NA
ATOM     15  O   UNL     1       4.013   8.163  -3.536  1.00  0.00    -0.246 OA
BRANCH   9  16
ATOM     16  C   UNL     1       1.495   4.582  -1.570  1.00  0.00    -0.001 A 
ATOM     17  C   UNL     1       0.784   1.894  -1.194  1.00  0.00     0.118 A 
ATOM     18  C   UNL     1      -0.139   2.797  -1.722  1.00  0.00     0.047 A 
ATOM     19  C   UNL     1       2.070   2.329  -0.872  1.00  0.00     0.047 A 
ATOM     20  C   UNL     1       0.210   4.136  -1.904  1.00  0.00     0.014 A 
ATOM     21  C   UNL     1       2.421   3.671  -1.048  1.00  0.00     0.014 A 
BRANCH  17  22
ATOM     22  O   UNL     1       0.340   0.606  -1.078  1.00  0.00    -0.497 OA
ATOM     23  C   UNL     1       0.917  -0.140  -0.012  1.00  0.00     0.278 C 
ENDBRANCH  17  22
ENDBRANCH   9  16
ENDBRANCH   5   8
ENDBRANCH   3   4
ENDBRANCH   2   3
ENDBRANCH   1   2
BRANCH   1  24
ATOM     24  C   UNL     1       1.746  14.350  -0.293  1.00  0.00     0.002 C 
BRANCH  24  25
ATOM     25  C   UNL     1       2.967  14.846  -1.072  1.00  0.00     0.021 C 
BRANCH  25  26
ATOM     26  C   UNL     1       2.627  15.732  -2.263  1.00  0.00     0.116 C 
BRANCH  26  27
ATOM     27  N   UNL     1       1.965  16.960  -1.850  1.00  0.00    -0.352 N 
ATOM     28  C   UNL     1       2.319  18.261  -2.097  1.00  0.00     0.251 C 
ATOM     29  H   UNL     1       1.146  16.839  -1.317  1.00  0.00     0.163 HD
ATOM     30  O   UNL     1       1.777  19.178  -1.488  1.00  0.00    -0.269 OA
BRANCH  28  31
ATOM     31  C   UNL     1       3.371  18.555  -3.091  1.00  0.00     0.039 A 
ATOM     32  C   UNL     1       4.347  19.504  -2.782  1.00  0.00     0.014 A 
ATOM     33  C   UNL     1       3.391  17.898  -4.325  1.00  0.00     0.014 A 
ATOM     34  C   UNL     1       5.379  19.752  -3.688  1.00  0.00     0.010 A 
ATOM     35  C   UNL     1       4.463  18.087  -5.191  1.00  0.00     0.010 A 
ATOM     36  C   UNL     1       5.465  19.020  -4.884  1.00  0.00    -0.014 A 
BRANCH  36  37
ATOM     37  C   UNL     1       6.596  19.218  -5.827  1.00  0.00     0.031 A 
ATOM     38  C   UNL     1       6.339  19.734  -7.215  1.00  0.00     0.074 A 
ATOM     39  C   UNL     1       7.844  18.880  -5.449  1.00  0.00     0.049 A 
ATOM     40  N   UNL     1       7.182  19.910  -8.202  1.00  0.00    -0.248 NA
ATOM     41  C   UNL     1       4.947  20.076  -7.549  1.00  0.00     0.031 C 
ATOM     42  C   UNL     1       8.213  18.332  -4.143  1.00  0.00     0.029 A 
ATOM     43  N   UNL     1       9.034  18.939  -6.131  1.00  0.00    -0.354 N 
ATOM     44  C   UNL     1       6.424  20.375  -9.268  1.00  0.00     0.074 A 
ATOM     45  C   UNL     1       5.045  20.396  -8.831  1.00  0.00     0.031 C 
ATOM     46  C   UNL     1       9.540  18.129  -4.109  1.00  0.00     0.029 A 
ATOM     47  C   UNL     1      10.108  18.486  -5.405  1.00  0.00     0.049 A 
ATOM     48  H   UNL     1       9.109  19.273  -7.054  1.00  0.00     0.167 HD
ATOM     49  C   UNL     1       6.843  20.774 -10.492  1.00  0.00     0.037 A 
ATOM     50  C   UNL     1      11.404  18.361  -5.751  1.00  0.00     0.037 A 
ATOM     51  C   UNL     1       8.218  20.763 -10.919  1.00  0.00     0.049 A 
ATOM     52  C   UNL     1      11.835  18.776  -7.133  1.00  0.00     0.074 A 
ATOM     53  C   UNL     1       8.750  21.186 -12.125  1.00  0.00     0.029 A 
ATOM     54  N   UNL     1       9.279  20.300 -10.154  1.00  0.00    -0.354 N 
ATOM     55  N   UNL     1      11.119  19.277  -8.110  1.00  0.00    -0.248 NA
ATOM     56  C   UNL     1      13.259  18.613  -7.458  1.00  0.00     0.031 C 
ATOM     57  C   UNL     1      10.124  20.927 -12.111  1.00  0.00     0.029 A 
ATOM     58  C   UNL     1      10.459  20.404 -10.873  1.00  0.00     0.049 A 
ATOM     59  H   UNL     1       9.204  19.950  -9.237  1.00  0.00     0.167 HD
ATOM     60  C   UNL     1      12.008  19.523  -9.149  1.00  0.00     0.074 A 
ATOM     61  C   UNL     1      13.319  19.131  -8.676  1.00  0.00     0.031 C 
ATOM     62  C   UNL     1      11.761  20.026 -10.383  1.00  0.00     0.037 A 
BRANCH  49  63
ATOM     63  C   UNL     1       5.804  21.263 -11.462  1.00  0.00     0.064 A 
ATOM     64  C   UNL     1       5.122  22.473 -11.260  1.00  0.00     0.173 A 
ATOM     65  C   UNL     1       5.525  20.541 -12.632  1.00  0.00     0.173 A 
ATOM     66  F   UNL     1       5.344  23.197 -10.153  1.00  0.00    -0.203 F 
ATOM     67  C   UNL     1       4.181  22.928 -12.180  1.00  0.00     0.198 A 
ATOM     68  C   UNL     1       4.608  21.017 -13.567  1.00  0.00     0.198 A 
ATOM     69  F   UNL     1       6.152  19.381 -12.879  1.00  0.00    -0.203 F 
ATOM     70  F   UNL     1       3.509  24.063 -11.942  1.00  0.00    -0.200 F 
ATOM     71  C   UNL     1       3.932  22.205 -13.337  1.00  0.00     0.200 A 
ATOM     72  F   UNL     1       4.381  20.325 -14.692  1.00  0.00    -0.200 F 
ATOM     73  F   UNL     1       3.037  22.652 -14.228  1.00  0.00    -0.200 F 
ENDBRANCH  49  63
BRANCH  50  74
ATOM     74  C   UNL     1      12.394  17.830  -4.776  1.00  0.00     0.064 A 
ATOM     75  C   UNL     1      13.422  18.643  -4.277  1.00  0.00     0.173 A 
ATOM     76  C   UNL     1      12.356  16.495  -4.347  1.00  0.00     0.173 A 
ATOM     77  F   UNL     1      13.515  19.922  -4.670  1.00  0.00    -0.203 F 
ATOM     78  C   UNL     1      14.392  18.133  -3.416  1.00  0.00     0.198 A 
ATOM     79  C   UNL     1      13.306  15.995  -3.458  1.00  0.00     0.198 A 
ATOM     80  F   UNL     1      11.391  15.675  -4.788  1.00  0.00    -0.203 F 
ATOM     81  F   UNL     1      15.399  18.916  -3.007  1.00  0.00    -0.200 F 
ATOM     82  C   UNL     1      14.331  16.811  -3.004  1.00  0.00     0.200 A 
ATOM     83  F   UNL     1      13.233  14.721  -3.050  1.00  0.00    -0.200 F 
ATOM     84  F   UNL     1      15.265  16.320  -2.179  1.00  0.00    -0.200 F 
ENDBRANCH  50  74
BRANCH  62  85
ATOM     85  C   UNL     1      12.937  20.234 -11.294  1.00  0.00     0.064 A 
ATOM     86  C   UNL     1      13.638  19.157 -11.857  1.00  0.00     0.173 A 
ATOM     87  C   UNL     1      13.343  21.532 -11.639  1.00  0.00     0.173 A 
ATOM     88  F   UNL     1      13.300  17.896 -11.548  1.00  0.00    -0.203 F 
ATOM     89  C   UNL     1      14.719  19.373 -12.708  1.00  0.00     0.198 A 
ATOM     90  C   UNL     1      14.400  21.744 -12.519  1.00  0.00     0.198 A 
ATOM     91  F   UNL     1      12.703  22.598 -11.136  1.00  0.00    -0.203 F 
ATOM     92  F   UNL     1      15.408  18.329 -13.190  1.00  0.00    -0.200 F 
ATOM     93  C   UNL     1      15.093  20.665 -13.045  1.00  0.00     0.200 A 
ATOM     94  F   UNL     1      14.749  22.993 -12.858  1.00  0.00    -0.200 F 
ATOM     95  F   UNL     1      16.127  20.870 -13.873  1.00  0.00    -0.200 F 
ENDBRANCH  62  85
ENDBRANCH  36  37
ENDBRANCH  28  31
ENDBRANCH  26  27
ENDBRANCH  25  26
ENDBRANCH  24  25
ENDBRANCH   1  24
TORSDOF 15
