REMARK SMILES C[C@@H](C(=O)NCCCCCCNC(=O)c1ccc(-c2c3nc(c(-c4c(F)c(F)c(F)c(F)c4F)c4ccc([nH]4)c(-c4c(F)c(F)c(F)c(F)c4F)c4nc(c(-c5c(F)c(F)c(F)c(F)c5F)c5ccc2[nH]5)C=C4)C=C3)cc1)c1ccc(NC2CCCC2)cc1F
REMARK SMILES IDX 8 1 7 2 6 3 5 4 3 5 4 6 2 8 1 9 78 10 79 11 89 12 80 13
REMARK SMILES IDX 88 14 90 15 81 16 82 17 83 19 84 20 87 21 85 22 86 23 9 24
REMARK SMILES IDX 10 25 11 26 12 27 13 28 14 30 15 31 16 32 77 33 17 34 76 35
REMARK SMILES IDX 18 36 19 37 20 38 70 39 21 40 75 41 69 42 71 43 22 44 74 45
REMARK SMILES IDX 68 46 67 47 23 49 55 50 35 51 54 52 36 53 39 54 53 55 72 56
REMARK SMILES IDX 37 57 38 58 52 60 73 61 40 62 24 63 25 64 33 65 26 66 27 67
REMARK SMILES IDX 31 68 34 69 28 70 29 71 32 72 30 73 56 74 57 75 65 76 58 77
REMARK SMILES IDX 59 78 63 79 66 80 60 81 61 82 64 83 62 84 41 85 42 86 50 87
REMARK SMILES IDX 43 88 44 89 48 90 51 91 45 92 46 93 49 94 47 95
REMARK H PARENT 5 7 82 18 12 29 71 48 39 59
REMARK Flexibility Score: inf
ROOT
ATOM      1  C   UNL     1       5.045  -2.494   1.294  1.00  0.00     0.002 C 
ENDROOT
BRANCH   1   2
ATOM      2  C   UNL     1       4.303  -1.382   0.543  1.00  0.00     0.021 C 
BRANCH   2   3
ATOM      3  C   UNL     1       3.465  -1.892  -0.637  1.00  0.00     0.116 C 
BRANCH   3   4
ATOM      4  N   UNL     1       2.372  -2.700  -0.139  1.00  0.00    -0.356 N 
ATOM      5  C   UNL     1       1.106  -2.287   0.179  1.00  0.00     0.227 C 
ATOM      6  O   UNL     1       0.510  -2.912   1.056  1.00  0.00    -0.274 OA
ATOM      7  H   UNL     1       2.560  -3.659  -0.014  1.00  0.00     0.163 HD
BRANCH   5   8
ATOM      8  C   UNL     1       0.522  -1.074  -0.561  1.00  0.00     0.108 C 
ATOM      9  C   UNL     1       1.042   0.205   0.122  1.00  0.00     0.023 C 
BRANCH   8  10
ATOM     10  C   UNL     1      -1.001  -1.080  -0.662  1.00  0.00     0.000 A 
ATOM     11  C   UNL     1      -1.721   0.117  -0.654  1.00  0.00     0.009 A 
ATOM     12  C   UNL     1      -1.746  -2.255  -0.802  1.00  0.00     0.129 A 
ATOM     13  C   UNL     1      -3.114   0.124  -0.651  1.00  0.00     0.026 A 
ATOM     14  C   UNL     1      -3.145  -2.248  -0.763  1.00  0.00     0.065 A 
ATOM     15  F   UNL     1      -1.131  -3.431  -0.994  1.00  0.00    -0.207 F 
ATOM     16  C   UNL     1      -3.860  -1.053  -0.642  1.00  0.00     0.037 A 
BRANCH  16  17
ATOM     17  N   UNL     1      -5.238  -1.081  -0.582  1.00  0.00    -0.382 N 
ATOM     18  H   UNL     1      -5.650  -1.974  -0.526  1.00  0.00     0.160 HD
BRANCH  17  19
ATOM     19  C   UNL     1      -6.159   0.047  -0.591  1.00  0.00     0.079 C 
ATOM     20  C   UNL     1      -6.013   0.993   0.598  1.00  0.00     0.025 C 
ATOM     21  C   UNL     1      -6.056   0.900  -1.855  1.00  0.00     0.025 C 
ATOM     22  C   UNL     1      -6.535   2.326   0.083  1.00  0.00     0.002 C 
ATOM     23  C   UNL     1      -6.256   2.346  -1.415  1.00  0.00     0.002 C 
ENDBRANCH  17  19
ENDBRANCH  16  17
ENDBRANCH   8  10
ENDBRANCH   5   8
ENDBRANCH   3   4
ENDBRANCH   2   3
ENDBRANCH   1   2
BRANCH   1  24
ATOM     24  C   UNL     1       6.005  -3.308   0.425  1.00  0.00     0.002 C 
BRANCH  24  25
ATOM     25  C   UNL     1       7.034  -2.466  -0.328  1.00  0.00     0.021 C 
BRANCH  25  26
ATOM     26  C   UNL     1       7.925  -1.629   0.580  1.00  0.00     0.116 C 
BRANCH  26  27
ATOM     27  N   UNL     1       8.778  -2.462   1.414  1.00  0.00    -0.352 N 
ATOM     28  C   UNL     1      10.143  -2.426   1.539  1.00  0.00     0.251 C 
ATOM     29  H   UNL     1       8.315  -3.139   1.959  1.00  0.00     0.163 HD
ATOM     30  O   UNL     1      10.750  -3.326   2.110  1.00  0.00    -0.269 OA
BRANCH  28  31
ATOM     31  C   UNL     1      10.878  -1.287   0.958  1.00  0.00     0.039 A 
ATOM     32  C   UNL     1      11.994  -1.528   0.155  1.00  0.00     0.014 A 
ATOM     33  C   UNL     1      10.431   0.017   1.187  1.00  0.00     0.014 A 
ATOM     34  C   UNL     1      12.637  -0.455  -0.466  1.00  0.00     0.010 A 
ATOM     35  C   UNL     1      11.020   1.072   0.505  1.00  0.00     0.010 A 
ATOM     36  C   UNL     1      12.136   0.848  -0.318  1.00  0.00    -0.014 A 
BRANCH  36  37
ATOM     37  C   UNL     1      12.776   2.014  -0.973  1.00  0.00     0.031 A 
ATOM     38  C   UNL     1      13.357   3.107  -0.121  1.00  0.00     0.074 A 
ATOM     39  C   UNL     1      12.742   2.142  -2.312  1.00  0.00     0.049 A 
ATOM     40  N   UNL     1      13.809   4.283  -0.471  1.00  0.00    -0.248 NA
ATOM     41  C   UNL     1      13.397   2.853   1.328  1.00  0.00     0.031 C 
ATOM     42  C   UNL     1      12.177   1.165  -3.241  1.00  0.00     0.029 A 
ATOM     43  N   UNL     1      13.170   3.165  -3.121  1.00  0.00    -0.354 N 
ATOM     44  C   UNL     1      14.157   4.918   0.714  1.00  0.00     0.074 A 
ATOM     45  C   UNL     1      13.810   4.021   1.794  1.00  0.00     0.031 C 
ATOM     46  C   UNL     1      12.298   1.631  -4.494  1.00  0.00     0.029 A 
ATOM     47  C   UNL     1      12.903   2.960  -4.452  1.00  0.00     0.049 A 
ATOM     48  H   UNL     1      13.624   3.969  -2.780  1.00  0.00     0.167 HD
ATOM     49  C   UNL     1      14.731   6.133   0.883  1.00  0.00     0.037 A 
ATOM     50  C   UNL     1      13.104   3.763  -5.515  1.00  0.00     0.037 A 
ATOM     51  C   UNL     1      15.092   7.008  -0.201  1.00  0.00     0.049 A 
ATOM     52  C   UNL     1      13.733   5.115  -5.306  1.00  0.00     0.074 A 
ATOM     53  C   UNL     1      15.731   8.233  -0.144  1.00  0.00     0.029 A 
ATOM     54  N   UNL     1      14.838   6.749  -1.541  1.00  0.00    -0.354 N 
ATOM     55  N   UNL     1      14.109   5.688  -4.188  1.00  0.00    -0.248 NA
ATOM     56  C   UNL     1      13.970   5.930  -6.505  1.00  0.00     0.031 C 
ATOM     57  C   UNL     1      15.811   8.743  -1.444  1.00  0.00     0.029 A 
ATOM     58  C   UNL     1      15.286   7.804  -2.318  1.00  0.00     0.049 A 
ATOM     59  H   UNL     1      14.404   5.936  -1.887  1.00  0.00     0.167 HD
ATOM     60  C   UNL     1      14.661   6.909  -4.549  1.00  0.00     0.074 A 
ATOM     61  C   UNL     1      14.569   6.996  -5.992  1.00  0.00     0.031 C 
ATOM     62  C   UNL     1      15.203   7.867  -3.757  1.00  0.00     0.037 A 
BRANCH  49  63
ATOM     63  C   UNL     1      14.984   6.586   2.294  1.00  0.00     0.064 A 
ATOM     64  C   UNL     1      15.915   5.942   3.125  1.00  0.00     0.173 A 
ATOM     65  C   UNL     1      14.281   7.678   2.824  1.00  0.00     0.173 A 
ATOM     66  F   UNL     1      16.607   4.886   2.672  1.00  0.00    -0.203 F 
ATOM     67  C   UNL     1      16.096   6.343   4.446  1.00  0.00     0.198 A 
ATOM     68  C   UNL     1      14.494   8.101   4.134  1.00  0.00     0.198 A 
ATOM     69  F   UNL     1      13.385   8.336   2.074  1.00  0.00    -0.203 F 
ATOM     70  F   UNL     1      16.935   5.664   5.241  1.00  0.00    -0.200 F 
ATOM     71  C   UNL     1      15.389   7.425   4.948  1.00  0.00     0.200 A 
ATOM     72  F   UNL     1      13.822   9.158   4.612  1.00  0.00    -0.200 F 
ATOM     73  F   UNL     1      15.562   7.808   6.220  1.00  0.00    -0.200 F 
ENDBRANCH  49  63
BRANCH  50  74
ATOM     74  C   UNL     1      12.722   3.293  -6.871  1.00  0.00     0.064 A 
ATOM     75  C   UNL     1      13.699   2.962  -7.820  1.00  0.00     0.173 A 
ATOM     76  C   UNL     1      11.377   3.136  -7.238  1.00  0.00     0.173 A 
ATOM     77  F   UNL     1      14.998   3.112  -7.523  1.00  0.00    -0.203 F 
ATOM     78  C   UNL     1      13.346   2.503  -9.088  1.00  0.00     0.198 A 
ATOM     79  C   UNL     1      11.025   2.651  -8.496  1.00  0.00     0.198 A 
ATOM     80  F   UNL     1      10.403   3.432  -6.364  1.00  0.00    -0.203 F 
ATOM     81  F   UNL     1      14.300   2.227  -9.987  1.00  0.00    -0.200 F 
ATOM     82  C   UNL     1      12.010   2.340  -9.421  1.00  0.00     0.200 A 
ATOM     83  F   UNL     1       9.734   2.478  -8.808  1.00  0.00    -0.200 F 
ATOM     84  F   UNL     1      11.671   1.886 -10.636  1.00  0.00    -0.200 F 
ENDBRANCH  50  74
BRANCH  62  85
ATOM     85  C   UNL     1      15.798   9.072  -4.426  1.00  0.00     0.064 A 
ATOM     86  C   UNL     1      15.003  10.063  -5.019  1.00  0.00     0.173 A 
ATOM     87  C   UNL     1      17.188   9.272  -4.402  1.00  0.00     0.173 A 
ATOM     88  F   UNL     1      13.671   9.913  -5.080  1.00  0.00    -0.203 F 
ATOM     89  C   UNL     1      15.578  11.204  -5.574  1.00  0.00     0.198 A 
ATOM     90  C   UNL     1      17.756  10.428  -4.929  1.00  0.00     0.198 A 
ATOM     91  F   UNL     1      17.993   8.357  -3.841  1.00  0.00    -0.203 F 
ATOM     92  F   UNL     1      14.802  12.122  -6.167  1.00  0.00    -0.200 F 
ATOM     93  C   UNL     1      16.951  11.390  -5.519  1.00  0.00     0.200 A 
ATOM     94  F   UNL     1      19.081  10.614  -4.859  1.00  0.00    -0.200 F 
ATOM     95  F   UNL     1      17.500  12.498  -6.036  1.00  0.00    -0.200 F 
ENDBRANCH  62  85
ENDBRANCH  36  37
ENDBRANCH  28  31
ENDBRANCH  26  27
ENDBRANCH  25  26
ENDBRANCH  24  25
ENDBRANCH   1  24
TORSDOF 16
