REMARK SMILES O=C(NCCCCCCNC(=O)[C@@H]1CCCCC[C@H]1NC(=O)C1CC1)c1ccc(-c2c3nc(c(-c4c(F)c(F)c(F)c(F)c4F)c4ccc([nH]4)c(-c4c(F)c(F)c(F)c(F)c4F)c4nc(c(-c5c(F)c(F)c(F)c(F)c5F)c5ccc2[nH]5)C=C4)C=C3)cc1
REMARK SMILES IDX 7 1 6 2 5 3 4 4 3 5 1 6 2 7 26 9 27 10 88 11 28 12 87 13
REMARK SMILES IDX 29 14 30 15 31 16 81 17 32 18 86 19 80 20 82 21 33 22 85 23
REMARK SMILES IDX 79 24 78 25 34 27 66 28 46 29 65 30 47 31 50 32 64 33 83 34
REMARK SMILES IDX 48 35 49 36 63 38 84 39 51 40 35 41 36 42 44 43 37 44 38 45
REMARK SMILES IDX 42 46 45 47 39 48 40 49 43 50 41 51 67 52 68 53 76 54 69 55
REMARK SMILES IDX 70 56 74 57 77 58 71 59 72 60 75 61 73 62 52 63 53 64 61 65
REMARK SMILES IDX 54 66 55 67 59 68 62 69 56 70 57 71 60 72 58 73 8 74 9 75
REMARK SMILES IDX 10 76 11 77 12 79 13 80 14 81 15 82 16 83 19 85 18 86 17 87
REMARK SMILES IDX 20 89 21 90 22 92 23 93 24 94 25 95
REMARK H PARENT 3 8 82 26 50 37 10 78 20 91
REMARK Flexibility Score: 100.00
ROOT
ATOM      1  C   UNL     1       4.645  -3.849  -2.111  1.00  0.00     0.002 C 
ENDROOT
BRANCH   1   2
ATOM      2  C   UNL     1       3.952  -3.742  -0.746  1.00  0.00     0.002 C 
BRANCH   2   3
ATOM      3  C   UNL     1       4.498  -2.638   0.161  1.00  0.00     0.021 C 
BRANCH   3   4
ATOM      4  C   UNL     1       4.372  -1.242  -0.433  1.00  0.00     0.116 C 
BRANCH   4   5
ATOM      5  N   UNL     1       2.980  -0.863  -0.632  1.00  0.00    -0.352 N 
ATOM      6  O   UNL     1       1.035   0.174  -0.139  1.00  0.00    -0.269 OA
ATOM      7  C   UNL     1       2.257   0.143  -0.041  1.00  0.00     0.251 C 
ATOM      8  H   UNL     1       2.485  -1.409  -1.285  1.00  0.00     0.163 HD
BRANCH   7   9
ATOM      9  C   UNL     1       2.966   1.183   0.731  1.00  0.00     0.039 A 
ATOM     10  C   UNL     1       4.151   1.732   0.239  1.00  0.00     0.014 A 
ATOM     11  C   UNL     1       2.453   1.599   1.962  1.00  0.00     0.014 A 
ATOM     12  C   UNL     1       4.914   2.556   1.053  1.00  0.00     0.010 A 
ATOM     13  C   UNL     1       3.170   2.518   2.732  1.00  0.00     0.010 A 
ATOM     14  C   UNL     1       4.428   2.969   2.304  1.00  0.00    -0.014 A 
BRANCH  14  15
ATOM     15  C   UNL     1       5.248   3.897   3.123  1.00  0.00     0.031 A 
ATOM     16  C   UNL     1       5.772   3.488   4.472  1.00  0.00     0.074 A 
ATOM     17  C   UNL     1       5.553   5.108   2.617  1.00  0.00     0.049 A 
ATOM     18  N   UNL     1       6.534   4.159   5.300  1.00  0.00    -0.248 NA
ATOM     19  C   UNL     1       5.386   2.157   4.963  1.00  0.00     0.031 C 
ATOM     20  C   UNL     1       5.097   5.617   1.321  1.00  0.00     0.029 A 
ATOM     21  N   UNL     1       6.334   6.119   3.113  1.00  0.00    -0.354 N 
ATOM     22  C   UNL     1       6.695   3.347   6.415  1.00  0.00     0.074 A 
ATOM     23  C   UNL     1       5.928   2.144   6.172  1.00  0.00     0.031 C 
ATOM     24  C   UNL     1       5.652   6.816   1.099  1.00  0.00     0.029 A 
ATOM     25  C   UNL     1       6.441   7.194   2.264  1.00  0.00     0.049 A 
ATOM     26  H   UNL     1       6.775   6.079   3.992  1.00  0.00     0.167 HD
ATOM     27  C   UNL     1       7.423   3.583   7.535  1.00  0.00     0.037 A 
ATOM     28  C   UNL     1       7.091   8.362   2.414  1.00  0.00     0.037 A 
ATOM     29  C   UNL     1       8.194   4.780   7.760  1.00  0.00     0.049 A 
ATOM     30  C   UNL     1       7.862   8.607   3.679  1.00  0.00     0.074 A 
ATOM     31  C   UNL     1       8.998   5.098   8.841  1.00  0.00     0.029 A 
ATOM     32  N   UNL     1       8.248   5.864   6.894  1.00  0.00    -0.354 N 
ATOM     33  N   UNL     1       8.043   7.813   4.707  1.00  0.00    -0.248 NA
ATOM     34  C   UNL     1       8.521   9.912   3.803  1.00  0.00     0.031 C 
ATOM     35  C   UNL     1       9.483   6.397   8.661  1.00  0.00     0.029 A 
ATOM     36  C   UNL     1       9.047   6.862   7.431  1.00  0.00     0.049 A 
ATOM     37  H   UNL     1       7.786   5.916   6.026  1.00  0.00     0.167 HD
ATOM     38  C   UNL     1       8.868   8.506   5.582  1.00  0.00     0.074 A 
ATOM     39  C   UNL     1       9.160   9.780   4.956  1.00  0.00     0.031 C 
ATOM     40  C   UNL     1       9.342   8.121   6.792  1.00  0.00     0.037 A 
BRANCH  27  41
ATOM     41  C   UNL     1       7.395   2.542   8.620  1.00  0.00     0.064 A 
ATOM     42  C   UNL     1       7.989   1.281   8.460  1.00  0.00     0.173 A 
ATOM     43  C   UNL     1       6.792   2.826   9.856  1.00  0.00     0.173 A 
ATOM     44  F   UNL     1       8.572   0.951   7.297  1.00  0.00    -0.203 F 
ATOM     45  C   UNL     1       7.950   0.334   9.481  1.00  0.00     0.198 A 
ATOM     46  C   UNL     1       6.786   1.890  10.887  1.00  0.00     0.198 A 
ATOM     47  F   UNL     1       6.215   4.018  10.069  1.00  0.00    -0.203 F 
ATOM     48  F   UNL     1       8.475  -0.884   9.283  1.00  0.00    -0.200 F 
ATOM     49  C   UNL     1       7.356   0.641  10.696  1.00  0.00     0.200 A 
ATOM     50  F   UNL     1       6.226   2.196  12.065  1.00  0.00    -0.200 F 
ATOM     51  F   UNL     1       7.325  -0.269  11.679  1.00  0.00    -0.200 F 
ENDBRANCH  27  41
BRANCH  28  52
ATOM     52  C   UNL     1       7.045   9.380   1.332  1.00  0.00     0.064 A 
ATOM     53  C   UNL     1       8.199   9.719   0.613  1.00  0.00     0.173 A 
ATOM     54  C   UNL     1       5.851  10.035   0.996  1.00  0.00     0.173 A 
ATOM     55  F   UNL     1       9.368   9.131   0.907  1.00  0.00    -0.203 F 
ATOM     56  C   UNL     1       8.166  10.693  -0.383  1.00  0.00     0.198 A 
ATOM     57  C   UNL     1       5.812  10.982  -0.024  1.00  0.00     0.198 A 
ATOM     58  F   UNL     1       4.716   9.741   1.647  1.00  0.00    -0.203 F 
ATOM     59  F   UNL     1       9.295  11.035  -1.018  1.00  0.00    -0.200 F 
ATOM     60  C   UNL     1       6.971  11.319  -0.705  1.00  0.00     0.200 A 
ATOM     61  F   UNL     1       4.651  11.569  -0.346  1.00  0.00    -0.200 F 
ATOM     62  F   UNL     1       6.939  12.251  -1.666  1.00  0.00    -0.200 F 
ENDBRANCH  28  52
BRANCH  40  63
ATOM     63  C   UNL     1      10.284   9.062   7.490  1.00  0.00     0.064 A 
ATOM     64  C   UNL     1       9.860  10.295   8.007  1.00  0.00     0.173 A 
ATOM     65  C   UNL     1      11.633   8.713   7.654  1.00  0.00     0.173 A 
ATOM     66  F   UNL     1       8.584  10.685   7.865  1.00  0.00    -0.203 F 
ATOM     67  C   UNL     1      10.760  11.161   8.624  1.00  0.00     0.198 A 
ATOM     68  C   UNL     1      12.522   9.562   8.306  1.00  0.00     0.198 A 
ATOM     69  F   UNL     1      12.091   7.542   7.186  1.00  0.00    -0.203 F 
ATOM     70  F   UNL     1      10.347  12.363   9.048  1.00  0.00    -0.200 F 
ATOM     71  C   UNL     1      12.088  10.791   8.779  1.00  0.00     0.200 A 
ATOM     72  F   UNL     1      13.800   9.195   8.470  1.00  0.00    -0.200 F 
ATOM     73  F   UNL     1      12.952  11.624   9.375  1.00  0.00    -0.200 F 
ENDBRANCH  40  63
ENDBRANCH  14  15
ENDBRANCH   7   9
ENDBRANCH   4   5
ENDBRANCH   3   4
ENDBRANCH   2   3
ENDBRANCH   1   2
BRANCH   1  74
ATOM     74  C   UNL     1       6.168  -4.005  -2.040  1.00  0.00     0.021 C 
BRANCH  74  75
ATOM     75  C   UNL     1       6.599  -5.279  -1.317  1.00  0.00     0.116 C 
BRANCH  75  76
ATOM     76  N   UNL     1       6.671  -6.390  -2.235  1.00  0.00    -0.356 N 
ATOM     77  C   UNL     1       7.739  -6.992  -2.817  1.00  0.00     0.225 C 
ATOM     78  H   UNL     1       5.800  -6.776  -2.480  1.00  0.00     0.163 HD
ATOM     79  O   UNL     1       7.497  -7.879  -3.640  1.00  0.00    -0.275 OA
BRANCH  77  80
ATOM     80  C   UNL     1       9.190  -6.636  -2.467  1.00  0.00     0.101 C 
BRANCH  80  81
ATOM     81  C   UNL     1       9.521  -7.071  -1.038  1.00  0.00     0.015 C 
BRANCH  81  82
ATOM     82  C   UNL     1      10.961  -6.802  -0.619  1.00  0.00     0.001 C 
BRANCH  82  83
ATOM     83  C   UNL     1      11.150  -5.409  -0.034  1.00  0.00     0.000 CG0
ATOM     84  G   UNL     1      11.164  -4.279  -1.053  1.00  0.00     0.000 G0
ENDBRANCH  82  83
ENDBRANCH  81  82
ENDBRANCH  80  81
BRANCH  80  85
ATOM     85  C   UNL     1       9.611  -5.225  -2.946  1.00  0.00     0.094 C 
BRANCH  85  86
ATOM     86  C   UNL     1       9.900  -4.130  -1.899  1.00  0.00     0.026 C 
BRANCH  86  87
ATOM     87  C   UNL     1      11.164  -4.279  -1.053  1.00  0.00     0.002 CG0
ATOM     88  G   UNL     1      11.150  -5.409  -0.034  1.00  0.00     0.000 G0
ENDBRANCH  86  87
ENDBRANCH  85  86
BRANCH  85  89
ATOM     89  N   UNL     1      10.796  -5.342  -3.811  1.00  0.00    -0.352 N 
ATOM     90  C   UNL     1      10.994  -5.014  -5.121  1.00  0.00     0.223 C 
ATOM     91  H   UNL     1      11.587  -5.723  -3.365  1.00  0.00     0.163 HD
ATOM     92  O   UNL     1      12.116  -5.122  -5.601  1.00  0.00    -0.275 OA
BRANCH  90  93
ATOM     93  C   UNL     1       9.856  -4.509  -5.933  1.00  0.00     0.078 C 
ATOM     94  C   UNL     1       9.970  -3.164  -6.614  1.00  0.00     0.014 C 
ATOM     95  C   UNL     1       9.994  -4.419  -7.437  1.00  0.00     0.014 C 
ENDBRANCH  90  93
ENDBRANCH  85  89
ENDBRANCH  80  85
ENDBRANCH  77  80
ENDBRANCH  75  76
ENDBRANCH  74  75
ENDBRANCH   1  74
TORSDOF 15
