REMARK SMILES COCc1cccc(O[C@@H](F)C(=O)NCCCCCCNC(=O)c2ccc(-c3c4nc(c(-c5c(F)c(F)c(F)c(F)c5F)c5ccc([nH]5)c(-c5c(F)c(F)c(F)c(F)c5F)c5nc(c(-c6c(F)c(F)c(F)c(F)c6F)c6ccc3[nH]6)C=C5)C=C4)cc2)c1
REMARK SMILES IDX 16 1 15 2 14 3 12 4 13 5 10 7 11 8 9 9 8 10 4 11 5 12 87 13
REMARK SMILES IDX 6 14 7 15 3 16 2 17 1 18 17 19 18 20 19 21 20 22 21 23 22 24
REMARK SMILES IDX 23 26 24 27 25 28 86 29 26 30 85 31 27 32 28 33 29 34 79 35
REMARK SMILES IDX 30 36 84 37 78 38 80 39 31 40 83 41 77 42 76 43 32 45 64 46
REMARK SMILES IDX 44 47 63 48 45 49 48 50 62 51 81 52 46 53 47 54 61 56 82 57
REMARK SMILES IDX 49 58 33 59 34 60 42 61 35 62 36 63 40 64 43 65 37 66 38 67
REMARK SMILES IDX 41 68 39 69 65 70 66 71 74 72 67 73 68 74 72 75 75 76 69 77
REMARK SMILES IDX 70 78 73 79 71 80 50 81 51 82 59 83 52 84 53 85 57 86 60 87
REMARK SMILES IDX 54 88 55 89 58 90 56 91
REMARK H PARENT 14 6 21 25 80 44 48 55
REMARK Flexibility Score: inf
ROOT
ATOM      1  C   UNL     1       2.728   0.468   2.659  1.00  0.00     0.021 C 
ENDROOT
BRANCH   1   2
ATOM      2  C   UNL     1       2.678  -0.527   1.494  1.00  0.00     0.116 C 
BRANCH   2   3
ATOM      3  N   UNL     1       3.402  -1.743   1.814  1.00  0.00    -0.350 N 
ATOM      4  C   UNL     1       2.945  -3.017   2.020  1.00  0.00     0.294 C 
ATOM      5  O   UNL     1       3.785  -3.854   2.376  1.00  0.00    -0.267 OA
ATOM      6  H   UNL     1       4.377  -1.635   1.896  1.00  0.00     0.163 HD
BRANCH   4   7
ATOM      7  C   UNL     1       1.460  -3.424   1.808  1.00  0.00     0.440 C 
ATOM      8  F   UNL     1       0.912  -2.858   0.691  1.00  0.00    -0.191 F 
BRANCH   7   9
ATOM      9  O   UNL     1       0.569  -3.337   2.925  1.00  0.00    -0.452 OA
BRANCH   9  10
ATOM     10  C   UNL     1       0.020  -2.120   3.197  1.00  0.00     0.124 A 
ATOM     11  C   UNL     1      -1.052  -0.040   2.535  1.00  0.00    -0.019 A 
ATOM     12  C   UNL     1      -0.954   0.407   3.862  1.00  0.00     0.006 A 
ATOM     13  C   UNL     1      -0.639  -1.345   2.244  1.00  0.00     0.052 A 
ATOM     14  C   UNL     1      -0.421  -0.420   4.854  1.00  0.00     0.004 A 
ATOM     15  C   UNL     1       0.081  -1.677   4.516  1.00  0.00     0.046 A 
BRANCH  11  16
ATOM     16  C   UNL     1      -1.516   0.916   1.458  1.00  0.00     0.195 C 
BRANCH  16  17
ATOM     17  O   UNL     1      -1.706   0.340   0.165  1.00  0.00    -0.380 OA
ATOM     18  C   UNL     1      -0.542   0.330  -0.654  1.00  0.00     0.195 C 
ENDBRANCH  16  17
ENDBRANCH  11  16
ENDBRANCH   9  10
ENDBRANCH   7   9
ENDBRANCH   4   7
ENDBRANCH   2   3
ENDBRANCH   1   2
BRANCH   1  19
ATOM     19  C   UNL     1       3.734   1.608   2.462  1.00  0.00     0.002 C 
BRANCH  19  20
ATOM     20  C   UNL     1       3.308   2.691   1.459  1.00  0.00     0.002 C 
BRANCH  20  21
ATOM     21  C   UNL     1       1.990   3.416   1.755  1.00  0.00     0.021 C 
BRANCH  21  22
ATOM     22  C   UNL     1       1.860   4.050   3.140  1.00  0.00     0.116 C 
BRANCH  22  23
ATOM     23  N   UNL     1       2.770   5.167   3.323  1.00  0.00    -0.352 N 
ATOM     24  C   UNL     1       2.515   6.496   3.558  1.00  0.00     0.251 C 
ATOM     25  H   UNL     1       3.724   4.933   3.269  1.00  0.00     0.163 HD
ATOM     26  O   UNL     1       3.434   7.307   3.487  1.00  0.00    -0.269 OA
BRANCH  24  27
ATOM     27  C   UNL     1       1.152   6.977   3.892  1.00  0.00     0.039 A 
ATOM     28  C   UNL     1       0.719   8.189   3.339  1.00  0.00     0.014 A 
ATOM     29  C   UNL     1       0.334   6.306   4.805  1.00  0.00     0.014 A 
ATOM     30  C   UNL     1      -0.538   8.706   3.670  1.00  0.00     0.010 A 
ATOM     31  C   UNL     1      -0.944   6.795   5.093  1.00  0.00     0.010 A 
ATOM     32  C   UNL     1      -1.389   8.006   4.539  1.00  0.00    -0.014 A 
BRANCH  32  33
ATOM     33  C   UNL     1      -2.728   8.545   4.899  1.00  0.00     0.031 A 
ATOM     34  C   UNL     1      -3.014   8.994   6.306  1.00  0.00     0.074 A 
ATOM     35  C   UNL     1      -3.705   8.593   3.973  1.00  0.00     0.049 A 
ATOM     36  N   UNL     1      -4.132   9.437   6.825  1.00  0.00    -0.248 NA
ATOM     37  C   UNL     1      -1.900   8.914   7.263  1.00  0.00     0.031 C 
ATOM     38  C   UNL     1      -3.574   8.159   2.583  1.00  0.00     0.029 A 
ATOM     39  N   UNL     1      -5.008   9.021   4.068  1.00  0.00    -0.354 N 
ATOM     40  C   UNL     1      -3.863   9.668   8.168  1.00  0.00     0.074 A 
ATOM     41  C   UNL     1      -2.487   9.279   8.394  1.00  0.00     0.031 C 
ATOM     42  C   UNL     1      -4.743   8.354   1.950  1.00  0.00     0.029 A 
ATOM     43  C   UNL     1      -5.713   8.901   2.896  1.00  0.00     0.049 A 
ATOM     44  H   UNL     1      -5.398   9.379   4.897  1.00  0.00     0.167 HD
ATOM     45  C   UNL     1      -4.680  10.175   9.123  1.00  0.00     0.037 A 
ATOM     46  C   UNL     1      -6.997   9.194   2.615  1.00  0.00     0.037 A 
ATOM     47  C   UNL     1      -6.037  10.598   8.895  1.00  0.00     0.049 A 
ATOM     48  C   UNL     1      -7.881   9.767   3.688  1.00  0.00     0.074 A 
ATOM     49  C   UNL     1      -6.919  11.187   9.785  1.00  0.00     0.029 A 
ATOM     50  N   UNL     1      -6.709  10.479   7.688  1.00  0.00    -0.354 N 
ATOM     51  N   UNL     1      -7.596  10.034   4.939  1.00  0.00    -0.248 NA
ATOM     52  C   UNL     1      -9.265  10.084   3.308  1.00  0.00     0.031 C 
ATOM     53  C   UNL     1      -8.137  11.391   9.127  1.00  0.00     0.029 A 
ATOM     54  C   UNL     1      -8.001  10.966   7.815  1.00  0.00     0.049 A 
ATOM     55  H   UNL     1      -6.325  10.103   6.863  1.00  0.00     0.167 HD
ATOM     56  C   UNL     1      -8.753  10.571   5.487  1.00  0.00     0.074 A 
ATOM     57  C   UNL     1      -9.742  10.604   4.430  1.00  0.00     0.031 C 
ATOM     58  C   UNL     1      -8.974  10.997   6.755  1.00  0.00     0.037 A 
BRANCH  45  59
ATOM     59  C   UNL     1      -4.125  10.304  10.511  1.00  0.00     0.064 A 
ATOM     60  C   UNL     1      -3.163  11.273  10.832  1.00  0.00     0.173 A 
ATOM     61  C   UNL     1      -4.586   9.470  11.542  1.00  0.00     0.173 A 
ATOM     62  F   UNL     1      -2.683  12.087   9.879  1.00  0.00    -0.203 F 
ATOM     63  C   UNL     1      -2.661  11.384  12.125  1.00  0.00     0.198 A 
ATOM     64  C   UNL     1      -4.101   9.602  12.841  1.00  0.00     0.198 A 
ATOM     65  F   UNL     1      -5.511   8.532  11.291  1.00  0.00    -0.203 F 
ATOM     66  F   UNL     1      -1.708  12.287  12.397  1.00  0.00    -0.200 F 
ATOM     67  C   UNL     1      -3.134  10.553  13.130  1.00  0.00     0.200 A 
ATOM     68  F   UNL     1      -4.567   8.806  13.813  1.00  0.00    -0.200 F 
ATOM     69  F   UNL     1      -2.652  10.664  14.375  1.00  0.00    -0.200 F 
ENDBRANCH  45  59
BRANCH  46  70
ATOM     70  C   UNL     1      -7.519   8.974   1.242  1.00  0.00     0.064 A 
ATOM     71  C   UNL     1      -7.794  10.058   0.397  1.00  0.00     0.173 A 
ATOM     72  C   UNL     1      -7.747   7.683   0.746  1.00  0.00     0.173 A 
ATOM     73  F   UNL     1      -7.612  11.312   0.837  1.00  0.00    -0.203 F 
ATOM     74  C   UNL     1      -8.292   9.859  -0.889  1.00  0.00     0.198 A 
ATOM     75  C   UNL     1      -8.223   7.484  -0.548  1.00  0.00     0.198 A 
ATOM     76  F   UNL     1      -7.497   6.614   1.516  1.00  0.00    -0.203 F 
ATOM     77  F   UNL     1      -8.581  10.914  -1.663  1.00  0.00    -0.200 F 
ATOM     78  C   UNL     1      -8.500   8.572  -1.363  1.00  0.00     0.200 A 
ATOM     79  F   UNL     1      -8.412   6.240  -1.007  1.00  0.00    -0.200 F 
ATOM     80  F   UNL     1      -8.972   8.382  -2.602  1.00  0.00    -0.200 F 
ENDBRANCH  46  70
BRANCH  58  81
ATOM     81  C   UNL     1     -10.329  11.561   7.064  1.00  0.00     0.064 A 
ATOM     82  C   UNL     1     -11.455  10.734   7.193  1.00  0.00     0.173 A 
ATOM     83  C   UNL     1     -10.497  12.938   7.269  1.00  0.00     0.173 A 
ATOM     84  F   UNL     1     -11.348   9.412   6.990  1.00  0.00    -0.203 F 
ATOM     85  C   UNL     1     -12.704  11.270   7.497  1.00  0.00     0.198 A 
ATOM     86  C   UNL     1     -11.742  13.467   7.597  1.00  0.00     0.198 A 
ATOM     87  F   UNL     1      -9.450  13.770   7.162  1.00  0.00    -0.203 F 
ATOM     88  F   UNL     1     -13.774  10.466   7.576  1.00  0.00    -0.200 F 
ATOM     89  C   UNL     1     -12.845  12.634   7.705  1.00  0.00     0.200 A 
ATOM     90  F   UNL     1     -11.876  14.784   7.807  1.00  0.00    -0.200 F 
ATOM     91  F   UNL     1     -14.047  13.146   8.002  1.00  0.00    -0.200 F 
ENDBRANCH  58  81
ENDBRANCH  32  33
ENDBRANCH  24  27
ENDBRANCH  22  23
ENDBRANCH  21  22
ENDBRANCH  20  21
ENDBRANCH  19  20
ENDBRANCH   1  19
TORSDOF 17
