REMARK SMILES Cc1nonc1C[C@@]1(C(=O)NCCCCCCNC(=O)c2ccc(-c3c4nc(c(-c5c(F)c(F)c(F)c(F)c5F)c5ccc([nH]5)c(-c5c(F)c(F)c(F)c(F)c5F)c5nc(c(-c6c(F)c(F)c(F)c(F)c6F)c6ccc3[nH]6)C=C5)C=C4)cc2)CCC[NH2+]C1
REMARK SMILES IDX 14 1 13 2 12 3 11 4 9 5 10 6 8 8 84 9 88 10 85 11 87 12
REMARK SMILES IDX 86 13 7 16 6 17 1 18 2 19 3 20 4 21 5 22 15 23 16 24 17 25
REMARK SMILES IDX 18 26 19 27 20 29 21 30 22 31 83 32 23 33 82 34 24 35 25 36
REMARK SMILES IDX 26 37 76 38 27 39 81 40 75 41 77 42 28 43 80 44 74 45 73 46
REMARK SMILES IDX 29 48 61 49 41 50 60 51 42 52 45 53 59 54 78 55 43 56 44 57
REMARK SMILES IDX 58 59 79 60 46 61 30 62 31 63 39 64 32 65 33 66 37 67 40 68
REMARK SMILES IDX 34 69 35 70 38 71 36 72 62 73 63 74 71 75 64 76 65 77 69 78
REMARK SMILES IDX 72 79 66 80 67 81 70 82 68 83 47 84 48 85 56 86 49 87 50 88
REMARK SMILES IDX 54 89 57 90 51 91 52 92 55 93 53 94
REMARK H PARENT 11 7 87 14 87 15 18 28 77 47 45 58
REMARK Flexibility Score: inf
ROOT
ATOM      1  C   UNL     1       3.812   3.910   1.855  1.00  0.00     0.002 C 
ENDROOT
BRANCH   1   2
ATOM      2  C   UNL     1       3.164   4.547   0.618  1.00  0.00     0.021 C 
BRANCH   2   3
ATOM      3  C   UNL     1       2.534   3.544  -0.349  1.00  0.00     0.116 C 
BRANCH   3   4
ATOM      4  N   UNL     1       1.413   2.878   0.274  1.00  0.00    -0.355 N 
ATOM      5  C   UNL     1       0.087   2.804   0.004  1.00  0.00     0.232 C 
ATOM      6  O   UNL     1      -0.583   2.260   0.890  1.00  0.00    -0.274 OA
ATOM      7  H   UNL     1       1.670   2.364   1.073  1.00  0.00     0.163 HD
BRANCH   5   8
ATOM      8  C   UNL     1      -0.556   3.325  -1.302  1.00  0.00     0.104 C 
ATOM      9  C   UNL     1      -2.086   3.016  -1.283  1.00  0.00     0.029 C 
ATOM     10  C   UNL     1       0.052   2.590  -2.530  1.00  0.00     0.277 C 
ATOM     11  C   UNL     1      -2.405   1.527  -1.450  1.00  0.00     0.063 C 
ATOM     12  N   UNL     1      -0.255   1.161  -2.600  1.00  0.00    -0.345 N 
ATOM     13  C   UNL     1      -1.695   0.927  -2.656  1.00  0.00     0.260 C 
ATOM     14  H   UNL     1       0.178   0.770  -3.436  1.00  0.00     0.346 HD
ATOM     15  H   UNL     1       0.111   0.714  -1.759  1.00  0.00     0.346 HD
BRANCH   8  16
ATOM     16  C   UNL     1      -0.358   4.853  -1.513  1.00  0.00     0.085 C 
BRANCH  16  17
ATOM     17  C   UNL     1      -0.516   5.769  -0.346  1.00  0.00     0.109 A 
ATOM     18  C   UNL     1       1.115   7.750  -0.905  1.00  0.00     0.073 C 
ATOM     19  C   UNL     1       0.118   7.008  -0.104  1.00  0.00     0.105 A 
ATOM     20  N   UNL     1      -0.331   7.522   1.043  1.00  0.00    -0.055 NA
ATOM     21  O   UNL     1      -1.265   6.603   1.507  1.00  0.00    -0.244 OA
ATOM     22  N   UNL     1      -1.391   5.534   0.631  1.00  0.00    -0.055 NA
ENDBRANCH  16  17
ENDBRANCH   8  16
ENDBRANCH   5   8
ENDBRANCH   3   4
ENDBRANCH   2   3
ENDBRANCH   1   2
BRANCH   1  23
ATOM     23  C   UNL     1       4.927   2.901   1.563  1.00  0.00     0.002 C 
BRANCH  23  24
ATOM     24  C   UNL     1       6.055   3.424   0.673  1.00  0.00     0.021 C 
BRANCH  24  25
ATOM     25  C   UNL     1       6.752   4.670   1.204  1.00  0.00     0.116 C 
BRANCH  25  26
ATOM     26  N   UNL     1       7.486   4.417   2.434  1.00  0.00    -0.352 N 
ATOM     27  C   UNL     1       8.776   4.770   2.746  1.00  0.00     0.251 C 
ATOM     28  H   UNL     1       6.994   3.930   3.133  1.00  0.00     0.163 HD
ATOM     29  O   UNL     1       9.316   4.352   3.764  1.00  0.00    -0.269 OA
BRANCH  27  30
ATOM     30  C   UNL     1       9.523   5.644   1.819  1.00  0.00     0.039 A 
ATOM     31  C   UNL     1      10.799   5.261   1.397  1.00  0.00     0.014 A 
ATOM     32  C   UNL     1       8.942   6.824   1.346  1.00  0.00     0.014 A 
ATOM     33  C   UNL     1      11.470   6.032   0.446  1.00  0.00     0.010 A 
ATOM     34  C   UNL     1       9.583   7.552   0.351  1.00  0.00     0.010 A 
ATOM     35  C   UNL     1      10.853   7.165  -0.108  1.00  0.00    -0.014 A 
BRANCH  35  36
ATOM     36  C   UNL     1      11.513   7.989  -1.150  1.00  0.00     0.031 A 
ATOM     37  C   UNL     1      11.861   9.419  -0.847  1.00  0.00     0.074 A 
ATOM     38  C   UNL     1      11.705   7.492  -2.387  1.00  0.00     0.049 A 
ATOM     39  N   UNL     1      12.268  10.364  -1.654  1.00  0.00    -0.248 NA
ATOM     40  C   UNL     1      11.696   9.849   0.551  1.00  0.00     0.031 C 
ATOM     41  C   UNL     1      11.390   6.127  -2.810  1.00  0.00     0.029 A 
ATOM     42  N   UNL     1      12.190   8.089  -3.524  1.00  0.00    -0.354 N 
ATOM     43  C   UNL     1      12.378  11.505  -0.870  1.00  0.00     0.074 A 
ATOM     44  C   UNL     1      11.953  11.145   0.466  1.00  0.00     0.031 C 
ATOM     45  C   UNL     1      11.697   5.989  -4.110  1.00  0.00     0.029 A 
ATOM     46  C   UNL     1      12.185   7.266  -4.623  1.00  0.00     0.049 A 
ATOM     47  H   UNL     1      12.512   9.020  -3.548  1.00  0.00     0.167 HD
ATOM     48  C   UNL     1      12.809  12.737  -1.229  1.00  0.00     0.037 A 
ATOM     49  C   UNL     1      12.516   7.522  -5.904  1.00  0.00     0.037 A 
ATOM     50  C   UNL     1      13.262  13.079  -2.551  1.00  0.00     0.049 A 
ATOM     51  C   UNL     1      12.984   8.902  -6.281  1.00  0.00     0.074 A 
ATOM     52  C   UNL     1      13.762  14.286  -3.007  1.00  0.00     0.029 A 
ATOM     53  N   UNL     1      13.276  12.206  -3.629  1.00  0.00    -0.354 N 
ATOM     54  N   UNL     1      13.116   9.966  -5.526  1.00  0.00    -0.248 NA
ATOM     55  C   UNL     1      13.349   9.119  -7.688  1.00  0.00     0.031 C 
ATOM     56  C   UNL     1      14.042  14.155  -4.371  1.00  0.00     0.029 A 
ATOM     57  C   UNL     1      13.764  12.853  -4.753  1.00  0.00     0.049 A 
ATOM     58  H   UNL     1      12.982  11.267  -3.600  1.00  0.00     0.167 HD
ATOM     59  C   UNL     1      13.617  10.962  -6.353  1.00  0.00     0.074 A 
ATOM     60  C   UNL     1      13.763  10.378  -7.670  1.00  0.00     0.031 C 
ATOM     61  C   UNL     1      13.930  12.245  -6.048  1.00  0.00     0.037 A 
BRANCH  48  62
ATOM     62  C   UNL     1      12.809  13.806  -0.176  1.00  0.00     0.064 A 
ATOM     63  C   UNL     1      13.707  13.778   0.902  1.00  0.00     0.173 A 
ATOM     64  C   UNL     1      11.916  14.885  -0.258  1.00  0.00     0.173 A 
ATOM     65  F   UNL     1      14.573  12.761   1.033  1.00  0.00    -0.203 F 
ATOM     66  C   UNL     1      13.689  14.773   1.875  1.00  0.00     0.198 A 
ATOM     67  C   UNL     1      11.922  15.895   0.701  1.00  0.00     0.198 A 
ATOM     68  F   UNL     1      11.039  14.963  -1.270  1.00  0.00    -0.203 F 
ATOM     69  F   UNL     1      14.520  14.696   2.924  1.00  0.00    -0.200 F 
ATOM     70  C   UNL     1      12.802  15.834   1.771  1.00  0.00     0.200 A 
ATOM     71  F   UNL     1      11.073  16.926   0.591  1.00  0.00    -0.200 F 
ATOM     72  F   UNL     1      12.790  16.794   2.706  1.00  0.00    -0.200 F 
ENDBRANCH  48  62
BRANCH  49  73
ATOM     73  C   UNL     1      12.436   6.442  -6.922  1.00  0.00     0.064 A 
ATOM     74  C   UNL     1      13.600   5.897  -7.481  1.00  0.00     0.173 A 
ATOM     75  C   UNL     1      11.204   5.938  -7.361  1.00  0.00     0.173 A 
ATOM     76  F   UNL     1      14.802   6.362  -7.109  1.00  0.00    -0.203 F 
ATOM     77  C   UNL     1      13.535   4.902  -8.454  1.00  0.00     0.198 A 
ATOM     78  C   UNL     1      11.140   4.923  -8.314  1.00  0.00     0.198 A 
ATOM     79  F   UNL     1      10.060   6.422  -6.854  1.00  0.00    -0.203 F 
ATOM     80  F   UNL     1      14.662   4.430  -9.003  1.00  0.00    -0.200 F 
ATOM     81  C   UNL     1      12.305   4.412  -8.866  1.00  0.00     0.200 A 
ATOM     82  F   UNL     1       9.949   4.443  -8.700  1.00  0.00    -0.200 F 
ATOM     83  F   UNL     1      12.242   3.453  -9.799  1.00  0.00    -0.200 F 
ENDBRANCH  49  73
BRANCH  61  84
ATOM     84  C   UNL     1      14.524  13.092  -7.134  1.00  0.00     0.064 A 
ATOM     85  C   UNL     1      13.748  13.596  -8.186  1.00  0.00     0.173 A 
ATOM     86  C   UNL     1      15.878  13.460  -7.077  1.00  0.00     0.173 A 
ATOM     87  F   UNL     1      12.453  13.261  -8.291  1.00  0.00    -0.203 F 
ATOM     88  C   UNL     1      14.309  14.430  -9.151  1.00  0.00     0.198 A 
ATOM     89  C   UNL     1      16.428  14.315  -8.028  1.00  0.00     0.198 A 
ATOM     90  F   UNL     1      16.660  13.008  -6.086  1.00  0.00    -0.203 F 
ATOM     91  F   UNL     1      13.557  14.875 -10.167  1.00  0.00    -0.200 F 
ATOM     92  C   UNL     1      15.644  14.796  -9.065  1.00  0.00     0.200 A 
ATOM     93  F   UNL     1      17.715  14.678  -7.936  1.00  0.00    -0.200 F 
ATOM     94  F   UNL     1      16.177  15.610  -9.986  1.00  0.00    -0.200 F 
ENDBRANCH  61  84
ENDBRANCH  35  36
ENDBRANCH  27  30
ENDBRANCH  25  26
ENDBRANCH  24  25
ENDBRANCH  23  24
ENDBRANCH   1  23
TORSDOF 15
