REMARK SMILES O=C(Cn1c(SCCOc2ccccc2Cl)nc2ccccc21)NCCCCCCNC(=O)c1ccc(-c2c3nc(c(-c4c(F)c(F)c(F)c(F)c4F)c4ccc([nH]4)c(-c4c(F)c(F)c(F)c(F)c4F)c4nc(c(-c5c(F)c(F)c(F)c(F)c5F)c5ccc2[nH]5)C=C4)C=C3)cc1
REMARK SMILES IDX 25 1 24 2 1 3 2 4 3 6 4 7 5 8 23 9 17 10 18 11 22 12 19 13
REMARK SMILES IDX 21 14 20 15 6 16 7 17 8 18 9 19 10 20 11 21 15 22 12 23
REMARK SMILES IDX 14 24 16 25 13 26 26 27 27 28 28 29 29 30 30 31 31 32 32 33
REMARK SMILES IDX 33 35 34 36 35 37 96 38 36 39 95 40 37 41 38 42 39 43 89 44
REMARK SMILES IDX 40 45 94 46 88 47 90 48 41 49 93 50 87 51 86 52 42 54 74 55
REMARK SMILES IDX 54 56 73 57 55 58 58 59 72 60 91 61 56 62 57 63 71 65 92 66
REMARK SMILES IDX 59 67 43 68 44 69 52 70 45 71 46 72 50 73 53 74 47 75 48 76
REMARK SMILES IDX 51 77 49 78 75 79 76 80 84 81 77 82 78 83 82 84 85 85 79 86
REMARK SMILES IDX 80 87 83 88 81 89 60 90 61 91 69 92 62 93 63 94 67 95 70 96
REMARK SMILES IDX 64 97 65 98 68 99 66 100
REMARK H PARENT 24 5 31 34 90 53 58 64
REMARK Flexibility Score: inf
ROOT
ATOM      1  C   UNL     1       2.525   1.280   2.523  1.00  0.00     0.116 C 
ENDROOT
BRANCH   1   2
ATOM      2  N   UNL     1       3.292   0.452   1.610  1.00  0.00    -0.355 N 
ATOM      3  O   UNL     1       1.611  -1.041   1.231  1.00  0.00    -0.273 OA
ATOM      4  C   UNL     1       2.704  -0.590   0.925  1.00  0.00     0.240 C 
ATOM      5  H   UNL     1       4.250   0.637   1.478  1.00  0.00     0.163 HD
BRANCH   4   6
ATOM      6  C   UNL     1       3.503  -1.191  -0.199  1.00  0.00     0.224 C 
BRANCH   6   7
ATOM      7  N   UNL     1       4.078  -0.335  -1.230  1.00  0.00    -0.309 N 
ATOM      8  C   UNL     1       3.993   1.006  -1.523  1.00  0.00     0.169 A 
ATOM      9  C   UNL     1       4.907  -0.898  -2.205  1.00  0.00     0.069 A 
ATOM     10  N   UNL     1       4.911   1.351  -2.405  1.00  0.00    -0.222 NA
ATOM     11  C   UNL     1       5.427   0.188  -2.894  1.00  0.00     0.090 A 
ATOM     12  C   UNL     1       5.215  -2.222  -2.555  1.00  0.00     0.028 A 
ATOM     13  C   UNL     1       6.310  -0.022  -3.965  1.00  0.00     0.030 A 
ATOM     14  C   UNL     1       6.047  -2.416  -3.666  1.00  0.00     0.002 A 
ATOM     15  C   UNL     1       6.594  -1.336  -4.357  1.00  0.00     0.002 A 
BRANCH   8  16
ATOM     16  S   UNL     1       2.966   2.253  -0.900  1.00  0.00    -0.084 SA
BRANCH  16  17
ATOM     17  C   UNL     1       1.252   1.691  -0.686  1.00  0.00     0.119 C 
BRANCH  17  18
ATOM     18  C   UNL     1       0.417   0.851  -1.658  1.00  0.00     0.241 C 
BRANCH  18  19
ATOM     19  O   UNL     1       1.094  -0.174  -2.364  1.00  0.00    -0.491 OA
BRANCH  19  20
ATOM     20  C   UNL     1       1.638   0.157  -3.579  1.00  0.00     0.137 A 
ATOM     21  C   UNL     1       1.850   1.473  -4.005  1.00  0.00     0.048 A 
ATOM     22  C   UNL     1       2.139  -0.895  -4.359  1.00  0.00     0.083 A 
ATOM     23  C   UNL     1       2.668   1.739  -5.101  1.00  0.00     0.004 A 
ATOM     24  C   UNL     1       2.925  -0.627  -5.481  1.00  0.00     0.024 A 
ATOM     25  Cl  UNL     1       1.841  -2.547  -3.939  1.00  0.00    -0.080 Cl
ATOM     26  C   UNL     1       3.220   0.691  -5.828  1.00  0.00     0.002 A 
ENDBRANCH  19  20
ENDBRANCH  18  19
ENDBRANCH  17  18
ENDBRANCH  16  17
ENDBRANCH   8  16
ENDBRANCH   6   7
ENDBRANCH   4   6
ENDBRANCH   1   2
BRANCH   1  27
ATOM     27  C   UNL     1       3.236   1.510   3.836  1.00  0.00     0.021 C 
BRANCH  27  28
ATOM     28  C   UNL     1       4.631   2.115   3.683  1.00  0.00     0.002 C 
BRANCH  28  29
ATOM     29  C   UNL     1       4.699   3.512   3.053  1.00  0.00     0.002 C 
BRANCH  29  30
ATOM     30  C   UNL     1       3.871   4.614   3.730  1.00  0.00     0.021 C 
BRANCH  30  31
ATOM     31  C   UNL     1       3.886   4.599   5.259  1.00  0.00     0.116 C 
BRANCH  31  32
ATOM     32  N   UNL     1       5.213   4.517   5.831  1.00  0.00    -0.352 N 
ATOM     33  C   UNL     1       6.162   5.397   6.242  1.00  0.00     0.251 C 
ATOM     34  H   UNL     1       5.501   3.584   5.952  1.00  0.00     0.163 HD
ATOM     35  O   UNL     1       7.173   4.901   6.747  1.00  0.00    -0.269 OA
BRANCH  33  36
ATOM     36  C   UNL     1       6.092   6.866   6.079  1.00  0.00     0.039 A 
ATOM     37  C   UNL     1       5.019   7.575   5.541  1.00  0.00     0.014 A 
ATOM     38  C   UNL     1       7.255   7.567   6.449  1.00  0.00     0.014 A 
ATOM     39  C   UNL     1       5.145   8.929   5.272  1.00  0.00     0.010 A 
ATOM     40  C   UNL     1       7.381   8.922   6.200  1.00  0.00     0.010 A 
ATOM     41  C   UNL     1       6.346   9.583   5.552  1.00  0.00    -0.014 A 
BRANCH  41  42
ATOM     42  C   UNL     1       6.451  10.987   5.189  1.00  0.00     0.031 A 
ATOM     43  C   UNL     1       5.471  11.885   5.863  1.00  0.00     0.074 A 
ATOM     44  C   UNL     1       7.411  11.446   4.363  1.00  0.00     0.049 A 
ATOM     45  N   UNL     1       4.572  12.642   5.322  1.00  0.00    -0.248 NA
ATOM     46  C   UNL     1       5.418  11.850   7.334  1.00  0.00     0.031 C 
ATOM     47  C   UNL     1       8.579  10.738   3.832  1.00  0.00     0.029 A 
ATOM     48  N   UNL     1       7.581  12.708   3.885  1.00  0.00    -0.354 N 
ATOM     49  C   UNL     1       3.932  13.294   6.374  1.00  0.00     0.074 A 
ATOM     50  C   UNL     1       4.413  12.688   7.589  1.00  0.00     0.031 C 
ATOM     51  C   UNL     1       9.446  11.635   3.308  1.00  0.00     0.029 A 
ATOM     52  C   UNL     1       8.830  12.950   3.334  1.00  0.00     0.049 A 
ATOM     53  H   UNL     1       6.875  13.393   3.926  1.00  0.00     0.167 HD
ATOM     54  C   UNL     1       3.179  14.411   6.181  1.00  0.00     0.037 A 
ATOM     55  C   UNL     1       9.331  14.163   2.996  1.00  0.00     0.037 A 
ATOM     56  C   UNL     1       2.766  14.548   4.812  1.00  0.00     0.049 A 
ATOM     57  C   UNL     1       8.181  15.092   2.852  1.00  0.00     0.074 A 
ATOM     58  C   UNL     1       1.948  13.819   3.972  1.00  0.00     0.029 A 
ATOM     59  N   UNL     1       3.488  15.379   3.994  1.00  0.00    -0.354 N 
ATOM     60  N   UNL     1       7.295  15.009   1.901  1.00  0.00    -0.248 NA
ATOM     61  C   UNL     1       7.769  15.839   4.031  1.00  0.00     0.031 C 
ATOM     62  C   UNL     1       2.573  13.892   2.693  1.00  0.00     0.029 A 
ATOM     63  C   UNL     1       3.702  14.701   2.820  1.00  0.00     0.049 A 
ATOM     64  H   UNL     1       3.794  16.290   4.207  1.00  0.00     0.167 HD
ATOM     65  C   UNL     1       6.090  15.315   2.516  1.00  0.00     0.074 A 
ATOM     66  C   UNL     1       6.455  15.894   3.806  1.00  0.00     0.031 C 
ATOM     67  C   UNL     1       4.912  14.813   2.043  1.00  0.00     0.037 A 
BRANCH  54  68
ATOM     68  C   UNL     1       3.077  15.536   7.175  1.00  0.00     0.064 A 
ATOM     69  C   UNL     1       2.101  16.537   7.010  1.00  0.00     0.173 A 
ATOM     70  C   UNL     1       4.088  15.817   8.119  1.00  0.00     0.173 A 
ATOM     71  F   UNL     1       1.114  16.387   6.113  1.00  0.00    -0.203 F 
ATOM     72  C   UNL     1       2.165  17.749   7.704  1.00  0.00     0.198 A 
ATOM     73  C   UNL     1       4.120  17.004   8.847  1.00  0.00     0.198 A 
ATOM     74  F   UNL     1       5.139  15.004   8.290  1.00  0.00    -0.203 F 
ATOM     75  F   UNL     1       1.278  18.718   7.436  1.00  0.00    -0.200 F 
ATOM     76  C   UNL     1       3.175  17.982   8.620  1.00  0.00     0.200 A 
ATOM     77  F   UNL     1       5.121  17.220   9.712  1.00  0.00    -0.200 F 
ATOM     78  F   UNL     1       3.269  19.162   9.246  1.00  0.00    -0.200 F 
ENDBRANCH  54  68
BRANCH  55  79
ATOM     79  C   UNL     1      10.718  14.659   3.169  1.00  0.00     0.064 A 
ATOM     80  C   UNL     1      11.136  15.847   2.545  1.00  0.00     0.173 A 
ATOM     81  C   UNL     1      11.554  14.158   4.186  1.00  0.00     0.173 A 
ATOM     82  F   UNL     1      10.377  16.412   1.595  1.00  0.00    -0.203 F 
ATOM     83  C   UNL     1      12.298  16.515   2.944  1.00  0.00     0.198 A 
ATOM     84  C   UNL     1      12.716  14.822   4.578  1.00  0.00     0.198 A 
ATOM     85  F   UNL     1      11.207  13.071   4.889  1.00  0.00    -0.203 F 
ATOM     86  F   UNL     1      12.625  17.685   2.377  1.00  0.00    -0.200 F 
ATOM     87  C   UNL     1      13.079  16.009   3.971  1.00  0.00     0.200 A 
ATOM     88  F   UNL     1      13.443  14.342   5.598  1.00  0.00    -0.200 F 
ATOM     89  F   UNL     1      14.151  16.687   4.403  1.00  0.00    -0.200 F 
ENDBRANCH  55  79
BRANCH  67  90
ATOM     90  C   UNL     1       4.939  14.113   0.712  1.00  0.00     0.064 A 
ATOM     91  C   UNL     1       5.661  12.932   0.462  1.00  0.00     0.173 A 
ATOM     92  C   UNL     1       4.099  14.579  -0.307  1.00  0.00     0.173 A 
ATOM     93  F   UNL     1       6.404  12.362   1.419  1.00  0.00    -0.203 F 
ATOM     94  C   UNL     1       5.580  12.279  -0.767  1.00  0.00     0.198 A 
ATOM     95  C   UNL     1       3.991  13.905  -1.520  1.00  0.00     0.198 A 
ATOM     96  F   UNL     1       3.341  15.668  -0.106  1.00  0.00    -0.203 F 
ATOM     97  F   UNL     1       6.289  11.160  -0.983  1.00  0.00    -0.200 F 
ATOM     98  C   UNL     1       4.740  12.762  -1.755  1.00  0.00     0.200 A 
ATOM     99  F   UNL     1       3.137  14.347  -2.453  1.00  0.00    -0.200 F 
ATOM    100  F   UNL     1       4.628  12.112  -2.922  1.00  0.00    -0.200 F 
ENDBRANCH  67  90
ENDBRANCH  41  42
ENDBRANCH  33  36
ENDBRANCH  31  32
ENDBRANCH  30  31
ENDBRANCH  29  30
ENDBRANCH  28  29
ENDBRANCH  27  28
ENDBRANCH   1  27
TORSDOF 19
