REMARK SMILES CCCC(=O)Nc1cccc(C(=O)N[C@@H](C(=O)NCCCCCCNC(=O)c2ccc(-c3c4nc(c(-c5c(F)c(F)c(F)c(F)c5F)c5ccc([nH]5)c(-c5c(F)c(F)c(F)c(F)c5F)c5nc(c(-c6c(F)c(F)c(F)c(F)c6F)c6ccc3[nH]6)C=C5)C=C4)cc2)C2=C(C)N=N[C@@H]2C)c1
REMARK SMILES IDX 20 1 19 2 18 3 16 4 17 5 15 7 14 8 12 9 13 10 11 12 7 13
REMARK SMILES IDX 8 14 98 15 9 16 10 17 6 18 4 19 5 20 3 22 2 23 1 24 91 25
REMARK SMILES IDX 92 26 96 27 93 28 94 29 95 30 97 31 21 32 22 33 23 34 24 35
REMARK SMILES IDX 25 36 26 37 27 39 28 40 29 41 90 42 30 43 89 44 31 45 32 46
REMARK SMILES IDX 33 47 83 48 34 49 88 50 82 51 84 52 35 53 87 54 81 55 80 56
REMARK SMILES IDX 36 58 68 59 48 60 67 61 49 62 52 63 66 64 85 65 50 66 51 67
REMARK SMILES IDX 65 69 86 70 53 71 37 72 38 73 46 74 39 75 40 76 44 77 47 78
REMARK SMILES IDX 41 79 42 80 45 81 43 82 69 83 70 84 78 85 71 86 72 87 76 88
REMARK SMILES IDX 79 89 73 90 74 91 77 92 75 93 54 94 55 95 63 96 56 97 57 98
REMARK SMILES IDX 61 99 64 100 58 101 59 102 62 103 60 104
REMARK H PARENT 18 6 14 11 6 21 25 38 84 57 52 68
REMARK Flexibility Score: inf
ROOT
ATOM      1  C   UNL     1      -1.589   2.398  -3.210  1.00  0.00     0.021 C 
ENDROOT
BRANCH   1   2
ATOM      2  C   UNL     1      -1.524   1.582  -1.929  1.00  0.00     0.116 C 
BRANCH   2   3
ATOM      3  N   UNL     1      -2.136   0.284  -2.046  1.00  0.00    -0.354 N 
ATOM      4  C   UNL     1      -1.681  -0.969  -1.760  1.00  0.00     0.247 C 
ATOM      5  O   UNL     1      -2.591  -1.800  -1.643  1.00  0.00    -0.272 OA
ATOM      6  H   UNL     1      -3.055   0.305  -2.399  1.00  0.00     0.163 HD
BRANCH   4   7
ATOM      7  C   UNL     1      -0.158  -1.342  -1.418  1.00  0.00     0.202 C 
BRANCH   7   8
ATOM      8  N   UNL     1       0.820  -0.554  -2.201  1.00  0.00    -0.337 N 
ATOM      9  C   UNL     1       1.602   0.581  -2.067  1.00  0.00     0.252 C 
ATOM     10  O   UNL     1       2.127   0.965  -3.120  1.00  0.00    -0.269 OA
ATOM     11  H   UNL     1       0.957  -0.961  -3.087  1.00  0.00     0.165 HD
BRANCH   9  12
ATOM     12  C   UNL     1       1.925   1.397  -0.829  1.00  0.00     0.041 A 
ATOM     13  C   UNL     1       1.682   2.154   1.494  1.00  0.00     0.041 A 
ATOM     14  C   UNL     1       2.943   2.748   1.447  1.00  0.00     0.026 A 
ATOM     15  C   UNL     1       1.132   1.580   0.327  1.00  0.00     0.040 A 
ATOM     16  C   UNL     1       3.699   2.680   0.282  1.00  0.00     0.003 A 
ATOM     17  C   UNL     1       3.200   2.002  -0.835  1.00  0.00     0.014 A 
BRANCH  13  18
ATOM     18  N   UNL     1       0.990   2.224   2.712  1.00  0.00    -0.326 N 
ATOM     19  C   UNL     1       0.335   1.294   3.470  1.00  0.00     0.224 C 
ATOM     20  O   UNL     1      -0.449   1.712   4.329  1.00  0.00    -0.275 OA
ATOM     21  H   UNL     1       0.972   3.128   3.100  1.00  0.00     0.169 HD
BRANCH  19  22
ATOM     22  C   UNL     1       0.735  -0.171   3.499  1.00  0.00     0.100 C 
BRANCH  22  23
ATOM     23  C   UNL     1       0.490  -1.010   2.274  1.00  0.00     0.006 C 
ATOM     24  C   UNL     1       1.756  -1.114   1.460  1.00  0.00     0.004 C 
ENDBRANCH  22  23
ENDBRANCH  19  22
ENDBRANCH  13  18
ENDBRANCH   9  12
ENDBRANCH   7   8
BRANCH   7  25
ATOM     25  C   UNL     1       0.069  -2.873  -1.627  1.00  0.00     0.011 C 
ATOM     26  C   UNL     1       0.709  -3.885  -0.987  1.00  0.00     0.064 C 
ATOM     27  C   UNL     1      -0.632  -3.618  -2.752  1.00  0.00     0.156 C 
ATOM     28  C   UNL     1       1.700  -4.014   0.124  1.00  0.00     0.069 C 
ATOM     29  N   UNL     1       0.388  -5.130  -1.480  1.00  0.00    -0.160 NA
ATOM     30  N   UNL     1      -0.415  -5.046  -2.426  1.00  0.00    -0.181 NA
ATOM     31  C   UNL     1       0.012  -3.404  -4.113  1.00  0.00     0.040 C 
ENDBRANCH   7  25
ENDBRANCH   4   7
ENDBRANCH   2   3
ENDBRANCH   1   2
BRANCH   1  32
ATOM     32  C   UNL     1      -2.899   3.172  -3.360  1.00  0.00     0.002 C 
BRANCH  32  33
ATOM     33  C   UNL     1      -3.136   4.240  -2.283  1.00  0.00     0.002 C 
BRANCH  33  34
ATOM     34  C   UNL     1      -2.044   5.309  -2.172  1.00  0.00     0.021 C 
BRANCH  34  35
ATOM     35  C   UNL     1      -1.770   6.065  -3.468  1.00  0.00     0.116 C 
BRANCH  35  36
ATOM     36  N   UNL     1      -2.964   6.723  -3.974  1.00  0.00    -0.352 N 
ATOM     37  C   UNL     1      -3.163   8.039  -4.315  1.00  0.00     0.251 C 
ATOM     38  H   UNL     1      -3.747   6.138  -4.090  1.00  0.00     0.163 HD
ATOM     39  O   UNL     1      -4.287   8.463  -4.517  1.00  0.00    -0.269 OA
BRANCH  37  40
ATOM     40  C   UNL     1      -1.998   8.943  -4.422  1.00  0.00     0.039 A 
ATOM     41  C   UNL     1      -2.087  10.222  -3.870  1.00  0.00     0.014 A 
ATOM     42  C   UNL     1      -0.832   8.532  -5.074  1.00  0.00     0.014 A 
ATOM     43  C   UNL     1      -0.981  11.072  -3.923  1.00  0.00     0.010 A 
ATOM     44  C   UNL     1       0.292   9.350  -5.057  1.00  0.00     0.010 A 
ATOM     45  C   UNL     1       0.227  10.630  -4.488  1.00  0.00    -0.014 A 
BRANCH  45  46
ATOM     46  C   UNL     1       1.432  11.495  -4.492  1.00  0.00     0.031 A 
ATOM     47  C   UNL     1       2.026  11.955  -5.793  1.00  0.00     0.074 A 
ATOM     48  C   UNL     1       2.023  11.814  -3.325  1.00  0.00     0.049 A 
ATOM     49  N   UNL     1       3.108  12.662  -6.005  1.00  0.00    -0.248 NA
ATOM     50  C   UNL     1       1.328  11.545  -7.022  1.00  0.00     0.031 C 
ATOM     51  C   UNL     1       1.565  11.389  -2.001  1.00  0.00     0.029 A 
ATOM     52  N   UNL     1       3.143  12.563  -3.063  1.00  0.00    -0.354 N 
ATOM     53  C   UNL     1       3.223  12.770  -7.385  1.00  0.00     0.074 A 
ATOM     54  C   UNL     1       2.137  12.009  -7.962  1.00  0.00     0.031 C 
ATOM     55  C   UNL     1       2.381  11.903  -1.067  1.00  0.00     0.029 A 
ATOM     56  C   UNL     1       3.443  12.657  -1.726  1.00  0.00     0.049 A 
ATOM     57  H   UNL     1       3.681  12.993  -3.768  1.00  0.00     0.167 HD
ATOM     58  C   UNL     1       4.138  13.464  -8.104  1.00  0.00     0.037 A 
ATOM     59  C   UNL     1       4.466  13.273  -1.104  1.00  0.00     0.037 A 
ATOM     60  C   UNL     1       5.206  14.234  -7.522  1.00  0.00     0.049 A 
ATOM     61  C   UNL     1       5.480  14.019  -1.928  1.00  0.00     0.074 A 
ATOM     62  C   UNL     1       6.152  15.016  -8.160  1.00  0.00     0.029 A 
ATOM     63  N   UNL     1       5.474  14.312  -6.162  1.00  0.00    -0.354 N 
ATOM     64  N   UNL     1       5.539  14.175  -3.229  1.00  0.00    -0.248 NA
ATOM     65  C   UNL     1       6.568  14.682  -1.196  1.00  0.00     0.031 C 
ATOM     66  C   UNL     1       7.026  15.521  -7.192  1.00  0.00     0.029 A 
ATOM     67  C   UNL     1       6.588  15.107  -5.945  1.00  0.00     0.049 A 
ATOM     68  H   UNL     1       4.950  13.868  -5.457  1.00  0.00     0.167 HD
ATOM     69  C   UNL     1       6.647  14.976  -3.468  1.00  0.00     0.074 A 
ATOM     70  C   UNL     1       7.222  15.288  -2.177  1.00  0.00     0.031 C 
ATOM     71  C   UNL     1       7.144  15.415  -4.651  1.00  0.00     0.037 A 
BRANCH  58  72
ATOM     72  C   UNL     1       4.024  13.422  -9.601  1.00  0.00     0.064 A 
ATOM     73  C   UNL     1       2.962  14.041 -10.278  1.00  0.00     0.173 A 
ATOM     74  C   UNL     1       5.011  12.790 -10.373  1.00  0.00     0.173 A 
ATOM     75  F   UNL     1       1.985  14.650  -9.589  1.00  0.00    -0.203 F 
ATOM     76  C   UNL     1       2.876  14.003 -11.667  1.00  0.00     0.198 A 
ATOM     77  C   UNL     1       4.941  12.783 -11.764  1.00  0.00     0.198 A 
ATOM     78  F   UNL     1       6.052  12.188  -9.779  1.00  0.00    -0.203 F 
ATOM     79  F   UNL     1       1.825  14.556 -12.288  1.00  0.00    -0.200 F 
ATOM     80  C   UNL     1       3.869  13.382 -12.409  1.00  0.00     0.200 A 
ATOM     81  F   UNL     1       5.910  12.196 -12.479  1.00  0.00    -0.200 F 
ATOM     82  F   UNL     1       3.791  13.355 -13.747  1.00  0.00    -0.200 F 
ENDBRANCH  58  72
BRANCH  59  83
ATOM     83  C   UNL     1       4.573  13.225   0.378  1.00  0.00     0.064 A 
ATOM     84  C   UNL     1       4.401  14.382   1.151  1.00  0.00     0.173 A 
ATOM     85  C   UNL     1       4.861  12.029   1.052  1.00  0.00     0.173 A 
ATOM     86  F   UNL     1       4.142  15.554   0.553  1.00  0.00    -0.203 F 
ATOM     87  C   UNL     1       4.539  14.349   2.538  1.00  0.00     0.198 A 
ATOM     88  C   UNL     1       4.966  11.991   2.440  1.00  0.00     0.198 A 
ATOM     89  F   UNL     1       5.029  10.891   0.361  1.00  0.00    -0.203 F 
ATOM     90  F   UNL     1       4.422  15.480   3.247  1.00  0.00    -0.200 F 
ATOM     91  C   UNL     1       4.816  13.153   3.181  1.00  0.00     0.200 A 
ATOM     92  F   UNL     1       5.217  10.829   3.059  1.00  0.00    -0.200 F 
ATOM     93  F   UNL     1       4.946  13.121   4.514  1.00  0.00    -0.200 F 
ENDBRANCH  59  83
BRANCH  71  94
ATOM     94  C   UNL     1       8.348  16.312  -4.603  1.00  0.00     0.064 A 
ATOM     95  C   UNL     1       9.613  15.833  -4.235  1.00  0.00     0.173 A 
ATOM     96  C   UNL     1       8.239  17.663  -4.970  1.00  0.00     0.173 A 
ATOM     97  F   UNL     1       9.768  14.553  -3.861  1.00  0.00    -0.203 F 
ATOM     98  C   UNL     1      10.718  16.679  -4.206  1.00  0.00     0.198 A 
ATOM     99  C   UNL     1       9.352  18.497  -4.974  1.00  0.00     0.198 A 
ATOM    100  F   UNL     1       7.053  18.171  -5.338  1.00  0.00    -0.203 F 
ATOM    101  F   UNL     1      11.906  16.212  -3.798  1.00  0.00    -0.200 F 
ATOM    102  C   UNL     1      10.589  18.007  -4.583  1.00  0.00     0.200 A 
ATOM    103  F   UNL     1       9.229  19.776  -5.356  1.00  0.00    -0.200 F 
ATOM    104  F   UNL     1      11.656  18.818  -4.564  1.00  0.00    -0.200 F 
ENDBRANCH  71  94
ENDBRANCH  45  46
ENDBRANCH  37  40
ENDBRANCH  35  36
ENDBRANCH  34  35
ENDBRANCH  33  34
ENDBRANCH  32  33
ENDBRANCH   1  32
TORSDOF 19
