REMARK SMILES CC(=O)Nc1cccc(-c2ccc(F)c(C(=O)NCCCCCCNC(=O)c3ccc(-c4c5nc(c(-c6c(F)c(F)c(F)c(F)c6F)c6ccc([nH]6)c(-c6c(F)c(F)c(F)c(F)c6F)c6nc(c(-c7c(F)c(F)c(F)c(F)c7F)c7ccc4[nH]7)C=C6)C=C5)cc3)c2)c1
REMARK SMILES IDX 21 1 20 2 19 3 18 4 16 5 17 6 15 8 10 9 11 10 91 11 12 12
REMARK SMILES IDX 13 13 14 14 9 15 5 16 6 17 92 18 7 19 8 20 4 21 1 22 2 23
REMARK SMILES IDX 3 24 22 26 23 27 24 28 25 29 26 30 27 32 28 33 29 34 90 35
REMARK SMILES IDX 30 36 89 37 31 38 32 39 33 40 83 41 34 42 88 43 82 44 84 45
REMARK SMILES IDX 35 46 87 47 81 48 80 49 36 51 68 52 48 53 67 54 49 55 52 56
REMARK SMILES IDX 66 57 85 58 50 59 51 60 65 62 86 63 53 64 37 65 38 66 46 67
REMARK SMILES IDX 39 68 40 69 44 70 47 71 41 72 42 73 45 74 43 75 69 76 70 77
REMARK SMILES IDX 78 78 71 79 72 80 76 81 79 82 73 83 74 84 77 85 75 86 54 87
REMARK SMILES IDX 55 88 63 89 56 90 57 91 61 92 64 93 58 94 59 95 62 96 60 97
REMARK H PARENT 18 7 4 25 25 31 84 50 52 61
REMARK Flexibility Score: inf
ROOT
ATOM      1  C   UNL     1       7.695   4.820   0.883  1.00  0.00     0.002 C 
ENDROOT
BRANCH   1   2
ATOM      2  C   UNL     1       7.079   3.828   1.868  1.00  0.00     0.021 C 
BRANCH   2   3
ATOM      3  C   UNL     1       6.559   2.518   1.288  1.00  0.00     0.116 C 
BRANCH   3   4
ATOM      4  N   UNL     1       7.577   1.662   0.701  1.00  0.00    -0.352 N 
ATOM      5  C   UNL     1       7.764   0.293   0.731  1.00  0.00     0.254 C 
ATOM      6  O   UNL     1       8.703  -0.170   0.088  1.00  0.00    -0.269 OA
ATOM      7  H   UNL     1       8.260   2.148   0.184  1.00  0.00     0.163 HD
BRANCH   5   8
ATOM      8  C   UNL     1       6.892  -0.614   1.526  1.00  0.00     0.076 A 
ATOM      9  C   UNL     1       4.784  -1.024   2.710  1.00  0.00    -0.017 A 
ATOM     10  C   UNL     1       5.346  -2.170   3.284  1.00  0.00     0.012 A 
ATOM     11  C   UNL     1       5.542  -0.333   1.746  1.00  0.00     0.025 A 
ATOM     12  C   UNL     1       6.647  -2.559   2.954  1.00  0.00     0.041 A 
ATOM     13  C   UNL     1       7.423  -1.764   2.109  1.00  0.00     0.135 A 
ATOM     14  F   UNL     1       8.699  -2.126   1.911  1.00  0.00    -0.206 F 
BRANCH   9  15
ATOM     15  C   UNL     1       3.516  -0.429   3.181  1.00  0.00    -0.016 A 
ATOM     16  C   UNL     1       1.508   0.892   2.701  1.00  0.00     0.041 A 
ATOM     17  C   UNL     1       1.340   1.117   4.070  1.00  0.00     0.026 A 
ATOM     18  C   UNL     1       2.593   0.124   2.273  1.00  0.00     0.034 A 
ATOM     19  C   UNL     1       2.209   0.537   4.994  1.00  0.00     0.003 A 
ATOM     20  C   UNL     1       3.287  -0.231   4.552  1.00  0.00     0.009 A 
BRANCH  16  21
ATOM     21  N   UNL     1       0.624   1.545   1.827  1.00  0.00    -0.326 N 
ATOM     22  C   UNL     1       0.705   0.056  -0.173  1.00  0.00     0.114 C 
ATOM     23  C   UNL     1       0.325   1.341   0.511  1.00  0.00     0.221 C 
ATOM     24  O   UNL     1      -0.307   2.209  -0.095  1.00  0.00    -0.275 OA
ATOM     25  H   UNL     1       0.128   2.289   2.240  1.00  0.00     0.169 HD
ENDBRANCH  16  21
ENDBRANCH   9  15
ENDBRANCH   5   8
ENDBRANCH   3   4
ENDBRANCH   2   3
ENDBRANCH   1   2
BRANCH   1  26
ATOM     26  C   UNL     1       6.830   5.223  -0.314  1.00  0.00     0.002 C 
BRANCH  26  27
ATOM     27  C   UNL     1       5.415   5.715   0.000  1.00  0.00     0.021 C 
BRANCH  27  28
ATOM     28  C   UNL     1       5.314   6.855   1.008  1.00  0.00     0.116 C 
BRANCH  28  29
ATOM     29  N   UNL     1       6.006   8.056   0.573  1.00  0.00    -0.352 N 
ATOM     30  C   UNL     1       5.547   9.347   0.471  1.00  0.00     0.251 C 
ATOM     31  H   UNL     1       6.946   7.926   0.312  1.00  0.00     0.163 HD
ATOM     32  O   UNL     1       6.241  10.205  -0.063  1.00  0.00    -0.269 OA
BRANCH  30  33
ATOM     33  C   UNL     1       4.205   9.706   0.982  1.00  0.00     0.039 A 
ATOM     34  C   UNL     1       3.389  10.531   0.203  1.00  0.00     0.014 A 
ATOM     35  C   UNL     1       3.757   9.254   2.226  1.00  0.00     0.014 A 
ATOM     36  C   UNL     1       2.104  10.853   0.644  1.00  0.00     0.010 A 
ATOM     37  C   UNL     1       2.450   9.513   2.630  1.00  0.00     0.010 A 
ATOM     38  C   UNL     1       1.611  10.319   1.846  1.00  0.00    -0.014 A 
BRANCH  38  39
ATOM     39  C   UNL     1       0.220  10.591   2.291  1.00  0.00     0.031 A 
ATOM     40  C   UNL     1      -0.039  11.345   3.565  1.00  0.00     0.074 A 
ATOM     41  C   UNL     1      -0.813  10.097   1.582  1.00  0.00     0.049 A 
ATOM     42  N   UNL     1      -1.179  11.632   4.143  1.00  0.00    -0.248 NA
ATOM     43  C   UNL     1       1.143  11.810   4.306  1.00  0.00     0.031 C 
ATOM     44  C   UNL     1      -0.691   9.298   0.363  1.00  0.00     0.029 A 
ATOM     45  N   UNL     1      -2.167  10.181   1.793  1.00  0.00    -0.354 N 
ATOM     46  C   UNL     1      -0.851  12.294   5.319  1.00  0.00     0.074 A 
ATOM     47  C   UNL     1       0.594  12.313   5.401  1.00  0.00     0.031 C 
ATOM     48  C   UNL     1      -1.918   8.979  -0.077  1.00  0.00     0.029 A 
ATOM     49  C   UNL     1      -2.911   9.519   0.848  1.00  0.00     0.049 A 
ATOM     50  H   UNL     1      -2.566  10.669   2.549  1.00  0.00     0.167 HD
ATOM     51  C   UNL     1      -1.679  12.852   6.235  1.00  0.00     0.037 A 
ATOM     52  C   UNL     1      -4.243   9.354   0.743  1.00  0.00     0.037 A 
ATOM     53  C   UNL     1      -3.116  12.842   6.138  1.00  0.00     0.049 A 
ATOM     54  C   UNL     1      -5.145   9.987   1.766  1.00  0.00     0.074 A 
ATOM     55  C   UNL     1      -4.042  13.446   6.969  1.00  0.00     0.029 A 
ATOM     56  N   UNL     1      -3.837  12.180   5.152  1.00  0.00    -0.354 N 
ATOM     57  N   UNL     1      -4.827  10.686   2.828  1.00  0.00    -0.248 NA
ATOM     58  C   UNL     1      -6.591   9.816   1.570  1.00  0.00     0.031 C 
ATOM     59  C   UNL     1      -5.322  13.097   6.525  1.00  0.00     0.029 A 
ATOM     60  C   UNL     1      -5.197  12.331   5.377  1.00  0.00     0.049 A 
ATOM     61  H   UNL     1      -3.440  11.678   4.404  1.00  0.00     0.167 HD
ATOM     62  C   UNL     1      -6.029  11.056   3.417  1.00  0.00     0.074 A 
ATOM     63  C   UNL     1      -7.083  10.516   2.582  1.00  0.00     0.031 C 
ATOM     64  C   UNL     1      -6.238  11.779   4.545  1.00  0.00     0.037 A 
BRANCH  51  65
ATOM     65  C   UNL     1      -1.043  13.505   7.432  1.00  0.00     0.064 A 
ATOM     66  C   UNL     1      -0.264  14.668   7.318  1.00  0.00     0.173 A 
ATOM     67  C   UNL     1      -1.217  12.960   8.713  1.00  0.00     0.173 A 
ATOM     68  F   UNL     1      -0.058  15.227   6.116  1.00  0.00    -0.203 F 
ATOM     69  C   UNL     1       0.358  15.228   8.431  1.00  0.00     0.198 A 
ATOM     70  C   UNL     1      -0.625  13.545   9.830  1.00  0.00     0.198 A 
ATOM     71  F   UNL     1      -1.958  11.855   8.885  1.00  0.00    -0.203 F 
ATOM     72  F   UNL     1       1.156  16.295   8.284  1.00  0.00    -0.200 F 
ATOM     73  C   UNL     1       0.173  14.669   9.686  1.00  0.00     0.200 A 
ATOM     74  F   UNL     1      -0.817  13.012  11.045  1.00  0.00    -0.200 F 
ATOM     75  F   UNL     1       0.775  15.208  10.756  1.00  0.00    -0.200 F 
ENDBRANCH  51  65
BRANCH  52  76
ATOM     76  C   UNL     1      -4.793   8.573  -0.395  1.00  0.00     0.064 A 
ATOM     77  C   UNL     1      -5.476   9.205  -1.442  1.00  0.00     0.173 A 
ATOM     78  C   UNL     1      -4.609   7.184  -0.477  1.00  0.00     0.173 A 
ATOM     79  F   UNL     1      -5.694  10.527  -1.397  1.00  0.00    -0.203 F 
ATOM     80  C   UNL     1      -5.961   8.477  -2.527  1.00  0.00     0.198 A 
ATOM     81  C   UNL     1      -5.070   6.462  -1.575  1.00  0.00     0.198 A 
ATOM     82  F   UNL     1      -3.959   6.535   0.499  1.00  0.00    -0.203 F 
ATOM     83  F   UNL     1      -6.638   9.101  -3.500  1.00  0.00    -0.200 F 
ATOM     84  C   UNL     1      -5.749   7.108  -2.598  1.00  0.00     0.200 A 
ATOM     85  F   UNL     1      -4.853   5.142  -1.646  1.00  0.00    -0.200 F 
ATOM     86  F   UNL     1      -6.202   6.412  -3.649  1.00  0.00    -0.200 F 
ENDBRANCH  52  76
BRANCH  64  87
ATOM     87  C   UNL     1      -7.664  12.047   4.937  1.00  0.00     0.064 A 
ATOM     88  C   UNL     1      -8.502  11.030   5.419  1.00  0.00     0.173 A 
ATOM     89  C   UNL     1      -8.187  13.348   4.866  1.00  0.00     0.173 A 
ATOM     90  F   UNL     1      -8.056   9.767   5.494  1.00  0.00    -0.203 F 
ATOM     91  C   UNL     1      -9.817  11.301   5.790  1.00  0.00     0.198 A 
ATOM     92  C   UNL     1      -9.491  13.621   5.269  1.00  0.00     0.198 A 
ATOM     93  F   UNL     1      -7.427  14.359   4.418  1.00  0.00    -0.203 F 
ATOM     94  F   UNL     1     -10.614  10.304   6.200  1.00  0.00    -0.200 F 
ATOM     95  C   UNL     1     -10.308  12.596   5.723  1.00  0.00     0.200 A 
ATOM     96  F   UNL     1      -9.958  14.876   5.218  1.00  0.00    -0.200 F 
ATOM     97  F   UNL     1     -11.570  12.856   6.088  1.00  0.00    -0.200 F 
ENDBRANCH  64  87
ENDBRANCH  38  39
ENDBRANCH  30  33
ENDBRANCH  28  29
ENDBRANCH  27  28
ENDBRANCH  26  27
ENDBRANCH   1  26
TORSDOF 15
