REMARK SMILES Cc1ccc(S(=O)(=O)N2C[C@@H](CC(=O)NCCCCCCNC(=O)c3ccc(-c4c5nc(c(-c6c(F)c(F)c(F)c(F)c6F)c6ccc([nH]6)c(-c6c(F)c(F)c(F)c(F)c6F)c6nc(c(-c7c(F)c(F)c(F)c(F)c7F)c7ccc4[nH]7)C=C6)C=C5)cc3)c3ccccc32)c(C)c1
REMARK SMILES IDX 18 1 17 2 16 3 15 4 13 5 14 6 12 8 11 9 9 10 10 11 93 12
REMARK SMILES IDX 88 13 92 14 89 15 91 16 90 17 6 18 7 19 8 20 5 21 1 22 2 23
REMARK SMILES IDX 3 24 96 25 4 26 94 27 95 28 19 29 20 30 21 31 22 32 23 33
REMARK SMILES IDX 24 35 25 36 26 37 87 38 27 39 86 40 28 41 29 42 30 43 80 44
REMARK SMILES IDX 31 45 85 46 79 47 81 48 32 49 84 50 78 51 77 52 33 54 65 55
REMARK SMILES IDX 45 56 64 57 46 58 49 59 63 60 82 61 47 62 48 63 62 65 83 66
REMARK SMILES IDX 50 67 34 68 35 69 43 70 36 71 37 72 41 73 44 74 38 75 39 76
REMARK SMILES IDX 42 77 40 78 66 79 67 80 75 81 68 82 69 83 73 84 76 85 70 86
REMARK SMILES IDX 71 87 74 88 72 89 51 90 52 91 60 92 53 93 54 94 58 95 61 96
REMARK SMILES IDX 55 97 56 98 59 99 57 100
REMARK H PARENT 15 7 22 34 81 53 49 64
REMARK Flexibility Score: inf
ROOT
ATOM      1  C   UNL     1       0.609  -9.065   2.890  1.00  0.00     0.002 C 
ENDROOT
BRANCH   1   2
ATOM      2  C   UNL     1      -0.062  -7.956   2.084  1.00  0.00     0.021 C 
BRANCH   2   3
ATOM      3  C   UNL     1       0.240  -7.955   0.588  1.00  0.00     0.116 C 
BRANCH   3   4
ATOM      4  N   UNL     1      -0.823  -8.645  -0.124  1.00  0.00    -0.356 N 
ATOM      5  C   UNL     1      -1.911  -8.125  -0.758  1.00  0.00     0.220 C 
ATOM      6  O   UNL     1      -2.854  -8.873  -1.020  1.00  0.00    -0.275 OA
ATOM      7  H   UNL     1      -0.745  -9.626  -0.152  1.00  0.00     0.163 HD
BRANCH   5   8
ATOM      8  C   UNL     1      -1.929  -6.675  -1.190  1.00  0.00     0.110 C 
BRANCH   8   9
ATOM      9  C   UNL     1      -2.989  -5.827  -0.471  1.00  0.00     0.051 C 
ATOM     10  N   UNL     1      -2.164  -3.533  -0.466  1.00  0.00    -0.265 N 
ATOM     11  C   UNL     1      -3.120  -4.459  -1.179  1.00  0.00     0.144 C 
ATOM     12  C   UNL     1      -2.017  -4.084   0.855  1.00  0.00     0.055 A 
ATOM     13  C   UNL     1      -2.570  -5.366   0.898  1.00  0.00    -0.018 A 
ATOM     14  C   UNL     1      -1.404  -3.534   1.969  1.00  0.00     0.027 A 
ATOM     15  C   UNL     1      -2.692  -6.037   2.102  1.00  0.00     0.006 A 
ATOM     16  C   UNL     1      -1.457  -4.239   3.174  1.00  0.00     0.002 A 
ATOM     17  C   UNL     1      -2.130  -5.466   3.248  1.00  0.00     0.000 A 
BRANCH  10  18
ATOM     18  S   UNL     1      -2.636  -1.885  -0.577  1.00  0.00     0.264 S 
ATOM     19  O   UNL     1      -3.521  -1.612   0.535  1.00  0.00    -0.201 OA
ATOM     20  O   UNL     1      -3.052  -1.647  -1.947  1.00  0.00    -0.201 OA
BRANCH  18  21
ATOM     21  C   UNL     1      -1.139  -0.937  -0.359  1.00  0.00     0.090 A 
ATOM     22  C   UNL     1       2.544   1.261   0.068  1.00  0.00     0.044 C 
ATOM     23  C   UNL     1       1.269   0.481  -0.059  1.00  0.00    -0.051 A 
ATOM     24  C   UNL     1       1.291  -0.887  -0.335  1.00  0.00     0.005 A 
ATOM     25  C   UNL     1       0.034   1.136   0.043  1.00  0.00     0.008 A 
ATOM     26  C   UNL     1       0.098  -1.590  -0.494  1.00  0.00     0.023 A 
ATOM     27  C   UNL     1      -1.185   0.446  -0.100  1.00  0.00    -0.030 A 
ATOM     28  C   UNL     1      -2.442   1.273  -0.055  1.00  0.00     0.046 C 
ENDBRANCH  18  21
ENDBRANCH  10  18
ENDBRANCH   8   9
ENDBRANCH   5   8
ENDBRANCH   3   4
ENDBRANCH   2   3
ENDBRANCH   1   2
BRANCH   1  29
ATOM     29  C   UNL     1       2.113  -8.890   3.099  1.00  0.00     0.002 C 
BRANCH  29  30
ATOM     30  C   UNL     1       2.554  -7.530   3.649  1.00  0.00     0.021 C 
BRANCH  30  31
ATOM     31  C   UNL     1       1.824  -7.064   4.908  1.00  0.00     0.116 C 
BRANCH  31  32
ATOM     32  N   UNL     1       2.041  -7.961   6.030  1.00  0.00    -0.352 N 
ATOM     33  C   UNL     1       2.776  -7.779   7.173  1.00  0.00     0.251 C 
ATOM     34  H   UNL     1       1.591  -8.834   5.959  1.00  0.00     0.163 HD
ATOM     35  O   UNL     1       3.033  -8.736   7.897  1.00  0.00    -0.269 OA
BRANCH  33  36
ATOM     36  C   UNL     1       3.272  -6.434   7.538  1.00  0.00     0.039 A 
ATOM     37  C   UNL     1       4.578  -6.305   8.018  1.00  0.00     0.014 A 
ATOM     38  C   UNL     1       2.441  -5.313   7.463  1.00  0.00     0.014 A 
ATOM     39  C   UNL     1       5.064  -5.047   8.381  1.00  0.00     0.010 A 
ATOM     40  C   UNL     1       2.951  -4.048   7.752  1.00  0.00     0.010 A 
ATOM     41  C   UNL     1       4.263  -3.904   8.230  1.00  0.00    -0.014 A 
BRANCH  41  42
ATOM     42  C   UNL     1       4.771  -2.556   8.596  1.00  0.00     0.031 A 
ATOM     43  C   UNL     1       4.131  -1.787   9.720  1.00  0.00     0.074 A 
ATOM     44  C   UNL     1       5.778  -2.004   7.892  1.00  0.00     0.049 A 
ATOM     45  N   UNL     1       4.395  -0.580  10.156  1.00  0.00    -0.248 NA
ATOM     46  C   UNL     1       3.030  -2.453  10.434  1.00  0.00     0.031 C 
ATOM     47  C   UNL     1       6.458  -2.631   6.758  1.00  0.00     0.029 A 
ATOM     48  N   UNL     1       6.400  -0.787   8.022  1.00  0.00    -0.354 N 
ATOM     49  C   UNL     1       3.487  -0.340  11.180  1.00  0.00     0.074 A 
ATOM     50  C   UNL     1       2.628  -1.502  11.263  1.00  0.00     0.031 C 
ATOM     51  C   UNL     1       7.417  -1.805   6.310  1.00  0.00     0.029 A 
ATOM     52  C   UNL     1       7.395  -0.576   7.098  1.00  0.00     0.049 A 
ATOM     53  H   UNL     1       6.157  -0.128   8.711  1.00  0.00     0.167 HD
ATOM     54  C   UNL     1       3.394   0.738  11.995  1.00  0.00     0.037 A 
ATOM     55  C   UNL     1       8.193   0.492   6.904  1.00  0.00     0.037 A 
ATOM     56  C   UNL     1       4.263   1.885  11.923  1.00  0.00     0.049 A 
ATOM     57  C   UNL     1       8.060   1.684   7.814  1.00  0.00     0.074 A 
ATOM     58  C   UNL     1       4.280   3.007  12.732  1.00  0.00     0.029 A 
ATOM     59  N   UNL     1       5.268   2.056  10.982  1.00  0.00    -0.354 N 
ATOM     60  N   UNL     1       7.239   1.873   8.819  1.00  0.00    -0.248 NA
ATOM     61  C   UNL     1       8.975   2.807   7.570  1.00  0.00     0.031 C 
ATOM     62  C   UNL     1       5.258   3.881  12.248  1.00  0.00     0.029 A 
ATOM     63  C   UNL     1       5.897   3.275  11.178  1.00  0.00     0.049 A 
ATOM     64  H   UNL     1       5.501   1.407  10.279  1.00  0.00     0.167 HD
ATOM     65  C   UNL     1       7.564   3.115   9.349  1.00  0.00     0.074 A 
ATOM     66  C   UNL     1       8.664   3.629   8.562  1.00  0.00     0.031 C 
ATOM     67  C   UNL     1       7.002   3.769  10.396  1.00  0.00     0.037 A 
BRANCH  54  68
ATOM     68  C   UNL     1       2.310   0.731  13.037  1.00  0.00     0.064 A 
ATOM     69  C   UNL     1       2.342  -0.149  14.130  1.00  0.00     0.173 A 
ATOM     70  C   UNL     1       1.243   1.639  12.960  1.00  0.00     0.173 A 
ATOM     71  F   UNL     1       3.334  -1.045  14.247  1.00  0.00    -0.203 F 
ATOM     72  C   UNL     1       1.329  -0.144  15.086  1.00  0.00     0.198 A 
ATOM     73  C   UNL     1       0.251   1.666  13.937  1.00  0.00     0.198 A 
ATOM     74  F   UNL     1       1.165   2.509  11.941  1.00  0.00    -0.203 F 
ATOM     75  F   UNL     1       1.353  -1.032  16.089  1.00  0.00    -0.200 F 
ATOM     76  C   UNL     1       0.289   0.768  14.993  1.00  0.00     0.200 A 
ATOM     77  F   UNL     1      -0.745   2.559  13.855  1.00  0.00    -0.200 F 
ATOM     78  F   UNL     1      -0.680   0.778  15.919  1.00  0.00    -0.200 F 
ENDBRANCH  54  68
BRANCH  55  79
ATOM     79  C   UNL     1       9.209   0.475   5.818  1.00  0.00     0.064 A 
ATOM     80  C   UNL     1      10.579   0.447   6.112  1.00  0.00     0.173 A 
ATOM     81  C   UNL     1       8.833   0.500   4.467  1.00  0.00     0.173 A 
ATOM     82  F   UNL     1      10.989   0.443   7.389  1.00  0.00    -0.203 F 
ATOM     83  C   UNL     1      11.535   0.474   5.099  1.00  0.00     0.198 A 
ATOM     84  C   UNL     1       9.790   0.493   3.453  1.00  0.00     0.198 A 
ATOM     85  F   UNL     1       7.535   0.520   4.130  1.00  0.00    -0.203 F 
ATOM     86  F   UNL     1      12.838   0.502   5.410  1.00  0.00    -0.200 F 
ATOM     87  C   UNL     1      11.139   0.491   3.770  1.00  0.00     0.200 A 
ATOM     88  F   UNL     1       9.402   0.493   2.170  1.00  0.00    -0.200 F 
ATOM     89  F   UNL     1      12.058   0.514   2.795  1.00  0.00    -0.200 F 
ENDBRANCH  55  79
BRANCH  67  90
ATOM     90  C   UNL     1       7.605   5.088  10.790  1.00  0.00     0.064 A 
ATOM     91  C   UNL     1       7.481   6.232   9.987  1.00  0.00     0.173 A 
ATOM     92  C   UNL     1       8.293   5.214  12.007  1.00  0.00     0.173 A 
ATOM     93  F   UNL     1       6.845   6.164   8.807  1.00  0.00    -0.203 F 
ATOM     94  C   UNL     1       8.053   7.442  10.371  1.00  0.00     0.198 A 
ATOM     95  C   UNL     1       8.832   6.434  12.405  1.00  0.00     0.198 A 
ATOM     96  F   UNL     1       8.434   4.154  12.818  1.00  0.00    -0.203 F 
ATOM     97  F   UNL     1       7.973   8.506   9.560  1.00  0.00    -0.200 F 
ATOM     98  C   UNL     1       8.721   7.544  11.583  1.00  0.00     0.200 A 
ATOM     99  F   UNL     1       9.462   6.534  13.584  1.00  0.00    -0.200 F 
ATOM    100  F   UNL     1       9.266   8.711  11.953  1.00  0.00    -0.200 F 
ENDBRANCH  67  90
ENDBRANCH  41  42
ENDBRANCH  33  36
ENDBRANCH  31  32
ENDBRANCH  30  31
ENDBRANCH  29  30
ENDBRANCH   1  29
TORSDOF 16
