REMARK SMILES COCCOc1ccc([C@H]([NH3+])C(=O)NCCCCCCNC(=O)c2ccc(-c3c4nc(c(-c5c(F)c(F)c(F)c(F)c5F)c5ccc([nH]5)c(-c5c(F)c(F)c(F)c(F)c5F)c5nc(c(-c6c(F)c(F)c(F)c(F)c6F)c6ccc3[nH]6)C=C5)C=C4)cc2)cc1OC
REMARK SMILES IDX 16 1 15 2 14 3 12 4 13 5 10 7 9 8 6 9 7 10 88 11 8 12 87 13
REMARK SMILES IDX 5 14 4 15 3 16 2 17 1 18 89 19 90 20 11 21 17 25 18 26 19 27
REMARK SMILES IDX 20 28 21 29 22 30 23 32 24 33 25 34 86 35 26 36 85 37 27 38
REMARK SMILES IDX 28 39 29 40 79 41 30 42 84 43 78 44 80 45 31 46 83 47 77 48
REMARK SMILES IDX 76 49 32 51 64 52 44 53 63 54 45 55 48 56 62 57 81 58 46 59
REMARK SMILES IDX 47 60 61 62 82 63 49 64 33 65 34 66 42 67 35 68 36 69 40 70
REMARK SMILES IDX 43 71 37 72 38 73 41 74 39 75 65 76 66 77 74 78 67 79 68 80
REMARK SMILES IDX 72 81 75 82 69 83 70 84 73 85 71 86 50 87 51 88 59 89 52 90
REMARK SMILES IDX 53 91 57 92 60 93 54 94 55 95 58 96 56 97
REMARK H PARENT 14 6 11 22 11 23 11 24 21 31 80 50 48 61
REMARK Flexibility Score: inf
ROOT
ATOM      1  C   UNL     1      -0.898   4.849  -1.650  1.00  0.00     0.021 C 
ENDROOT
BRANCH   1   2
ATOM      2  C   UNL     1      -0.093   5.317  -0.438  1.00  0.00     0.116 C 
BRANCH   2   3
ATOM      3  N   UNL     1      -0.816   5.058   0.791  1.00  0.00    -0.351 N 
ATOM      4  C   UNL     1      -0.576   4.151   1.785  1.00  0.00     0.283 C 
ATOM      5  O   UNL     1      -1.377   4.120   2.725  1.00  0.00    -0.268 OA
ATOM      6  H   UNL     1      -1.607   5.627   0.932  1.00  0.00     0.163 HD
BRANCH   4   7
ATOM      7  C   UNL     1       0.660   3.200   1.746  1.00  0.00     0.302 C 
BRANCH   7   8
ATOM      8  C   UNL     1       1.992   3.937   1.804  1.00  0.00     0.023 A 
ATOM      9  C   UNL     1       4.441   5.324   2.120  1.00  0.00     0.161 A 
ATOM     10  C   UNL     1       4.391   4.162   1.355  1.00  0.00     0.051 A 
ATOM     11  C   UNL     1       3.239   5.875   2.541  1.00  0.00     0.161 A 
ATOM     12  C   UNL     1       3.166   3.488   1.171  1.00  0.00     0.014 A 
ATOM     13  C   UNL     1       2.068   5.128   2.535  1.00  0.00     0.061 A 
BRANCH   9  14
ATOM     14  O   UNL     1       5.636   5.965   2.319  1.00  0.00    -0.487 OA
BRANCH  14  15
ATOM     15  C   UNL     1       6.018   6.053   3.719  1.00  0.00     0.258 C 
BRANCH  15  16
ATOM     16  C   UNL     1       5.532   7.312   4.471  1.00  0.00     0.201 C 
BRANCH  16  17
ATOM     17  O   UNL     1       4.400   7.019   5.302  1.00  0.00    -0.381 OA
ATOM     18  C   UNL     1       3.601   8.164   5.592  1.00  0.00     0.195 C 
ENDBRANCH  16  17
ENDBRANCH  15  16
ENDBRANCH  14  15
ENDBRANCH   9  14
BRANCH  11  19
ATOM     19  O   UNL     1       3.087   7.201   2.835  1.00  0.00    -0.493 OA
ATOM     20  C   UNL     1       3.506   8.015   1.738  1.00  0.00     0.278 C 
ENDBRANCH  11  19
ENDBRANCH   7   8
BRANCH   7  21
ATOM     21  N   UNL     1       0.520   2.251   0.620  1.00  0.00    -0.343 N 
ATOM     22  H   UNL     1       0.501   2.767  -0.260  1.00  0.00     0.345 HD
ATOM     23  H   UNL     1      -0.347   1.725   0.724  1.00  0.00     0.345 HD
ATOM     24  H   UNL     1       1.311   1.606   0.619  1.00  0.00     0.345 HD
ENDBRANCH   7  21
ENDBRANCH   4   7
ENDBRANCH   2   3
ENDBRANCH   1   2
BRANCH   1  25
ATOM     25  C   UNL     1      -2.154   5.684  -1.935  1.00  0.00     0.002 C 
BRANCH  25  26
ATOM     26  C   UNL     1      -1.910   7.179  -2.166  1.00  0.00     0.002 C 
BRANCH  26  27
ATOM     27  C   UNL     1      -0.856   7.512  -3.224  1.00  0.00     0.021 C 
BRANCH  27  28
ATOM     28  C   UNL     1      -1.143   6.945  -4.610  1.00  0.00     0.116 C 
BRANCH  28  29
ATOM     29  N   UNL     1      -2.343   7.515  -5.199  1.00  0.00    -0.352 N 
ATOM     30  C   UNL     1      -2.507   8.151  -6.405  1.00  0.00     0.251 C 
ATOM     31  H   UNL     1      -3.158   7.433  -4.653  1.00  0.00     0.163 HD
ATOM     32  O   UNL     1      -3.549   8.741  -6.655  1.00  0.00    -0.269 OA
BRANCH  30  33
ATOM     33  C   UNL     1      -1.410   8.141  -7.399  1.00  0.00     0.039 A 
ATOM     34  C   UNL     1      -1.099   9.326  -8.069  1.00  0.00     0.014 A 
ATOM     35  C   UNL     1      -0.700   6.970  -7.679  1.00  0.00     0.014 A 
ATOM     36  C   UNL     1      -0.036   9.352  -8.975  1.00  0.00     0.010 A 
ATOM     37  C   UNL     1       0.407   7.015  -8.523  1.00  0.00     0.010 A 
ATOM     38  C   UNL     1       0.749   8.206  -9.183  1.00  0.00    -0.014 A 
BRANCH  38  39
ATOM     39  C   UNL     1       1.933   8.239 -10.082  1.00  0.00     0.031 A 
ATOM     40  C   UNL     1       1.972   7.380 -11.316  1.00  0.00     0.074 A 
ATOM     41  C   UNL     1       2.998   8.996  -9.751  1.00  0.00     0.049 A 
ATOM     42  N   UNL     1       2.941   7.223 -12.184  1.00  0.00    -0.248 NA
ATOM     43  C   UNL     1       0.777   6.570 -11.603  1.00  0.00     0.031 C 
ATOM     44  C   UNL     1       3.102   9.832  -8.553  1.00  0.00     0.029 A 
ATOM     45  N   UNL     1       4.205   9.174 -10.383  1.00  0.00    -0.354 N 
ATOM     46  C   UNL     1       2.480   6.287 -13.101  1.00  0.00     0.074 A 
ATOM     47  C   UNL     1       1.164   5.877 -12.665  1.00  0.00     0.031 C 
ATOM     48  C   UNL     1       4.298  10.443  -8.544  1.00  0.00     0.029 A 
ATOM     49  C   UNL     1       5.063  10.010  -9.709  1.00  0.00     0.049 A 
ATOM     50  H   UNL     1       4.433   8.744 -11.239  1.00  0.00     0.167 HD
ATOM     51  C   UNL     1       3.095   5.826 -14.216  1.00  0.00     0.037 A 
ATOM     52  C   UNL     1       6.331  10.371  -9.988  1.00  0.00     0.037 A 
ATOM     53  C   UNL     1       4.391   6.264 -14.666  1.00  0.00     0.049 A 
ATOM     54  C   UNL     1       6.984   9.843 -11.239  1.00  0.00     0.074 A 
ATOM     55  C   UNL     1       5.058   5.921 -15.829  1.00  0.00     0.029 A 
ATOM     56  N   UNL     1       5.218   7.134 -13.972  1.00  0.00    -0.354 N 
ATOM     57  N   UNL     1       6.501   9.030 -12.146  1.00  0.00    -0.248 NA
ATOM     58  C   UNL     1       8.358  10.290 -11.509  1.00  0.00     0.031 C 
ATOM     59  C   UNL     1       6.316   6.528 -15.807  1.00  0.00     0.029 A 
ATOM     60  C   UNL     1       6.405   7.309 -14.666  1.00  0.00     0.049 A 
ATOM     61  H   UNL     1       4.995   7.564 -13.115  1.00  0.00     0.167 HD
ATOM     62  C   UNL     1       7.494   8.896 -13.107  1.00  0.00     0.074 A 
ATOM     63  C   UNL     1       8.600   9.727 -12.683  1.00  0.00     0.031 C 
ATOM     64  C   UNL     1       7.492   8.150 -14.239  1.00  0.00     0.037 A 
BRANCH  51  65
ATOM     65  C   UNL     1       2.387   4.790 -15.040  1.00  0.00     0.064 A 
ATOM     66  C   UNL     1       1.253   5.100 -15.805  1.00  0.00     0.173 A 
ATOM     67  C   UNL     1       2.907   3.489 -15.135  1.00  0.00     0.173 A 
ATOM     68  F   UNL     1       0.711   6.325 -15.743  1.00  0.00    -0.203 F 
ATOM     69  C   UNL     1       0.658   4.143 -16.624  1.00  0.00     0.198 A 
ATOM     70  C   UNL     1       2.328   2.545 -15.979  1.00  0.00     0.198 A 
ATOM     71  F   UNL     1       3.994   3.141 -14.429  1.00  0.00    -0.203 F 
ATOM     72  F   UNL     1      -0.443   4.453 -17.322  1.00  0.00    -0.200 F 
ATOM     73  C   UNL     1       1.203   2.871 -16.720  1.00  0.00     0.200 A 
ATOM     74  F   UNL     1       2.867   1.322 -16.082  1.00  0.00    -0.200 F 
ATOM     75  F   UNL     1       0.643   1.960 -17.527  1.00  0.00    -0.200 F 
ENDBRANCH  51  65
BRANCH  52  76
ATOM     76  C   UNL     1       7.078  11.271  -9.066  1.00  0.00     0.064 A 
ATOM     77  C   UNL     1       7.480  12.553  -9.469  1.00  0.00     0.173 A 
ATOM     78  C   UNL     1       7.446  10.849  -7.780  1.00  0.00     0.173 A 
ATOM     79  F   UNL     1       7.169  12.998 -10.696  1.00  0.00    -0.203 F 
ATOM     80  C   UNL     1       8.256  13.359  -8.639  1.00  0.00     0.198 A 
ATOM     81  C   UNL     1       8.190  11.672  -6.936  1.00  0.00     0.198 A 
ATOM     82  F   UNL     1       7.082   9.636  -7.340  1.00  0.00    -0.203 F 
ATOM     83  F   UNL     1       8.688  14.549  -9.078  1.00  0.00    -0.200 F 
ATOM     84  C   UNL     1       8.608  12.919  -7.372  1.00  0.00     0.200 A 
ATOM     85  F   UNL     1       8.511  11.249  -5.706  1.00  0.00    -0.200 F 
ATOM     86  F   UNL     1       9.360  13.692  -6.576  1.00  0.00    -0.200 F 
ENDBRANCH  52  76
BRANCH  64  87
ATOM     87  C   UNL     1       8.703   8.232 -15.125  1.00  0.00     0.064 A 
ATOM     88  C   UNL     1       9.937   7.685 -14.745  1.00  0.00     0.173 A 
ATOM     89  C   UNL     1       8.613   8.832 -16.391  1.00  0.00     0.173 A 
ATOM     90  F   UNL     1      10.080   7.112 -13.541  1.00  0.00    -0.203 F 
ATOM     91  C   UNL     1      11.044   7.763 -15.587  1.00  0.00     0.198 A 
ATOM     92  C   UNL     1       9.711   8.875 -17.244  1.00  0.00     0.198 A 
ATOM     93  F   UNL     1       7.454   9.363 -16.808  1.00  0.00    -0.203 F 
ATOM     94  F   UNL     1      12.227   7.283 -15.180  1.00  0.00    -0.200 F 
ATOM     95  C   UNL     1      10.928   8.350 -16.838  1.00  0.00     0.200 A 
ATOM     96  F   UNL     1       9.592   9.426 -18.460  1.00  0.00    -0.200 F 
ATOM     97  F   UNL     1      11.992   8.415 -17.650  1.00  0.00    -0.200 F 
ENDBRANCH  64  87
ENDBRANCH  38  39
ENDBRANCH  30  33
ENDBRANCH  28  29
ENDBRANCH  27  28
ENDBRANCH  26  27
ENDBRANCH  25  26
ENDBRANCH   1  25
TORSDOF 20
