REMARK SMILES COc1cc(C(=O)N[C@H]2CCCC[C@H]2C(=O)NCCCCCCNC(=O)c2ccc(-c3c4nc(c(-c5c(F)c(F)c(F)c(F)c5F)c5ccc([nH]5)c(-c5c(F)c(F)c(F)c(F)c5F)c5nc(c(-c6c(F)c(F)c(F)c(F)c6F)c6ccc3[nH]6)C=C5)C=C4)cc2)cc(Cl)c1OC
REMARK SMILES IDX 20 1 19 2 18 3 17 4 15 5 16 6 14 8 9 9 10 10 11 11 13 12
REMARK SMILES IDX 12 13 8 14 6 15 7 16 5 18 3 19 4 20 93 21 91 22 90 23 92 24
REMARK SMILES IDX 2 25 1 26 94 27 95 28 21 29 22 30 23 31 24 32 25 33 26 35
REMARK SMILES IDX 27 36 28 37 89 38 29 39 88 40 30 41 31 42 32 43 82 44 33 45
REMARK SMILES IDX 87 46 81 47 83 48 34 49 86 50 80 51 79 52 35 54 67 55 47 56
REMARK SMILES IDX 66 57 48 58 51 59 65 60 84 61 49 62 50 63 64 65 85 66 52 67
REMARK SMILES IDX 36 68 37 69 45 70 38 71 39 72 43 73 46 74 40 75 41 76 44 77
REMARK SMILES IDX 42 78 68 79 69 80 77 81 70 82 71 83 75 84 78 85 72 86 73 87
REMARK SMILES IDX 76 88 74 89 53 90 54 91 62 92 55 93 56 94 60 95 63 96 57 97
REMARK SMILES IDX 58 98 61 99 59 100
REMARK H PARENT 17 7 8 17 24 34 83 53 51 64
REMARK Flexibility Score: inf
ROOT
ATOM      1  C   UNL     1       0.476   4.306  -3.740  1.00  0.00     0.002 C 
ENDROOT
BRANCH   1   2
ATOM      2  C   UNL     1       1.220   5.467  -3.076  1.00  0.00     0.021 C 
BRANCH   2   3
ATOM      3  C   UNL     1       0.538   5.968  -1.807  1.00  0.00     0.116 C 
BRANCH   3   4
ATOM      4  N   UNL     1       0.767   5.022  -0.739  1.00  0.00    -0.356 N 
ATOM      5  C   UNL     1       1.458   5.149   0.418  1.00  0.00     0.225 C 
ATOM      6  O   UNL     1       1.735   4.112   1.027  1.00  0.00    -0.275 OA
ATOM      7  H   UNL     1       0.353   4.139  -0.875  1.00  0.00     0.163 HD
BRANCH   5   8
ATOM      8  C   UNL     1       1.839   6.502   0.995  1.00  0.00     0.101 C 
ATOM      9  C   UNL     1       3.168   7.157   0.508  1.00  0.00     0.094 C 
ATOM     10  C   UNL     1       3.425   8.310   1.485  1.00  0.00     0.026 C 
ATOM     11  C   UNL     1       2.301   9.341   1.457  1.00  0.00     0.002 C 
ATOM     12  C   UNL     1       0.647   7.464   1.140  1.00  0.00     0.015 C 
ATOM     13  C   UNL     1       1.002   8.715   1.942  1.00  0.00     0.001 C 
BRANCH   9  14
ATOM     14  N   UNL     1       3.238   7.442  -0.949  1.00  0.00    -0.349 N 
ATOM     15  C   UNL     1       3.489   8.479  -1.820  1.00  0.00     0.251 C 
ATOM     16  O   UNL     1       3.266   8.298  -3.018  1.00  0.00    -0.269 OA
ATOM     17  H   UNL     1       3.040   6.623  -1.457  1.00  0.00     0.164 HD
BRANCH  15  18
ATOM     18  C   UNL     1       4.007   9.800  -1.410  1.00  0.00     0.045 A 
ATOM     19  C   UNL     1       3.856  12.224  -1.440  1.00  0.00     0.163 A 
ATOM     20  C   UNL     1       3.431  10.975  -1.916  1.00  0.00     0.064 A 
ATOM     21  C   UNL     1       4.828  12.295  -0.413  1.00  0.00     0.179 A 
ATOM     22  C   UNL     1       5.474  11.117  -0.012  1.00  0.00     0.087 A 
ATOM     23  C   UNL     1       5.106   9.889  -0.569  1.00  0.00     0.038 A 
ATOM     24  Cl  UNL     1       6.743  11.049   1.158  1.00  0.00    -0.080 Cl
BRANCH  19  25
ATOM     25  O   UNL     1       3.387  13.434  -1.887  1.00  0.00    -0.493 OA
ATOM     26  C   UNL     1       2.438  13.463  -2.943  1.00  0.00     0.278 C 
ENDBRANCH  19  25
BRANCH  21  27
ATOM     27  O   UNL     1       5.129  13.561   0.031  1.00  0.00    -0.491 OA
ATOM     28  C   UNL     1       5.258  13.743   1.438  1.00  0.00     0.278 C 
ENDBRANCH  21  27
ENDBRANCH  15  18
ENDBRANCH   9  14
ENDBRANCH   5   8
ENDBRANCH   3   4
ENDBRANCH   2   3
ENDBRANCH   1   2
BRANCH   1  29
ATOM     29  C   UNL     1      -0.968   4.628  -4.133  1.00  0.00     0.002 C 
BRANCH  29  30
ATOM     30  C   UNL     1      -1.127   5.906  -4.959  1.00  0.00     0.021 C 
BRANCH  30  31
ATOM     31  C   UNL     1      -0.260   5.944  -6.211  1.00  0.00     0.116 C 
BRANCH  31  32
ATOM     32  N   UNL     1      -0.560   4.832  -7.101  1.00  0.00    -0.352 N 
ATOM     33  C   UNL     1      -0.975   4.868  -8.403  1.00  0.00     0.251 C 
ATOM     34  H   UNL     1      -0.451   3.934  -6.713  1.00  0.00     0.163 HD
ATOM     35  O   UNL     1      -1.422   3.859  -8.948  1.00  0.00    -0.269 OA
BRANCH  33  36
ATOM     36  C   UNL     1      -0.891   6.136  -9.148  1.00  0.00     0.039 A 
ATOM     37  C   UNL     1      -1.987   6.558  -9.901  1.00  0.00     0.014 A 
ATOM     38  C   UNL     1       0.272   6.911  -9.085  1.00  0.00     0.014 A 
ATOM     39  C   UNL     1      -1.936   7.788 -10.556  1.00  0.00     0.010 A 
ATOM     40  C   UNL     1       0.292   8.168  -9.673  1.00  0.00     0.010 A 
ATOM     41  C   UNL     1      -0.808   8.614 -10.423  1.00  0.00    -0.014 A 
BRANCH  41  42
ATOM     42  C   UNL     1      -0.743   9.945 -11.073  1.00  0.00     0.031 A 
ATOM     43  C   UNL     1       0.289  10.206 -12.133  1.00  0.00     0.074 A 
ATOM     44  C   UNL     1      -1.563  10.930 -10.662  1.00  0.00     0.049 A 
ATOM     45  N   UNL     1       0.581  11.323 -12.749  1.00  0.00    -0.248 NA
ATOM     46  C   UNL     1       1.125   9.063 -12.537  1.00  0.00     0.031 C 
ATOM     47  C   UNL     1      -2.583  10.803  -9.620  1.00  0.00     0.029 A 
ATOM     48  N   UNL     1      -1.658  12.240 -11.060  1.00  0.00    -0.354 N 
ATOM     49  C   UNL     1       1.636  11.020 -13.598  1.00  0.00     0.074 A 
ATOM     50  C   UNL     1       1.974   9.632 -13.379  1.00  0.00     0.031 C 
ATOM     51  C   UNL     1      -3.212  11.980  -9.474  1.00  0.00     0.029 A 
ATOM     52  C   UNL     1      -2.610  12.956 -10.376  1.00  0.00     0.049 A 
ATOM     53  H   UNL     1      -1.097  12.629 -11.769  1.00  0.00     0.167 HD
ATOM     54  C   UNL     1       2.252  11.824 -14.497  1.00  0.00     0.037 A 
ATOM     55  C   UNL     1      -2.944  14.258 -10.458  1.00  0.00     0.037 A 
ATOM     56  C   UNL     1       1.899  13.201 -14.720  1.00  0.00     0.049 A 
ATOM     57  C   UNL     1      -2.220  15.138 -11.443  1.00  0.00     0.074 A 
ATOM     58  C   UNL     1       2.434  14.092 -15.633  1.00  0.00     0.029 A 
ATOM     59  N   UNL     1       0.919  13.888 -14.017  1.00  0.00    -0.354 N 
ATOM     60  N   UNL     1      -1.259  14.829 -12.280  1.00  0.00    -0.248 NA
ATOM     61  C   UNL     1      -2.629  16.548 -11.497  1.00  0.00     0.031 C 
ATOM     62  C   UNL     1       1.816  15.332 -15.447  1.00  0.00     0.029 A 
ATOM     63  C   UNL     1       0.849  15.197 -14.464  1.00  0.00     0.049 A 
ATOM     64  H   UNL     1       0.357  13.502 -13.307  1.00  0.00     0.167 HD
ATOM     65  C   UNL     1      -0.982  15.990 -12.989  1.00  0.00     0.074 A 
ATOM     66  C   UNL     1      -1.878  17.010 -12.486  1.00  0.00     0.031 C 
ATOM     67  C   UNL     1      -0.069  16.192 -13.971  1.00  0.00     0.037 A 
BRANCH  54  68
ATOM     68  C   UNL     1       3.370  11.236 -15.308  1.00  0.00     0.064 A 
ATOM     69  C   UNL     1       3.135  10.259 -16.288  1.00  0.00     0.173 A 
ATOM     70  C   UNL     1       4.688  11.687 -15.138  1.00  0.00     0.173 A 
ATOM     71  F   UNL     1       1.895   9.785 -16.485  1.00  0.00    -0.203 F 
ATOM     72  C   UNL     1       4.179   9.737 -17.047  1.00  0.00     0.198 A 
ATOM     73  C   UNL     1       5.725  11.188 -15.922  1.00  0.00     0.198 A 
ATOM     74  F   UNL     1       4.970  12.624 -14.219  1.00  0.00    -0.203 F 
ATOM     75  F   UNL     1       3.936   8.771 -17.942  1.00  0.00    -0.200 F 
ATOM     76  C   UNL     1       5.471  10.208 -16.870  1.00  0.00     0.200 A 
ATOM     77  F   UNL     1       6.970  11.656 -15.760  1.00  0.00    -0.200 F 
ATOM     78  F   UNL     1       6.473   9.714 -17.610  1.00  0.00    -0.200 F 
ENDBRANCH  54  68
BRANCH  55  79
ATOM     79  C   UNL     1      -4.024  14.808  -9.597  1.00  0.00     0.064 A 
ATOM     80  C   UNL     1      -5.232  15.254 -10.153  1.00  0.00     0.173 A 
ATOM     81  C   UNL     1      -3.868  14.919  -8.207  1.00  0.00     0.173 A 
ATOM     82  F   UNL     1      -5.424  15.186 -11.478  1.00  0.00    -0.203 F 
ATOM     83  C   UNL     1      -6.228  15.817  -9.357  1.00  0.00     0.198 A 
ATOM     84  C   UNL     1      -4.877  15.451  -7.408  1.00  0.00     0.198 A 
ATOM     85  F   UNL     1      -2.735  14.501  -7.622  1.00  0.00    -0.203 F 
ATOM     86  F   UNL     1      -7.348  16.287  -9.922  1.00  0.00    -0.200 F 
ATOM     87  C   UNL     1      -6.052  15.911  -7.985  1.00  0.00     0.200 A 
ATOM     88  F   UNL     1      -4.710  15.524  -6.081  1.00  0.00    -0.200 F 
ATOM     89  F   UNL     1      -7.009  16.453  -7.220  1.00  0.00    -0.200 F 
ENDBRANCH  55  79
BRANCH  67  90
ATOM     90  C   UNL     1      -0.035  17.546 -14.620  1.00  0.00     0.064 A 
ATOM     91  C   UNL     1       0.456  18.677 -13.953  1.00  0.00     0.173 A 
ATOM     92  C   UNL     1      -0.446  17.695 -15.954  1.00  0.00     0.173 A 
ATOM     93  F   UNL     1       0.847  18.590 -12.673  1.00  0.00    -0.203 F 
ATOM     94  C   UNL     1       0.514  19.913 -14.592  1.00  0.00     0.198 A 
ATOM     95  C   UNL     1      -0.354  18.924 -16.599  1.00  0.00     0.198 A 
ATOM     96  F   UNL     1      -0.917  16.642 -16.639  1.00  0.00    -0.203 F 
ATOM     97  F   UNL     1       0.944  20.991 -13.922  1.00  0.00    -0.200 F 
ATOM     98  C   UNL     1       0.119  20.033 -15.916  1.00  0.00     0.200 A 
ATOM     99  F   UNL     1      -0.720  19.033 -17.884  1.00  0.00    -0.200 F 
ATOM    100  F   UNL     1       0.191  21.221 -16.533  1.00  0.00    -0.200 F 
ENDBRANCH  67  90
ENDBRANCH  41  42
ENDBRANCH  33  36
ENDBRANCH  31  32
ENDBRANCH  30  31
ENDBRANCH  29  30
ENDBRANCH   1  29
TORSDOF 17
