REMARK SMILES CCC[C@H](C)N(C)S(=O)(=O)c1ccc(CC(=O)NCCCCCCNC(=O)c2ccc(-c3c4nc(c(-c5c(F)c(F)c(F)c(F)c5F)c5ccc([nH]5)c(-c5c(F)c(F)c(F)c(F)c5F)c5nc(c(-c6c(F)c(F)c(F)c(F)c6F)c6ccc3[nH]6)C=C5)C=C4)cc2)s1
REMARK SMILES IDX 19 1 18 2 16 3 17 4 15 6 14 7 11 8 12 9 91 10 13 11 8 12
REMARK SMILES IDX 9 13 10 14 6 15 7 16 4 17 5 18 3 19 2 20 1 21 20 22 21 23
REMARK SMILES IDX 22 24 23 25 24 26 25 27 26 28 27 30 28 31 29 32 90 33 30 34
REMARK SMILES IDX 89 35 31 36 32 37 33 38 83 39 34 40 88 41 82 42 84 43 35 44
REMARK SMILES IDX 87 45 81 46 80 47 36 49 68 50 48 51 67 52 49 53 52 54 66 55
REMARK SMILES IDX 85 56 50 57 51 58 65 60 86 61 53 62 37 63 38 64 46 65 39 66
REMARK SMILES IDX 40 67 44 68 47 69 41 70 42 71 45 72 43 73 69 74 70 75 78 76
REMARK SMILES IDX 71 77 72 78 76 79 79 80 73 81 74 82 77 83 75 84 54 85 55 86
REMARK SMILES IDX 63 87 56 88 57 89 61 90 64 91 58 92 59 93 62 94 60 95
REMARK H PARENT 18 5 25 29 84 48 52 59
REMARK Flexibility Score: inf
ROOT
ATOM      1  C   UNL     1       4.750   2.636  -9.427  1.00  0.00     0.116 C 
ENDROOT
BRANCH   1   2
ATOM      2  N   UNL     1       4.462   1.263  -9.794  1.00  0.00    -0.356 N 
ATOM      3  C   UNL     1       3.264   0.683 -10.099  1.00  0.00     0.225 C 
ATOM      4  O   UNL     1       3.241  -0.535 -10.291  1.00  0.00    -0.275 OA
ATOM      5  H   UNL     1       5.242   0.664  -9.829  1.00  0.00     0.163 HD
BRANCH   3   6
ATOM      6  C   UNL     1       2.016   1.534 -10.261  1.00  0.00     0.146 C 
BRANCH   6   7
ATOM      7  C   UNL     1       1.484   2.027  -8.947  1.00  0.00     0.015 A 
ATOM      8  C   UNL     1       0.500   2.185  -6.679  1.00  0.00     0.135 A 
ATOM      9  C   UNL     1       0.800   3.424  -7.216  1.00  0.00     0.034 A 
ATOM     10  S   UNL     1       0.876   0.935  -7.777  1.00  0.00    -0.127 S 
ATOM     11  C   UNL     1       1.343   3.336  -8.528  1.00  0.00     0.017 A 
BRANCH   8  12
ATOM     12  S   UNL     1      -0.278   1.756  -5.128  1.00  0.00     0.252 S 
ATOM     13  O   UNL     1      -1.597   1.284  -5.493  1.00  0.00    -0.206 OA
ATOM     14  O   UNL     1      -0.118   2.967  -4.348  1.00  0.00    -0.206 OA
BRANCH  12  15
ATOM     15  N   UNL     1       0.555   0.490  -4.322  1.00  0.00    -0.197 NA
ATOM     16  C   UNL     1       0.502  -0.838  -4.987  1.00  0.00     0.124 C 
BRANCH  15  17
ATOM     17  C   UNL     1       0.355   0.383  -2.825  1.00  0.00     0.070 C 
ATOM     18  C   UNL     1       1.191   1.448  -2.117  1.00  0.00     0.026 C 
BRANCH  17  19
ATOM     19  C   UNL     1      -1.141   0.381  -2.452  1.00  0.00     0.020 C 
BRANCH  19  20
ATOM     20  C   UNL     1      -1.483  -0.190  -1.072  1.00  0.00    -0.002 C 
ATOM     21  C   UNL     1      -1.240   0.764   0.085  1.00  0.00     0.004 C 
ENDBRANCH  19  20
ENDBRANCH  17  19
ENDBRANCH  15  17
ENDBRANCH  12  15
ENDBRANCH   8  12
ENDBRANCH   6   7
ENDBRANCH   3   6
ENDBRANCH   1   2
BRANCH   1  22
ATOM     22  C   UNL     1       5.012   2.766  -7.925  1.00  0.00     0.021 C 
BRANCH  22  23
ATOM     23  C   UNL     1       6.343   2.158  -7.462  1.00  0.00     0.002 C 
BRANCH  23  24
ATOM     24  C   UNL     1       7.603   2.785  -8.072  1.00  0.00     0.002 C 
BRANCH  24  25
ATOM     25  C   UNL     1       7.743   4.301  -7.891  1.00  0.00     0.021 C 
BRANCH  25  26
ATOM     26  C   UNL     1       7.765   4.787  -6.442  1.00  0.00     0.116 C 
BRANCH  26  27
ATOM     27  N   UNL     1       8.918   4.296  -5.708  1.00  0.00    -0.352 N 
ATOM     28  C   UNL     1       9.778   4.963  -4.872  1.00  0.00     0.251 C 
ATOM     29  H   UNL     1       9.113   3.338  -5.829  1.00  0.00     0.163 HD
ATOM     30  O   UNL     1      10.787   4.399  -4.459  1.00  0.00    -0.269 OA
BRANCH  28  31
ATOM     31  C   UNL     1       9.517   6.366  -4.478  1.00  0.00     0.039 A 
ATOM     32  C   UNL     1      10.589   7.265  -4.468  1.00  0.00     0.014 A 
ATOM     33  C   UNL     1       8.248   6.791  -4.071  1.00  0.00     0.014 A 
ATOM     34  C   UNL     1      10.382   8.597  -4.104  1.00  0.00     0.010 A 
ATOM     35  C   UNL     1       8.032   8.132  -3.747  1.00  0.00     0.010 A 
ATOM     36  C   UNL     1       9.097   9.045  -3.760  1.00  0.00    -0.014 A 
BRANCH  36  37
ATOM     37  C   UNL     1       8.860  10.470  -3.424  1.00  0.00     0.031 A 
ATOM     38  C   UNL     1       8.551  10.882  -2.014  1.00  0.00     0.074 A 
ATOM     39  C   UNL     1       8.877  11.392  -4.405  1.00  0.00     0.049 A 
ATOM     40  N   UNL     1       8.298  12.076  -1.539  1.00  0.00    -0.248 NA
ATOM     41  C   UNL     1       8.500   9.810  -1.010  1.00  0.00     0.031 C 
ATOM     42  C   UNL     1       9.113  11.112  -5.821  1.00  0.00     0.029 A 
ATOM     43  N   UNL     1       8.685  12.749  -4.359  1.00  0.00    -0.354 N 
ATOM     44  C   UNL     1       8.041  11.898  -0.187  1.00  0.00     0.074 A 
ATOM     45  C   UNL     1       8.141  10.477   0.078  1.00  0.00     0.031 C 
ATOM     46  C   UNL     1       9.066  12.265  -6.508  1.00  0.00     0.029 A 
ATOM     47  C   UNL     1       8.783  13.360  -5.584  1.00  0.00     0.049 A 
ATOM     48  H   UNL     1       8.494  13.239  -3.526  1.00  0.00     0.167 HD
ATOM     49  C   UNL     1       7.760  12.834   0.750  1.00  0.00     0.037 A 
ATOM     50  C   UNL     1       8.665  14.657  -5.923  1.00  0.00     0.037 A 
ATOM     51  C   UNL     1       7.691  14.249   0.498  1.00  0.00     0.049 A 
ATOM     52  C   UNL     1       8.405  15.682  -4.857  1.00  0.00     0.074 A 
ATOM     53  C   UNL     1       7.475  15.279   1.398  1.00  0.00     0.029 A 
ATOM     54  N   UNL     1       7.841  14.834  -0.750  1.00  0.00    -0.354 N 
ATOM     55  N   UNL     1       8.226  15.508  -3.571  1.00  0.00    -0.248 NA
ATOM     56  C   UNL     1       8.343  17.086  -5.289  1.00  0.00     0.031 C 
ATOM     57  C   UNL     1       7.474  16.487   0.690  1.00  0.00     0.029 A 
ATOM     58  C   UNL     1       7.713  16.210  -0.646  1.00  0.00     0.049 A 
ATOM     59  H   UNL     1       8.012  14.344  -1.587  1.00  0.00     0.167 HD
ATOM     60  C   UNL     1       8.048  16.775  -3.037  1.00  0.00     0.074 A 
ATOM     61  C   UNL     1       8.149  17.713  -4.136  1.00  0.00     0.031 C 
ATOM     62  C   UNL     1       7.820  17.129  -1.749  1.00  0.00     0.037 A 
BRANCH  49  63
ATOM     63  C   UNL     1       7.506  12.353   2.146  1.00  0.00     0.064 A 
ATOM     64  C   UNL     1       8.556  11.932   2.975  1.00  0.00     0.173 A 
ATOM     65  C   UNL     1       6.205  12.337   2.667  1.00  0.00     0.173 A 
ATOM     66  F   UNL     1       9.815  11.918   2.514  1.00  0.00    -0.203 F 
ATOM     67  C   UNL     1       8.308  11.491   4.272  1.00  0.00     0.198 A 
ATOM     68  C   UNL     1       5.963  11.913   3.972  1.00  0.00     0.198 A 
ATOM     69  F   UNL     1       5.169  12.732   1.913  1.00  0.00    -0.203 F 
ATOM     70  F   UNL     1       9.321  11.058   5.035  1.00  0.00    -0.200 F 
ATOM     71  C   UNL     1       7.014  11.486   4.770  1.00  0.00     0.200 A 
ATOM     72  F   UNL     1       4.713  11.914   4.455  1.00  0.00    -0.200 F 
ATOM     73  F   UNL     1       6.778  11.061   6.019  1.00  0.00    -0.200 F 
ENDBRANCH  49  63
BRANCH  50  74
ATOM     74  C   UNL     1       8.838  15.058  -7.338  1.00  0.00     0.064 A 
ATOM     75  C   UNL     1      10.029  15.656  -7.770  1.00  0.00     0.173 A 
ATOM     76  C   UNL     1       7.834  14.829  -8.288  1.00  0.00     0.173 A 
ATOM     77  F   UNL     1      11.008  15.909  -6.890  1.00  0.00    -0.203 F 
ATOM     78  C   UNL     1      10.207  16.017  -9.103  1.00  0.00     0.198 A 
ATOM     79  C   UNL     1       8.019  15.176  -9.624  1.00  0.00     0.198 A 
ATOM     80  F   UNL     1       6.679  14.255  -7.918  1.00  0.00    -0.203 F 
ATOM     81  F   UNL     1      11.346  16.608  -9.489  1.00  0.00    -0.200 F 
ATOM     82  C   UNL     1       9.204  15.772 -10.030  1.00  0.00     0.200 A 
ATOM     83  F   UNL     1       7.052  14.930 -10.518  1.00  0.00    -0.200 F 
ATOM     84  F   UNL     1       9.379  16.113 -11.314  1.00  0.00    -0.200 F 
ENDBRANCH  50  74
BRANCH  62  85
ATOM     85  C   UNL     1       7.683  18.591  -1.457  1.00  0.00     0.064 A 
ATOM     86  C   UNL     1       6.500  19.284  -1.748  1.00  0.00     0.173 A 
ATOM     87  C   UNL     1       8.733  19.297  -0.854  1.00  0.00     0.173 A 
ATOM     88  F   UNL     1       5.476  18.651  -2.340  1.00  0.00    -0.203 F 
ATOM     89  C   UNL     1       6.378  20.640  -1.457  1.00  0.00     0.198 A 
ATOM     90  C   UNL     1       8.602  20.649  -0.550  1.00  0.00     0.198 A 
ATOM     91  F   UNL     1       9.884  18.675  -0.558  1.00  0.00    -0.203 F 
ATOM     92  F   UNL     1       5.250  21.292  -1.772  1.00  0.00    -0.200 F 
ATOM     93  C   UNL     1       7.426  21.320  -0.855  1.00  0.00     0.200 A 
ATOM     94  F   UNL     1       9.614  21.305   0.034  1.00  0.00    -0.200 F 
ATOM     95  F   UNL     1       7.307  22.625  -0.576  1.00  0.00    -0.200 F 
ENDBRANCH  62  85
ENDBRANCH  36  37
ENDBRANCH  28  31
ENDBRANCH  26  27
ENDBRANCH  25  26
ENDBRANCH  24  25
ENDBRANCH  23  24
ENDBRANCH  22  23
ENDBRANCH   1  22
TORSDOF 19
