REMARK SMILES CCC(CC)(C(=O)NCCCCCCNC(=O)c1ccc(-c2c3nc(c(-c4c(F)c(F)c(F)c(F)c4F)c4ccc([nH]4)c(-c4c(F)c(F)c(F)c(F)c4F)c4nc(c(-c5c(F)c(F)c(F)c(F)c5F)c5ccc2[nH]5)C=C4)C=C3)cc1)n1nnnc1C[C@@H](C)C(C)(C)C
REMARK SMILES IDX 10 1 9 2 8 3 6 4 7 5 3 7 2 8 1 9 4 10 5 11 81 12 82 13 85 14
REMARK SMILES IDX 83 15 84 16 86 17 87 18 88 19 89 20 90 21 91 22 92 23 11 24
REMARK SMILES IDX 12 25 13 26 14 27 15 28 16 29 17 31 18 32 19 33 80 34 20 35
REMARK SMILES IDX 79 36 21 37 22 38 23 39 73 40 24 41 78 42 72 43 74 44 25 45
REMARK SMILES IDX 77 46 71 47 70 48 26 50 58 51 38 52 57 53 39 54 42 55 56 56
REMARK SMILES IDX 75 57 40 58 41 59 55 61 76 62 43 63 27 64 28 65 36 66 29 67
REMARK SMILES IDX 30 68 34 69 37 70 31 71 32 72 35 73 33 74 59 75 60 76 68 77
REMARK SMILES IDX 61 78 62 79 66 80 69 81 63 82 64 83 67 84 65 85 44 86 45 87
REMARK SMILES IDX 53 88 46 89 47 90 51 91 54 92 48 93 49 94 52 95 50 96
REMARK H PARENT 8 6 15 30 74 49 42 60
REMARK Flexibility Score: inf
ROOT
ATOM      1  C   UNL     1      -2.872   2.420  -2.604  1.00  0.00     0.021 C 
ENDROOT
BRANCH   1   2
ATOM      2  C   UNL     1      -2.014   1.202  -2.907  1.00  0.00     0.116 C 
BRANCH   2   3
ATOM      3  N   UNL     1      -0.792   1.504  -3.624  1.00  0.00    -0.354 N 
ATOM      4  C   UNL     1       0.440   0.910  -3.611  1.00  0.00     0.248 C 
ATOM      5  O   UNL     1       1.065   1.017  -4.674  1.00  0.00    -0.272 OA
ATOM      6  H   UNL     1      -0.861   2.276  -4.231  1.00  0.00     0.163 HD
BRANCH   4   7
ATOM      7  C   UNL     1       1.007   0.069  -2.418  1.00  0.00     0.144 C 
BRANCH   7   8
ATOM      8  C   UNL     1       0.675   0.700  -1.028  1.00  0.00     0.037 C 
ATOM      9  C   UNL     1       1.215  -0.044   0.191  1.00  0.00     0.007 C 
ENDBRANCH   7   8
BRANCH   7  10
ATOM     10  C   UNL     1       0.505  -1.386  -2.587  1.00  0.00     0.037 C 
ATOM     11  C   UNL     1      -0.963  -1.714  -2.790  1.00  0.00     0.007 C 
ENDBRANCH   7  10
BRANCH   7  12
ATOM     12  N   UNL     1       2.503   0.125  -2.533  1.00  0.00    -0.214 N 
ATOM     13  N   UNL     1       3.075   1.359  -2.514  1.00  0.00    -0.044 NA
ATOM     14  C   UNL     1       3.523  -0.817  -2.478  1.00  0.00     0.152 A 
ATOM     15  N   UNL     1       4.379   1.166  -2.500  1.00  0.00    -0.024 NA
ATOM     16  N   UNL     1       4.671  -0.161  -2.460  1.00  0.00    -0.114 NA
BRANCH  14  17
ATOM     17  C   UNL     1       3.463  -2.313  -2.374  1.00  0.00     0.083 C 
BRANCH  17  18
ATOM     18  C   UNL     1       3.640  -3.041  -3.735  1.00  0.00    -0.001 C 
ATOM     19  C   UNL     1       5.134  -3.006  -4.120  1.00  0.00     0.008 C 
BRANCH  18  20
ATOM     20  C   UNL     1       3.047  -4.510  -3.757  1.00  0.00    -0.035 C 
ATOM     21  C   UNL     1       1.504  -4.478  -3.728  1.00  0.00     0.011 C 
ATOM     22  C   UNL     1       3.440  -5.250  -5.055  1.00  0.00     0.011 C 
ATOM     23  C   UNL     1       3.523  -5.352  -2.558  1.00  0.00     0.011 C 
ENDBRANCH  18  20
ENDBRANCH  17  18
ENDBRANCH  14  17
ENDBRANCH   7  12
ENDBRANCH   4   7
ENDBRANCH   2   3
ENDBRANCH   1   2
BRANCH   1  24
ATOM     24  C   UNL     1      -3.650   2.960  -3.805  1.00  0.00     0.002 C 
BRANCH  24  25
ATOM     25  C   UNL     1      -4.463   1.930  -4.600  1.00  0.00     0.002 C 
BRANCH  25  26
ATOM     26  C   UNL     1      -5.388   1.021  -3.785  1.00  0.00     0.021 C 
BRANCH  26  27
ATOM     27  C   UNL     1      -6.382   1.740  -2.883  1.00  0.00     0.116 C 
BRANCH  27  28
ATOM     28  N   UNL     1      -7.250   2.639  -3.618  1.00  0.00    -0.352 N 
ATOM     29  C   UNL     1      -8.604   2.807  -3.530  1.00  0.00     0.251 C 
ATOM     30  H   UNL     1      -6.798   3.214  -4.278  1.00  0.00     0.163 HD
ATOM     31  O   UNL     1      -9.187   3.518  -4.353  1.00  0.00    -0.269 OA
BRANCH  29  32
ATOM     32  C   UNL     1      -9.382   2.133  -2.470  1.00  0.00     0.039 A 
ATOM     33  C   UNL     1     -10.629   1.594  -2.798  1.00  0.00     0.014 A 
ATOM     34  C   UNL     1      -8.918   2.069  -1.152  1.00  0.00     0.014 A 
ATOM     35  C   UNL     1     -11.399   0.972  -1.814  1.00  0.00     0.010 A 
ATOM     36  C   UNL     1      -9.652   1.381  -0.189  1.00  0.00     0.010 A 
ATOM     37  C   UNL     1     -10.910   0.848  -0.504  1.00  0.00    -0.014 A 
BRANCH  37  38
ATOM     38  C   UNL     1     -11.729   0.207   0.555  1.00  0.00     0.031 A 
ATOM     39  C   UNL     1     -12.228   1.023   1.716  1.00  0.00     0.074 A 
ATOM     40  C   UNL     1     -11.995  -1.111   0.490  1.00  0.00     0.049 A 
ATOM     41  N   UNL     1     -12.939   0.647   2.750  1.00  0.00    -0.248 NA
ATOM     42  C   UNL     1     -11.855   2.447   1.733  1.00  0.00     0.031 C 
ATOM     43  C   UNL     1     -11.530  -2.015  -0.562  1.00  0.00     0.029 A 
ATOM     44  N   UNL     1     -12.721  -1.919   1.327  1.00  0.00    -0.354 N 
ATOM     45  C   UNL     1     -13.078   1.778   3.544  1.00  0.00     0.074 A 
ATOM     46  C   UNL     1     -12.334   2.840   2.904  1.00  0.00     0.031 C 
ATOM     47  C   UNL     1     -12.010  -3.247  -0.326  1.00  0.00     0.029 A 
ATOM     48  C   UNL     1     -12.789  -3.225   0.909  1.00  0.00     0.049 A 
ATOM     49  H   UNL     1     -13.153  -1.594   2.149  1.00  0.00     0.167 HD
ATOM     50  C   UNL     1     -13.783   1.924   4.692  1.00  0.00     0.037 A 
ATOM     51  C   UNL     1     -13.415  -4.283   1.459  1.00  0.00     0.037 A 
ATOM     52  C   UNL     1     -14.554   0.874   5.304  1.00  0.00     0.049 A 
ATOM     53  C   UNL     1     -14.203  -4.090   2.726  1.00  0.00     0.074 A 
ATOM     54  C   UNL     1     -15.361   0.936   6.426  1.00  0.00     0.029 A 
ATOM     55  N   UNL     1     -14.612  -0.433   4.841  1.00  0.00    -0.354 N 
ATOM     56  N   UNL     1     -14.391  -2.999   3.428  1.00  0.00    -0.248 NA
ATOM     57  C   UNL     1     -14.878  -5.277   3.270  1.00  0.00     0.031 C 
ATOM     58  C   UNL     1     -15.870  -0.344   6.670  1.00  0.00     0.029 A 
ATOM     59  C   UNL     1     -15.425  -1.191   5.668  1.00  0.00     0.049 A 
ATOM     60  H   UNL     1     -14.146  -0.771   4.043  1.00  0.00     0.167 HD
ATOM     61  C   UNL     1     -15.232  -3.357   4.473  1.00  0.00     0.074 A 
ATOM     62  C   UNL     1     -15.527  -4.765   4.306  1.00  0.00     0.031 C 
ATOM     63  C   UNL     1     -15.719  -2.589   5.479  1.00  0.00     0.037 A 
BRANCH  50  64
ATOM     64  C   UNL     1     -13.752   3.269   5.360  1.00  0.00     0.064 A 
ATOM     65  C   UNL     1     -14.377   4.391   4.795  1.00  0.00     0.173 A 
ATOM     66  C   UNL     1     -13.110   3.432   6.597  1.00  0.00     0.173 A 
ATOM     67  F   UNL     1     -14.995   4.293   3.607  1.00  0.00    -0.203 F 
ATOM     68  C   UNL     1     -14.331   5.632   5.425  1.00  0.00     0.198 A 
ATOM     69  C   UNL     1     -13.094   4.667   7.240  1.00  0.00     0.198 A 
ATOM     70  F   UNL     1     -12.501   2.392   7.186  1.00  0.00    -0.203 F 
ATOM     71  F   UNL     1     -14.886   6.701   4.837  1.00  0.00    -0.200 F 
ATOM     72  C   UNL     1     -13.696   5.768   6.649  1.00  0.00     0.200 A 
ATOM     73  F   UNL     1     -12.490   4.794   8.430  1.00  0.00    -0.200 F 
ATOM     74  F   UNL     1     -13.656   6.962   7.257  1.00  0.00    -0.200 F 
ENDBRANCH  50  64
BRANCH  51  75
ATOM     75  C   UNL     1     -13.362  -5.609   0.790  1.00  0.00     0.064 A 
ATOM     76  C   UNL     1     -14.507  -6.156   0.192  1.00  0.00     0.173 A 
ATOM     77  C   UNL     1     -12.178  -6.358   0.739  1.00  0.00     0.173 A 
ATOM     78  F   UNL     1     -15.668  -5.486   0.232  1.00  0.00    -0.203 F 
ATOM     79  C   UNL     1     -14.475  -7.412  -0.410  1.00  0.00     0.198 A 
ATOM     80  C   UNL     1     -12.140  -7.601   0.111  1.00  0.00     0.198 A 
ATOM     81  F   UNL     1     -11.054  -5.876   1.289  1.00  0.00    -0.203 F 
ATOM     82  F   UNL     1     -15.595  -7.931  -0.932  1.00  0.00    -0.200 F 
ATOM     83  C   UNL     1     -13.290  -8.131  -0.455  1.00  0.00     0.200 A 
ATOM     84  F   UNL     1     -10.990  -8.287   0.056  1.00  0.00    -0.200 F 
ATOM     85  F   UNL     1     -13.259  -9.338  -1.037  1.00  0.00    -0.200 F 
ENDBRANCH  51  75
BRANCH  63  86
ATOM     86  C   UNL     1     -16.661  -3.243   6.448  1.00  0.00     0.064 A 
ATOM     87  C   UNL     1     -16.220  -4.189   7.384  1.00  0.00     0.173 A 
ATOM     88  C   UNL     1     -18.020  -2.893   6.457  1.00  0.00     0.173 A 
ATOM     89  F   UNL     1     -14.933  -4.567   7.406  1.00  0.00    -0.203 F 
ATOM     90  C   UNL     1     -17.111  -4.784   8.273  1.00  0.00     0.198 A 
ATOM     91  C   UNL     1     -18.902  -3.466   7.368  1.00  0.00     0.198 A 
ATOM     92  F   UNL     1     -18.492  -1.987   5.587  1.00  0.00    -0.203 F 
ATOM     93  F   UNL     1     -16.678  -5.726   9.122  1.00  0.00    -0.200 F 
ATOM     94  C   UNL     1     -18.449  -4.418   8.269  1.00  0.00     0.200 A 
ATOM     95  F   UNL     1     -20.191  -3.100   7.373  1.00  0.00    -0.200 F 
ATOM     96  F   UNL     1     -19.304  -4.989   9.128  1.00  0.00    -0.200 F 
ENDBRANCH  63  86
ENDBRANCH  37  38
ENDBRANCH  29  32
ENDBRANCH  27  28
ENDBRANCH  26  27
ENDBRANCH  25  26
ENDBRANCH  24  25
ENDBRANCH   1  24
TORSDOF 19
