REMARK SMILES CC(=O)c1nnn(-c2ccc(C(=O)NCCCCCCNC(=O)c3ccc(-c4c5nc(c(-c6c(F)c(F)c(F)c(F)c6F)c6ccc([nH]6)c(-c6c(F)c(F)c(F)c(F)c6F)c6nc(c(-c7c(F)c(F)c(F)c(F)c7F)c7ccc4[nH]7)C=C6)C=C5)cc3)cc2)c1C
REMARK SMILES IDX 17 1 16 2 15 3 14 4 12 5 13 6 11 8 8 9 9 10 88 11 10 12
REMARK SMILES IDX 87 13 7 14 4 15 5 16 89 17 6 18 90 19 2 20 1 21 3 22 18 23
REMARK SMILES IDX 19 24 20 25 21 26 22 27 23 29 24 30 25 31 86 32 26 33 85 34
REMARK SMILES IDX 27 35 28 36 29 37 79 38 30 39 84 40 78 41 80 42 31 43 83 44
REMARK SMILES IDX 77 45 76 46 32 48 64 49 44 50 63 51 45 52 48 53 62 54 81 55
REMARK SMILES IDX 46 56 47 57 61 59 82 60 49 61 33 62 34 63 42 64 35 65 36 66
REMARK SMILES IDX 40 67 43 68 37 69 38 70 41 71 39 72 65 73 66 74 74 75 67 76
REMARK SMILES IDX 68 77 72 78 75 79 69 80 70 81 73 82 71 83 50 84 51 85 59 86
REMARK SMILES IDX 52 87 53 88 57 89 60 90 54 91 55 92 58 93 56 94
REMARK H PARENT 14 7 21 28 80 47 48 58
REMARK Flexibility Score: inf
ROOT
ATOM      1  C   UNL     1       9.560   7.251   4.277  1.00  0.00     0.002 C 
ENDROOT
BRANCH   1   2
ATOM      2  C   UNL     1       8.210   6.702   3.796  1.00  0.00     0.021 C 
BRANCH   2   3
ATOM      3  C   UNL     1       8.081   5.186   3.969  1.00  0.00     0.116 C 
BRANCH   3   4
ATOM      4  N   UNL     1       7.721   4.871   5.339  1.00  0.00    -0.352 N 
ATOM      5  C   UNL     1       6.542   4.515   5.942  1.00  0.00     0.251 C 
ATOM      6  O   UNL     1       6.562   4.321   7.157  1.00  0.00    -0.269 OA
ATOM      7  H   UNL     1       8.479   4.924   5.964  1.00  0.00     0.163 HD
BRANCH   5   8
ATOM      8  C   UNL     1       5.277   4.268   5.191  1.00  0.00     0.039 A 
ATOM      9  C   UNL     1       3.025   3.429   3.768  1.00  0.00     0.067 A 
ATOM     10  C   UNL     1       3.205   2.980   5.075  1.00  0.00     0.029 A 
ATOM     11  C   UNL     1       3.879   4.388   3.218  1.00  0.00     0.029 A 
ATOM     12  C   UNL     1       4.353   3.376   5.767  1.00  0.00     0.016 A 
ATOM     13  C   UNL     1       4.968   4.847   3.959  1.00  0.00     0.016 A 
BRANCH   9  14
ATOM     14  N   UNL     1       2.006   2.878   2.974  1.00  0.00    -0.217 N 
ATOM     15  C   UNL     1       0.830   2.000   1.369  1.00  0.00     0.151 A 
ATOM     16  N   UNL     1      -0.013   2.411   2.369  1.00  0.00    -0.126 NA
ATOM     17  C   UNL     1       2.139   2.246   1.748  1.00  0.00     0.073 A 
ATOM     18  N   UNL     1       0.724   2.845   3.382  1.00  0.00    -0.061 NA
ATOM     19  C   UNL     1       3.444   1.884   1.143  1.00  0.00     0.069 C 
BRANCH  15  20
ATOM     20  C   UNL     1       0.340   1.346   0.168  1.00  0.00     0.181 C 
ATOM     21  C   UNL     1       0.742  -0.091  -0.048  1.00  0.00     0.095 C 
ATOM     22  O   UNL     1      -0.379   1.930  -0.640  1.00  0.00    -0.293 OA
ENDBRANCH  15  20
ENDBRANCH   9  14
ENDBRANCH   5   8
ENDBRANCH   3   4
ENDBRANCH   2   3
ENDBRANCH   1   2
BRANCH   1  23
ATOM     23  C   UNL     1      10.792   6.684   3.554  1.00  0.00     0.002 C 
BRANCH  23  24
ATOM     24  C   UNL     1      10.755   6.758   2.021  1.00  0.00     0.021 C 
BRANCH  24  25
ATOM     25  C   UNL     1      10.801   8.183   1.486  1.00  0.00     0.116 C 
BRANCH  25  26
ATOM     26  N   UNL     1      12.093   8.808   1.738  1.00  0.00    -0.352 N 
ATOM     27  C   UNL     1      12.527  10.067   1.389  1.00  0.00     0.251 C 
ATOM     28  H   UNL     1      12.745   8.254   2.225  1.00  0.00     0.163 HD
ATOM     29  O   UNL     1      13.720  10.313   1.314  1.00  0.00    -0.269 OA
BRANCH  27  30
ATOM     30  C   UNL     1      11.536  11.121   1.105  1.00  0.00     0.039 A 
ATOM     31  C   UNL     1      11.774  12.040   0.079  1.00  0.00     0.014 A 
ATOM     32  C   UNL     1      10.382  11.210   1.886  1.00  0.00     0.014 A 
ATOM     33  C   UNL     1      10.809  13.001  -0.203  1.00  0.00     0.010 A 
ATOM     34  C   UNL     1       9.384  12.097   1.547  1.00  0.00     0.010 A 
ATOM     35  C   UNL     1       9.604  13.009   0.520  1.00  0.00    -0.014 A 
BRANCH  35  36
ATOM     36  C   UNL     1       8.493  13.840   0.059  1.00  0.00     0.031 A 
ATOM     37  C   UNL     1       8.104  13.550  -1.350  1.00  0.00     0.074 A 
ATOM     38  C   UNL     1       7.755  14.632   0.868  1.00  0.00     0.049 A 
ATOM     39  N   UNL     1       8.213  14.331  -2.371  1.00  0.00    -0.248 NA
ATOM     40  C   UNL     1       7.708  12.174  -1.700  1.00  0.00     0.031 C 
ATOM     41  C   UNL     1       7.851  14.748   2.326  1.00  0.00     0.029 A 
ATOM     42  N   UNL     1       6.686  15.430   0.575  1.00  0.00    -0.354 N 
ATOM     43  C   UNL     1       7.698  13.623  -3.456  1.00  0.00     0.074 A 
ATOM     44  C   UNL     1       7.594  12.257  -3.028  1.00  0.00     0.031 C 
ATOM     45  C   UNL     1       6.753  15.375   2.806  1.00  0.00     0.029 A 
ATOM     46  C   UNL     1       5.955  15.843   1.688  1.00  0.00     0.049 A 
ATOM     47  H   UNL     1       6.452  15.692  -0.345  1.00  0.00     0.167 HD
ATOM     48  C   UNL     1       7.131  14.294  -4.498  1.00  0.00     0.037 A 
ATOM     49  C   UNL     1       4.769  16.503   1.690  1.00  0.00     0.037 A 
ATOM     50  C   UNL     1       7.512  15.685  -4.449  1.00  0.00     0.049 A 
ATOM     51  C   UNL     1       4.620  17.131   0.359  1.00  0.00     0.074 A 
ATOM     52  C   UNL     1       8.674  16.408  -4.606  1.00  0.00     0.029 A 
ATOM     53  N   UNL     1       6.627  16.485  -3.776  1.00  0.00    -0.354 N 
ATOM     54  N   UNL     1       5.355  18.121  -0.061  1.00  0.00    -0.248 NA
ATOM     55  C   UNL     1       3.883  16.416  -0.674  1.00  0.00     0.031 C 
ATOM     56  C   UNL     1       8.540  17.543  -3.749  1.00  0.00     0.029 A 
ATOM     57  C   UNL     1       7.278  17.510  -3.154  1.00  0.00     0.049 A 
ATOM     58  H   UNL     1       5.654  16.340  -3.746  1.00  0.00     0.167 HD
ATOM     59  C   UNL     1       5.535  17.865  -1.407  1.00  0.00     0.074 A 
ATOM     60  C   UNL     1       4.476  16.925  -1.757  1.00  0.00     0.031 C 
ATOM     61  C   UNL     1       6.713  18.193  -2.011  1.00  0.00     0.037 A 
BRANCH  48  62
ATOM     62  C   UNL     1       5.854  13.868  -5.214  1.00  0.00     0.064 A 
ATOM     63  C   UNL     1       5.325  14.728  -6.206  1.00  0.00     0.173 A 
ATOM     64  C   UNL     1       4.965  12.873  -4.756  1.00  0.00     0.173 A 
ATOM     65  F   UNL     1       6.070  15.714  -6.727  1.00  0.00    -0.203 F 
ATOM     66  C   UNL     1       3.986  14.669  -6.608  1.00  0.00     0.198 A 
ATOM     67  C   UNL     1       3.642  12.790  -5.194  1.00  0.00     0.198 A 
ATOM     68  F   UNL     1       5.286  12.003  -3.795  1.00  0.00    -0.203 F 
ATOM     69  F   UNL     1       3.500  15.599  -7.441  1.00  0.00    -0.200 F 
ATOM     70  C   UNL     1       3.142  13.708  -6.091  1.00  0.00     0.200 A 
ATOM     71  F   UNL     1       2.834  11.857  -4.667  1.00  0.00    -0.200 F 
ATOM     72  F   UNL     1       1.843  13.691  -6.418  1.00  0.00    -0.200 F 
ENDBRANCH  48  62
BRANCH  49  73
ATOM     73  C   UNL     1       3.646  16.470   2.660  1.00  0.00     0.064 A 
ATOM     74  C   UNL     1       2.632  17.446   2.632  1.00  0.00     0.173 A 
ATOM     75  C   UNL     1       3.380  15.320   3.426  1.00  0.00     0.173 A 
ATOM     76  F   UNL     1       2.784  18.558   1.899  1.00  0.00    -0.203 F 
ATOM     77  C   UNL     1       1.411  17.262   3.292  1.00  0.00     0.198 A 
ATOM     78  C   UNL     1       2.163  15.139   4.088  1.00  0.00     0.198 A 
ATOM     79  F   UNL     1       4.254  14.304   3.462  1.00  0.00    -0.203 F 
ATOM     80  F   UNL     1       0.443  18.181   3.177  1.00  0.00    -0.200 F 
ATOM     81  C   UNL     1       1.173  16.101   4.007  1.00  0.00     0.200 A 
ATOM     82  F   UNL     1       1.930  13.995   4.747  1.00  0.00    -0.200 F 
ATOM     83  F   UNL     1      -0.022  15.889   4.577  1.00  0.00    -0.200 F 
ENDBRANCH  49  73
BRANCH  61  84
ATOM     84  C   UNL     1       7.567  19.231  -1.345  1.00  0.00     0.064 A 
ATOM     85  C   UNL     1       8.178  19.088  -0.089  1.00  0.00     0.173 A 
ATOM     86  C   UNL     1       7.857  20.390  -2.079  1.00  0.00     0.173 A 
ATOM     87  F   UNL     1       8.018  17.974   0.638  1.00  0.00    -0.203 F 
ATOM     88  C   UNL     1       9.012  20.083   0.421  1.00  0.00     0.198 A 
ATOM     89  C   UNL     1       8.723  21.360  -1.587  1.00  0.00     0.198 A 
ATOM     90  F   UNL     1       7.332  20.560  -3.303  1.00  0.00    -0.203 F 
ATOM     91  F   UNL     1       9.570  19.936   1.632  1.00  0.00    -0.200 F 
ATOM     92  C   UNL     1       9.291  21.212  -0.333  1.00  0.00     0.200 A 
ATOM     93  F   UNL     1       9.025  22.425  -2.341  1.00  0.00    -0.200 F 
ATOM     94  F   UNL     1      10.126  22.148   0.139  1.00  0.00    -0.200 F 
ENDBRANCH  61  84
ENDBRANCH  35  36
ENDBRANCH  27  30
ENDBRANCH  25  26
ENDBRANCH  24  25
ENDBRANCH  23  24
ENDBRANCH   1  23
TORSDOF 15
