REMARK SMILES O=C(NCCCCCCNC(=O)[C@@H]1CCn2c(C(=O)c3ccccc3)ccc21)c1ccc(-c2c3nc(c(-c4c(F)c(F)c(F)c(F)c4F)c4ccc([nH]4)c(-c4c(F)c(F)c(F)c(F)c4F)c4nc(c(-c5c(F)c(F)c(F)c(F)c5F)c5ccc2[nH]5)C=C4)C=C3)cc1
REMARK SMILES IDX 6 1 5 2 4 3 3 4 1 5 2 6 29 8 30 9 91 10 31 11 90 12 32 13
REMARK SMILES IDX 33 14 34 15 84 16 35 17 89 18 83 19 85 20 36 21 88 22 82 23
REMARK SMILES IDX 81 24 37 26 69 27 49 28 68 29 50 30 53 31 67 32 86 33 51 34
REMARK SMILES IDX 52 35 66 37 87 38 54 39 38 40 39 41 47 42 40 43 41 44 45 45
REMARK SMILES IDX 48 46 42 47 43 48 46 49 44 50 70 51 71 52 79 53 72 54 73 55
REMARK SMILES IDX 77 56 80 57 74 58 75 59 78 60 76 61 55 62 56 63 64 64 57 65
REMARK SMILES IDX 58 66 62 67 65 68 59 69 60 70 63 71 61 72 7 73 8 74 9 75
REMARK SMILES IDX 10 76 11 77 12 79 13 80 14 81 28 82 15 83 16 84 27 85 17 86
REMARK SMILES IDX 26 87 18 88 19 89 20 90 21 91 25 92 22 93 24 94 23 95
REMARK H PARENT 3 7 85 25 53 36 10 78
REMARK Flexibility Score: inf
ROOT
ATOM      1  C   UNL     1       4.212  -3.308   2.075  1.00  0.00     0.002 C 
ENDROOT
BRANCH   1   2
ATOM      2  C   UNL     1       4.764  -1.897   1.876  1.00  0.00     0.021 C 
BRANCH   2   3
ATOM      3  C   UNL     1       4.474  -1.254   0.527  1.00  0.00     0.116 C 
BRANCH   3   4
ATOM      4  N   UNL     1       3.055  -1.120   0.249  1.00  0.00    -0.352 N 
ATOM      5  O   UNL     1       1.123  -0.067  -0.245  1.00  0.00    -0.269 OA
ATOM      6  C   UNL     1       2.347  -0.019  -0.165  1.00  0.00     0.251 C 
ATOM      7  H   UNL     1       2.523  -1.939   0.377  1.00  0.00     0.163 HD
BRANCH   6   8
ATOM      8  C   UNL     1       3.054   1.240  -0.487  1.00  0.00     0.039 A 
ATOM      9  C   UNL     1       4.210   1.240  -1.271  1.00  0.00     0.014 A 
ATOM     10  C   UNL     1       2.535   2.444  -0.004  1.00  0.00     0.014 A 
ATOM     11  C   UNL     1       4.917   2.423  -1.462  1.00  0.00     0.010 A 
ATOM     12  C   UNL     1       3.204   3.643  -0.262  1.00  0.00     0.010 A 
ATOM     13  C   UNL     1       4.415   3.639  -0.970  1.00  0.00    -0.014 A 
BRANCH  13  14
ATOM     14  C   UNL     1       5.140   4.903  -1.251  1.00  0.00     0.031 A 
ATOM     15  C   UNL     1       5.757   5.706  -0.141  1.00  0.00     0.074 A 
ATOM     16  C   UNL     1       5.239   5.324  -2.526  1.00  0.00     0.049 A 
ATOM     17  N   UNL     1       6.404   6.843  -0.206  1.00  0.00    -0.248 NA
ATOM     18  C   UNL     1       5.626   5.167   1.220  1.00  0.00     0.031 C 
ATOM     19  C   UNL     1       4.670   4.633  -3.685  1.00  0.00     0.029 A 
ATOM     20  N   UNL     1       5.853   6.426  -3.064  1.00  0.00    -0.354 N 
ATOM     21  C   UNL     1       6.740   7.165   1.102  1.00  0.00     0.074 A 
ATOM     22  C   UNL     1       6.203   6.117   1.944  1.00  0.00     0.031 C 
ATOM     23  C   UNL     1       4.987   5.309  -4.799  1.00  0.00     0.029 A 
ATOM     24  C   UNL     1       5.729   6.509  -4.429  1.00  0.00     0.049 A 
ATOM     25  H   UNL     1       6.336   7.092  -2.524  1.00  0.00     0.167 HD
ATOM     26  C   UNL     1       7.438   8.235   1.555  1.00  0.00     0.037 A 
ATOM     27  C   UNL     1       6.146   7.458  -5.287  1.00  0.00     0.037 A 
ATOM     28  C   UNL     1       7.980   9.268   0.709  1.00  0.00     0.049 A 
ATOM     29  C   UNL     1       6.893   8.646  -4.755  1.00  0.00     0.074 A 
ATOM     30  C   UNL     1       8.734  10.372   1.068  1.00  0.00     0.029 A 
ATOM     31  N   UNL     1       7.818   9.328  -0.669  1.00  0.00    -0.354 N 
ATOM     32  N   UNL     1       7.235   8.922  -3.520  1.00  0.00    -0.248 NA
ATOM     33  C   UNL     1       7.312   9.656  -5.735  1.00  0.00     0.031 C 
ATOM     34  C   UNL     1       8.988  11.124  -0.085  1.00  0.00     0.029 A 
ATOM     35  C   UNL     1       8.437  10.462  -1.170  1.00  0.00     0.049 A 
ATOM     36  H   UNL     1       7.334   8.663  -1.210  1.00  0.00     0.167 HD
ATOM     37  C   UNL     1       7.925  10.124  -3.575  1.00  0.00     0.074 A 
ATOM     38  C   UNL     1       7.967  10.517  -4.969  1.00  0.00     0.031 C 
ATOM     39  C   UNL     1       8.472  10.838  -2.561  1.00  0.00     0.037 A 
BRANCH  26  40
ATOM     40  C   UNL     1       7.643   8.357   3.038  1.00  0.00     0.064 A 
ATOM     41  C   UNL     1       8.508   7.503   3.738  1.00  0.00     0.173 A 
ATOM     42  C   UNL     1       6.996   9.370   3.763  1.00  0.00     0.173 A 
ATOM     43  F   UNL     1       9.144   6.512   3.094  1.00  0.00    -0.203 F 
ATOM     44  C   UNL     1       8.697   7.641   5.111  1.00  0.00     0.198 A 
ATOM     45  C   UNL     1       7.209   9.523   5.131  1.00  0.00     0.198 A 
ATOM     46  F   UNL     1       6.164  10.220   3.143  1.00  0.00    -0.203 F 
ATOM     47  F   UNL     1       9.495   6.785   5.765  1.00  0.00    -0.200 F 
ATOM     48  C   UNL     1       8.053   8.654   5.805  1.00  0.00     0.200 A 
ATOM     49  F   UNL     1       6.596  10.512   5.797  1.00  0.00    -0.200 F 
ATOM     50  F   UNL     1       8.242   8.790   7.125  1.00  0.00    -0.200 F 
ENDBRANCH  26  40
BRANCH  27  51
ATOM     51  C   UNL     1       5.860   7.311  -6.736  1.00  0.00     0.064 A 
ATOM     52  C   UNL     1       6.888   7.047  -7.651  1.00  0.00     0.173 A 
ATOM     53  C   UNL     1       4.551   7.406  -7.232  1.00  0.00     0.173 A 
ATOM     54  F   UNL     1       8.157   6.966  -7.226  1.00  0.00    -0.203 F 
ATOM     55  C   UNL     1       6.618   6.894  -9.009  1.00  0.00     0.198 A 
ATOM     56  C   UNL     1       4.279   7.223  -8.585  1.00  0.00     0.198 A 
ATOM     57  F   UNL     1       3.532   7.651  -6.395  1.00  0.00    -0.203 F 
ATOM     58  F   UNL     1       7.623   6.676  -9.868  1.00  0.00    -0.200 F 
ATOM     59  C   UNL     1       5.314   6.973  -9.474  1.00  0.00     0.200 A 
ATOM     60  F   UNL     1       3.015   7.283  -9.027  1.00  0.00    -0.200 F 
ATOM     61  F   UNL     1       5.054   6.813 -10.778  1.00  0.00    -0.200 F 
ENDBRANCH  27  51
BRANCH  39  62
ATOM     62  C   UNL     1       9.193  12.102  -2.928  1.00  0.00     0.064 A 
ATOM     63  C   UNL     1       8.501  13.251  -3.339  1.00  0.00     0.173 A 
ATOM     64  C   UNL     1      10.591  12.174  -2.837  1.00  0.00     0.173 A 
ATOM     65  F   UNL     1       7.165  13.228  -3.460  1.00  0.00    -0.203 F 
ATOM     66  C   UNL     1       9.185  14.418  -3.669  1.00  0.00     0.198 A 
ATOM     67  C   UNL     1      11.269  13.350  -3.140  1.00  0.00     0.198 A 
ATOM     68  F   UNL     1      11.298  11.103  -2.445  1.00  0.00    -0.203 F 
ATOM     69  F   UNL     1       8.508  15.489  -4.106  1.00  0.00    -0.200 F 
ATOM     70  C   UNL     1      10.567  14.469  -3.562  1.00  0.00     0.200 A 
ATOM     71  F   UNL     1      12.604  13.401  -3.025  1.00  0.00    -0.200 F 
ATOM     72  F   UNL     1      11.224  15.594  -3.876  1.00  0.00    -0.200 F 
ENDBRANCH  39  62
ENDBRANCH  13  14
ENDBRANCH   6   8
ENDBRANCH   3   4
ENDBRANCH   2   3
ENDBRANCH   1   2
BRANCH   1  73
ATOM     73  C   UNL     1       4.534  -4.331   0.980  1.00  0.00     0.002 C 
BRANCH  73  74
ATOM     74  C   UNL     1       6.010  -4.495   0.598  1.00  0.00     0.021 C 
BRANCH  74  75
ATOM     75  C   UNL     1       6.971  -4.720   1.758  1.00  0.00     0.116 C 
BRANCH  75  76
ATOM     76  N   UNL     1       6.708  -5.915   2.518  1.00  0.00    -0.356 N 
ATOM     77  C   UNL     1       7.566  -6.609   3.322  1.00  0.00     0.229 C 
ATOM     78  H   UNL     1       5.795  -6.277   2.449  1.00  0.00     0.163 HD
ATOM     79  O   UNL     1       7.064  -7.491   4.024  1.00  0.00    -0.274 OA
BRANCH  77  80
ATOM     80  C   UNL     1       9.082  -6.379   3.243  1.00  0.00     0.127 C 
ATOM     81  C   UNL     1       9.841  -7.440   4.099  1.00  0.00     0.042 C 
ATOM     82  C   UNL     1       9.572  -5.098   3.848  1.00  0.00     0.031 A 
ATOM     83  C   UNL     1      10.979  -6.711   4.819  1.00  0.00     0.124 C 
ATOM     84  N   UNL     1      10.606  -5.313   4.725  1.00  0.00    -0.341 N 
ATOM     85  C   UNL     1       9.404  -3.742   3.744  1.00  0.00     0.025 A 
ATOM     86  C   UNL     1      11.075  -4.148   5.260  1.00  0.00     0.090 A 
ATOM     87  C   UNL     1      10.319  -3.151   4.649  1.00  0.00     0.032 A 
BRANCH  86  88
ATOM     88  C   UNL     1      12.096  -3.899   6.264  1.00  0.00     0.209 C 
ATOM     89  O   UNL     1      12.258  -2.794   6.782  1.00  0.00    -0.287 OA
BRANCH  88  90
ATOM     90  C   UNL     1      12.989  -4.970   6.741  1.00  0.00     0.024 A 
ATOM     91  C   UNL     1      13.027  -5.239   8.113  1.00  0.00     0.012 A 
ATOM     92  C   UNL     1      13.839  -5.647   5.862  1.00  0.00     0.012 A 
ATOM     93  C   UNL     1      13.883  -6.225   8.601  1.00  0.00     0.001 A 
ATOM     94  C   UNL     1      14.685  -6.641   6.354  1.00  0.00     0.001 A 
ATOM     95  C   UNL     1      14.702  -6.932   7.720  1.00  0.00     0.000 A 
ENDBRANCH  88  90
ENDBRANCH  86  88
ENDBRANCH  77  80
ENDBRANCH  75  76
ENDBRANCH  74  75
ENDBRANCH  73  74
ENDBRANCH   1  73
TORSDOF 15
