REMARK SMILES Cc1ccc(-c2cn3c(n2)sc2cc(C(=O)NCCCCCCNC(=O)c4ccc(-c5c6nc(c(-c7c(F)c(F)c(F)c(F)c7F)c7ccc([nH]7)c(-c7c(F)c(F)c(F)c(F)c7F)c7nc(c(-c8c(F)c(F)c(F)c(F)c8F)c8ccc5[nH]8)C=C7)C=C6)cc4)ccc23)cc1
REMARK SMILES IDX 21 1 20 2 19 3 18 4 17 5 15 6 16 7 14 9 6 10 7 11 10 12 8 13
REMARK SMILES IDX 9 14 92 15 11 16 12 17 91 18 13 19 90 20 5 21 1 22 2 23 3 24
REMARK SMILES IDX 94 25 4 26 93 27 22 28 23 29 24 30 25 31 26 33 27 34 28 35
REMARK SMILES IDX 89 36 29 37 88 38 30 39 31 40 32 41 82 42 33 43 87 44 81 45
REMARK SMILES IDX 83 46 34 47 86 48 80 49 79 50 35 52 67 53 47 54 66 55 48 56
REMARK SMILES IDX 51 57 65 58 84 59 49 60 50 61 64 63 85 64 52 65 36 66 37 67
REMARK SMILES IDX 45 68 38 69 39 70 43 71 46 72 40 73 41 74 44 75 42 76 68 77
REMARK SMILES IDX 69 78 77 79 70 80 71 81 75 82 78 83 72 84 73 85 76 86 74 87
REMARK SMILES IDX 53 88 54 89 62 90 55 91 56 92 60 93 63 94 57 95 58 96 61 97
REMARK SMILES IDX 59 98
REMARK H PARENT 17 8 24 32 83 51 51 62
REMARK Flexibility Score: inf
ROOT
ATOM      1  C   UNL     1      -2.501   3.214   6.115  1.00  0.00     0.002 C 
ENDROOT
BRANCH   1   2
ATOM      2  C   UNL     1      -3.986   3.042   6.484  1.00  0.00     0.002 C 
BRANCH   2   3
ATOM      3  C   UNL     1      -4.814   2.073   5.625  1.00  0.00     0.021 C 
BRANCH   3   4
ATOM      4  C   UNL     1      -4.254   0.649   5.520  1.00  0.00     0.116 C 
BRANCH   4   5
ATOM      5  N   UNL     1      -4.919  -0.277   6.435  1.00  0.00    -0.352 N 
ATOM      6  C   UNL     1      -5.751  -1.344   6.157  1.00  0.00     0.251 C 
ATOM      7  O   UNL     1      -6.073  -2.139   7.032  1.00  0.00    -0.269 OA
ATOM      8  H   UNL     1      -4.749  -0.117   7.391  1.00  0.00     0.163 HD
BRANCH   6   9
ATOM      9  C   UNL     1      -6.173  -1.579   4.759  1.00  0.00     0.041 A 
ATOM     10  C   UNL     1      -3.556  -0.564  -0.050  1.00  0.00     0.090 A 
ATOM     11  C   UNL     1      -4.213  -1.738   0.301  1.00  0.00     0.123 A 
ATOM     12  N   UNL     1      -4.413   0.529   0.020  1.00  0.00    -0.219 NA
ATOM     13  N   UNL     1      -5.361  -1.280   0.885  1.00  0.00    -0.290 N 
ATOM     14  C   UNL     1      -5.498   0.044   0.570  1.00  0.00     0.195 A 
ATOM     15  C   UNL     1      -6.004  -1.700   2.056  1.00  0.00     0.065 A 
ATOM     16  S   UNL     1      -6.690   0.845   1.562  1.00  0.00    -0.096 S 
ATOM     17  C   UNL     1      -6.640  -0.594   2.649  1.00  0.00     0.056 A 
ATOM     18  C   UNL     1      -5.646  -2.843   2.757  1.00  0.00     0.029 A 
ATOM     19  C   UNL     1      -6.754  -0.536   4.024  1.00  0.00     0.035 A 
ATOM     20  C   UNL     1      -5.724  -2.767   4.145  1.00  0.00     0.016 A 
BRANCH  10  21
ATOM     21  C   UNL     1      -2.109  -0.426  -0.177  1.00  0.00     0.002 A 
ATOM     22  C   UNL     1       2.189   0.062  -0.068  1.00  0.00     0.044 C 
ATOM     23  C   UNL     1       0.698  -0.096  -0.115  1.00  0.00    -0.051 A 
ATOM     24  C   UNL     1       0.134  -1.374  -0.177  1.00  0.00     0.004 A 
ATOM     25  C   UNL     1      -0.147   1.017  -0.088  1.00  0.00     0.004 A 
ATOM     26  C   UNL     1      -1.255  -1.538  -0.210  1.00  0.00     0.010 A 
ATOM     27  C   UNL     1      -1.535   0.852  -0.120  1.00  0.00     0.010 A 
ENDBRANCH  10  21
ENDBRANCH   6   9
ENDBRANCH   4   5
ENDBRANCH   3   4
ENDBRANCH   2   3
ENDBRANCH   1   2
BRANCH   1  28
ATOM     28  C   UNL     1      -2.188   3.423   4.631  1.00  0.00     0.021 C 
BRANCH  28  29
ATOM     29  C   UNL     1      -2.545   4.809   4.104  1.00  0.00     0.116 C 
BRANCH  29  30
ATOM     30  N   UNL     1      -1.409   5.726   4.050  1.00  0.00    -0.352 N 
ATOM     31  C   UNL     1      -1.376   7.067   3.687  1.00  0.00     0.251 C 
ATOM     32  H   UNL     1      -0.542   5.339   4.309  1.00  0.00     0.163 HD
ATOM     33  O   UNL     1      -0.343   7.692   3.690  1.00  0.00    -0.269 OA
BRANCH  31  34
ATOM     34  C   UNL     1      -2.666   7.747   3.412  1.00  0.00     0.039 A 
ATOM     35  C   UNL     1      -2.967   8.899   4.147  1.00  0.00     0.014 A 
ATOM     36  C   UNL     1      -3.631   7.138   2.615  1.00  0.00     0.014 A 
ATOM     37  C   UNL     1      -4.296   9.291   4.276  1.00  0.00     0.010 A 
ATOM     38  C   UNL     1      -4.956   7.471   2.811  1.00  0.00     0.010 A 
ATOM     39  C   UNL     1      -5.290   8.498   3.701  1.00  0.00    -0.014 A 
BRANCH  39  40
ATOM     40  C   UNL     1      -6.691   8.578   4.099  1.00  0.00     0.031 A 
ATOM     41  C   UNL     1      -7.697   9.211   3.224  1.00  0.00     0.074 A 
ATOM     42  C   UNL     1      -7.072   7.990   5.255  1.00  0.00     0.049 A 
ATOM     43  N   UNL     1      -8.823   9.690   3.635  1.00  0.00    -0.248 NA
ATOM     44  C   UNL     1      -7.482   9.393   1.795  1.00  0.00     0.031 C 
ATOM     45  C   UNL     1      -8.434   7.707   5.702  1.00  0.00     0.029 A 
ATOM     46  N   UNL     1      -6.271   7.704   6.375  1.00  0.00    -0.354 N 
ATOM     47  C   UNL     1      -9.582   9.996   2.529  1.00  0.00     0.074 A 
ATOM     48  C   UNL     1      -8.678   9.851   1.410  1.00  0.00     0.031 C 
ATOM     49  C   UNL     1      -8.432   7.580   7.038  1.00  0.00     0.029 A 
ATOM     50  C   UNL     1      -7.099   7.928   7.498  1.00  0.00     0.049 A 
ATOM     51  H   UNL     1      -5.331   7.411   6.376  1.00  0.00     0.167 HD
ATOM     52  C   UNL     1     -10.924  10.206   2.676  1.00  0.00     0.037 A 
ATOM     53  C   UNL     1      -6.821   8.903   8.411  1.00  0.00     0.037 A 
ATOM     54  C   UNL     1     -11.315  10.160   4.083  1.00  0.00     0.049 A 
ATOM     55  C   UNL     1      -7.925   9.916   8.586  1.00  0.00     0.074 A 
ATOM     56  C   UNL     1     -11.854   9.155   4.870  1.00  0.00     0.029 A 
ATOM     57  N   UNL     1     -10.881  11.153   4.955  1.00  0.00    -0.354 N 
ATOM     58  N   UNL     1      -8.858  10.131   7.702  1.00  0.00    -0.248 NA
ATOM     59  C   UNL     1      -8.036  10.798   9.745  1.00  0.00     0.031 C 
ATOM     60  C   UNL     1     -11.699   9.526   6.226  1.00  0.00     0.029 A 
ATOM     61  C   UNL     1     -11.083  10.764   6.265  1.00  0.00     0.049 A 
ATOM     62  H   UNL     1     -10.485  12.011   4.677  1.00  0.00     0.167 HD
ATOM     63  C   UNL     1      -9.659  11.156   8.129  1.00  0.00     0.074 A 
ATOM     64  C   UNL     1      -9.117  11.529   9.421  1.00  0.00     0.031 C 
ATOM     65  C   UNL     1     -10.695  11.622   7.372  1.00  0.00     0.037 A 
BRANCH  52  66
ATOM     66  C   UNL     1     -11.921  10.136   1.535  1.00  0.00     0.064 A 
ATOM     67  C   UNL     1     -13.239   9.674   1.750  1.00  0.00     0.173 A 
ATOM     68  C   UNL     1     -11.623  10.441   0.195  1.00  0.00     0.173 A 
ATOM     69  F   UNL     1     -13.720   9.470   2.982  1.00  0.00    -0.203 F 
ATOM     70  C   UNL     1     -14.123   9.401   0.702  1.00  0.00     0.198 A 
ATOM     71  C   UNL     1     -12.484  10.115  -0.860  1.00  0.00     0.198 A 
ATOM     72  F   UNL     1     -10.517  11.119  -0.133  1.00  0.00    -0.203 F 
ATOM     73  F   UNL     1     -15.355   8.947   0.972  1.00  0.00    -0.200 F 
ATOM     74  C   UNL     1     -13.729   9.578  -0.607  1.00  0.00     0.200 A 
ATOM     75  F   UNL     1     -12.095  10.329  -2.125  1.00  0.00    -0.200 F 
ATOM     76  F   UNL     1     -14.554   9.264  -1.615  1.00  0.00    -0.200 F 
ENDBRANCH  52  66
BRANCH  53  77
ATOM     77  C   UNL     1      -5.371   9.210   8.531  1.00  0.00     0.064 A 
ATOM     78  C   UNL     1      -4.502   8.193   8.971  1.00  0.00     0.173 A 
ATOM     79  C   UNL     1      -4.802  10.320   7.898  1.00  0.00     0.173 A 
ATOM     80  F   UNL     1      -4.998   7.105   9.581  1.00  0.00    -0.203 F 
ATOM     81  C   UNL     1      -3.138   8.234   8.689  1.00  0.00     0.198 A 
ATOM     82  C   UNL     1      -3.432  10.364   7.629  1.00  0.00     0.198 A 
ATOM     83  F   UNL     1      -5.578  11.313   7.439  1.00  0.00    -0.203 F 
ATOM     84  F   UNL     1      -2.355   7.199   9.025  1.00  0.00    -0.200 F 
ATOM     85  C   UNL     1      -2.609   9.308   7.995  1.00  0.00     0.200 A 
ATOM     86  F   UNL     1      -2.923  11.389   6.931  1.00  0.00    -0.200 F 
ATOM     87  F   UNL     1      -1.316   9.309   7.642  1.00  0.00    -0.200 F 
ENDBRANCH  53  77
BRANCH  65  88
ATOM     88  C   UNL     1     -11.499  12.865   7.649  1.00  0.00     0.064 A 
ATOM     89  C   UNL     1     -10.971  14.012   8.263  1.00  0.00     0.173 A 
ATOM     90  C   UNL     1     -12.819  12.987   7.153  1.00  0.00     0.173 A 
ATOM     91  F   UNL     1      -9.696  14.057   8.671  1.00  0.00    -0.203 F 
ATOM     92  C   UNL     1     -11.728  15.176   8.424  1.00  0.00     0.198 A 
ATOM     93  C   UNL     1     -13.552  14.167   7.268  1.00  0.00     0.198 A 
ATOM     94  F   UNL     1     -13.426  11.970   6.523  1.00  0.00    -0.203 F 
ATOM     95  F   UNL     1     -11.192  16.233   9.052  1.00  0.00    -0.200 F 
ATOM     96  C   UNL     1     -13.011  15.258   7.917  1.00  0.00     0.200 A 
ATOM     97  F   UNL     1     -14.776  14.246   6.728  1.00  0.00    -0.200 F 
ATOM     98  F   UNL     1     -13.717  16.390   8.036  1.00  0.00    -0.200 F 
ENDBRANCH  65  88
ENDBRANCH  39  40
ENDBRANCH  31  34
ENDBRANCH  29  30
ENDBRANCH  28  29
ENDBRANCH   1  28
TORSDOF 14
