REMARK SMILES O=C(NCCCCCCNC(=O)c1nnn(-c2cccc(C(F)(F)F)c2)c1[C@@H]1COc2ccccc2O1)c1ccc(-c2c3nc(c(-c4c(F)c(F)c(F)c(F)c4F)c4ccc([nH]4)c(-c4c(F)c(F)c(F)c(F)c4F)c4nc(c(-c5c(F)c(F)c(F)c(F)c5F)c5ccc2[nH]5)C=C4)C=C3)cc1
REMARK SMILES IDX 6 1 5 2 4 3 3 4 1 5 2 6 38 8 39 9 100 10 40 11 99 12 41 13
REMARK SMILES IDX 42 14 43 15 93 16 44 17 98 18 92 19 94 20 45 21 97 22 91 23
REMARK SMILES IDX 90 24 46 26 78 27 58 28 77 29 59 30 62 31 76 32 95 33 60 34
REMARK SMILES IDX 61 35 75 37 96 38 63 39 47 40 48 41 56 42 49 43 50 44 54 45
REMARK SMILES IDX 57 46 51 47 52 48 55 49 53 50 79 51 80 52 88 53 81 54 82 55
REMARK SMILES IDX 86 56 89 57 83 58 84 59 87 60 85 61 64 62 65 63 73 64 66 65
REMARK SMILES IDX 67 66 71 67 74 68 68 69 69 70 72 71 70 72 7 73 8 74 9 75
REMARK SMILES IDX 10 76 11 77 12 79 13 80 14 81 27 82 15 83 16 84 28 85 29 86
REMARK SMILES IDX 37 87 30 88 36 89 31 90 35 91 32 92 34 93 33 94 17 95 18 96
REMARK SMILES IDX 26 97 19 98 21 99 20 100 22 101 23 102 24 103 25 104
REMARK H PARENT 3 7 94 25 62 36 10 78
REMARK Flexibility Score: inf
ROOT
ATOM      1  C   UNL     1       3.999   2.952   2.070  1.00  0.00     0.002 C 
ENDROOT
BRANCH   1   2
ATOM      2  C   UNL     1       4.692   2.143   0.964  1.00  0.00     0.021 C 
BRANCH   2   3
ATOM      3  C   UNL     1       4.582   0.625   1.084  1.00  0.00     0.116 C 
BRANCH   3   4
ATOM      4  N   UNL     1       3.225   0.119   1.131  1.00  0.00    -0.352 N 
ATOM      5  O   UNL     1       1.192  -0.597   0.636  1.00  0.00    -0.269 OA
ATOM      6  C   UNL     1       2.238  -0.100   0.211  1.00  0.00     0.251 C 
ATOM      7  H   UNL     1       2.947  -0.124   2.044  1.00  0.00     0.163 HD
BRANCH   6   8
ATOM      8  C   UNL     1       2.316   0.254  -1.231  1.00  0.00     0.039 A 
ATOM      9  C   UNL     1       3.492   0.417  -1.963  1.00  0.00     0.014 A 
ATOM     10  C   UNL     1       1.083   0.376  -1.901  1.00  0.00     0.014 A 
ATOM     11  C   UNL     1       3.439   0.751  -3.317  1.00  0.00     0.010 A 
ATOM     12  C   UNL     1       1.025   0.687  -3.256  1.00  0.00     0.010 A 
ATOM     13  C   UNL     1       2.207   0.895  -3.963  1.00  0.00    -0.014 A 
BRANCH  13  14
ATOM     14  C   UNL     1       2.202   1.100  -5.414  1.00  0.00     0.031 A 
ATOM     15  C   UNL     1       2.755  -0.026  -6.231  1.00  0.00     0.074 A 
ATOM     16  C   UNL     1       1.579   2.129  -6.023  1.00  0.00     0.049 A 
ATOM     17  N   UNL     1       3.669   0.008  -7.151  1.00  0.00    -0.248 NA
ATOM     18  C   UNL     1       2.243  -1.378  -5.952  1.00  0.00     0.031 C 
ATOM     19  C   UNL     1       0.716   3.144  -5.415  1.00  0.00     0.029 A 
ATOM     20  N   UNL     1       1.502   2.415  -7.356  1.00  0.00    -0.354 N 
ATOM     21  C   UNL     1       3.749  -1.286  -7.667  1.00  0.00     0.074 A 
ATOM     22  C   UNL     1       2.919  -2.116  -6.833  1.00  0.00     0.031 C 
ATOM     23  C   UNL     1       0.041   3.795  -6.389  1.00  0.00     0.029 A 
ATOM     24  C   UNL     1       0.514   3.332  -7.683  1.00  0.00     0.049 A 
ATOM     25  H   UNL     1       2.095   2.005  -8.027  1.00  0.00     0.167 HD
ATOM     26  C   UNL     1       4.359  -1.567  -8.853  1.00  0.00     0.037 A 
ATOM     27  C   UNL     1       0.066   3.638  -8.926  1.00  0.00     0.037 A 
ATOM     28  C   UNL     1       5.282  -0.539  -9.242  1.00  0.00     0.049 A 
ATOM     29  C   UNL     1       1.086   3.195  -9.905  1.00  0.00     0.074 A 
ATOM     30  C   UNL     1       6.431  -0.006  -8.690  1.00  0.00     0.029 A 
ATOM     31  N   UNL     1       4.922   0.332 -10.237  1.00  0.00    -0.354 N 
ATOM     32  N   UNL     1       2.253   3.752 -10.058  1.00  0.00    -0.248 NA
ATOM     33  C   UNL     1       0.948   1.863 -10.474  1.00  0.00     0.031 C 
ATOM     34  C   UNL     1       6.395   1.379  -9.028  1.00  0.00     0.029 A 
ATOM     35  C   UNL     1       5.247   1.587  -9.792  1.00  0.00     0.049 A 
ATOM     36  H   UNL     1       4.510   0.102 -11.101  1.00  0.00     0.167 HD
ATOM     37  C   UNL     1       3.106   2.700 -10.353  1.00  0.00     0.074 A 
ATOM     38  C   UNL     1       2.233   1.586 -10.704  1.00  0.00     0.031 C 
ATOM     39  C   UNL     1       4.427   2.752 -10.017  1.00  0.00     0.037 A 
BRANCH  26  40
ATOM     40  C   UNL     1       3.898  -2.640  -9.807  1.00  0.00     0.064 A 
ATOM     41  C   UNL     1       4.711  -3.011 -10.897  1.00  0.00     0.173 A 
ATOM     42  C   UNL     1       2.566  -3.104  -9.855  1.00  0.00     0.173 A 
ATOM     43  F   UNL     1       5.985  -2.596 -10.971  1.00  0.00    -0.203 F 
ATOM     44  C   UNL     1       4.209  -3.741 -11.978  1.00  0.00     0.198 A 
ATOM     45  C   UNL     1       2.083  -3.877 -10.910  1.00  0.00     0.198 A 
ATOM     46  F   UNL     1       1.658  -2.736  -8.942  1.00  0.00    -0.203 F 
ATOM     47  F   UNL     1       4.986  -3.970 -13.046  1.00  0.00    -0.200 F 
ATOM     48  C   UNL     1       2.894  -4.171 -11.985  1.00  0.00     0.200 A 
ATOM     49  F   UNL     1       0.799  -4.265 -10.909  1.00  0.00    -0.200 F 
ATOM     50  F   UNL     1       2.396  -4.821 -13.045  1.00  0.00    -0.200 F 
ENDBRANCH  26  40
BRANCH  27  51
ATOM     51  C   UNL     1      -1.300   4.031  -9.342  1.00  0.00     0.064 A 
ATOM     52  C   UNL     1      -1.535   4.649 -10.581  1.00  0.00     0.173 A 
ATOM     53  C   UNL     1      -2.434   3.560  -8.652  1.00  0.00     0.173 A 
ATOM     54  F   UNL     1      -0.507   5.082 -11.325  1.00  0.00    -0.203 F 
ATOM     55  C   UNL     1      -2.826   4.769 -11.107  1.00  0.00     0.198 A 
ATOM     56  C   UNL     1      -3.721   3.689  -9.173  1.00  0.00     0.198 A 
ATOM     57  F   UNL     1      -2.307   2.878  -7.505  1.00  0.00    -0.203 F 
ATOM     58  F   UNL     1      -3.005   5.308 -12.322  1.00  0.00    -0.200 F 
ATOM     59  C   UNL     1      -3.916   4.281 -10.406  1.00  0.00     0.200 A 
ATOM     60  F   UNL     1      -4.763   3.180  -8.501  1.00  0.00    -0.200 F 
ATOM     61  F   UNL     1      -5.146   4.342 -10.936  1.00  0.00    -0.200 F 
ENDBRANCH  27  51
BRANCH  39  62
ATOM     62  C   UNL     1       4.989   4.076  -9.585  1.00  0.00     0.064 A 
ATOM     63  C   UNL     1       4.551   4.778  -8.448  1.00  0.00     0.173 A 
ATOM     64  C   UNL     1       6.103   4.584 -10.267  1.00  0.00     0.173 A 
ATOM     65  F   UNL     1       3.566   4.300  -7.678  1.00  0.00    -0.203 F 
ATOM     66  C   UNL     1       5.167   5.962  -8.049  1.00  0.00     0.198 A 
ATOM     67  C   UNL     1       6.741   5.746  -9.843  1.00  0.00     0.198 A 
ATOM     68  F   UNL     1       6.605   3.922 -11.322  1.00  0.00    -0.203 F 
ATOM     69  F   UNL     1       4.720   6.622  -6.970  1.00  0.00    -0.200 F 
ATOM     70  C   UNL     1       6.265   6.442  -8.743  1.00  0.00     0.200 A 
ATOM     71  F   UNL     1       7.836   6.176 -10.484  1.00  0.00    -0.200 F 
ATOM     72  F   UNL     1       6.885   7.557  -8.333  1.00  0.00    -0.200 F 
ENDBRANCH  39  62
ENDBRANCH  13  14
ENDBRANCH   6   8
ENDBRANCH   3   4
ENDBRANCH   2   3
ENDBRANCH   1   2
BRANCH   1  73
ATOM     73  C   UNL     1       4.367   2.621   3.523  1.00  0.00     0.002 C 
BRANCH  73  74
ATOM     74  C   UNL     1       5.853   2.621   3.873  1.00  0.00     0.021 C 
BRANCH  74  75
ATOM     75  C   UNL     1       6.609   3.926   3.651  1.00  0.00     0.116 C 
BRANCH  75  76
ATOM     76  N   UNL     1       6.665   4.832   4.769  1.00  0.00    -0.351 N 
ATOM     77  C   UNL     1       7.639   5.643   5.316  1.00  0.00     0.273 C 
ATOM     78  H   UNL     1       5.811   4.885   5.256  1.00  0.00     0.163 HD
ATOM     79  O   UNL     1       7.245   6.251   6.320  1.00  0.00    -0.267 OA
BRANCH  77  80
ATOM     80  C   UNL     1       9.036   5.838   4.851  1.00  0.00     0.178 A 
ATOM     81  N   UNL     1       9.892   6.460   5.753  1.00  0.00    -0.124 NA
ATOM     82  C   UNL     1       9.801   5.522   3.720  1.00  0.00     0.122 A 
ATOM     83  N   UNL     1      11.111   6.512   5.250  1.00  0.00    -0.061 NA
ATOM     84  N   UNL     1      11.049   6.074   3.986  1.00  0.00    -0.213 N 
BRANCH  82  85
ATOM     85  C   UNL     1       9.553   4.596   2.572  1.00  0.00     0.262 C 
ATOM     86  C   UNL     1       9.861   3.145   3.007  1.00  0.00     0.281 C 
ATOM     87  O   UNL     1      10.183   4.995   1.350  1.00  0.00    -0.477 OA
ATOM     88  O   UNL     1      11.245   2.830   2.879  1.00  0.00    -0.485 OA
ATOM     89  C   UNL     1      10.998   4.036   0.804  1.00  0.00     0.162 A 
ATOM     90  C   UNL     1      11.579   3.019   1.566  1.00  0.00     0.161 A 
ATOM     91  C   UNL     1      11.299   4.140  -0.548  1.00  0.00     0.050 A 
ATOM     92  C   UNL     1      12.521   2.161   1.015  1.00  0.00     0.050 A 
ATOM     93  C   UNL     1      12.201   3.242  -1.124  1.00  0.00     0.004 A 
ATOM     94  C   UNL     1      12.827   2.269  -0.339  1.00  0.00     0.004 A 
ENDBRANCH  82  85
BRANCH  84  95
ATOM     95  C   UNL     1      12.158   6.217   3.133  1.00  0.00     0.067 A 
ATOM     96  C   UNL     1      13.282   5.410   3.321  1.00  0.00     0.028 A 
ATOM     97  C   UNL     1      12.057   7.074   2.031  1.00  0.00     0.041 A 
ATOM     98  C   UNL     1      14.267   5.386   2.333  1.00  0.00     0.003 A 
ATOM     99  C   UNL     1      13.059   7.072   1.051  1.00  0.00     0.058 A 
ATOM    100  C   UNL     1      14.149   6.197   1.199  1.00  0.00     0.013 A 
BRANCH  99 101
ATOM    101  C   UNL     1      12.928   7.930  -0.182  1.00  0.00     0.416 C 
ATOM    102  F   UNL     1      14.087   8.568  -0.506  1.00  0.00    -0.166 F 
ATOM    103  F   UNL     1      12.576   7.209  -1.283  1.00  0.00    -0.166 F 
ATOM    104  F   UNL     1      11.986   8.908  -0.063  1.00  0.00    -0.166 F 
ENDBRANCH  99 101
ENDBRANCH  84  95
ENDBRANCH  77  80
ENDBRANCH  75  76
ENDBRANCH  74  75
ENDBRANCH  73  74
ENDBRANCH   1  73
TORSDOF 16
