REMARK SMILES CC[N@@H+]1CCO[C@@H](Cn2cc(C(=O)NCCCCCCNC(=O)c3ccc(-c4c5nc(c(-c6c(F)c(F)c(F)c(F)c6F)c6ccc([nH]6)c(-c6c(F)c(F)c(F)c(F)c6F)c6nc(c(-c7c(F)c(F)c(F)c(F)c7F)c7ccc4[nH]7)C=C6)C=C5)cc3)nn2)C1
REMARK SMILES IDX 17 1 16 2 15 3 14 4 12 5 13 6 11 8 9 9 10 10 88 11 87 12
REMARK SMILES IDX 8 13 7 14 3 15 4 16 89 17 5 19 6 20 2 21 1 22 18 23 19 24
REMARK SMILES IDX 20 25 21 26 22 27 23 29 24 30 25 31 86 32 26 33 85 34 27 35
REMARK SMILES IDX 28 36 29 37 79 38 30 39 84 40 78 41 80 42 31 43 83 44 77 45
REMARK SMILES IDX 76 46 32 48 64 49 44 50 63 51 45 52 48 53 62 54 81 55 46 56
REMARK SMILES IDX 47 57 61 59 82 60 49 61 33 62 34 63 42 64 35 65 36 66 40 67
REMARK SMILES IDX 43 68 37 69 38 70 41 71 39 72 65 73 66 74 74 75 67 76 68 77
REMARK SMILES IDX 72 78 75 79 69 80 70 81 73 82 71 83 50 84 51 85 59 86 52 87
REMARK SMILES IDX 53 88 57 89 60 90 54 91 55 92 58 93 56 94
REMARK H PARENT 14 7 3 18 21 28 80 47 48 58
REMARK Flexibility Score: inf
ROOT
ATOM      1  C   UNL     1      -3.527   2.973   3.791  1.00  0.00     0.002 C 
ENDROOT
BRANCH   1   2
ATOM      2  C   UNL     1      -2.472   1.864   3.673  1.00  0.00     0.021 C 
BRANCH   2   3
ATOM      3  C   UNL     1      -1.629   1.944   2.401  1.00  0.00     0.116 C 
BRANCH   3   4
ATOM      4  N   UNL     1      -0.642   2.997   2.498  1.00  0.00    -0.351 N 
ATOM      5  C   UNL     1       0.737   2.984   2.584  1.00  0.00     0.273 C 
ATOM      6  O   UNL     1       1.290   4.069   2.576  1.00  0.00    -0.267 OA
ATOM      7  H   UNL     1      -1.030   3.902   2.505  1.00  0.00     0.163 HD
BRANCH   5   8
ATOM      8  C   UNL     1       1.486   1.726   2.621  1.00  0.00     0.170 A 
ATOM      9  N   UNL     1       2.191  -0.327   2.638  1.00  0.00    -0.249 N 
ATOM     10  C   UNL     1       1.140   0.454   3.033  1.00  0.00     0.145 A 
ATOM     11  N   UNL     1       3.212   0.423   2.204  1.00  0.00    -0.067 NA
ATOM     12  N   UNL     1       2.793   1.681   2.177  1.00  0.00    -0.125 NA
BRANCH   9  13
ATOM     13  C   UNL     1       2.184  -1.759   2.399  1.00  0.00     0.184 C 
BRANCH  13  14
ATOM     14  C   UNL     1       1.405  -2.084   1.120  1.00  0.00     0.194 C 
ATOM     15  N   UNL     1       1.353  -1.816  -1.360  1.00  0.00    -0.331 N 
ATOM     16  C   UNL     1       0.858  -3.207  -1.431  1.00  0.00     0.291 C 
ATOM     17  C   UNL     1       2.174  -1.666  -0.149  1.00  0.00     0.296 C 
ATOM     18  H   UNL     1       1.974  -1.615  -2.144  1.00  0.00     0.348 HD
ATOM     19  C   UNL     1       0.271  -3.749  -0.106  1.00  0.00     0.222 C 
ATOM     20  O   UNL     1       1.115  -3.494   1.036  1.00  0.00    -0.365 OA
BRANCH  15  21
ATOM     21  C   UNL     1       0.294  -0.819  -1.579  1.00  0.00     0.258 C 
ATOM     22  C   UNL     1       0.339   0.486  -0.782  1.00  0.00     0.071 C 
ENDBRANCH  15  21
ENDBRANCH  13  14
ENDBRANCH   9  13
ENDBRANCH   5   8
ENDBRANCH   3   4
ENDBRANCH   2   3
ENDBRANCH   1   2
BRANCH   1  23
ATOM     23  C   UNL     1      -4.544   3.057   2.640  1.00  0.00     0.002 C 
BRANCH  23  24
ATOM     24  C   UNL     1      -5.262   1.752   2.268  1.00  0.00     0.021 C 
BRANCH  24  25
ATOM     25  C   UNL     1      -6.165   1.212   3.368  1.00  0.00     0.116 C 
BRANCH  25  26
ATOM     26  N   UNL     1      -7.318   2.075   3.612  1.00  0.00    -0.352 N 
ATOM     27  C   UNL     1      -8.334   1.914   4.529  1.00  0.00     0.251 C 
ATOM     28  H   UNL     1      -7.377   2.878   3.045  1.00  0.00     0.163 HD
ATOM     29  O   UNL     1      -9.413   2.472   4.372  1.00  0.00    -0.269 OA
BRANCH  27  30
ATOM     30  C   UNL     1      -8.108   1.066   5.713  1.00  0.00     0.039 A 
ATOM     31  C   UNL     1      -9.131   0.266   6.230  1.00  0.00     0.014 A 
ATOM     32  C   UNL     1      -6.851   1.091   6.316  1.00  0.00     0.014 A 
ATOM     33  C   UNL     1      -8.855  -0.561   7.314  1.00  0.00     0.010 A 
ATOM     34  C   UNL     1      -6.539   0.177   7.289  1.00  0.00     0.010 A 
ATOM     35  C   UNL     1      -7.549  -0.612   7.826  1.00  0.00    -0.014 A 
BRANCH  35  36
ATOM     36  C   UNL     1      -7.175  -1.615   8.816  1.00  0.00     0.031 A 
ATOM     37  C   UNL     1      -7.402  -3.004   8.342  1.00  0.00     0.074 A 
ATOM     38  C   UNL     1      -6.466  -1.320   9.928  1.00  0.00     0.049 A 
ATOM     39  N   UNL     1      -8.280  -3.847   8.772  1.00  0.00    -0.248 NA
ATOM     40  C   UNL     1      -6.699  -3.452   7.126  1.00  0.00     0.031 C 
ATOM     41  C   UNL     1      -5.910  -0.017  10.310  1.00  0.00     0.029 A 
ATOM     42  N   UNL     1      -5.988  -2.142  10.906  1.00  0.00    -0.354 N 
ATOM     43  C   UNL     1      -8.062  -5.016   8.049  1.00  0.00     0.074 A 
ATOM     44  C   UNL     1      -7.269  -4.640   6.912  1.00  0.00     0.031 C 
ATOM     45  C   UNL     1      -4.990  -0.181  11.286  1.00  0.00     0.029 A 
ATOM     46  C   UNL     1      -5.003  -1.568  11.710  1.00  0.00     0.049 A 
ATOM     47  H   UNL     1      -6.311  -3.063  11.034  1.00  0.00     0.167 HD
ATOM     48  C   UNL     1      -8.253  -6.226   8.647  1.00  0.00     0.037 A 
ATOM     49  C   UNL     1      -4.232  -2.199  12.633  1.00  0.00     0.037 A 
ATOM     50  C   UNL     1      -9.055  -6.070   9.841  1.00  0.00     0.049 A 
ATOM     51  C   UNL     1      -4.915  -3.469  12.969  1.00  0.00     0.074 A 
ATOM     52  C   UNL     1     -10.315  -5.588  10.137  1.00  0.00     0.029 A 
ATOM     53  N   UNL     1      -8.369  -6.089  11.027  1.00  0.00    -0.354 N 
ATOM     54  N   UNL     1      -6.043  -3.539  13.616  1.00  0.00    -0.248 NA
ATOM     55  C   UNL     1      -4.549  -4.659  12.219  1.00  0.00     0.031 C 
ATOM     56  C   UNL     1     -10.190  -4.960  11.415  1.00  0.00     0.029 A 
ATOM     57  C   UNL     1      -8.886  -5.151  11.873  1.00  0.00     0.049 A 
ATOM     58  H   UNL     1      -7.618  -6.690  11.238  1.00  0.00     0.167 HD
ATOM     59  C   UNL     1      -6.736  -4.563  12.991  1.00  0.00     0.074 A 
ATOM     60  C   UNL     1      -5.720  -5.300  12.244  1.00  0.00     0.031 C 
ATOM     61  C   UNL     1      -8.098  -4.511  12.901  1.00  0.00     0.037 A 
BRANCH  48  62
ATOM     62  C   UNL     1      -7.312  -7.415   8.485  1.00  0.00     0.064 A 
ATOM     63  C   UNL     1      -7.604  -8.595   9.206  1.00  0.00     0.173 A 
ATOM     64  C   UNL     1      -6.000  -7.345   7.966  1.00  0.00     0.173 A 
ATOM     65  F   UNL     1      -8.818  -8.782   9.747  1.00  0.00    -0.203 F 
ATOM     66  C   UNL     1      -6.625  -9.550   9.497  1.00  0.00     0.198 A 
ATOM     67  C   UNL     1      -5.040  -8.326   8.217  1.00  0.00     0.198 A 
ATOM     68  F   UNL     1      -5.541  -6.290   7.287  1.00  0.00    -0.203 F 
ATOM     69  F   UNL     1      -6.914 -10.567  10.320  1.00  0.00    -0.200 F 
ATOM     70  C   UNL     1      -5.340  -9.406   9.015  1.00  0.00     0.200 A 
ATOM     71  F   UNL     1      -3.794  -8.158   7.750  1.00  0.00    -0.200 F 
ATOM     72  F   UNL     1      -4.380 -10.276   9.355  1.00  0.00    -0.200 F 
ENDBRANCH  48  62
BRANCH  49  73
ATOM     73  C   UNL     1      -2.832  -1.933  13.050  1.00  0.00     0.064 A 
ATOM     74  C   UNL     1      -2.292  -2.539  14.200  1.00  0.00     0.173 A 
ATOM     75  C   UNL     1      -1.909  -1.327  12.177  1.00  0.00     0.173 A 
ATOM     76  F   UNL     1      -3.093  -3.178  15.065  1.00  0.00    -0.203 F 
ATOM     77  C   UNL     1      -0.914  -2.573  14.439  1.00  0.00     0.198 A 
ATOM     78  C   UNL     1      -0.533  -1.355  12.421  1.00  0.00     0.198 A 
ATOM     79  F   UNL     1      -2.311  -0.787  11.018  1.00  0.00    -0.203 F 
ATOM     80  F   UNL     1      -0.435  -3.228  15.507  1.00  0.00    -0.200 F 
ATOM     81  C   UNL     1      -0.034  -1.992  13.542  1.00  0.00     0.200 A 
ATOM     82  F   UNL     1       0.310  -0.822  11.524  1.00  0.00    -0.200 F 
ATOM     83  F   UNL     1       1.289  -2.084  13.732  1.00  0.00    -0.200 F 
ENDBRANCH  49  73
BRANCH  61  84
ATOM     84  C   UNL     1      -8.818  -3.572  13.829  1.00  0.00     0.064 A 
ATOM     85  C   UNL     1      -8.670  -2.174  13.835  1.00  0.00     0.173 A 
ATOM     86  C   UNL     1      -9.776  -4.123  14.691  1.00  0.00     0.173 A 
ATOM     87  F   UNL     1      -7.846  -1.560  12.976  1.00  0.00    -0.203 F 
ATOM     88  C   UNL     1      -9.411  -1.375  14.705  1.00  0.00     0.198 A 
ATOM     89  C   UNL     1     -10.544  -3.320  15.527  1.00  0.00     0.198 A 
ATOM     90  F   UNL     1      -9.993  -5.447  14.694  1.00  0.00    -0.203 F 
ATOM     91  F   UNL     1      -9.235  -0.046  14.713  1.00  0.00    -0.200 F 
ATOM     92  C   UNL     1     -10.352  -1.949  15.546  1.00  0.00     0.200 A 
ATOM     93  F   UNL     1     -11.484  -3.877  16.303  1.00  0.00    -0.200 F 
ATOM     94  F   UNL     1     -11.089  -1.179  16.358  1.00  0.00    -0.200 F 
ENDBRANCH  61  84
ENDBRANCH  35  36
ENDBRANCH  27  30
ENDBRANCH  25  26
ENDBRANCH  24  25
ENDBRANCH  23  24
ENDBRANCH   1  23
TORSDOF 16
