REMARK SMILES CN(C)C(=O)CSc1ccc(C(=O)NCCCCCCNC(=O)c2ccc(-c3c4nc(c(-c5c(F)c(F)c(F)c(F)c5F)c5ccc([nH]5)c(-c5c(F)c(F)c(F)c(F)c5F)c5nc(c(-c6c(F)c(F)c(F)c(F)c6F)c6ccc3[nH]6)C=C5)C=C4)cc2)cc1
REMARK SMILES IDX 17 1 16 2 15 3 14 4 12 5 13 6 11 8 8 9 9 10 88 11 10 12
REMARK SMILES IDX 87 13 7 14 6 15 4 16 1 17 2 18 3 19 5 20 18 21 19 22 20 23
REMARK SMILES IDX 21 24 22 25 23 27 24 28 25 29 86 30 26 31 85 32 27 33 28 34
REMARK SMILES IDX 29 35 79 36 30 37 84 38 78 39 80 40 31 41 83 42 77 43 76 44
REMARK SMILES IDX 32 46 64 47 44 48 63 49 45 50 48 51 62 52 81 53 46 54 47 55
REMARK SMILES IDX 61 57 82 58 49 59 33 60 34 61 42 62 35 63 36 64 40 65 43 66
REMARK SMILES IDX 37 67 38 68 41 69 39 70 65 71 66 72 74 73 67 74 68 75 72 76
REMARK SMILES IDX 75 77 69 78 70 79 73 80 71 81 50 82 51 83 59 84 52 85 53 86
REMARK SMILES IDX 57 87 60 88 54 89 55 90 58 91 56 92
REMARK H PARENT 14 7 21 26 80 45 48 56
REMARK Flexibility Score: inf
ROOT
ATOM      1  C   UNL     1       9.023   4.090   5.773  1.00  0.00     0.002 C 
ENDROOT
BRANCH   1   2
ATOM      2  C   UNL     1       7.525   3.801   5.593  1.00  0.00     0.021 C 
BRANCH   2   3
ATOM      3  C   UNL     1       7.216   2.930   4.373  1.00  0.00     0.116 C 
BRANCH   3   4
ATOM      4  N   UNL     1       7.551   1.548   4.652  1.00  0.00    -0.352 N 
ATOM      5  C   UNL     1       6.792   0.442   4.929  1.00  0.00     0.251 C 
ATOM      6  O   UNL     1       7.387  -0.618   5.127  1.00  0.00    -0.269 OA
ATOM      7  H   UNL     1       8.519   1.368   4.641  1.00  0.00     0.163 HD
BRANCH   5   8
ATOM      8  C   UNL     1       5.303   0.447   4.947  1.00  0.00     0.039 A 
ATOM      9  C   UNL     1       2.477   0.262   4.855  1.00  0.00     0.008 A 
ATOM     10  C   UNL     1       3.268  -0.851   4.579  1.00  0.00     0.016 A 
ATOM     11  C   UNL     1       3.114   1.447   5.247  1.00  0.00     0.016 A 
ATOM     12  C   UNL     1       4.665  -0.755   4.609  1.00  0.00     0.015 A 
ATOM     13  C   UNL     1       4.512   1.533   5.319  1.00  0.00     0.015 A 
BRANCH   9  14
ATOM     14  S   UNL     1       0.694   0.286   4.803  1.00  0.00    -0.116 SA
BRANCH  14  15
ATOM     15  C   UNL     1       0.242  -1.100   3.706  1.00  0.00     0.175 C 
BRANCH  15  16
ATOM     16  C   UNL     1       0.863  -1.028   2.318  1.00  0.00     0.232 C 
ATOM     17  C   UNL     1       1.094  -0.019   0.123  1.00  0.00     0.146 C 
ATOM     18  N   UNL     1       0.459  -0.039   1.430  1.00  0.00    -0.348 N 
ATOM     19  C   UNL     1      -0.473   1.034   1.735  1.00  0.00     0.146 C 
ATOM     20  O   UNL     1       1.680  -1.892   1.978  1.00  0.00    -0.274 OA
ENDBRANCH  15  16
ENDBRANCH  14  15
ENDBRANCH   9  14
ENDBRANCH   5   8
ENDBRANCH   3   4
ENDBRANCH   2   3
ENDBRANCH   1   2
BRANCH   1  21
ATOM     21  C   UNL     1       9.665   4.909   4.645  1.00  0.00     0.002 C 
BRANCH  21  22
ATOM     22  C   UNL     1       8.984   6.247   4.348  1.00  0.00     0.021 C 
BRANCH  22  23
ATOM     23  C   UNL     1       8.974   7.222   5.521  1.00  0.00     0.116 C 
BRANCH  23  24
ATOM     24  N   UNL     1      10.315   7.668   5.865  1.00  0.00    -0.352 N 
ATOM     25  C   UNL     1      10.807   8.946   5.963  1.00  0.00     0.251 C 
ATOM     26  H   UNL     1      10.962   6.951   6.055  1.00  0.00     0.163 HD
ATOM     27  O   UNL     1      12.014   9.140   6.053  1.00  0.00    -0.269 OA
BRANCH  25  28
ATOM     28  C   UNL     1       9.877  10.094   5.948  1.00  0.00     0.039 A 
ATOM     29  C   UNL     1      10.193  11.210   5.169  1.00  0.00     0.014 A 
ATOM     30  C   UNL     1       8.709  10.078   6.715  1.00  0.00     0.014 A 
ATOM     31  C   UNL     1       9.309  12.290   5.118  1.00  0.00     0.010 A 
ATOM     32  C   UNL     1       7.797  11.124   6.610  1.00  0.00     0.010 A 
ATOM     33  C   UNL     1       8.092  12.243   5.816  1.00  0.00    -0.014 A 
BRANCH  33  34
ATOM     34  C   UNL     1       7.115  13.358   5.735  1.00  0.00     0.031 A 
ATOM     35  C   UNL     1       6.787  14.165   6.959  1.00  0.00     0.074 A 
ATOM     36  C   UNL     1       6.473  13.596   4.575  1.00  0.00     0.049 A 
ATOM     37  N   UNL     1       5.912  15.127   7.107  1.00  0.00    -0.248 NA
ATOM     38  C   UNL     1       7.519  13.824   8.188  1.00  0.00     0.031 C 
ATOM     39  C   UNL     1       6.670  12.848   3.333  1.00  0.00     0.029 A 
ATOM     40  N   UNL     1       5.516  14.526   4.257  1.00  0.00    -0.354 N 
ATOM     41  C   UNL     1       5.978  15.494   8.445  1.00  0.00     0.074 A 
ATOM     42  C   UNL     1       6.938  14.615   9.077  1.00  0.00     0.031 C 
ATOM     43  C   UNL     1       5.871  13.360   2.382  1.00  0.00     0.029 A 
ATOM     44  C   UNL     1       5.083  14.446   2.957  1.00  0.00     0.049 A 
ATOM     45  H   UNL     1       5.171  15.187   4.901  1.00  0.00     0.167 HD
ATOM     46  C   UNL     1       5.314  16.488   9.082  1.00  0.00     0.037 A 
ATOM     47  C   UNL     1       4.151  15.165   2.303  1.00  0.00     0.037 A 
ATOM     48  C   UNL     1       4.377  17.374   8.442  1.00  0.00     0.049 A 
ATOM     49  C   UNL     1       3.429  16.266   3.030  1.00  0.00     0.074 A 
ATOM     50  C   UNL     1       3.701  18.454   8.983  1.00  0.00     0.029 A 
ATOM     51  N   UNL     1       3.981  17.278   7.116  1.00  0.00    -0.354 N 
ATOM     52  N   UNL     1       3.550  16.651   4.278  1.00  0.00    -0.248 NA
ATOM     53  C   UNL     1       2.447  17.038   2.257  1.00  0.00     0.031 C 
ATOM     54  C   UNL     1       2.861  18.982   7.997  1.00  0.00     0.029 A 
ATOM     55  C   UNL     1       3.052  18.265   6.827  1.00  0.00     0.049 A 
ATOM     56  H   UNL     1       4.311  16.608   6.474  1.00  0.00     0.167 HD
ATOM     57  C   UNL     1       2.683  17.723   4.433  1.00  0.00     0.074 A 
ATOM     58  C   UNL     1       2.050  17.936   3.147  1.00  0.00     0.031 C 
ATOM     59  C   UNL     1       2.433  18.465   5.540  1.00  0.00     0.037 A 
BRANCH  46  60
ATOM     60  C   UNL     1       5.579  16.665  10.550  1.00  0.00     0.064 A 
ATOM     61  C   UNL     1       6.814  17.131  11.025  1.00  0.00     0.173 A 
ATOM     62  C   UNL     1       4.579  16.383  11.493  1.00  0.00     0.173 A 
ATOM     63  F   UNL     1       7.808  17.405  10.167  1.00  0.00    -0.203 F 
ATOM     64  C   UNL     1       7.052  17.271  12.390  1.00  0.00     0.198 A 
ATOM     65  C   UNL     1       4.809  16.555  12.856  1.00  0.00     0.198 A 
ATOM     66  F   UNL     1       3.377  15.941  11.094  1.00  0.00    -0.203 F 
ATOM     67  F   UNL     1       8.259  17.661  12.822  1.00  0.00    -0.200 F 
ATOM     68  C   UNL     1       6.048  16.989  13.304  1.00  0.00     0.200 A 
ATOM     69  F   UNL     1       3.833  16.295  13.737  1.00  0.00    -0.200 F 
ATOM     70  F   UNL     1       6.277  17.126  14.617  1.00  0.00    -0.200 F 
ENDBRANCH  46  60
BRANCH  47  71
ATOM     71  C   UNL     1       3.873  14.881   0.872  1.00  0.00     0.064 A 
ATOM     72  C   UNL     1       4.270  15.779  -0.129  1.00  0.00     0.173 A 
ATOM     73  C   UNL     1       3.226  13.703   0.473  1.00  0.00     0.173 A 
ATOM     74  F   UNL     1       4.875  16.928   0.205  1.00  0.00    -0.203 F 
ATOM     75  C   UNL     1       4.017  15.516  -1.473  1.00  0.00     0.198 A 
ATOM     76  C   UNL     1       2.997  13.428  -0.873  1.00  0.00     0.198 A 
ATOM     77  F   UNL     1       2.832  12.809   1.392  1.00  0.00    -0.203 F 
ATOM     78  F   UNL     1       4.374  16.408  -2.407  1.00  0.00    -0.200 F 
ATOM     79  C   UNL     1       3.387  14.337  -1.845  1.00  0.00     0.200 A 
ATOM     80  F   UNL     1       2.402  12.281  -1.229  1.00  0.00    -0.200 F 
ATOM     81  F   UNL     1       3.153  14.080  -3.139  1.00  0.00    -0.200 F 
ENDBRANCH  47  71
BRANCH  59  82
ATOM     82  C   UNL     1       1.456  19.596   5.404  1.00  0.00     0.064 A 
ATOM     83  C   UNL     1       0.079  19.366   5.268  1.00  0.00     0.173 A 
ATOM     84  C   UNL     1       1.899  20.926   5.453  1.00  0.00     0.173 A 
ATOM     85  F   UNL     1      -0.393  18.113   5.200  1.00  0.00    -0.203 F 
ATOM     86  C   UNL     1      -0.816  20.428   5.162  1.00  0.00     0.198 A 
ATOM     87  C   UNL     1       0.999  21.985   5.376  1.00  0.00     0.198 A 
ATOM     88  F   UNL     1       3.206  21.199   5.588  1.00  0.00    -0.203 F 
ATOM     89  F   UNL     1      -2.122  20.186   4.986  1.00  0.00    -0.200 F 
ATOM     90  C   UNL     1      -0.356  21.735   5.224  1.00  0.00     0.200 A 
ATOM     91  F   UNL     1       1.444  23.247   5.449  1.00  0.00    -0.200 F 
ATOM     92  F   UNL     1      -1.220  22.756   5.129  1.00  0.00    -0.200 F 
ENDBRANCH  59  82
ENDBRANCH  33  34
ENDBRANCH  25  28
ENDBRANCH  23  24
ENDBRANCH  22  23
ENDBRANCH  21  22
ENDBRANCH   1  21
TORSDOF 16
