REMARK SMILES Cc1c(Cl)ccc2c1C=C(C(=O)NCCCCCCNC(=O)c1ccc(-c3c4nc(c(-c5c(F)c(F)c(F)c(F)c5F)c5ccc([nH]5)c(-c5c(F)c(F)c(F)c(F)c5F)c5nc(c(-c6c(F)c(F)c(F)c(F)c6F)c6ccc3[nH]6)C=C5)C=C4)cc1)[C@@H](C(F)(F)F)O2
REMARK SMILES IDX 17 1 16 2 15 3 14 4 13 5 11 6 12 7 10 9 1 10 2 11 3 12 8 13
REMARK SMILES IDX 4 14 5 15 7 16 9 17 6 18 91 19 86 20 87 21 88 22 89 23 90 24
REMARK SMILES IDX 18 25 19 26 20 27 21 28 22 30 23 31 24 32 85 33 25 34 84 35
REMARK SMILES IDX 26 36 27 37 28 38 78 39 29 40 83 41 77 42 79 43 30 44 82 45
REMARK SMILES IDX 76 46 75 47 31 49 63 50 43 51 62 52 44 53 47 54 61 55 80 56
REMARK SMILES IDX 45 57 46 58 60 60 81 61 48 62 32 63 33 64 41 65 34 66 35 67
REMARK SMILES IDX 39 68 42 69 36 70 37 71 40 72 38 73 64 74 65 75 73 76 66 77
REMARK SMILES IDX 67 78 71 79 74 80 68 81 69 82 72 83 70 84 49 85 50 86 58 87
REMARK SMILES IDX 51 88 52 89 56 90 59 91 53 92 54 93 57 94 55 95
REMARK H PARENT 13 8 20 29 79 48 47 59
REMARK Flexibility Score: inf
ROOT
ATOM      1  C   UNL     1      -2.902   6.548   6.858  1.00  0.00     0.002 C 
ENDROOT
BRANCH   1   2
ATOM      2  C   UNL     1      -1.436   6.269   6.498  1.00  0.00     0.002 C 
BRANCH   2   3
ATOM      3  C   UNL     1      -1.040   4.790   6.428  1.00  0.00     0.021 C 
BRANCH   3   4
ATOM      4  C   UNL     1      -1.874   3.961   5.456  1.00  0.00     0.116 C 
BRANCH   4   5
ATOM      5  N   UNL     1      -1.419   4.120   4.089  1.00  0.00    -0.352 N 
ATOM      6  C   UNL     1      -0.956   3.325   3.098  1.00  0.00     0.251 C 
ATOM      7  O   UNL     1      -0.677   3.916   2.049  1.00  0.00    -0.270 OA
ATOM      8  H   UNL     1      -1.459   5.062   3.804  1.00  0.00     0.163 HD
BRANCH   6   9
ATOM      9  C   UNL     1      -0.775   1.843   3.179  1.00  0.00     0.067 C 
ATOM     10  C   UNL     1       0.980  -0.069  -0.320  1.00  0.00     0.047 C 
ATOM     11  C   UNL     1       0.606  -0.817   0.937  1.00  0.00    -0.021 A 
ATOM     12  C   UNL     1       0.825  -2.211   1.012  1.00  0.00     0.044 A 
ATOM     13  C   UNL     1       0.084  -0.156   2.076  1.00  0.00     0.022 A 
ATOM     14  Cl  UNL     1       1.531  -3.102  -0.293  1.00  0.00    -0.084 Cl
ATOM     15  C   UNL     1       0.496  -2.934   2.161  1.00  0.00     0.024 A 
ATOM     16  C   UNL     1      -0.255  -0.906   3.211  1.00  0.00     0.128 A 
ATOM     17  C   UNL     1      -0.092   1.296   2.156  1.00  0.00     0.026 C 
ATOM     18  C   UNL     1      -0.047  -2.282   3.259  1.00  0.00     0.048 A 
ATOM     19  O   UNL     1      -0.757  -0.357   4.354  1.00  0.00    -0.475 OA
ATOM     20  C   UNL     1      -1.335   0.971   4.262  1.00  0.00     0.314 C 
BRANCH  20  21
ATOM     21  C   UNL     1      -2.867   0.852   4.220  1.00  0.00     0.429 C 
ATOM     22  F   UNL     1      -3.333   0.324   5.380  1.00  0.00    -0.167 F 
ATOM     23  F   UNL     1      -3.479   2.050   4.078  1.00  0.00    -0.167 F 
ATOM     24  F   UNL     1      -3.299   0.062   3.212  1.00  0.00    -0.167 F 
ENDBRANCH  20  21
ENDBRANCH   6   9
ENDBRANCH   4   5
ENDBRANCH   3   4
ENDBRANCH   2   3
ENDBRANCH   1   2
BRANCH   1  25
ATOM     25  C   UNL     1      -3.448   5.769   8.057  1.00  0.00     0.021 C 
BRANCH  25  26
ATOM     26  C   UNL     1      -2.660   5.954   9.347  1.00  0.00     0.116 C 
BRANCH  26  27
ATOM     27  N   UNL     1      -2.764   7.309   9.860  1.00  0.00    -0.352 N 
ATOM     28  C   UNL     1      -3.234   7.722  11.081  1.00  0.00     0.251 C 
ATOM     29  H   UNL     1      -2.457   8.022   9.255  1.00  0.00     0.163 HD
ATOM     30  O   UNL     1      -3.423   8.910  11.317  1.00  0.00    -0.269 OA
BRANCH  28  31
ATOM     31  C   UNL     1      -3.530   6.708  12.109  1.00  0.00     0.039 A 
ATOM     32  C   UNL     1      -4.797   6.687  12.695  1.00  0.00     0.014 A 
ATOM     33  C   UNL     1      -2.557   5.770  12.473  1.00  0.00     0.014 A 
ATOM     34  C   UNL     1      -5.105   5.695  13.625  1.00  0.00     0.010 A 
ATOM     35  C   UNL     1      -2.883   4.750  13.362  1.00  0.00     0.010 A 
ATOM     36  C   UNL     1      -4.154   4.714  13.954  1.00  0.00    -0.014 A 
BRANCH  36  37
ATOM     37  C   UNL     1      -4.463   3.682  14.970  1.00  0.00     0.031 A 
ATOM     38  C   UNL     1      -3.804   3.755  16.317  1.00  0.00     0.074 A 
ATOM     39  C   UNL     1      -5.322   2.687  14.680  1.00  0.00     0.049 A 
ATOM     40  N   UNL     1      -3.955   2.970  17.353  1.00  0.00    -0.248 NA
ATOM     41  C   UNL     1      -2.839   4.846  16.526  1.00  0.00     0.031 C 
ATOM     42  C   UNL     1      -5.999   2.502  13.396  1.00  0.00     0.029 A 
ATOM     43  N   UNL     1      -5.777   1.647  15.451  1.00  0.00    -0.354 N 
ATOM     44  C   UNL     1      -3.120   3.483  18.335  1.00  0.00     0.074 A 
ATOM     45  C   UNL     1      -2.411   4.601  17.755  1.00  0.00     0.031 C 
ATOM     46  C   UNL     1      -6.808   1.432  13.478  1.00  0.00     0.029 A 
ATOM     47  C   UNL     1      -6.690   0.846  14.810  1.00  0.00     0.049 A 
ATOM     48  H   UNL     1      -5.477   1.490  16.375  1.00  0.00     0.167 HD
ATOM     49  C   UNL     1      -2.987   3.081  19.620  1.00  0.00     0.037 A 
ATOM     50  C   UNL     1      -7.362  -0.233  15.258  1.00  0.00     0.037 A 
ATOM     51  C   UNL     1      -3.707   1.982  20.200  1.00  0.00     0.049 A 
ATOM     52  C   UNL     1      -7.148  -0.696  16.674  1.00  0.00     0.074 A 
ATOM     53  C   UNL     1      -3.676   1.525  21.505  1.00  0.00     0.029 A 
ATOM     54  N   UNL     1      -4.591   1.169  19.507  1.00  0.00    -0.354 N 
ATOM     55  N   UNL     1      -6.406  -0.163  17.614  1.00  0.00    -0.248 NA
ATOM     56  C   UNL     1      -7.862  -1.911  17.092  1.00  0.00     0.031 C 
ATOM     57  C   UNL     1      -4.516   0.412  21.595  1.00  0.00     0.029 A 
ATOM     58  C   UNL     1      -5.094   0.196  20.353  1.00  0.00     0.049 A 
ATOM     59  H   UNL     1      -4.826   1.270  18.556  1.00  0.00     0.167 HD
ATOM     60  C   UNL     1      -6.582  -0.959  18.737  1.00  0.00     0.074 A 
ATOM     61  C   UNL     1      -7.508  -2.008  18.367  1.00  0.00     0.031 C 
ATOM     62  C   UNL     1      -6.024  -0.832  19.965  1.00  0.00     0.037 A 
BRANCH  49  63
ATOM     63  C   UNL     1      -2.054   3.858  20.497  1.00  0.00     0.064 A 
ATOM     64  C   UNL     1      -2.394   5.138  20.959  1.00  0.00     0.173 A 
ATOM     65  C   UNL     1      -0.842   3.301  20.928  1.00  0.00     0.173 A 
ATOM     66  F   UNL     1      -3.538   5.716  20.563  1.00  0.00    -0.203 F 
ATOM     67  C   UNL     1      -1.546   5.840  21.810  1.00  0.00     0.198 A 
ATOM     68  C   UNL     1      -0.006   3.997  21.798  1.00  0.00     0.198 A 
ATOM     69  F   UNL     1      -0.474   2.079  20.516  1.00  0.00    -0.203 F 
ATOM     70  F   UNL     1      -1.877   7.074  22.214  1.00  0.00    -0.200 F 
ATOM     71  C   UNL     1      -0.358   5.266  22.236  1.00  0.00     0.200 A 
ATOM     72  F   UNL     1       1.138   3.438  22.216  1.00  0.00    -0.200 F 
ATOM     73  F   UNL     1       0.452   5.937  23.066  1.00  0.00    -0.200 F 
ENDBRANCH  49  63
BRANCH  50  74
ATOM     74  C   UNL     1      -8.334  -0.925  14.373  1.00  0.00     0.064 A 
ATOM     75  C   UNL     1      -9.711  -0.835  14.617  1.00  0.00     0.173 A 
ATOM     76  C   UNL     1      -7.913  -1.690  13.277  1.00  0.00     0.173 A 
ATOM     77  F   UNL     1     -10.160  -0.131  15.667  1.00  0.00    -0.203 F 
ATOM     78  C   UNL     1     -10.631  -1.495  13.806  1.00  0.00     0.198 A 
ATOM     79  C   UNL     1      -8.835  -2.333  12.453  1.00  0.00     0.198 A 
ATOM     80  F   UNL     1      -6.606  -1.807  13.001  1.00  0.00    -0.203 F 
ATOM     81  F   UNL     1     -11.940  -1.421  14.083  1.00  0.00    -0.200 F 
ATOM     82  C   UNL     1     -10.193  -2.240  12.721  1.00  0.00     0.200 A 
ATOM     83  F   UNL     1      -8.409  -3.045  11.401  1.00  0.00    -0.200 F 
ATOM     84  F   UNL     1     -11.078  -2.874  11.940  1.00  0.00    -0.200 F 
ENDBRANCH  50  74
BRANCH  62  85
ATOM     85  C   UNL     1      -6.398  -1.839  21.009  1.00  0.00     0.064 A 
ATOM     86  C   UNL     1      -5.845  -3.126  21.003  1.00  0.00     0.173 A 
ATOM     87  C   UNL     1      -7.223  -1.477  22.084  1.00  0.00     0.173 A 
ATOM     88  F   UNL     1      -5.059  -3.518  19.988  1.00  0.00    -0.203 F 
ATOM     89  C   UNL     1      -6.104  -4.018  22.039  1.00  0.00     0.198 A 
ATOM     90  C   UNL     1      -7.462  -2.363  23.130  1.00  0.00     0.198 A 
ATOM     91  F   UNL     1      -7.768  -0.252  22.136  1.00  0.00    -0.203 F 
ATOM     92  F   UNL     1      -5.576  -5.249  22.009  1.00  0.00    -0.200 F 
ATOM     93  C   UNL     1      -6.901  -3.632  23.107  1.00  0.00     0.200 A 
ATOM     94  F   UNL     1      -8.220  -1.984  24.168  1.00  0.00    -0.200 F 
ATOM     95  F   UNL     1      -7.128  -4.483  24.117  1.00  0.00    -0.200 F 
ENDBRANCH  62  85
ENDBRANCH  36  37
ENDBRANCH  28  31
ENDBRANCH  26  27
ENDBRANCH  25  26
ENDBRANCH   1  25
TORSDOF 14
