REMARK SMILES CCOC(=O)[C@H](c1ccccc1)N1C(=O)/C(=C/c2ccc(C(=O)NCCCCCCNC(=O)c3ccc(-c4c5nc(c(-c6c(F)c(F)c(F)c(F)c6F)c6ccc([nH]6)c(-c6c(F)c(F)c(F)c(F)c6F)c6nc(c(-c7c(F)c(F)c(F)c(F)c7F)c7ccc4[nH]7)C=C6)C=C5)cc3)cc2)SC1=S
REMARK SMILES IDX 26 1 25 2 24 3 22 4 23 5 21 7 18 8 19 9 98 10 20 11 97 12
REMARK SMILES IDX 17 13 13 14 14 15 100 16 15 17 16 18 99 19 101 20 6 21 4 22
REMARK SMILES IDX 5 23 3 24 2 25 1 26 7 27 8 28 12 29 9 30 11 31 10 32 27 33
REMARK SMILES IDX 28 34 29 35 30 36 31 37 32 38 33 40 34 41 35 42 96 43 36 44
REMARK SMILES IDX 95 45 37 46 38 47 39 48 89 49 40 50 94 51 88 52 90 53 41 54
REMARK SMILES IDX 93 55 87 56 86 57 42 59 74 60 54 61 73 62 55 63 58 64 72 65
REMARK SMILES IDX 91 66 56 67 57 68 71 70 92 71 59 72 43 73 44 74 52 75 45 76
REMARK SMILES IDX 46 77 50 78 53 79 47 80 48 81 51 82 49 83 75 84 76 85 84 86
REMARK SMILES IDX 77 87 78 88 82 89 85 90 79 91 80 92 83 93 81 94 60 95 61 96
REMARK SMILES IDX 69 97 62 98 63 99 67 100 70 101 64 102 65 103 68 104 66 105
REMARK H PARENT 24 6 31 39 90 58 58 69
REMARK Flexibility Score: inf
ROOT
ATOM      1  C   UNL     1      -1.689  13.501  -2.602  1.00  0.00     0.021 C 
ENDROOT
BRANCH   1   2
ATOM      2  C   UNL     1      -0.481  13.299  -1.684  1.00  0.00     0.116 C 
BRANCH   2   3
ATOM      3  N   UNL     1      -0.876  13.436  -0.294  1.00  0.00    -0.352 N 
ATOM      4  C   UNL     1      -1.047  12.508   0.701  1.00  0.00     0.251 C 
ATOM      5  O   UNL     1      -1.354  12.902   1.825  1.00  0.00    -0.269 OA
ATOM      6  H   UNL     1      -1.055  14.363  -0.015  1.00  0.00     0.163 HD
BRANCH   4   7
ATOM      7  C   UNL     1      -0.819  11.057   0.480  1.00  0.00     0.039 A 
ATOM      8  C   UNL     1      -0.269   8.325   0.172  1.00  0.00    -0.024 A 
ATOM      9  C   UNL     1       0.016   8.956   1.383  1.00  0.00     0.009 A 
ATOM     10  C   UNL     1      -0.870   9.047  -0.864  1.00  0.00     0.009 A 
ATOM     11  C   UNL     1      -0.258  10.319   1.534  1.00  0.00     0.014 A 
ATOM     12  C   UNL     1      -1.171  10.398  -0.699  1.00  0.00     0.014 A 
BRANCH   8  13
ATOM     13  C   UNL     1      -0.004   6.908  -0.048  1.00  0.00     0.029 C 
ATOM     14  N   UNL     1       2.398   4.643  -1.496  1.00  0.00    -0.274 N 
ATOM     15  C   UNL     1       1.148   4.971  -1.004  1.00  0.00     0.267 C 
ATOM     16  C   UNL     1       3.270   5.702  -1.663  1.00  0.00     0.149 C 
ATOM     17  O   UNL     1       0.158   4.260  -0.946  1.00  0.00    -0.268 OA
ATOM     18  C   UNL     1       1.093   6.403  -0.625  1.00  0.00     0.081 C 
ATOM     19  S   UNL     1       2.523   7.202  -1.109  1.00  0.00    -0.054 SA
ATOM     20  S   UNL     1       4.821   5.694  -2.282  1.00  0.00    -0.052 S 
BRANCH  14  21
ATOM     21  C   UNL     1       2.683   3.263  -1.949  1.00  0.00     0.232 C 
BRANCH  21  22
ATOM     22  C   UNL     1       2.041   3.032  -3.329  1.00  0.00     0.333 C 
ATOM     23  O   UNL     1       0.877   2.737  -3.559  1.00  0.00    -0.249 OA
BRANCH  22  24
ATOM     24  O   UNL     1       2.958   3.328  -4.304  1.00  0.00    -0.464 OA
BRANCH  24  25
ATOM     25  C   UNL     1       2.522   3.183  -5.664  1.00  0.00     0.229 C 
ATOM     26  C   UNL     1       2.890   1.796  -6.152  1.00  0.00     0.049 C 
ENDBRANCH  24  25
ENDBRANCH  22  24
ENDBRANCH  21  22
BRANCH  21  27
ATOM     27  C   UNL     1       2.412   2.192  -0.891  1.00  0.00    -0.014 A 
ATOM     28  C   UNL     1       1.149   1.611  -0.694  1.00  0.00     0.006 A 
ATOM     29  C   UNL     1       3.455   1.799  -0.031  1.00  0.00     0.006 A 
ATOM     30  C   UNL     1       0.921   0.706   0.344  1.00  0.00     0.000 A 
ATOM     31  C   UNL     1       3.233   0.871   0.991  1.00  0.00     0.000 A 
ATOM     32  C   UNL     1       1.964   0.335   1.186  1.00  0.00     0.000 A 
ENDBRANCH  21  27
ENDBRANCH  14  21
ENDBRANCH   8  13
ENDBRANCH   4   7
ENDBRANCH   2   3
ENDBRANCH   1   2
BRANCH   1  33
ATOM     33  C   UNL     1      -2.079  14.974  -2.777  1.00  0.00     0.002 C 
BRANCH  33  34
ATOM     34  C   UNL     1      -1.044  15.830  -3.516  1.00  0.00     0.002 C 
BRANCH  34  35
ATOM     35  C   UNL     1      -0.665  15.328  -4.912  1.00  0.00     0.021 C 
BRANCH  35  36
ATOM     36  C   UNL     1      -1.831  15.252  -5.894  1.00  0.00     0.116 C 
BRANCH  36  37
ATOM     37  N   UNL     1      -2.363  16.571  -6.205  1.00  0.00    -0.352 N 
ATOM     38  C   UNL     1      -2.475  17.196  -7.422  1.00  0.00     0.251 C 
ATOM     39  H   UNL     1      -2.688  17.088  -5.433  1.00  0.00     0.163 HD
ATOM     40  O   UNL     1      -2.743  18.390  -7.488  1.00  0.00    -0.269 OA
BRANCH  38  41
ATOM     41  C   UNL     1      -2.256  16.422  -8.661  1.00  0.00     0.039 A 
ATOM     42  C   UNL     1      -1.421  16.945  -9.652  1.00  0.00     0.014 A 
ATOM     43  C   UNL     1      -2.877  15.183  -8.842  1.00  0.00     0.014 A 
ATOM     44  C   UNL     1      -1.149  16.192 -10.795  1.00  0.00     0.010 A 
ATOM     45  C   UNL     1      -2.562  14.409  -9.954  1.00  0.00     0.010 A 
ATOM     46  C   UNL     1      -1.689  14.903 -10.937  1.00  0.00    -0.014 A 
BRANCH  46  47
ATOM     47  C   UNL     1      -1.339  14.037 -12.089  1.00  0.00     0.031 A 
ATOM     48  C   UNL     1      -2.394  13.642 -13.081  1.00  0.00     0.074 A 
ATOM     49  C   UNL     1      -0.095  13.531 -12.184  1.00  0.00     0.049 A 
ATOM     50  N   UNL     1      -2.321  12.789 -14.071  1.00  0.00    -0.248 NA
ATOM     51  C   UNL     1      -3.714  14.273 -12.924  1.00  0.00     0.031 C 
ATOM     52  C   UNL     1       1.006  13.814 -11.261  1.00  0.00     0.029 A 
ATOM     53  N   UNL     1       0.448  12.651 -13.088  1.00  0.00    -0.354 N 
ATOM     54  C   UNL     1      -3.586  12.767 -14.643  1.00  0.00     0.074 A 
ATOM     55  C   UNL     1      -4.418  13.662 -13.866  1.00  0.00     0.031 C 
ATOM     56  C   UNL     1       2.092  13.127 -11.648  1.00  0.00     0.029 A 
ATOM     57  C   UNL     1       1.753  12.322 -12.818  1.00  0.00     0.049 A 
ATOM     58  H   UNL     1      -0.052  12.291 -13.856  1.00  0.00     0.167 HD
ATOM     59  C   UNL     1      -4.008  12.075 -15.728  1.00  0.00     0.037 A 
ATOM     60  C   UNL     1       2.577  11.451 -13.431  1.00  0.00     0.037 A 
ATOM     61  C   UNL     1      -3.169  11.208 -16.512  1.00  0.00     0.049 A 
ATOM     62  C   UNL     1       2.074  10.672 -14.615  1.00  0.00     0.074 A 
ATOM     63  C   UNL     1      -3.481  10.526 -17.675  1.00  0.00     0.029 A 
ATOM     64  N   UNL     1      -1.851  10.900 -16.208  1.00  0.00    -0.354 N 
ATOM     65  N   UNL     1       0.895  10.706 -15.186  1.00  0.00    -0.248 NA
ATOM     66  C   UNL     1       3.014   9.728 -15.236  1.00  0.00     0.031 C 
ATOM     67  C   UNL     1      -2.366   9.768 -18.049  1.00  0.00     0.029 A 
ATOM     68  C   UNL     1      -1.346  10.010 -17.143  1.00  0.00     0.049 A 
ATOM     69  H   UNL     1      -1.349  11.259 -15.441  1.00  0.00     0.167 HD
ATOM     70  C   UNL     1       0.954   9.804 -16.239  1.00  0.00     0.074 A 
ATOM     71  C   UNL     1       2.292   9.249 -16.239  1.00  0.00     0.031 C 
ATOM     72  C   UNL     1      -0.014   9.464 -17.124  1.00  0.00     0.037 A 
BRANCH  59  73
ATOM     73  C   UNL     1      -5.444  12.228 -16.134  1.00  0.00     0.064 A 
ATOM     74  C   UNL     1      -5.923  13.414 -16.710  1.00  0.00     0.173 A 
ATOM     75  C   UNL     1      -6.342  11.160 -15.986  1.00  0.00     0.173 A 
ATOM     76  F   UNL     1      -5.106  14.467 -16.864  1.00  0.00    -0.203 F 
ATOM     77  C   UNL     1      -7.254  13.534 -17.100  1.00  0.00     0.198 A 
ATOM     78  C   UNL     1      -7.666  11.274 -16.401  1.00  0.00     0.198 A 
ATOM     79  F   UNL     1      -5.933  10.002 -15.446  1.00  0.00    -0.203 F 
ATOM     80  F   UNL     1      -7.699  14.691 -17.609  1.00  0.00    -0.200 F 
ATOM     81  C   UNL     1      -8.122  12.463 -16.952  1.00  0.00     0.200 A 
ATOM     82  F   UNL     1      -8.501  10.235 -16.268  1.00  0.00    -0.200 F 
ATOM     83  F   UNL     1      -9.401  12.578 -17.334  1.00  0.00    -0.200 F 
ENDBRANCH  59  73
BRANCH  60  84
ATOM     84  C   UNL     1       3.964  11.268 -12.932  1.00  0.00     0.064 A 
ATOM     85  C   UNL     1       5.060  11.729 -13.674  1.00  0.00     0.173 A 
ATOM     86  C   UNL     1       4.223  10.632 -11.709  1.00  0.00     0.173 A 
ATOM     87  F   UNL     1       4.863  12.322 -14.860  1.00  0.00    -0.203 F 
ATOM     88  C   UNL     1       6.364  11.550 -13.217  1.00  0.00     0.198 A 
ATOM     89  C   UNL     1       5.526  10.476 -11.241  1.00  0.00     0.198 A 
ATOM     90  F   UNL     1       3.208  10.174 -10.962  1.00  0.00    -0.203 F 
ATOM     91  F   UNL     1       7.396  11.965 -13.964  1.00  0.00    -0.200 F 
ATOM     92  C   UNL     1       6.596  10.929 -11.999  1.00  0.00     0.200 A 
ATOM     93  F   UNL     1       5.744   9.886 -10.058  1.00  0.00    -0.200 F 
ATOM     94  F   UNL     1       7.850  10.761 -11.558  1.00  0.00    -0.200 F 
ENDBRANCH  60  84
BRANCH  72  95
ATOM     95  C   UNL     1       0.339   8.450 -18.171  1.00  0.00     0.064 A 
ATOM     96  C   UNL     1       0.464   7.090 -17.856  1.00  0.00     0.173 A 
ATOM     97  C   UNL     1       0.501   8.835 -19.511  1.00  0.00     0.173 A 
ATOM     98  F   UNL     1       0.336   6.677 -16.586  1.00  0.00    -0.203 F 
ATOM     99  C   UNL     1       0.754   6.152 -18.843  1.00  0.00     0.198 A 
ATOM    100  C   UNL     1       0.764   7.891 -20.499  1.00  0.00     0.198 A 
ATOM    101  F   UNL     1       0.386  10.124 -19.862  1.00  0.00    -0.203 F 
ATOM    102  F   UNL     1       0.905   4.861 -18.514  1.00  0.00    -0.200 F 
ATOM    103  C   UNL     1       0.895   6.551 -20.164  1.00  0.00     0.200 A 
ATOM    104  F   UNL     1       0.889   8.277 -21.776  1.00  0.00    -0.200 F 
ATOM    105  F   UNL     1       1.162   5.645 -21.114  1.00  0.00    -0.200 F 
ENDBRANCH  72  95
ENDBRANCH  46  47
ENDBRANCH  38  41
ENDBRANCH  36  37
ENDBRANCH  35  36
ENDBRANCH  34  35
ENDBRANCH  33  34
ENDBRANCH   1  33
TORSDOF 19
