REMARK SMILES C[C@@H](CNc1cccc(F)c1C(=O)NCCCCCCNC(=O)c1ccc(-c2c3nc(c(-c4c(F)c(F)c(F)c(F)c4F)c4ccc([nH]4)c(-c4c(F)c(F)c(F)c(F)c4F)c4nc(c(-c5c(F)c(F)c(F)c(F)c5F)c5ccc2[nH]5)C=C4)C=C3)cc1)[NH+]1CCCCC1
REMARK SMILES IDX 16 1 15 2 14 3 12 4 13 5 11 7 5 8 6 9 7 10 9 11 8 12 10 13
REMARK SMILES IDX 4 14 3 16 2 17 1 18 87 19 88 20 92 21 89 23 91 24 90 25
REMARK SMILES IDX 17 26 18 27 19 28 20 29 21 30 22 31 23 33 24 34 25 35 86 36
REMARK SMILES IDX 26 37 85 38 27 39 28 40 29 41 79 42 30 43 84 44 78 45 80 46
REMARK SMILES IDX 31 47 83 48 77 49 76 50 32 52 64 53 44 54 63 55 45 56 48 57
REMARK SMILES IDX 62 58 81 59 46 60 47 61 61 63 82 64 49 65 33 66 34 67 42 68
REMARK SMILES IDX 35 69 36 70 40 71 43 72 37 73 38 74 41 75 39 76 65 77 66 78
REMARK SMILES IDX 74 79 67 80 68 81 72 82 75 83 69 84 70 85 73 86 71 87 50 88
REMARK SMILES IDX 51 89 59 90 52 91 53 92 57 93 60 94 54 95 55 96 58 97 56 98
REMARK H PARENT 14 6 4 15 87 22 21 32 80 51 48 62
REMARK Flexibility Score: inf
ROOT
ATOM      1  C   UNL     1      -3.778   6.178  -0.214  1.00  0.00     0.021 C 
ENDROOT
BRANCH   1   2
ATOM      2  C   UNL     1      -3.547   4.787   0.386  1.00  0.00     0.116 C 
BRANCH   2   3
ATOM      3  N   UNL     1      -2.246   4.308  -0.043  1.00  0.00    -0.352 N 
ATOM      4  C   UNL     1      -1.039   4.182   0.596  1.00  0.00     0.256 C 
ATOM      5  O   UNL     1      -0.069   3.901  -0.115  1.00  0.00    -0.269 OA
ATOM      6  H   UNL     1      -2.225   4.014  -0.982  1.00  0.00     0.163 HD
BRANCH   4   7
ATOM      7  C   UNL     1      -0.871   4.215   2.076  1.00  0.00     0.098 A 
ATOM      8  C   UNL     1      -0.057   3.214   2.680  1.00  0.00     0.050 A 
ATOM      9  C   UNL     1       0.067   3.209   4.079  1.00  0.00     0.027 A 
ATOM     10  C   UNL     1      -0.576   4.162   4.870  1.00  0.00     0.005 A 
ATOM     11  C   UNL     1      -1.462   5.191   2.878  1.00  0.00     0.138 A 
ATOM     12  C   UNL     1      -1.340   5.154   4.267  1.00  0.00     0.040 A 
ATOM     13  F   UNL     1      -2.146   6.215   2.348  1.00  0.00    -0.206 F 
BRANCH   8  14
ATOM     14  N   UNL     1       0.548   2.227   1.911  1.00  0.00    -0.378 N 
ATOM     15  H   UNL     1       0.839   2.476   1.004  1.00  0.00     0.160 HD
BRANCH  14  16
ATOM     16  C   UNL     1       0.789   0.857   2.335  1.00  0.00     0.177 C 
BRANCH  16  17
ATOM     17  C   UNL     1       0.318  -0.218   1.298  1.00  0.00     0.200 C 
ATOM     18  C   UNL     1       1.018  -0.038  -0.059  1.00  0.00     0.077 C 
BRANCH  17  19
ATOM     19  N   UNL     1      -1.162  -0.396   1.235  1.00  0.00    -0.331 N 
ATOM     20  C   UNL     1      -1.877   0.707   0.584  1.00  0.00     0.262 C 
ATOM     21  C   UNL     1      -1.540  -1.687   0.641  1.00  0.00     0.262 C 
ATOM     22  H   UNL     1      -1.461  -0.389   2.210  1.00  0.00     0.348 HD
ATOM     23  C   UNL     1      -3.396   0.540   0.655  1.00  0.00     0.062 C 
ATOM     24  C   UNL     1      -3.050  -1.925   0.739  1.00  0.00     0.062 C 
ATOM     25  C   UNL     1      -3.831  -0.796   0.079  1.00  0.00     0.012 C 
ENDBRANCH  17  19
ENDBRANCH  16  17
ENDBRANCH  14  16
ENDBRANCH   8  14
ENDBRANCH   4   7
ENDBRANCH   2   3
ENDBRANCH   1   2
BRANCH   1  26
ATOM     26  C   UNL     1      -4.219   6.133  -1.686  1.00  0.00     0.002 C 
BRANCH  26  27
ATOM     27  C   UNL     1      -5.659   5.655  -1.908  1.00  0.00     0.002 C 
BRANCH  27  28
ATOM     28  C   UNL     1      -6.736   6.462  -1.175  1.00  0.00     0.021 C 
BRANCH  28  29
ATOM     29  C   UNL     1      -6.727   7.962  -1.462  1.00  0.00     0.116 C 
BRANCH  29  30
ATOM     30  N   UNL     1      -7.004   8.252  -2.859  1.00  0.00    -0.352 N 
ATOM     31  C   UNL     1      -7.914   9.114  -3.413  1.00  0.00     0.251 C 
ATOM     32  H   UNL     1      -6.455   7.752  -3.506  1.00  0.00     0.163 HD
ATOM     33  O   UNL     1      -8.133   9.077  -4.620  1.00  0.00    -0.269 OA
BRANCH  31  34
ATOM     34  C   UNL     1      -8.650  10.082  -2.568  1.00  0.00     0.039 A 
ATOM     35  C   UNL     1     -10.008  10.291  -2.828  1.00  0.00     0.014 A 
ATOM     36  C   UNL     1      -8.011  10.816  -1.564  1.00  0.00     0.014 A 
ATOM     37  C   UNL     1     -10.732  11.200  -2.056  1.00  0.00     0.010 A 
ATOM     38  C   UNL     1      -8.749  11.680  -0.752  1.00  0.00     0.010 A 
ATOM     39  C   UNL     1     -10.115  11.884  -0.994  1.00  0.00    -0.014 A 
BRANCH  39  40
ATOM     40  C   UNL     1     -10.909  12.794  -0.130  1.00  0.00     0.031 A 
ATOM     41  C   UNL     1     -10.656  14.275  -0.132  1.00  0.00     0.074 A 
ATOM     42  C   UNL     1     -11.853  12.273   0.677  1.00  0.00     0.049 A 
ATOM     43  N   UNL     1     -11.279  15.218   0.531  1.00  0.00    -0.248 NA
ATOM     44  C   UNL     1      -9.549  14.764  -0.969  1.00  0.00     0.031 C 
ATOM     45  C   UNL     1     -12.146  10.846   0.816  1.00  0.00     0.029 A 
ATOM     46  N   UNL     1     -12.742  12.880   1.529  1.00  0.00    -0.354 N 
ATOM     47  C   UNL     1     -10.638  16.404   0.197  1.00  0.00     0.074 A 
ATOM     48  C   UNL     1      -9.548  16.060  -0.691  1.00  0.00     0.031 C 
ATOM     49  C   UNL     1     -13.166  10.689   1.673  1.00  0.00     0.029 A 
ATOM     50  C   UNL     1     -13.584  12.000   2.163  1.00  0.00     0.049 A 
ATOM     51  H   UNL     1     -12.773  13.854   1.672  1.00  0.00     0.167 HD
ATOM     52  C   UNL     1     -10.947  17.665   0.580  1.00  0.00     0.037 A 
ATOM     53  C   UNL     1     -14.586  12.222   3.035  1.00  0.00     0.037 A 
ATOM     54  C   UNL     1     -12.054  18.006   1.435  1.00  0.00     0.049 A 
ATOM     55  C   UNL     1     -14.930  13.635   3.415  1.00  0.00     0.074 A 
ATOM     56  C   UNL     1     -12.498  19.264   1.807  1.00  0.00     0.029 A 
ATOM     57  N   UNL     1     -12.891  17.088   2.051  1.00  0.00    -0.354 N 
ATOM     58  N   UNL     1     -14.368  14.754   3.026  1.00  0.00    -0.248 NA
ATOM     59  C   UNL     1     -16.052  13.819   4.346  1.00  0.00     0.031 C 
ATOM     60  C   UNL     1     -13.574  19.106   2.685  1.00  0.00     0.029 A 
ATOM     61  C   UNL     1     -13.832  17.752   2.823  1.00  0.00     0.049 A 
ATOM     62  H   UNL     1     -12.826  16.111   1.955  1.00  0.00     0.167 HD
ATOM     63  C   UNL     1     -15.070  15.772   3.656  1.00  0.00     0.074 A 
ATOM     64  C   UNL     1     -16.117  15.140   4.431  1.00  0.00     0.031 C 
ATOM     65  C   UNL     1     -14.860  17.110   3.601  1.00  0.00     0.037 A 
BRANCH  52  66
ATOM     66  C   UNL     1     -10.094  18.787   0.066  1.00  0.00     0.064 A 
ATOM     67  C   UNL     1      -9.264  19.507   0.939  1.00  0.00     0.173 A 
ATOM     68  C   UNL     1     -10.169  19.211  -1.269  1.00  0.00     0.173 A 
ATOM     69  F   UNL     1      -9.163  19.146   2.227  1.00  0.00    -0.203 F 
ATOM     70  C   UNL     1      -8.553  20.619   0.497  1.00  0.00     0.198 A 
ATOM     71  C   UNL     1      -9.437  20.309  -1.713  1.00  0.00     0.198 A 
ATOM     72  F   UNL     1     -10.943  18.552  -2.144  1.00  0.00    -0.203 F 
ATOM     73  F   UNL     1      -7.793  21.312   1.356  1.00  0.00    -0.200 F 
ATOM     74  C   UNL     1      -8.639  21.018  -0.828  1.00  0.00     0.200 A 
ATOM     75  F   UNL     1      -9.507  20.683  -2.998  1.00  0.00    -0.200 F 
ATOM     76  F   UNL     1      -7.952  22.088  -1.253  1.00  0.00    -0.200 F 
ENDBRANCH  52  66
BRANCH  53  77
ATOM     77  C   UNL     1     -15.356  11.072   3.573  1.00  0.00     0.064 A 
ATOM     78  C   UNL     1     -14.780  10.171   4.480  1.00  0.00     0.173 A 
ATOM     79  C   UNL     1     -16.676  10.836   3.166  1.00  0.00     0.173 A 
ATOM     80  F   UNL     1     -13.517  10.352   4.896  1.00  0.00    -0.203 F 
ATOM     81  C   UNL     1     -15.489   9.067   4.945  1.00  0.00     0.198 A 
ATOM     82  C   UNL     1     -17.393   9.745   3.652  1.00  0.00     0.198 A 
ATOM     83  F   UNL     1     -17.275  11.681   2.315  1.00  0.00    -0.203 F 
ATOM     84  F   UNL     1     -14.905   8.202   5.786  1.00  0.00    -0.200 F 
ATOM     85  C   UNL     1     -16.797   8.857   4.534  1.00  0.00     0.200 A 
ATOM     86  F   UNL     1     -18.664   9.558   3.270  1.00  0.00    -0.200 F 
ATOM     87  F   UNL     1     -17.483   7.800   4.991  1.00  0.00    -0.200 F 
ENDBRANCH  53  77
BRANCH  65  88
ATOM     88  C   UNL     1     -15.771  17.985   4.409  1.00  0.00     0.064 A 
ATOM     89  C   UNL     1     -16.712  18.813   3.779  1.00  0.00     0.173 A 
ATOM     90  C   UNL     1     -15.672  18.046   5.807  1.00  0.00     0.173 A 
ATOM     91  F   UNL     1     -16.840  18.798   2.444  1.00  0.00    -0.203 F 
ATOM     92  C   UNL     1     -17.514  19.678   4.519  1.00  0.00     0.198 A 
ATOM     93  C   UNL     1     -16.494  18.891   6.546  1.00  0.00     0.198 A 
ATOM     94  F   UNL     1     -14.796  17.264   6.456  1.00  0.00    -0.203 F 
ATOM     95  F   UNL     1     -18.386  20.481   3.895  1.00  0.00    -0.200 F 
ATOM     96  C   UNL     1     -17.408  19.712   5.902  1.00  0.00     0.200 A 
ATOM     97  F   UNL     1     -16.408  18.905   7.883  1.00  0.00    -0.200 F 
ATOM     98  F   UNL     1     -18.191  20.534   6.614  1.00  0.00    -0.200 F 
ENDBRANCH  65  88
ENDBRANCH  39  40
ENDBRANCH  31  34
ENDBRANCH  29  30
ENDBRANCH  28  29
ENDBRANCH  27  28
ENDBRANCH  26  27
ENDBRANCH   1  26
TORSDOF 17
