REMARK SMILES O=C(CCC(=O)Nc1ccc(N2CCN(c3ccc(F)cc3)CC2)cc1)NCCCCCCNC(=O)c1ccc(-c2c3nc(c(-c4c(F)c(F)c(F)c(F)c4F)c4ccc([nH]4)c(-c4c(F)c(F)c(F)c(F)c4F)c4nc(c(-c5c(F)c(F)c(F)c(F)c5F)c5ccc2[nH]5)C=C4)C=C3)cc1
REMARK SMILES IDX 29 1 28 2 27 3 1 4 2 5 3 7 4 8 5 9 6 10 7 11 8 13 9 14 26 15
REMARK SMILES IDX 10 16 25 17 11 18 12 19 13 20 24 21 14 22 23 23 15 24 16 25
REMARK SMILES IDX 17 26 22 27 18 28 21 29 19 30 20 31 30 32 31 33 32 34 33 35
REMARK SMILES IDX 34 36 35 37 36 39 37 40 38 41 99 42 39 43 98 44 40 45 41 46
REMARK SMILES IDX 42 47 92 48 43 49 97 50 91 51 93 52 44 53 96 54 90 55 89 56
REMARK SMILES IDX 45 58 77 59 57 60 76 61 58 62 61 63 75 64 94 65 59 66 60 67
REMARK SMILES IDX 74 69 95 70 62 71 46 72 47 73 55 74 48 75 49 76 53 77 56 78
REMARK SMILES IDX 50 79 51 80 54 81 52 82 78 83 79 84 87 85 80 86 81 87 85 88
REMARK SMILES IDX 88 89 82 90 83 91 86 92 84 93 63 94 64 95 72 96 65 97 66 98
REMARK SMILES IDX 70 99 73 100 67 101 68 102 71 103 69 104
REMARK H PARENT 27 6 7 12 34 38 93 57 61 68
REMARK Flexibility Score: inf
ROOT
ATOM      1  C   UNL     1       3.125  -3.761   0.286  1.00  0.00     0.021 C 
ENDROOT
BRANCH   1   2
ATOM      2  C   UNL     1       2.439  -2.400   0.277  1.00  0.00     0.116 C 
BRANCH   2   3
ATOM      3  N   UNL     1       3.229  -1.365  -0.361  1.00  0.00    -0.356 N 
ATOM      4  O   UNL     1       1.476  -0.282  -1.383  1.00  0.00    -0.275 OA
ATOM      5  C   UNL     1       2.660  -0.328  -1.062  1.00  0.00     0.220 C 
ATOM      6  H   UNL     1       4.210  -1.407  -0.290  1.00  0.00     0.163 HD
BRANCH   5   7
ATOM      7  C   UNL     1       3.621   0.797  -1.390  1.00  0.00     0.110 C 
BRANCH   7   8
ATOM      8  C   UNL     1       3.964   1.731  -0.230  1.00  0.00     0.110 C 
BRANCH   8   9
ATOM      9  C   UNL     1       4.558   1.054   0.981  1.00  0.00     0.224 C 
ATOM     10  O   UNL     1       5.761   0.764   0.973  1.00  0.00    -0.275 OA
ATOM     11  N   UNL     1       3.849   0.686   2.083  1.00  0.00    -0.326 N 
ATOM     12  H   UNL     1       4.420   0.507   2.865  1.00  0.00     0.169 HD
BRANCH  11  13
ATOM     13  C   UNL     1       2.478   0.505   2.353  1.00  0.00     0.041 A 
ATOM     14  C   UNL     1       2.168  -0.267   3.481  1.00  0.00     0.028 A 
ATOM     15  C   UNL     1       1.433   0.881   1.520  1.00  0.00     0.028 A 
ATOM     16  C   UNL     1       0.876  -0.776   3.665  1.00  0.00     0.028 A 
ATOM     17  C   UNL     1       0.152   0.344   1.688  1.00  0.00     0.028 A 
ATOM     18  C   UNL     1      -0.136  -0.523   2.737  1.00  0.00     0.037 A 
BRANCH  18  19
ATOM     19  N   UNL     1      -1.379  -1.109   2.904  1.00  0.00    -0.368 N 
ATOM     20  C   UNL     1      -2.409  -0.257   3.522  1.00  0.00     0.138 C 
ATOM     21  C   UNL     1      -1.873  -2.063   1.885  1.00  0.00     0.138 C 
ATOM     22  C   UNL     1      -3.278   0.444   2.455  1.00  0.00     0.138 C 
ATOM     23  C   UNL     1      -2.900  -1.456   0.895  1.00  0.00     0.138 C 
ATOM     24  N   UNL     1      -3.867  -0.556   1.546  1.00  0.00    -0.368 N 
BRANCH  24  25
ATOM     25  C   UNL     1      -5.197  -0.877   1.734  1.00  0.00     0.037 A 
ATOM     26  C   UNL     1      -6.173   0.126   1.590  1.00  0.00     0.029 A 
ATOM     27  C   UNL     1      -5.628  -2.158   2.102  1.00  0.00     0.029 A 
ATOM     28  C   UNL     1      -7.526  -0.129   1.819  1.00  0.00     0.041 A 
ATOM     29  C   UNL     1      -6.982  -2.418   2.348  1.00  0.00     0.041 A 
ATOM     30  C   UNL     1      -7.917  -1.401   2.205  1.00  0.00     0.123 A 
ATOM     31  F   UNL     1      -9.210  -1.650   2.447  1.00  0.00    -0.207 F 
ENDBRANCH  24  25
ENDBRANCH  18  19
ENDBRANCH  11  13
ENDBRANCH   8   9
ENDBRANCH   7   8
ENDBRANCH   5   7
ENDBRANCH   2   3
ENDBRANCH   1   2
BRANCH   1  32
ATOM     32  C   UNL     1       4.539  -3.775   0.881  1.00  0.00     0.002 C 
BRANCH  32  33
ATOM     33  C   UNL     1       4.658  -3.349   2.348  1.00  0.00     0.002 C 
BRANCH  33  34
ATOM     34  C   UNL     1       3.890  -4.205   3.356  1.00  0.00     0.021 C 
BRANCH  34  35
ATOM     35  C   UNL     1       4.103  -5.710   3.234  1.00  0.00     0.116 C 
BRANCH  35  36
ATOM     36  N   UNL     1       5.496  -6.108   3.358  1.00  0.00    -0.352 N 
ATOM     37  C   UNL     1       6.034  -7.197   3.996  1.00  0.00     0.251 C 
ATOM     38  H   UNL     1       6.146  -5.510   2.923  1.00  0.00     0.163 HD
ATOM     39  O   UNL     1       7.255  -7.319   4.086  1.00  0.00    -0.269 OA
BRANCH  37  40
ATOM     40  C   UNL     1       5.150  -8.213   4.608  1.00  0.00     0.039 A 
ATOM     41  C   UNL     1       5.467  -8.704   5.877  1.00  0.00     0.014 A 
ATOM     42  C   UNL     1       4.019  -8.687   3.938  1.00  0.00     0.014 A 
ATOM     43  C   UNL     1       4.623  -9.630   6.495  1.00  0.00     0.010 A 
ATOM     44  C   UNL     1       3.136  -9.546   4.588  1.00  0.00     0.010 A 
ATOM     45  C   UNL     1       3.435 -10.037   5.868  1.00  0.00    -0.014 A 
BRANCH  45  46
ATOM     46  C   UNL     1       2.512 -11.004   6.519  1.00  0.00     0.031 A 
ATOM     47  C   UNL     1       2.257 -12.343   5.880  1.00  0.00     0.074 A 
ATOM     48  C   UNL     1       1.872 -10.665   7.655  1.00  0.00     0.049 A 
ATOM     49  N   UNL     1       1.432 -13.293   6.245  1.00  0.00    -0.248 NA
ATOM     50  C   UNL     1       3.011 -12.646   4.652  1.00  0.00     0.031 C 
ATOM     51  C   UNL     1       2.002  -9.384   8.351  1.00  0.00     0.029 A 
ATOM     52  N   UNL     1       0.972 -11.366   8.420  1.00  0.00    -0.354 N 
ATOM     53  C   UNL     1       1.569 -14.298   5.295  1.00  0.00     0.074 A 
ATOM     54  C   UNL     1       2.500 -13.816   4.299  1.00  0.00     0.031 C 
ATOM     55  C   UNL     1       1.227  -9.397   9.447  1.00  0.00     0.029 A 
ATOM     56  C   UNL     1       0.513 -10.668   9.511  1.00  0.00     0.049 A 
ATOM     57  H   UNL     1       0.684 -12.283   8.207  1.00  0.00     0.167 HD
ATOM     58  C   UNL     1       0.998 -15.525   5.273  1.00  0.00     0.037 A 
ATOM     59  C   UNL     1      -0.392 -11.012  10.449  1.00  0.00     0.037 A 
ATOM     60  C   UNL     1       0.083 -16.011   6.272  1.00  0.00     0.049 A 
ATOM     61  C   UNL     1      -1.031 -12.376  10.383  1.00  0.00     0.074 A 
ATOM     62  C   UNL     1      -0.541 -17.244   6.346  1.00  0.00     0.029 A 
ATOM     63  N   UNL     1      -0.335 -15.284   7.377  1.00  0.00    -0.354 N 
ATOM     64  N   UNL     1      -0.857 -13.334   9.505  1.00  0.00    -0.248 NA
ATOM     65  C   UNL     1      -1.985 -12.712  11.450  1.00  0.00     0.031 C 
ATOM     66  C   UNL     1      -1.367 -17.250   7.474  1.00  0.00     0.029 A 
ATOM     67  C   UNL     1      -1.211 -16.043   8.136  1.00  0.00     0.049 A 
ATOM     68  H   UNL     1      -0.051 -14.366   7.591  1.00  0.00     0.167 HD
ATOM     69  C   UNL     1      -1.639 -14.397   9.938  1.00  0.00     0.074 A 
ATOM     70  C   UNL     1      -2.280 -13.971  11.164  1.00  0.00     0.031 C 
ATOM     71  C   UNL     1      -1.814 -15.616   9.372  1.00  0.00     0.037 A 
BRANCH  58  72
ATOM     72  C   UNL     1       1.363 -16.444   4.142  1.00  0.00     0.064 A 
ATOM     73  C   UNL     1       2.646 -17.002   4.040  1.00  0.00     0.173 A 
ATOM     74  C   UNL     1       0.409 -16.816   3.183  1.00  0.00     0.173 A 
ATOM     75  F   UNL     1       3.600 -16.669   4.924  1.00  0.00    -0.203 F 
ATOM     76  C   UNL     1       2.967 -17.882   3.010  1.00  0.00     0.198 A 
ATOM     77  C   UNL     1       0.723 -17.722   2.173  1.00  0.00     0.198 A 
ATOM     78  F   UNL     1      -0.835 -16.316   3.235  1.00  0.00    -0.203 F 
ATOM     79  F   UNL     1       4.212 -18.368   2.910  1.00  0.00    -0.200 F 
ATOM     80  C   UNL     1       2.003 -18.250   2.084  1.00  0.00     0.200 A 
ATOM     81  F   UNL     1      -0.214 -18.088   1.288  1.00  0.00    -0.200 F 
ATOM     82  F   UNL     1       2.308 -19.109   1.102  1.00  0.00    -0.200 F 
ENDBRANCH  58  72
BRANCH  59  83
ATOM     83  C   UNL     1      -0.751 -10.062  11.537  1.00  0.00     0.064 A 
ATOM     84  C   UNL     1      -0.448 -10.346  12.877  1.00  0.00     0.173 A 
ATOM     85  C   UNL     1      -1.452  -8.878  11.267  1.00  0.00     0.173 A 
ATOM     86  F   UNL     1       0.205 -11.474  13.191  1.00  0.00    -0.203 F 
ATOM     87  C   UNL     1      -0.873  -9.507  13.906  1.00  0.00     0.198 A 
ATOM     88  C   UNL     1      -1.843  -8.021  12.293  1.00  0.00     0.198 A 
ATOM     89  F   UNL     1      -1.761  -8.552  10.003  1.00  0.00    -0.203 F 
ATOM     90  F   UNL     1      -0.636  -9.843  15.181  1.00  0.00    -0.200 F 
ATOM     91  C   UNL     1      -1.568  -8.344  13.613  1.00  0.00     0.200 A 
ATOM     92  F   UNL     1      -2.499  -6.889  12.005  1.00  0.00    -0.200 F 
ATOM     93  F   UNL     1      -1.985  -7.543  14.603  1.00  0.00    -0.200 F 
ENDBRANCH  59  83
BRANCH  71  94
ATOM     94  C   UNL     1      -2.672 -16.605  10.109  1.00  0.00     0.064 A 
ATOM     95  C   UNL     1      -4.060 -16.445  10.227  1.00  0.00     0.173 A 
ATOM     96  C   UNL     1      -2.093 -17.751  10.678  1.00  0.00     0.173 A 
ATOM     97  F   UNL     1      -4.662 -15.362   9.711  1.00  0.00    -0.203 F 
ATOM     98  C   UNL     1      -4.831 -17.375  10.920  1.00  0.00     0.198 A 
ATOM     99  C   UNL     1      -2.872 -18.697  11.338  1.00  0.00     0.198 A 
ATOM    100  F   UNL     1      -0.771 -17.958  10.585  1.00  0.00    -0.203 F 
ATOM    101  F   UNL     1      -6.147 -17.170  11.072  1.00  0.00    -0.200 F 
ATOM    102  C   UNL     1      -4.238 -18.503  11.467  1.00  0.00     0.200 A 
ATOM    103  F   UNL     1      -2.299 -19.795  11.850  1.00  0.00    -0.200 F 
ATOM    104  F   UNL     1      -4.983 -19.400  12.128  1.00  0.00    -0.200 F 
ENDBRANCH  71  94
ENDBRANCH  45  46
ENDBRANCH  37  40
ENDBRANCH  35  36
ENDBRANCH  34  35
ENDBRANCH  33  34
ENDBRANCH  32  33
ENDBRANCH   1  32
TORSDOF 18
