REMARK SMILES Cc1ccc(NC(=O)CN2C(=O)S/C(=C\c3cc(Cl)c(OCC(=O)NCCCCCCNC(=O)c4ccc(-c5c6nc(c(-c7c(F)c(F)c(F)c(F)c7F)c7ccc([nH]7)c(-c7c(F)c(F)c(F)c(F)c7F)c7nc(c(-c8c(F)c(F)c(F)c(F)c8F)c8ccc5[nH]8)C=C7)C=C6)cc4)c(Cl)c3)C2=O)cc1
REMARK SMILES IDX 26 1 25 2 23 3 24 4 22 6 21 7 20 8 16 9 17 10 100 11 18 12
REMARK SMILES IDX 98 13 19 14 99 15 15 16 10 17 11 18 101 19 12 20 13 21 14 22
REMARK SMILES IDX 102 23 9 24 7 25 6 26 8 28 5 29 1 30 2 31 3 32 104 33 4 34
REMARK SMILES IDX 103 35 27 36 28 37 29 38 30 39 31 40 32 41 33 42 34 44 35 45
REMARK SMILES IDX 36 46 97 47 37 48 96 49 38 50 39 51 40 52 90 53 41 54 95 55
REMARK SMILES IDX 89 56 91 57 42 58 94 59 88 60 87 61 43 63 75 64 55 65 74 66
REMARK SMILES IDX 56 67 59 68 73 69 92 70 57 71 58 72 72 74 93 75 60 76 44 77
REMARK SMILES IDX 45 78 53 79 46 80 47 81 51 82 54 83 48 84 49 85 52 86 50 87
REMARK SMILES IDX 76 88 77 89 85 90 78 91 79 92 83 93 86 94 80 95 81 96 84 97
REMARK SMILES IDX 82 98 61 99 62 100 70 101 63 102 64 103 68 104 71 105 65 106
REMARK SMILES IDX 66 107 69 108 67 109
REMARK H PARENT 25 5 6 27 32 43 91 62 59 73
REMARK Flexibility Score: inf
ROOT
ATOM      1  C   UNL     1      -6.489  -4.603 -12.415  1.00  0.00     0.116 C 
ENDROOT
BRANCH   1   2
ATOM      2  N   UNL     1      -7.390  -4.290 -11.330  1.00  0.00    -0.353 N 
ATOM      3  C   UNL     1      -7.571  -3.100 -10.691  1.00  0.00     0.257 C 
ATOM      4  O   UNL     1      -8.558  -2.991  -9.962  1.00  0.00    -0.271 OA
ATOM      5  H   UNL     1      -7.948  -5.035 -11.010  1.00  0.00     0.163 HD
BRANCH   3   6
ATOM      6  C   UNL     1      -6.600  -1.937 -10.949  1.00  0.00     0.329 C 
BRANCH   6   7
ATOM      7  O   UNL     1      -5.218  -2.167 -10.747  1.00  0.00    -0.481 OA
BRANCH   7   8
ATOM      8  C   UNL     1      -4.650  -2.324  -9.512  1.00  0.00     0.157 A 
ATOM      9  C   UNL     1      -3.125  -2.762  -7.126  1.00  0.00    -0.021 A 
ATOM     10  C   UNL     1      -2.518  -2.880  -8.369  1.00  0.00     0.032 A 
ATOM     11  C   UNL     1      -4.494  -2.471  -7.097  1.00  0.00     0.032 A 
ATOM     12  C   UNL     1      -3.276  -2.676  -9.540  1.00  0.00     0.085 A 
ATOM     13  C   UNL     1      -5.235  -2.184  -8.252  1.00  0.00     0.085 A 
ATOM     14  Cl  UNL     1      -2.441  -2.870 -11.053  1.00  0.00    -0.080 Cl
ATOM     15  Cl  UNL     1      -6.813  -1.580  -7.907  1.00  0.00    -0.080 Cl
BRANCH   9  16
ATOM     16  C   UNL     1      -2.419  -3.009  -5.852  1.00  0.00     0.029 C 
ATOM     17  N   UNL     1      -3.100  -2.059  -2.493  1.00  0.00    -0.259 N 
ATOM     18  C   UNL     1      -3.897  -1.098  -3.049  1.00  0.00     0.294 C 
ATOM     19  C   UNL     1      -2.299  -2.756  -3.380  1.00  0.00     0.268 C 
ATOM     20  O   UNL     1      -4.925  -0.612  -2.588  1.00  0.00    -0.261 OA
ATOM     21  S   UNL     1      -3.315  -0.697  -4.644  1.00  0.00    -0.022 SA
ATOM     22  C   UNL     1      -2.530  -2.228  -4.761  1.00  0.00     0.083 C 
ATOM     23  O   UNL     1      -1.637  -3.751  -3.131  1.00  0.00    -0.268 OA
BRANCH  17  24
ATOM     24  C   UNL     1      -3.441  -2.617  -1.193  1.00  0.00     0.230 C 
BRANCH  24  25
ATOM     25  C   UNL     1      -3.790  -1.553  -0.149  1.00  0.00     0.244 C 
ATOM     26  N   UNL     1      -2.975  -0.479   0.066  1.00  0.00    -0.325 N 
ATOM     27  H   UNL     1      -3.445   0.336   0.357  1.00  0.00     0.169 HD
ATOM     28  O   UNL     1      -4.834  -1.641   0.504  1.00  0.00    -0.273 OA
BRANCH  26  29
ATOM     29  C   UNL     1      -1.587  -0.337  -0.056  1.00  0.00     0.041 A 
ATOM     30  C   UNL     1       2.678   0.318  -0.041  1.00  0.00     0.044 C 
ATOM     31  C   UNL     1       1.194   0.105  -0.059  1.00  0.00    -0.051 A 
ATOM     32  C   UNL     1       0.678  -1.193  -0.001  1.00  0.00     0.005 A 
ATOM     33  C   UNL     1       0.307   1.183  -0.116  1.00  0.00     0.005 A 
ATOM     34  C   UNL     1      -0.703  -1.412   0.001  1.00  0.00     0.026 A 
ATOM     35  C   UNL     1      -1.073   0.963  -0.099  1.00  0.00     0.026 A 
ENDBRANCH  26  29
ENDBRANCH  24  25
ENDBRANCH  17  24
ENDBRANCH   9  16
ENDBRANCH   7   8
ENDBRANCH   6   7
ENDBRANCH   3   6
ENDBRANCH   1   2
BRANCH   1  36
ATOM     36  C   UNL     1      -5.519  -5.732 -12.073  1.00  0.00     0.021 C 
BRANCH  36  37
ATOM     37  C   UNL     1      -6.144  -7.048 -11.585  1.00  0.00     0.002 C 
BRANCH  37  38
ATOM     38  C   UNL     1      -7.301  -7.636 -12.406  1.00  0.00     0.002 C 
BRANCH  38  39
ATOM     39  C   UNL     1      -7.084  -7.747 -13.914  1.00  0.00     0.021 C 
BRANCH  39  40
ATOM     40  C   UNL     1      -6.006  -8.736 -14.335  1.00  0.00     0.116 C 
BRANCH  40  41
ATOM     41  N   UNL     1      -6.526 -10.033 -14.766  1.00  0.00    -0.352 N 
ATOM     42  C   UNL     1      -5.851 -11.107 -15.323  1.00  0.00     0.251 C 
ATOM     43  H   UNL     1      -7.494 -10.162 -14.642  1.00  0.00     0.163 HD
ATOM     44  O   UNL     1      -6.449 -12.126 -15.648  1.00  0.00    -0.269 OA
BRANCH  42  45
ATOM     45  C   UNL     1      -4.372 -11.074 -15.365  1.00  0.00     0.039 A 
ATOM     46  C   UNL     1      -3.697 -12.100 -14.694  1.00  0.00     0.014 A 
ATOM     47  C   UNL     1      -3.712  -9.905 -15.729  1.00  0.00     0.014 A 
ATOM     48  C   UNL     1      -2.473 -11.821 -14.102  1.00  0.00     0.010 A 
ATOM     49  C   UNL     1      -2.559  -9.584 -15.050  1.00  0.00     0.010 A 
ATOM     50  C   UNL     1      -2.000 -10.514 -14.165  1.00  0.00    -0.014 A 
BRANCH  50  51
ATOM     51  C   UNL     1      -0.995  -9.986 -13.260  1.00  0.00     0.031 A 
ATOM     52  C   UNL     1       0.378  -9.785 -13.750  1.00  0.00     0.074 A 
ATOM     53  C   UNL     1      -1.376  -9.587 -12.025  1.00  0.00     0.049 A 
ATOM     54  N   UNL     1       1.392  -9.597 -12.982  1.00  0.00    -0.248 NA
ATOM     55  C   UNL     1       0.736  -9.864 -15.164  1.00  0.00     0.031 C 
ATOM     56  C   UNL     1      -0.629  -8.760 -11.080  1.00  0.00     0.029 A 
ATOM     57  N   UNL     1      -2.485 -10.039 -11.286  1.00  0.00    -0.354 N 
ATOM     58  C   UNL     1       2.455  -9.241 -13.776  1.00  0.00     0.074 A 
ATOM     59  C   UNL     1       2.037  -9.562 -15.116  1.00  0.00     0.031 C 
ATOM     60  C   UNL     1      -1.099  -8.983  -9.841  1.00  0.00     0.029 A 
ATOM     61  C   UNL     1      -2.048 -10.078  -9.940  1.00  0.00     0.049 A 
ATOM     62  H   UNL     1      -3.375 -10.277 -11.631  1.00  0.00     0.167 HD
ATOM     63  C   UNL     1       3.496  -8.585 -13.193  1.00  0.00     0.037 A 
ATOM     64  C   UNL     1      -1.940 -11.261  -9.267  1.00  0.00     0.037 A 
ATOM     65  C   UNL     1       3.401  -8.692 -11.735  1.00  0.00     0.049 A 
ATOM     66  C   UNL     1      -0.534 -11.554  -8.792  1.00  0.00     0.074 A 
ATOM     67  C   UNL     1       3.006  -7.814 -10.742  1.00  0.00     0.029 A 
ATOM     68  N   UNL     1       3.445  -9.957 -11.152  1.00  0.00    -0.354 N 
ATOM     69  N   UNL     1       0.536 -11.019  -9.315  1.00  0.00    -0.248 NA
ATOM     70  C   UNL     1      -0.225 -12.474  -7.702  1.00  0.00     0.031 C 
ATOM     71  C   UNL     1       2.714  -8.580  -9.580  1.00  0.00     0.029 A 
ATOM     72  C   UNL     1       2.981  -9.912  -9.852  1.00  0.00     0.049 A 
ATOM     73  H   UNL     1       3.764 -10.771 -11.605  1.00  0.00     0.167 HD
ATOM     74  C   UNL     1       1.649 -11.499  -8.674  1.00  0.00     0.074 A 
ATOM     75  C   UNL     1       1.117 -12.394  -7.662  1.00  0.00     0.031 C 
ATOM     76  C   UNL     1       2.911 -11.123  -9.041  1.00  0.00     0.037 A 
BRANCH  63  77
ATOM     77  C   UNL     1       4.478  -7.667 -13.897  1.00  0.00     0.064 A 
ATOM     78  C   UNL     1       5.453  -6.971 -13.144  1.00  0.00     0.173 A 
ATOM     79  C   UNL     1       4.443  -7.311 -15.264  1.00  0.00     0.173 A 
ATOM     80  F   UNL     1       5.615  -7.205 -11.834  1.00  0.00    -0.203 F 
ATOM     81  C   UNL     1       6.281  -5.989 -13.701  1.00  0.00     0.198 A 
ATOM     82  C   UNL     1       5.299  -6.359 -15.827  1.00  0.00     0.198 A 
ATOM     83  F   UNL     1       3.552  -7.820 -16.117  1.00  0.00    -0.203 F 
ATOM     84  F   UNL     1       7.142  -5.322 -12.919  1.00  0.00    -0.200 F 
ATOM     85  C   UNL     1       6.207  -5.685 -15.044  1.00  0.00     0.200 A 
ATOM     86  F   UNL     1       5.207  -6.083 -17.136  1.00  0.00    -0.200 F 
ATOM     87  F   UNL     1       6.991  -4.739 -15.578  1.00  0.00    -0.200 F 
ENDBRANCH  63  77
BRANCH  64  88
ATOM     88  C   UNL     1      -2.931 -12.274  -9.721  1.00  0.00     0.064 A 
ATOM     89  C   UNL     1      -4.301 -11.965  -9.583  1.00  0.00     0.173 A 
ATOM     90  C   UNL     1      -2.587 -13.288 -10.623  1.00  0.00     0.173 A 
ATOM     91  F   UNL     1      -4.686 -11.006  -8.725  1.00  0.00    -0.203 F 
ATOM     92  C   UNL     1      -5.261 -12.534 -10.415  1.00  0.00     0.198 A 
ATOM     93  C   UNL     1      -3.559 -13.875 -11.438  1.00  0.00     0.198 A 
ATOM     94  F   UNL     1      -1.304 -13.625 -10.808  1.00  0.00    -0.203 F 
ATOM     95  F   UNL     1      -6.533 -12.112 -10.354  1.00  0.00    -0.200 F 
ATOM     96  C   UNL     1      -4.884 -13.467 -11.364  1.00  0.00     0.200 A 
ATOM     97  F   UNL     1      -3.193 -14.761 -12.376  1.00  0.00    -0.200 F 
ATOM     98  F   UNL     1      -5.784 -13.938 -12.238  1.00  0.00    -0.200 F 
ENDBRANCH  64  88
BRANCH  76  99
ATOM     99  C   UNL     1       4.203 -11.790  -8.614  1.00  0.00     0.064 A 
ATOM    100  C   UNL     1       4.301 -13.122  -8.176  1.00  0.00     0.173 A 
ATOM    101  C   UNL     1       5.444 -11.122  -8.781  1.00  0.00     0.173 A 
ATOM    102  F   UNL     1       3.225 -13.917  -8.104  1.00  0.00    -0.203 F 
ATOM    103  C   UNL     1       5.528 -13.713  -7.858  1.00  0.00     0.198 A 
ATOM    104  C   UNL     1       6.670 -11.737  -8.530  1.00  0.00     0.198 A 
ATOM    105  F   UNL     1       5.509  -9.859  -9.226  1.00  0.00    -0.203 F 
ATOM    106  F   UNL     1       5.556 -14.971  -7.395  1.00  0.00    -0.200 F 
ATOM    107  C   UNL     1       6.712 -13.027  -8.047  1.00  0.00     0.200 A 
ATOM    108  F   UNL     1       7.809 -11.077  -8.780  1.00  0.00    -0.200 F 
ATOM    109  F   UNL     1       7.887 -13.615  -7.789  1.00  0.00    -0.200 F 
ENDBRANCH  76  99
ENDBRANCH  50  51
ENDBRANCH  42  45
ENDBRANCH  40  41
ENDBRANCH  39  40
ENDBRANCH  38  39
ENDBRANCH  37  38
ENDBRANCH  36  37
ENDBRANCH   1  36
TORSDOF 19
