REMARK SMILES CC[C@@](O)(C(=O)NCCCCCCNC(=O)c1ccc(-c2c3nc(c(-c4c(F)c(F)c(F)c(F)c4F)c4ccc([nH]4)c(-c4c(F)c(F)c(F)c(F)c4F)c4nc(c(-c5c(F)c(F)c(F)c(F)c5F)c5ccc2[nH]5)C=C4)C=C3)cc1)[C@@H](C)c1ccc(OC)c(OC)c1
REMARK SMILES IDX 10 1 9 2 8 3 7 4 5 5 6 6 3 8 2 9 1 10 4 11 80 13 81 14 82 15
REMARK SMILES IDX 83 16 91 17 84 18 88 19 85 20 89 21 90 22 86 23 87 24 11 25
REMARK SMILES IDX 12 26 13 27 14 28 15 29 16 31 17 32 18 33 79 34 19 35 78 36
REMARK SMILES IDX 20 37 21 38 22 39 72 40 23 41 77 42 71 43 73 44 24 45 76 46
REMARK SMILES IDX 70 47 69 48 25 50 57 51 37 52 56 53 38 54 41 55 55 56 74 57
REMARK SMILES IDX 39 58 40 59 54 61 75 62 42 63 26 64 27 65 35 66 28 67 29 68
REMARK SMILES IDX 33 69 36 70 30 71 31 72 34 73 32 74 58 75 59 76 67 77 60 78
REMARK SMILES IDX 61 79 65 80 68 81 62 82 63 83 66 84 64 85 43 86 44 87 52 88
REMARK SMILES IDX 45 89 46 90 50 91 53 92 47 93 48 94 51 95 49 96
REMARK H PARENT 7 7 4 12 14 30 73 49 41 60
REMARK Flexibility Score: inf
ROOT
ATOM      1  C   UNL     1      -3.463   3.395   2.651  1.00  0.00     0.002 C 
ENDROOT
BRANCH   1   2
ATOM      2  C   UNL     1      -2.751   2.328   1.813  1.00  0.00     0.021 C 
BRANCH   2   3
ATOM      3  C   UNL     1      -1.887   2.885   0.679  1.00  0.00     0.116 C 
BRANCH   3   4
ATOM      4  N   UNL     1      -0.768   3.648   1.197  1.00  0.00    -0.354 N 
ATOM      5  C   UNL     1       0.577   3.403   1.142  1.00  0.00     0.252 C 
ATOM      6  O   UNL     1       1.302   4.279   1.624  1.00  0.00    -0.272 OA
ATOM      7  H   UNL     1      -1.016   4.478   1.665  1.00  0.00     0.163 HD
BRANCH   5   8
ATOM      8  C   UNL     1       1.147   2.106   0.474  1.00  0.00     0.149 C 
BRANCH   8   9
ATOM      9  C   UNL     1       0.570   0.823   1.132  1.00  0.00     0.043 C 
ATOM     10  C   UNL     1       0.154  -0.307   0.187  1.00  0.00     0.007 C 
ENDBRANCH   8   9
BRANCH   8  11
ATOM     11  O   UNL     1       0.671   2.224  -0.889  1.00  0.00    -0.379 OA
ATOM     12  H   UNL     1      -0.298   2.188  -0.897  1.00  0.00     0.212 HD
ENDBRANCH   8  11
BRANCH   8  13
ATOM     13  C   UNL     1       2.733   2.164   0.494  1.00  0.00     0.058 C 
ATOM     14  C   UNL     1       3.371   2.117   1.896  1.00  0.00     0.016 C 
BRANCH  13  15
ATOM     15  C   UNL     1       3.387   1.105  -0.400  1.00  0.00    -0.038 A 
ATOM     16  C   UNL     1       3.379  -0.252  -0.067  1.00  0.00     0.008 A 
ATOM     17  C   UNL     1       3.985   1.481  -1.614  1.00  0.00     0.054 A 
ATOM     18  C   UNL     1       3.831  -1.208  -0.974  1.00  0.00     0.051 A 
ATOM     19  C   UNL     1       4.514   0.524  -2.501  1.00  0.00     0.160 A 
ATOM     20  C   UNL     1       4.375  -0.839  -2.207  1.00  0.00     0.160 A 
BRANCH  19  21
ATOM     21  O   UNL     1       5.108   0.909  -3.674  1.00  0.00    -0.493 OA
ATOM     22  C   UNL     1       5.970   2.040  -3.563  1.00  0.00     0.278 C 
ENDBRANCH  19  21
BRANCH  20  23
ATOM     23  O   UNL     1       4.720  -1.926  -2.961  1.00  0.00    -0.493 OA
ATOM     24  C   UNL     1       5.204  -1.718  -4.277  1.00  0.00     0.278 C 
ENDBRANCH  20  23
ENDBRANCH  13  15
ENDBRANCH   8  13
ENDBRANCH   5   8
ENDBRANCH   3   4
ENDBRANCH   2   3
ENDBRANCH   1   2
BRANCH   1  25
ATOM     25  C   UNL     1      -4.410   4.308   1.869  1.00  0.00     0.002 C 
BRANCH  25  26
ATOM     26  C   UNL     1      -5.449   3.578   1.019  1.00  0.00     0.021 C 
BRANCH  26  27
ATOM     27  C   UNL     1      -6.342   2.622   1.801  1.00  0.00     0.116 C 
BRANCH  27  28
ATOM     28  N   UNL     1      -7.208   3.323   2.737  1.00  0.00    -0.352 N 
ATOM     29  C   UNL     1      -8.573   3.245   2.860  1.00  0.00     0.251 C 
ATOM     30  H   UNL     1      -6.756   3.932   3.365  1.00  0.00     0.163 HD
ATOM     31  O   UNL     1      -9.191   4.032   3.568  1.00  0.00    -0.269 OA
BRANCH  29  32
ATOM     32  C   UNL     1      -9.296   2.202   2.106  1.00  0.00     0.039 A 
ATOM     33  C   UNL     1     -10.404   2.557   1.333  1.00  0.00     0.014 A 
ATOM     34  C   UNL     1      -8.849   0.879   2.143  1.00  0.00     0.014 A 
ATOM     35  C   UNL     1     -11.031   1.591   0.544  1.00  0.00     0.010 A 
ATOM     36  C   UNL     1      -9.425  -0.062   1.301  1.00  0.00     0.010 A 
ATOM     37  C   UNL     1     -10.527   0.282   0.500  1.00  0.00    -0.014 A 
BRANCH  37  38
ATOM     38  C   UNL     1     -11.139  -0.772  -0.345  1.00  0.00     0.031 A 
ATOM     39  C   UNL     1     -11.733  -1.985   0.311  1.00  0.00     0.074 A 
ATOM     40  C   UNL     1     -11.057  -0.698  -1.687  1.00  0.00     0.049 A 
ATOM     41  N   UNL     1     -12.145  -3.105  -0.226  1.00  0.00    -0.248 NA
ATOM     42  C   UNL     1     -11.838  -1.945   1.778  1.00  0.00     0.031 C 
ATOM     43  C   UNL     1     -10.475   0.413  -2.438  1.00  0.00     0.029 A 
ATOM     44  N   UNL     1     -11.436  -1.595  -2.654  1.00  0.00    -0.354 N 
ATOM     45  C   UNL     1     -12.523  -3.913   0.838  1.00  0.00     0.074 A 
ATOM     46  C   UNL     1     -12.245  -3.175   2.051  1.00  0.00     0.031 C 
ATOM     47  C   UNL     1     -10.533   0.132  -3.750  1.00  0.00     0.029 A 
ATOM     48  C   UNL     1     -11.112  -1.198  -3.928  1.00  0.00     0.049 A 
ATOM     49  H   UNL     1     -11.897  -2.442  -2.454  1.00  0.00     0.167 HD
ATOM     50  C   UNL     1     -13.067  -5.152   0.804  1.00  0.00     0.037 A 
ATOM     51  C   UNL     1     -11.242  -1.844  -5.103  1.00  0.00     0.037 A 
ATOM     52  C   UNL     1     -13.364  -5.865  -0.410  1.00  0.00     0.049 A 
ATOM     53  C   UNL     1     -11.846  -3.222  -5.122  1.00  0.00     0.074 A 
ATOM     54  C   UNL     1     -13.975  -7.097  -0.560  1.00  0.00     0.029 A 
ATOM     55  N   UNL     1     -13.062  -5.408  -1.686  1.00  0.00    -0.354 N 
ATOM     56  N   UNL     1     -12.254  -3.958  -4.117  1.00  0.00    -0.248 NA
ATOM     57  C   UNL     1     -12.014  -3.857  -6.436  1.00  0.00     0.031 C 
ATOM     58  C   UNL     1     -13.994  -7.410  -1.923  1.00  0.00     0.029 A 
ATOM     59  C   UNL     1     -13.454  -6.346  -2.627  1.00  0.00     0.049 A 
ATOM     60  H   UNL     1     -12.634  -4.546  -1.891  1.00  0.00     0.167 HD
ATOM     61  C   UNL     1     -12.758  -5.125  -4.676  1.00  0.00     0.074 A 
ATOM     62  C   UNL     1     -12.602  -5.000  -6.110  1.00  0.00     0.031 C 
ATOM     63  C   UNL     1     -13.309  -6.197  -4.055  1.00  0.00     0.037 A 
BRANCH  50  64
ATOM     64  C   UNL     1     -13.355  -5.815   2.121  1.00  0.00     0.064 A 
ATOM     65  C   UNL     1     -14.338  -5.328   2.998  1.00  0.00     0.173 A 
ATOM     66  C   UNL     1     -12.633  -6.951   2.516  1.00  0.00     0.173 A 
ATOM     67  F   UNL     1     -15.052  -4.239   2.675  1.00  0.00    -0.203 F 
ATOM     68  C   UNL     1     -14.549  -5.921   4.240  1.00  0.00     0.198 A 
ATOM     69  C   UNL     1     -12.873  -7.565   3.743  1.00  0.00     0.198 A 
ATOM     70  F   UNL     1     -11.687  -7.465   1.715  1.00  0.00    -0.203 F 
ATOM     71  F   UNL     1     -15.440  -5.392   5.090  1.00  0.00    -0.200 F 
ATOM     72  C   UNL     1     -13.820  -7.041   4.609  1.00  0.00     0.200 A 
ATOM     73  F   UNL     1     -12.178  -8.656   4.091  1.00  0.00    -0.200 F 
ATOM     74  F   UNL     1     -14.022  -7.609   5.806  1.00  0.00    -0.200 F 
ENDBRANCH  50  64
BRANCH  51  75
ATOM     75  C   UNL     1     -10.801  -1.176  -6.354  1.00  0.00     0.064 A 
ATOM     76  C   UNL     1     -11.736  -0.704  -7.285  1.00  0.00     0.173 A 
ATOM     77  C   UNL     1      -9.442  -0.960  -6.627  1.00  0.00     0.173 A 
ATOM     78  F   UNL     1     -13.046  -0.903  -7.077  1.00  0.00    -0.203 F 
ATOM     79  C   UNL     1     -11.329  -0.045  -8.444  1.00  0.00     0.198 A 
ATOM     80  C   UNL     1      -9.037  -0.279  -7.773  1.00  0.00     0.198 A 
ATOM     81  F   UNL     1      -8.508  -1.387  -5.764  1.00  0.00    -0.203 F 
ATOM     82  F   UNL     1     -12.242   0.372  -9.331  1.00  0.00    -0.200 F 
ATOM     83  C   UNL     1      -9.980   0.174  -8.682  1.00  0.00     0.200 A 
ATOM     84  F   UNL     1      -7.734  -0.054  -7.991  1.00  0.00    -0.200 F 
ATOM     85  F   UNL     1      -9.590   0.822  -9.789  1.00  0.00    -0.200 F 
ENDBRANCH  51  75
BRANCH  63  86
ATOM     86  C   UNL     1     -13.841  -7.306  -4.915  1.00  0.00     0.064 A 
ATOM     87  C   UNL     1     -12.993  -8.202  -5.579  1.00  0.00     0.173 A 
ATOM     88  C   UNL     1     -15.226  -7.525  -4.997  1.00  0.00     0.173 A 
ATOM     89  F   UNL     1     -11.664  -8.028  -5.542  1.00  0.00    -0.203 F 
ATOM     90  C   UNL     1     -13.512  -9.275  -6.301  1.00  0.00     0.198 A 
ATOM     91  C   UNL     1     -15.739  -8.614  -5.695  1.00  0.00     0.198 A 
ATOM     92  F   UNL     1     -16.079  -6.699  -4.374  1.00  0.00    -0.203 F 
ATOM     93  F   UNL     1     -12.684 -10.105  -6.951  1.00  0.00    -0.200 F 
ATOM     94  C   UNL     1     -14.882  -9.486  -6.348  1.00  0.00     0.200 A 
ATOM     95  F   UNL     1     -17.062  -8.826  -5.726  1.00  0.00    -0.200 F 
ATOM     96  F   UNL     1     -15.377 -10.532  -7.024  1.00  0.00    -0.200 F 
ENDBRANCH  63  86
ENDBRANCH  37  38
ENDBRANCH  29  32
ENDBRANCH  27  28
ENDBRANCH  26  27
ENDBRANCH  25  26
ENDBRANCH   1  25
TORSDOF 19
