REMARK SMILES CC(=O)Nc1ccc(/C(=C\c2ccc(S(C)(=O)=O)cc2)C(=O)NCCCCCCNC(=O)c2ccc(-c3c4nc(c(-c5c(F)c(F)c(F)c(F)c5F)c5ccc([nH]5)c(-c5c(F)c(F)c(F)c(F)c5F)c5nc(c(-c6c(F)c(F)c(F)c(F)c6F)c6ccc3[nH]6)C=C5)C=C4)cc2)cc1
REMARK SMILES IDX 26 1 25 2 24 3 23 4 21 5 22 6 9 8 10 9 8 10 5 11 6 12 97 13
REMARK SMILES IDX 7 14 96 15 4 16 1 17 2 18 3 19 11 21 12 22 20 23 13 24 19 25
REMARK SMILES IDX 14 26 15 27 16 28 17 29 18 30 27 31 28 32 29 33 30 34 31 35
REMARK SMILES IDX 32 37 33 38 34 39 95 40 35 41 94 42 36 43 37 44 38 45 88 46
REMARK SMILES IDX 39 47 93 48 87 49 89 50 40 51 92 52 86 53 85 54 41 56 73 57
REMARK SMILES IDX 53 58 72 59 54 60 57 61 71 62 90 63 55 64 56 65 70 67 91 68
REMARK SMILES IDX 58 69 42 70 43 71 51 72 44 73 45 74 49 75 52 76 46 77 47 78
REMARK SMILES IDX 50 79 48 80 74 81 75 82 83 83 76 84 77 85 81 86 84 87 78 88
REMARK SMILES IDX 79 89 82 90 80 91 59 92 60 93 68 94 61 95 62 96 66 97 69 98
REMARK SMILES IDX 63 99 64 100 67 101 65 102
REMARK H PARENT 23 7 4 20 30 36 89 55 57 66
REMARK Flexibility Score: inf
ROOT
ATOM      1  C   UNL     1       7.300  -5.420   6.833  1.00  0.00     0.002 C 
ENDROOT
BRANCH   1   2
ATOM      2  C   UNL     1       6.128  -4.519   7.256  1.00  0.00     0.021 C 
BRANCH   2   3
ATOM      3  C   UNL     1       6.422  -3.024   7.094  1.00  0.00     0.116 C 
BRANCH   3   4
ATOM      4  N   UNL     1       6.367  -2.664   5.694  1.00  0.00    -0.352 N 
ATOM      5  C   UNL     1       5.476  -2.056   4.871  1.00  0.00     0.251 C 
ATOM      6  O   UNL     1       5.870  -1.985   3.704  1.00  0.00    -0.269 OA
ATOM      7  H   UNL     1       7.186  -2.928   5.215  1.00  0.00     0.163 HD
BRANCH   5   8
ATOM      8  C   UNL     1       4.146  -1.439   5.309  1.00  0.00     0.047 C 
ATOM      9  C   UNL     1       3.561  -1.890   6.444  1.00  0.00     0.022 C 
BRANCH   8  10
ATOM     10  C   UNL     1       3.433  -0.487   4.375  1.00  0.00    -0.013 A 
ATOM     11  C   UNL     1       1.763   0.938   2.538  1.00  0.00     0.041 A 
ATOM     12  C   UNL     1       1.765   1.248   3.899  1.00  0.00     0.027 A 
ATOM     13  C   UNL     1       2.700   0.027   2.084  1.00  0.00     0.027 A 
ATOM     14  C   UNL     1       2.612   0.570   4.797  1.00  0.00     0.011 A 
ATOM     15  C   UNL     1       3.487  -0.695   2.988  1.00  0.00     0.011 A 
BRANCH  11  16
ATOM     16  N   UNL     1       0.817   1.573   1.716  1.00  0.00    -0.326 N 
ATOM     17  C   UNL     1       0.760   0.046  -0.273  1.00  0.00     0.114 C 
ATOM     18  C   UNL     1       0.362   1.301   0.456  1.00  0.00     0.221 C 
ATOM     19  O   UNL     1      -0.426   2.094  -0.067  1.00  0.00    -0.275 OA
ATOM     20  H   UNL     1       0.402   2.367   2.126  1.00  0.00     0.169 HD
ENDBRANCH  11  16
ENDBRANCH   8  10
BRANCH   9  21
ATOM     21  C   UNL     1       2.410  -1.361   7.192  1.00  0.00    -0.025 A 
ATOM     22  C   UNL     1       2.672  -0.621   8.359  1.00  0.00     0.009 A 
ATOM     23  C   UNL     1       1.091  -1.534   6.766  1.00  0.00     0.009 A 
ATOM     24  C   UNL     1       1.631  -0.022   9.070  1.00  0.00     0.021 A 
ATOM     25  C   UNL     1       0.043  -0.933   7.473  1.00  0.00     0.021 A 
ATOM     26  C   UNL     1       0.319  -0.180   8.619  1.00  0.00     0.067 A 
BRANCH  26  27
ATOM     27  S   UNL     1      -0.992   0.676   9.463  1.00  0.00     0.175 S 
ATOM     28  C   UNL     1      -1.269  -0.300  10.916  1.00  0.00     0.163 C 
ATOM     29  O   UNL     1      -0.465   1.963   9.872  1.00  0.00    -0.224 OA
ATOM     30  O   UNL     1      -2.178   0.588   8.632  1.00  0.00    -0.224 OA
ENDBRANCH  26  27
ENDBRANCH   9  21
ENDBRANCH   5   8
ENDBRANCH   3   4
ENDBRANCH   2   3
ENDBRANCH   1   2
BRANCH   1  31
ATOM     31  C   UNL     1       8.611  -5.168   7.589  1.00  0.00     0.002 C 
BRANCH  31  32
ATOM     32  C   UNL     1       8.481  -5.182   9.113  1.00  0.00     0.021 C 
BRANCH  32  33
ATOM     33  C   UNL     1       7.999  -6.512   9.679  1.00  0.00     0.116 C 
BRANCH  33  34
ATOM     34  N   UNL     1       8.972  -7.570   9.457  1.00  0.00    -0.352 N 
ATOM     35  C   UNL     1       9.612  -8.364  10.373  1.00  0.00     0.251 C 
ATOM     36  H   UNL     1       9.205  -7.739   8.515  1.00  0.00     0.163 HD
ATOM     37  O   UNL     1      10.586  -9.032  10.044  1.00  0.00    -0.269 OA
BRANCH  35  38
ATOM     38  C   UNL     1       9.127  -8.404  11.768  1.00  0.00     0.039 A 
ATOM     39  C   UNL     1      10.055  -8.362  12.810  1.00  0.00     0.014 A 
ATOM     40  C   UNL     1       7.760  -8.496  12.043  1.00  0.00     0.014 A 
ATOM     41  C   UNL     1       9.608  -8.361  14.132  1.00  0.00     0.010 A 
ATOM     42  C   UNL     1       7.312  -8.416  13.358  1.00  0.00     0.010 A 
ATOM     43  C   UNL     1       8.232  -8.357  14.415  1.00  0.00    -0.014 A 
BRANCH  43  44
ATOM     44  C   UNL     1       7.736  -8.300  15.813  1.00  0.00     0.031 A 
ATOM     45  C   UNL     1       6.945  -9.444  16.381  1.00  0.00     0.074 A 
ATOM     46  C   UNL     1       7.950  -7.191  16.548  1.00  0.00     0.049 A 
ATOM     47  N   UNL     1       6.375  -9.555  17.555  1.00  0.00    -0.248 NA
ATOM     48  C   UNL     1       6.742 -10.608  15.504  1.00  0.00     0.031 C 
ATOM     49  C   UNL     1       8.665  -5.999  16.091  1.00  0.00     0.029 A 
ATOM     50  N   UNL     1       7.579  -6.884  17.833  1.00  0.00    -0.354 N 
ATOM     51  C   UNL     1       5.741 -10.791  17.551  1.00  0.00     0.074 A 
ATOM     52  C   UNL     1       5.944 -11.367  16.240  1.00  0.00     0.031 C 
ATOM     53  C   UNL     1       8.703  -5.100  17.087  1.00  0.00     0.029 A 
ATOM     54  C   UNL     1       7.979  -5.633  18.237  1.00  0.00     0.049 A 
ATOM     55  H   UNL     1       7.074  -7.500  18.410  1.00  0.00     0.167 HD
ATOM     56  C   UNL     1       5.073 -11.400  18.559  1.00  0.00     0.037 A 
ATOM     57  C   UNL     1       7.776  -4.987  19.400  1.00  0.00     0.037 A 
ATOM     58  C   UNL     1       4.892 -10.829  19.868  1.00  0.00     0.049 A 
ATOM     59  C   UNL     1       7.013  -5.679  20.498  1.00  0.00     0.074 A 
ATOM     60  C   UNL     1       4.279 -11.387  20.976  1.00  0.00     0.029 A 
ATOM     61  N   UNL     1       5.320  -9.563  20.244  1.00  0.00    -0.354 N 
ATOM     62  N   UNL     1       6.478  -6.876  20.508  1.00  0.00    -0.248 NA
ATOM     63  C   UNL     1       6.834  -4.933  21.751  1.00  0.00     0.031 C 
ATOM     64  C   UNL     1       4.285 -10.439  22.004  1.00  0.00     0.029 A 
ATOM     65  C   UNL     1       4.958  -9.313  21.558  1.00  0.00     0.049 A 
ATOM     66  H   UNL     1       5.808  -8.936  19.663  1.00  0.00     0.167 HD
ATOM     67  C   UNL     1       5.927  -7.039  21.772  1.00  0.00     0.074 A 
ATOM     68  C   UNL     1       6.207  -5.823  22.507  1.00  0.00     0.031 C 
ATOM     69  C   UNL     1       5.251  -8.099  22.278  1.00  0.00     0.037 A 
BRANCH  56  70
ATOM     70  C   UNL     1       4.485 -12.756  18.286  1.00  0.00     0.064 A 
ATOM     71  C   UNL     1       5.295 -13.884  18.083  1.00  0.00     0.173 A 
ATOM     72  C   UNL     1       3.094 -12.937  18.264  1.00  0.00     0.173 A 
ATOM     73  F   UNL     1       6.631 -13.765  18.082  1.00  0.00    -0.203 F 
ATOM     74  C   UNL     1       4.734 -15.135  17.836  1.00  0.00     0.198 A 
ATOM     75  C   UNL     1       2.537 -14.196  18.052  1.00  0.00     0.198 A 
ATOM     76  F   UNL     1       2.272 -11.895  18.458  1.00  0.00    -0.203 F 
ATOM     77  F   UNL     1       5.529 -16.186  17.591  1.00  0.00    -0.200 F 
ATOM     78  C   UNL     1       3.357 -15.291  17.829  1.00  0.00     0.200 A 
ATOM     79  F   UNL     1       1.205 -14.348  18.060  1.00  0.00    -0.200 F 
ATOM     80  F   UNL     1       2.819 -16.497  17.600  1.00  0.00    -0.200 F 
ENDBRANCH  56  70
BRANCH  57  81
ATOM     81  C   UNL     1       8.317  -3.616  19.595  1.00  0.00     0.064 A 
ATOM     82  C   UNL     1       9.352  -3.372  20.508  1.00  0.00     0.173 A 
ATOM     83  C   UNL     1       7.808  -2.522  18.880  1.00  0.00     0.173 A 
ATOM     84  F   UNL     1       9.860  -4.382  21.230  1.00  0.00    -0.203 F 
ATOM     85  C   UNL     1       9.840  -2.083  20.718  1.00  0.00     0.198 A 
ATOM     86  C   UNL     1       8.319  -1.239  19.066  1.00  0.00     0.198 A 
ATOM     87  F   UNL     1       6.823  -2.701  17.988  1.00  0.00    -0.203 F 
ATOM     88  F   UNL     1      10.793  -1.872  21.635  1.00  0.00    -0.200 F 
ATOM     89  C   UNL     1       9.327  -1.019  19.993  1.00  0.00     0.200 A 
ATOM     90  F   UNL     1       7.832  -0.216  18.350  1.00  0.00    -0.200 F 
ATOM     91  F   UNL     1       9.798   0.219  20.192  1.00  0.00    -0.200 F 
ENDBRANCH  57  81
BRANCH  69  92
ATOM     92  C   UNL     1       4.800  -8.010  23.709  1.00  0.00     0.064 A 
ATOM     93  C   UNL     1       3.768  -7.147  24.106  1.00  0.00     0.173 A 
ATOM     94  C   UNL     1       5.384  -8.829  24.688  1.00  0.00     0.173 A 
ATOM     95  F   UNL     1       3.186  -6.333  23.212  1.00  0.00    -0.203 F 
ATOM     96  C   UNL     1       3.357  -7.087  25.435  1.00  0.00     0.198 A 
ATOM     97  C   UNL     1       4.947  -8.791  26.008  1.00  0.00     0.198 A 
ATOM     98  F   UNL     1       6.370  -9.677  24.359  1.00  0.00    -0.203 F 
ATOM     99  F   UNL     1       2.406  -6.217  25.801  1.00  0.00    -0.200 F 
ATOM    100  C   UNL     1       3.941  -7.915  26.383  1.00  0.00     0.200 A 
ATOM    101  F   UNL     1       5.501  -9.604  26.919  1.00  0.00    -0.200 F 
ATOM    102  F   UNL     1       3.538  -7.862  27.660  1.00  0.00    -0.200 F 
ENDBRANCH  69  92
ENDBRANCH  43  44
ENDBRANCH  35  38
ENDBRANCH  33  34
ENDBRANCH  32  33
ENDBRANCH  31  32
ENDBRANCH   1  31
TORSDOF 17
