REMARK SMILES Cc1ccccc1-c1nn(-c2ccccc2)cc1/C=C(\C#N)C(=O)NCCCCCCNC(=O)c1ccc(-c2c3nc(c(-c4c(F)c(F)c(F)c(F)c4F)c4ccc([nH]4)c(-c4c(F)c(F)c(F)c(F)c4F)c4nc(c(-c5c(F)c(F)c(F)c(F)c5F)c5ccc2[nH]5)C=C4)C=C3)cc1
REMARK SMILES IDX 28 1 27 2 26 3 25 4 23 5 24 6 20 8 19 9 18 10 8 11 9 12
REMARK SMILES IDX 10 13 17 14 7 15 1 16 2 17 3 18 4 19 6 20 5 21 11 22 12 23
REMARK SMILES IDX 16 24 13 25 15 26 14 27 21 28 22 29 29 30 30 31 31 32 32 33
REMARK SMILES IDX 33 34 34 36 35 37 36 38 97 39 37 40 96 41 38 42 39 43 40 44
REMARK SMILES IDX 90 45 41 46 95 47 89 48 91 49 42 50 94 51 88 52 87 53 43 55
REMARK SMILES IDX 75 56 55 57 74 58 56 59 59 60 73 61 92 62 57 63 58 64 72 66
REMARK SMILES IDX 93 67 60 68 44 69 45 70 53 71 46 72 47 73 51 74 54 75 48 76
REMARK SMILES IDX 49 77 52 78 50 79 76 80 77 81 85 82 78 83 79 84 83 85 86 86
REMARK SMILES IDX 80 87 81 88 84 89 82 90 61 91 62 92 70 93 63 94 64 95 68 96
REMARK SMILES IDX 71 97 65 98 66 99 69 100 67 101
REMARK H PARENT 25 7 32 35 91 54 59 65
REMARK Flexibility Score: inf
ROOT
ATOM      1  C   UNL     1      -3.297  -1.502   5.196  1.00  0.00     0.002 C 
ENDROOT
BRANCH   1   2
ATOM      2  C   UNL     1      -2.445  -1.007   4.018  1.00  0.00     0.021 C 
BRANCH   2   3
ATOM      3  C   UNL     1      -2.938   0.301   3.397  1.00  0.00     0.116 C 
BRANCH   3   4
ATOM      4  N   UNL     1      -2.372   1.459   4.064  1.00  0.00    -0.351 N 
ATOM      5  C   UNL     1      -1.427   2.362   3.691  1.00  0.00     0.261 C 
ATOM      6  O   UNL     1      -1.194   3.292   4.467  1.00  0.00    -0.268 OA
ATOM      7  H   UNL     1      -2.744   1.622   4.961  1.00  0.00     0.163 HD
BRANCH   5   8
ATOM      8  C   UNL     1      -0.706   2.285   2.404  1.00  0.00     0.117 C 
ATOM      9  C   UNL     1       0.076   3.301   1.931  1.00  0.00     0.037 C 
BRANCH   9  10
ATOM     10  C   UNL     1       0.819   3.469   0.657  1.00  0.00     0.022 A 
ATOM     11  C   UNL     1       0.879   2.860  -0.672  1.00  0.00     0.100 A 
ATOM     12  N   UNL     1       1.560   3.644  -1.511  1.00  0.00    -0.167 NA
ATOM     13  N   UNL     1       2.247   4.491  -0.747  1.00  0.00    -0.240 N 
ATOM     14  C   UNL     1       1.788   4.468   0.553  1.00  0.00     0.123 A 
BRANCH  11  15
ATOM     15  C   UNL     1       0.400   1.641  -1.335  1.00  0.00     0.006 A 
ATOM     16  C   UNL     1       2.552   0.359  -0.736  1.00  0.00     0.045 C 
ATOM     17  C   UNL     1       1.214   0.475  -1.417  1.00  0.00    -0.042 A 
ATOM     18  C   UNL     1       0.695  -0.684  -2.030  1.00  0.00     0.004 A 
ATOM     19  C   UNL     1      -0.581  -0.683  -2.594  1.00  0.00     0.000 A 
ATOM     20  C   UNL     1      -0.851   1.646  -1.978  1.00  0.00     0.011 A 
ATOM     21  C   UNL     1      -1.343   0.484  -2.587  1.00  0.00     0.001 A 
ENDBRANCH  11  15
BRANCH  13  22
ATOM     22  C   UNL     1       3.316   5.206  -1.345  1.00  0.00     0.065 A 
ATOM     23  C   UNL     1       3.337   5.337  -2.748  1.00  0.00     0.028 A 
ATOM     24  C   UNL     1       4.379   5.697  -0.587  1.00  0.00     0.028 A 
ATOM     25  C   UNL     1       4.402   5.967  -3.386  1.00  0.00     0.002 A 
ATOM     26  C   UNL     1       5.463   6.298  -1.240  1.00  0.00     0.002 A 
ATOM     27  C   UNL     1       5.470   6.439  -2.631  1.00  0.00     0.000 A 
ENDBRANCH  13  22
ENDBRANCH   9  10
BRANCH   8  28
ATOM     28  C   UNL     1      -0.714   1.123   1.424  1.00  0.00     0.105 C 
ATOM     29  N   UNL     1      -0.720   0.160   0.611  1.00  0.00    -0.192 NA
ENDBRANCH   8  28
ENDBRANCH   5   8
ENDBRANCH   3   4
ENDBRANCH   2   3
ENDBRANCH   1   2
BRANCH   1  30
ATOM     30  C   UNL     1      -4.812  -1.614   4.941  1.00  0.00     0.002 C 
BRANCH  30  31
ATOM     31  C   UNL     1      -5.220  -2.279   3.623  1.00  0.00     0.021 C 
BRANCH  31  32
ATOM     32  C   UNL     1      -5.027  -3.788   3.620  1.00  0.00     0.116 C 
BRANCH  32  33
ATOM     33  N   UNL     1      -6.223  -4.529   3.998  1.00  0.00    -0.352 N 
ATOM     34  C   UNL     1      -6.389  -5.879   4.255  1.00  0.00     0.251 C 
ATOM     35  H   UNL     1      -7.039  -3.985   4.084  1.00  0.00     0.163 HD
ATOM     36  O   UNL     1      -7.497  -6.328   4.484  1.00  0.00    -0.269 OA
BRANCH  34  37
ATOM     37  C   UNL     1      -5.192  -6.746   4.387  1.00  0.00     0.039 A 
ATOM     38  C   UNL     1      -5.135  -7.613   5.486  1.00  0.00     0.014 A 
ATOM     39  C   UNL     1      -4.075  -6.567   3.578  1.00  0.00     0.014 A 
ATOM     40  C   UNL     1      -3.900  -8.096   5.912  1.00  0.00     0.010 A 
ATOM     41  C   UNL     1      -2.840  -6.958   4.053  1.00  0.00     0.010 A 
ATOM     42  C   UNL     1      -2.748  -7.665   5.256  1.00  0.00    -0.014 A 
BRANCH  42  43
ATOM     43  C   UNL     1      -1.408  -7.800   5.811  1.00  0.00     0.031 A 
ATOM     44  C   UNL     1      -0.458  -8.787   5.263  1.00  0.00     0.074 A 
ATOM     45  C   UNL     1      -0.998  -6.928   6.760  1.00  0.00     0.049 A 
ATOM     46  N   UNL     1       0.556  -9.247   5.915  1.00  0.00    -0.248 NA
ATOM     47  C   UNL     1      -0.593  -9.351   3.924  1.00  0.00     0.031 C 
ATOM     48  C   UNL     1       0.366  -6.711   7.235  1.00  0.00     0.029 A 
ATOM     49  N   UNL     1      -1.796  -6.177   7.640  1.00  0.00    -0.354 N 
ATOM     50  C   UNL     1       1.334  -9.946   5.026  1.00  0.00     0.074 A 
ATOM     51  C   UNL     1       0.555 -10.027   3.811  1.00  0.00     0.031 C 
ATOM     52  C   UNL     1       0.313  -6.166   8.460  1.00  0.00     0.029 A 
ATOM     53  C   UNL     1      -1.082  -6.149   8.863  1.00  0.00     0.049 A 
ATOM     54  H   UNL     1      -2.666  -5.759   7.447  1.00  0.00     0.167 HD
ATOM     55  C   UNL     1       2.609 -10.288   5.361  1.00  0.00     0.037 A 
ATOM     56  C   UNL     1      -1.587  -6.760   9.975  1.00  0.00     0.037 A 
ATOM     57  C   UNL     1       2.954  -9.886   6.717  1.00  0.00     0.049 A 
ATOM     58  C   UNL     1      -0.752  -7.907  10.503  1.00  0.00     0.074 A 
ATOM     59  C   UNL     1       3.604  -8.789   7.259  1.00  0.00     0.029 A 
ATOM     60  N   UNL     1       2.318 -10.514   7.773  1.00  0.00    -0.354 N 
ATOM     61  N   UNL     1       0.315  -8.371   9.915  1.00  0.00    -0.248 NA
ATOM     62  C   UNL     1      -1.118  -8.686  11.688  1.00  0.00     0.031 C 
ATOM     63  C   UNL     1       3.305  -8.739   8.650  1.00  0.00     0.029 A 
ATOM     64  C   UNL     1       2.486  -9.811   8.951  1.00  0.00     0.049 A 
ATOM     65  H   UNL     1       1.811 -11.354   7.695  1.00  0.00     0.167 HD
ATOM     66  C   UNL     1       0.736  -9.495  10.569  1.00  0.00     0.074 A 
ATOM     67  C   UNL     1      -0.186  -9.653  11.677  1.00  0.00     0.031 C 
ATOM     68  C   UNL     1       1.788 -10.248  10.144  1.00  0.00     0.037 A 
BRANCH  55  69
ATOM     69  C   UNL     1       3.589 -10.775   4.336  1.00  0.00     0.064 A 
ATOM     70  C   UNL     1       4.913 -10.296   4.311  1.00  0.00     0.173 A 
ATOM     71  C   UNL     1       3.250 -11.683   3.316  1.00  0.00     0.173 A 
ATOM     72  F   UNL     1       5.373  -9.470   5.259  1.00  0.00    -0.203 F 
ATOM     73  C   UNL     1       5.802 -10.629   3.288  1.00  0.00     0.198 A 
ATOM     74  C   UNL     1       4.121 -11.972   2.263  1.00  0.00     0.198 A 
ATOM     75  F   UNL     1       2.064 -12.311   3.323  1.00  0.00    -0.203 F 
ATOM     76  F   UNL     1       7.050 -10.139   3.306  1.00  0.00    -0.200 F 
ATOM     77  C   UNL     1       5.395 -11.438   2.245  1.00  0.00     0.200 A 
ATOM     78  F   UNL     1       3.712 -12.758   1.257  1.00  0.00    -0.200 F 
ATOM     79  F   UNL     1       6.230 -11.709   1.233  1.00  0.00    -0.200 F 
ENDBRANCH  55  69
BRANCH  56  80
ATOM     80  C   UNL     1      -3.071  -6.691  10.037  1.00  0.00     0.064 A 
ATOM     81  C   UNL     1      -3.678  -5.422  10.112  1.00  0.00     0.173 A 
ATOM     82  C   UNL     1      -3.869  -7.770   9.642  1.00  0.00     0.173 A 
ATOM     83  F   UNL     1      -2.954  -4.354  10.486  1.00  0.00    -0.203 F 
ATOM     84  C   UNL     1      -4.987  -5.221   9.685  1.00  0.00     0.198 A 
ATOM     85  C   UNL     1      -5.188  -7.567   9.234  1.00  0.00     0.198 A 
ATOM     86  F   UNL     1      -3.346  -8.999   9.537  1.00  0.00    -0.203 F 
ATOM     87  F   UNL     1      -5.497  -3.981   9.653  1.00  0.00    -0.200 F 
ATOM     88  C   UNL     1      -5.732  -6.291   9.219  1.00  0.00     0.200 A 
ATOM     89  F   UNL     1      -5.903  -8.600   8.764  1.00  0.00    -0.200 F 
ATOM     90  F   UNL     1      -6.959  -6.087   8.720  1.00  0.00    -0.200 F 
ENDBRANCH  56  80
BRANCH  68  91
ATOM     91  C   UNL     1       2.255 -11.463  10.872  1.00  0.00     0.064 A 
ATOM     92  C   UNL     1       2.587 -11.420  12.233  1.00  0.00     0.173 A 
ATOM     93  C   UNL     1       2.512 -12.666  10.190  1.00  0.00     0.173 A 
ATOM     94  F   UNL     1       2.397 -10.300  12.946  1.00  0.00    -0.203 F 
ATOM     95  C   UNL     1       3.135 -12.527  12.880  1.00  0.00     0.198 A 
ATOM     96  C   UNL     1       3.099 -13.756  10.827  1.00  0.00     0.198 A 
ATOM     97  F   UNL     1       2.185 -12.811   8.896  1.00  0.00    -0.203 F 
ATOM     98  F   UNL     1       3.410 -12.464  14.190  1.00  0.00    -0.200 F 
ATOM     99  C   UNL     1       3.406 -13.688  12.174  1.00  0.00     0.200 A 
ATOM    100  F   UNL     1       3.370 -14.868  10.130  1.00  0.00    -0.200 F 
ATOM    101  F   UNL     1       3.958 -14.741  12.791  1.00  0.00    -0.200 F 
ENDBRANCH  68  91
ENDBRANCH  42  43
ENDBRANCH  34  37
ENDBRANCH  32  33
ENDBRANCH  31  32
ENDBRANCH  30  31
ENDBRANCH   1  30
TORSDOF 17
