REMARK SMILES Cc1onc(-c2ccccc2)c1C(=O)N1CCC[C@@H]1C(=O)NCCCCCCNC(=O)c1ccc(-c2c3nc(c(-c4c(F)c(F)c(F)c(F)c4F)c4ccc([nH]4)c(-c4c(F)c(F)c(F)c(F)c4F)c4nc(c(-c5c(F)c(F)c(F)c(F)c5F)c5ccc2[nH]5)C=C4)C=C3)cc1
REMARK SMILES IDX 25 1 24 2 23 3 22 4 20 5 21 6 19 8 15 9 16 10 17 11 18 12
REMARK SMILES IDX 13 13 14 14 12 15 1 16 2 17 3 18 4 19 5 20 6 21 7 22 11 23
REMARK SMILES IDX 8 24 10 25 9 26 26 27 27 28 28 29 29 30 30 31 31 33 32 34
REMARK SMILES IDX 33 35 94 36 34 37 93 38 35 39 36 40 37 41 87 42 38 43 92 44
REMARK SMILES IDX 86 45 88 46 39 47 91 48 85 49 84 50 40 52 72 53 52 54 71 55
REMARK SMILES IDX 53 56 56 57 70 58 89 59 54 60 55 61 69 63 90 64 57 65 41 66
REMARK SMILES IDX 42 67 50 68 43 69 44 70 48 71 51 72 45 73 46 74 49 75 47 76
REMARK SMILES IDX 73 77 74 78 82 79 75 80 76 81 80 82 83 83 77 84 78 85 81 86
REMARK SMILES IDX 79 87 58 88 59 89 67 90 60 91 61 92 65 93 68 94 62 95 63 96
REMARK SMILES IDX 66 97 64 98
REMARK H PARENT 22 7 29 32 88 51 56 62
REMARK Flexibility Score: inf
ROOT
ATOM      1  C   UNL     1       3.625   0.118  -4.563  1.00  0.00     0.002 C 
ENDROOT
BRANCH   1   2
ATOM      2  C   UNL     1       4.127  -0.592  -3.304  1.00  0.00     0.021 C 
BRANCH   2   3
ATOM      3  C   UNL     1       3.056  -1.299  -2.478  1.00  0.00     0.116 C 
BRANCH   3   4
ATOM      4  N   UNL     1       2.622  -2.536  -3.078  1.00  0.00    -0.354 N 
ATOM      5  C   UNL     1       2.277  -3.713  -2.481  1.00  0.00     0.242 C 
ATOM      6  O   UNL     1       2.123  -4.689  -3.225  1.00  0.00    -0.273 OA
ATOM      7  H   UNL     1       2.567  -2.530  -4.061  1.00  0.00     0.163 HD
BRANCH   5   8
ATOM      8  C   UNL     1       2.282  -3.898  -0.946  1.00  0.00     0.174 C 
ATOM      9  N   UNL     1       1.775  -2.801  -0.117  1.00  0.00    -0.326 N 
ATOM     10  C   UNL     1       2.496  -2.784   1.144  1.00  0.00     0.121 C 
ATOM     11  C   UNL     1       3.902  -3.198   0.752  1.00  0.00     0.024 C 
ATOM     12  C   UNL     1       3.702  -4.166  -0.417  1.00  0.00     0.037 C 
BRANCH   9  13
ATOM     13  C   UNL     1       0.453  -2.408  -0.281  1.00  0.00     0.260 C 
ATOM     14  O   UNL     1      -0.300  -3.083  -0.983  1.00  0.00    -0.269 OA
BRANCH  13  15
ATOM     15  C   UNL     1      -0.012  -1.156   0.295  1.00  0.00     0.110 A 
ATOM     16  C   UNL     1       2.067   0.495   0.562  1.00  0.00     0.092 C 
ATOM     17  C   UNL     1       0.675   0.008   0.601  1.00  0.00     0.147 A 
ATOM     18  O   UNL     1      -0.206   0.962   1.002  1.00  0.00    -0.360 OA
ATOM     19  N   UNL     1      -1.484   0.475   0.949  1.00  0.00    -0.079 NA
ATOM     20  C   UNL     1      -1.384  -0.792   0.525  1.00  0.00     0.126 A 
BRANCH  20  21
ATOM     21  C   UNL     1      -2.589  -1.592   0.363  1.00  0.00     0.004 A 
ATOM     22  C   UNL     1      -3.482  -1.319  -0.681  1.00  0.00     0.010 A 
ATOM     23  C   UNL     1      -2.885  -2.608   1.279  1.00  0.00     0.010 A 
ATOM     24  C   UNL     1      -4.659  -2.061  -0.810  1.00  0.00     0.001 A 
ATOM     25  C   UNL     1      -4.066  -3.343   1.152  1.00  0.00     0.001 A 
ATOM     26  C   UNL     1      -4.951  -3.070   0.108  1.00  0.00     0.000 A 
ENDBRANCH  20  21
ENDBRANCH  13  15
ENDBRANCH   9  13
ENDBRANCH   5   8
ENDBRANCH   3   4
ENDBRANCH   2   3
ENDBRANCH   1   2
BRANCH   1  27
ATOM     27  C   UNL     1       2.604   1.240  -4.344  1.00  0.00     0.002 C 
BRANCH  27  28
ATOM     28  C   UNL     1       2.967   2.304  -3.303  1.00  0.00     0.021 C 
BRANCH  28  29
ATOM     29  C   UNL     1       4.321   2.991  -3.475  1.00  0.00     0.116 C 
BRANCH  29  30
ATOM     30  N   UNL     1       4.445   3.706  -4.729  1.00  0.00    -0.352 N 
ATOM     31  C   UNL     1       5.026   4.918  -5.002  1.00  0.00     0.251 C 
ATOM     32  H   UNL     1       4.050   3.250  -5.507  1.00  0.00     0.163 HD
ATOM     33  O   UNL     1       4.939   5.383  -6.136  1.00  0.00    -0.269 OA
BRANCH  31  34
ATOM     34  C   UNL     1       5.742   5.693  -3.958  1.00  0.00     0.039 A 
ATOM     35  C   UNL     1       5.585   7.085  -3.953  1.00  0.00     0.014 A 
ATOM     36  C   UNL     1       6.622   5.097  -3.049  1.00  0.00     0.014 A 
ATOM     37  C   UNL     1       6.281   7.872  -3.031  1.00  0.00     0.010 A 
ATOM     38  C   UNL     1       7.288   5.880  -2.099  1.00  0.00     0.010 A 
ATOM     39  C   UNL     1       7.134   7.275  -2.092  1.00  0.00    -0.014 A 
BRANCH  39  40
ATOM     40  C   UNL     1       7.906   8.109  -1.138  1.00  0.00     0.031 A 
ATOM     41  C   UNL     1       9.389   8.283  -1.317  1.00  0.00     0.074 A 
ATOM     42  C   UNL     1       7.284   8.698  -0.100  1.00  0.00     0.049 A 
ATOM     43  N   UNL     1      10.242   8.941  -0.571  1.00  0.00    -0.248 NA
ATOM     44  C   UNL     1       9.995   7.614  -2.477  1.00  0.00     0.031 C 
ATOM     45  C   UNL     1       5.858   8.588   0.204  1.00  0.00     0.029 A 
ATOM     46  N   UNL     1       7.777   9.506   0.894  1.00  0.00    -0.354 N 
ATOM     47  C   UNL     1      11.485   8.743  -1.155  1.00  0.00     0.074 A 
ATOM     48  C   UNL     1      11.280   7.892  -2.309  1.00  0.00     0.031 C 
ATOM     49  C   UNL     1       5.587   9.314   1.301  1.00  0.00     0.029 A 
ATOM     50  C   UNL     1       6.821   9.930   1.783  1.00  0.00     0.049 A 
ATOM     51  H   UNL     1       8.726   9.758   0.963  1.00  0.00     0.167 HD
ATOM     52  C   UNL     1      12.688   9.231  -0.770  1.00  0.00     0.037 A 
ATOM     53  C   UNL     1       6.928  10.731   2.860  1.00  0.00     0.037 A 
ATOM     54  C   UNL     1      12.896  10.109   0.350  1.00  0.00     0.049 A 
ATOM     55  C   UNL     1       8.261  11.325   3.218  1.00  0.00     0.074 A 
ATOM     56  C   UNL     1      14.079  10.664   0.809  1.00  0.00     0.029 A 
ATOM     57  N   UNL     1      11.888  10.574   1.180  1.00  0.00    -0.354 N 
ATOM     58  N   UNL     1       9.425  11.144   2.647  1.00  0.00    -0.248 NA
ATOM     59  C   UNL     1       8.290  12.247   4.364  1.00  0.00     0.031 C 
ATOM     60  C   UNL     1      13.787  11.463   1.921  1.00  0.00     0.029 A 
ATOM     61  C   UNL     1      12.420  11.418   2.142  1.00  0.00     0.049 A 
ATOM     62  H   UNL     1      10.935  10.339   1.099  1.00  0.00     0.167 HD
ATOM     63  C   UNL     1      10.320  11.942   3.346  1.00  0.00     0.074 A 
ATOM     64  C   UNL     1       9.564  12.615   4.381  1.00  0.00     0.031 C 
ATOM     65  C   UNL     1      11.650  12.098   3.147  1.00  0.00     0.037 A 
BRANCH  52  66
ATOM     66  C   UNL     1      13.883   8.818  -1.572  1.00  0.00     0.064 A 
ATOM     67  C   UNL     1      14.161   9.397  -2.818  1.00  0.00     0.173 A 
ATOM     68  C   UNL     1      14.770   7.851  -1.077  1.00  0.00     0.173 A 
ATOM     69  F   UNL     1      13.331  10.313  -3.336  1.00  0.00    -0.203 F 
ATOM     70  C   UNL     1      15.279   9.008  -3.550  1.00  0.00     0.198 A 
ATOM     71  C   UNL     1      15.897   7.478  -1.805  1.00  0.00     0.198 A 
ATOM     72  F   UNL     1      14.544   7.271   0.110  1.00  0.00    -0.203 F 
ATOM     73  F   UNL     1      15.510   9.548  -4.755  1.00  0.00    -0.200 F 
ATOM     74  C   UNL     1      16.148   8.053  -3.042  1.00  0.00     0.200 A 
ATOM     75  F   UNL     1      16.737   6.558  -1.311  1.00  0.00    -0.200 F 
ATOM     76  F   UNL     1      17.224   7.680  -3.749  1.00  0.00    -0.200 F 
ENDBRANCH  52  66
BRANCH  53  77
ATOM     77  C   UNL     1       5.719  11.057   3.653  1.00  0.00     0.064 A 
ATOM     78  C   UNL     1       5.089  12.301   3.518  1.00  0.00     0.173 A 
ATOM     79  C   UNL     1       5.171  10.134   4.553  1.00  0.00     0.173 A 
ATOM     80  F   UNL     1       5.596  13.220   2.683  1.00  0.00    -0.203 F 
ATOM     81  C   UNL     1       3.957  12.616   4.266  1.00  0.00     0.198 A 
ATOM     82  C   UNL     1       4.029  10.445   5.289  1.00  0.00     0.198 A 
ATOM     83  F   UNL     1       5.742   8.932   4.713  1.00  0.00    -0.203 F 
ATOM     84  F   UNL     1       3.389  13.823   4.141  1.00  0.00    -0.200 F 
ATOM     85  C   UNL     1       3.426  11.686   5.147  1.00  0.00     0.200 A 
ATOM     86  F   UNL     1       3.516   9.543   6.137  1.00  0.00    -0.200 F 
ATOM     87  F   UNL     1       2.337  11.989   5.866  1.00  0.00    -0.200 F 
ENDBRANCH  53  77
BRANCH  65  88
ATOM     88  C   UNL     1      12.367  13.061   4.041  1.00  0.00     0.064 A 
ATOM     89  C   UNL     1      12.746  12.705   5.342  1.00  0.00     0.173 A 
ATOM     90  C   UNL     1      12.709  14.339   3.576  1.00  0.00     0.173 A 
ATOM     91  F   UNL     1      12.427  11.498   5.831  1.00  0.00    -0.203 F 
ATOM     92  C   UNL     1      13.434  13.602   6.154  1.00  0.00     0.198 A 
ATOM     93  C   UNL     1      13.408  15.229   4.386  1.00  0.00     0.198 A 
ATOM     94  F   UNL     1      12.365  14.722   2.338  1.00  0.00    -0.203 F 
ATOM     95  F   UNL     1      13.766  13.253   7.405  1.00  0.00    -0.200 F 
ATOM     96  C   UNL     1      13.768  14.861   5.675  1.00  0.00     0.200 A 
ATOM     97  F   UNL     1      13.731  16.444   3.923  1.00  0.00    -0.200 F 
ATOM     98  F   UNL     1      14.430  15.723   6.458  1.00  0.00    -0.200 F 
ENDBRANCH  65  88
ENDBRANCH  39  40
ENDBRANCH  31  34
ENDBRANCH  29  30
ENDBRANCH  28  29
ENDBRANCH  27  28
ENDBRANCH   1  27
TORSDOF 16
