REMARK SMILES CCCc1cc(OC(F)(F)F)cc2c1O[C@@H](C(F)(F)F)C(C(=O)NCCCCCCNC(=O)c1ccc(-c3c4nc(c(-c5c(F)c(F)c(F)c(F)c5F)c5ccc([nH]5)c(-c5c(F)c(F)c(F)c(F)c5F)c5nc(c(-c6c(F)c(F)c(F)c(F)c6F)c6ccc3[nH]6)C=C5)C=C4)cc1)=C2
REMARK SMILES IDX 27 1 26 2 25 3 24 4 22 5 23 6 21 8 4 9 5 10 14 11 6 12 13 13
REMARK SMILES IDX 15 14 12 15 97 16 16 17 3 18 2 19 1 20 7 21 8 22 9 23 10 24
REMARK SMILES IDX 11 25 17 26 18 27 19 28 20 29 28 30 29 31 30 32 31 33 32 34
REMARK SMILES IDX 33 36 34 37 35 38 96 39 36 40 95 41 37 42 38 43 39 44 89 45
REMARK SMILES IDX 40 46 94 47 88 48 90 49 41 50 93 51 87 52 86 53 42 55 74 56
REMARK SMILES IDX 54 57 73 58 55 59 58 60 72 61 91 62 56 63 57 64 71 66 92 67
REMARK SMILES IDX 59 68 43 69 44 70 52 71 45 72 46 73 50 74 53 75 47 76 48 77
REMARK SMILES IDX 51 78 49 79 75 80 76 81 84 82 77 83 78 84 82 85 85 86 79 87
REMARK SMILES IDX 80 88 83 89 81 90 60 91 61 92 69 93 62 94 63 95 67 96 70 97
REMARK SMILES IDX 64 98 65 99 68 100 66 101
REMARK H PARENT 24 7 31 35 90 54 58 65
REMARK Flexibility Score: inf
ROOT
ATOM      1  C   UNL     1      -6.052   6.553  -0.825  1.00  0.00     0.002 C 
ENDROOT
BRANCH   1   2
ATOM      2  C   UNL     1      -4.739   6.057  -0.204  1.00  0.00     0.021 C 
BRANCH   2   3
ATOM      3  C   UNL     1      -4.957   4.979   0.864  1.00  0.00     0.116 C 
BRANCH   3   4
ATOM      4  N   UNL     1      -5.219   3.711   0.209  1.00  0.00    -0.352 N 
ATOM      5  C   UNL     1      -4.400   2.703  -0.182  1.00  0.00     0.251 C 
ATOM      6  O   UNL     1      -4.844   1.866  -0.962  1.00  0.00    -0.270 OA
ATOM      7  H   UNL     1      -6.170   3.553   0.010  1.00  0.00     0.163 HD
BRANCH   5   8
ATOM      8  C   UNL     1      -3.033   2.527   0.370  1.00  0.00     0.067 C 
ATOM      9  C   UNL     1       0.687   1.671   2.114  1.00  0.00    -0.002 A 
ATOM     10  C   UNL     1       1.570   2.731   2.397  1.00  0.00     0.054 A 
ATOM     11  C   UNL     1      -0.572   1.971   1.578  1.00  0.00     0.131 A 
ATOM     12  C   UNL     1       1.223   4.052   2.105  1.00  0.00     0.130 A 
ATOM     13  C   UNL     1      -0.899   3.276   1.212  1.00  0.00     0.021 A 
ATOM     14  O   UNL     1      -1.487   0.962   1.504  1.00  0.00    -0.475 OA
ATOM     15  C   UNL     1      -0.002   4.312   1.484  1.00  0.00     0.058 A 
ATOM     16  C   UNL     1      -2.198   3.550   0.612  1.00  0.00     0.025 C 
ATOM     17  C   UNL     1      -2.546   1.090   0.517  1.00  0.00     0.314 C 
BRANCH   9  18
ATOM     18  C   UNL     1       1.126   0.248   2.397  1.00  0.00     0.039 C 
BRANCH  18  19
ATOM     19  C   UNL     1       0.895  -0.772   1.268  1.00  0.00     0.001 C 
ATOM     20  C   UNL     1       1.403  -0.325  -0.097  1.00  0.00     0.004 C 
ENDBRANCH  18  19
ENDBRANCH   9  18
BRANCH  12  21
ATOM     21  O   UNL     1       1.969   5.166   2.361  1.00  0.00    -0.406 OA
BRANCH  21  22
ATOM     22  C   UNL     1       3.200   5.000   3.046  1.00  0.00     0.573 C 
ATOM     23  F   UNL     1       3.016   4.420   4.251  1.00  0.00    -0.132 F 
ATOM     24  F   UNL     1       4.063   4.265   2.315  1.00  0.00    -0.132 F 
ATOM     25  F   UNL     1       3.749   6.219   3.247  1.00  0.00    -0.132 F 
ENDBRANCH  21  22
ENDBRANCH  12  21
BRANCH  17  26
ATOM     26  C   UNL     1      -3.599   0.009   0.853  1.00  0.00     0.429 C 
ATOM     27  F   UNL     1      -4.244  -0.453  -0.241  1.00  0.00    -0.167 F 
ATOM     28  F   UNL     1      -3.007  -1.084   1.408  1.00  0.00    -0.167 F 
ATOM     29  F   UNL     1      -4.521   0.444   1.742  1.00  0.00    -0.167 F 
ENDBRANCH  17  26
ENDBRANCH   5   8
ENDBRANCH   3   4
ENDBRANCH   2   3
ENDBRANCH   1   2
BRANCH   1  30
ATOM     30  C   UNL     1      -6.987   7.266   0.159  1.00  0.00     0.002 C 
BRANCH  30  31
ATOM     31  C   UNL     1      -6.352   8.440   0.908  1.00  0.00     0.021 C 
BRANCH  31  32
ATOM     32  C   UNL     1      -5.873   9.568   0.000  1.00  0.00     0.116 C 
BRANCH  32  33
ATOM     33  N   UNL     1      -6.986  10.221  -0.668  1.00  0.00    -0.352 N 
ATOM     34  C   UNL     1      -7.323  11.550  -0.684  1.00  0.00     0.251 C 
ATOM     35  H   UNL     1      -7.580   9.627  -1.181  1.00  0.00     0.163 HD
ATOM     36  O   UNL     1      -8.422  11.906  -1.093  1.00  0.00    -0.269 OA
BRANCH  34  37
ATOM     37  C   UNL     1      -6.354  12.556  -0.201  1.00  0.00     0.039 A 
ATOM     38  C   UNL     1      -6.808  13.595   0.616  1.00  0.00     0.014 A 
ATOM     39  C   UNL     1      -5.011  12.491  -0.580  1.00  0.00     0.014 A 
ATOM     40  C   UNL     1      -5.904  14.551   1.081  1.00  0.00     0.010 A 
ATOM     41  C   UNL     1      -4.099  13.405  -0.061  1.00  0.00     0.010 A 
ATOM     42  C   UNL     1      -4.540  14.453   0.761  1.00  0.00    -0.014 A 
BRANCH  42  43
ATOM     43  C   UNL     1      -3.563  15.460   1.243  1.00  0.00     0.031 A 
ATOM     44  C   UNL     1      -2.856  16.347   0.255  1.00  0.00     0.074 A 
ATOM     45  C   UNL     1      -3.272  15.537   2.556  1.00  0.00     0.049 A 
ATOM     46  N   UNL     1      -1.912  17.231   0.462  1.00  0.00    -0.248 NA
ATOM     47  C   UNL     1      -3.240  16.202  -1.159  1.00  0.00     0.031 C 
ATOM     48  C   UNL     1      -3.862  14.702   3.603  1.00  0.00     0.029 A 
ATOM     49  N   UNL     1      -2.395  16.348   3.231  1.00  0.00    -0.354 N 
ATOM     50  C   UNL     1      -1.578  17.726  -0.792  1.00  0.00     0.074 A 
ATOM     51  C   UNL     1      -2.383  17.015  -1.759  1.00  0.00     0.031 C 
ATOM     52  C   UNL     1      -3.343  15.056   4.791  1.00  0.00     0.029 A 
ATOM     53  C   UNL     1      -2.360  16.115   4.585  1.00  0.00     0.049 A 
ATOM     54  H   UNL     1      -1.842  17.032   2.788  1.00  0.00     0.167 HD
ATOM     55  C   UNL     1      -0.694  18.704  -1.105  1.00  0.00     0.037 A 
ATOM     56  C   UNL     1      -1.613  16.689   5.546  1.00  0.00     0.037 A 
ATOM     57  C   UNL     1       0.074  19.438  -0.135  1.00  0.00     0.049 A 
ATOM     58  C   UNL     1      -0.648  17.782   5.170  1.00  0.00     0.074 A 
ATOM     59  C   UNL     1       0.948  20.490  -0.344  1.00  0.00     0.029 A 
ATOM     60  N   UNL     1       0.055  19.198   1.231  1.00  0.00    -0.354 N 
ATOM     61  N   UNL     1      -0.389  18.289   3.988  1.00  0.00    -0.248 NA
ATOM     62  C   UNL     1       0.124  18.390   6.263  1.00  0.00     0.031 C 
ATOM     63  C   UNL     1       1.489  20.861   0.891  1.00  0.00     0.029 A 
ATOM     64  C   UNL     1       0.914  20.073   1.875  1.00  0.00     0.049 A 
ATOM     65  H   UNL     1      -0.489  18.509   1.677  1.00  0.00     0.167 HD
ATOM     66  C   UNL     1       0.541  19.297   4.200  1.00  0.00     0.074 A 
ATOM     67  C   UNL     1       0.795  19.338   5.625  1.00  0.00     0.031 C 
ATOM     68  C   UNL     1       1.134  20.115   3.297  1.00  0.00     0.037 A 
BRANCH  55  69
ATOM     69  C   UNL     1      -0.513  19.047  -2.554  1.00  0.00     0.064 A 
ATOM     70  C   UNL     1      -1.510  19.713  -3.283  1.00  0.00     0.173 A 
ATOM     71  C   UNL     1       0.695  18.757  -3.208  1.00  0.00     0.173 A 
ATOM     72  F   UNL     1      -2.687  20.002  -2.708  1.00  0.00    -0.203 F 
ATOM     73  C   UNL     1      -1.312  20.059  -4.617  1.00  0.00     0.198 A 
ATOM     74  C   UNL     1       0.900  19.130  -4.533  1.00  0.00     0.198 A 
ATOM     75  F   UNL     1       1.682  18.125  -2.555  1.00  0.00    -0.203 F 
ATOM     76  F   UNL     1      -2.293  20.659  -5.305  1.00  0.00    -0.200 F 
ATOM     77  C   UNL     1      -0.104  19.776  -5.238  1.00  0.00     0.200 A 
ATOM     78  F   UNL     1       2.072  18.867  -5.128  1.00  0.00    -0.200 F 
ATOM     79  F   UNL     1       0.090  20.122  -6.518  1.00  0.00    -0.200 F 
ENDBRANCH  55  69
BRANCH  56  80
ATOM     80  C   UNL     1      -1.758  16.263   6.963  1.00  0.00     0.064 A 
ATOM     81  C   UNL     1      -2.308  17.127   7.922  1.00  0.00     0.173 A 
ATOM     82  C   UNL     1      -1.327  15.001   7.395  1.00  0.00     0.173 A 
ATOM     83  F   UNL     1      -2.717  18.352   7.562  1.00  0.00    -0.203 F 
ATOM     84  C   UNL     1      -2.390  16.757   9.262  1.00  0.00     0.198 A 
ATOM     85  C   UNL     1      -1.438  14.620   8.731  1.00  0.00     0.198 A 
ATOM     86  F   UNL     1      -0.800  14.134   6.517  1.00  0.00    -0.203 F 
ATOM     87  F   UNL     1      -2.865  17.624  10.166  1.00  0.00    -0.200 F 
ATOM     88  C   UNL     1      -1.958  15.503   9.665  1.00  0.00     0.200 A 
ATOM     89  F   UNL     1      -1.032  13.402   9.114  1.00  0.00    -0.200 F 
ATOM     90  F   UNL     1      -2.033  15.148  10.956  1.00  0.00    -0.200 F 
ENDBRANCH  56  80
BRANCH  68  91
ATOM     91  C   UNL     1       2.071  21.161   3.826  1.00  0.00     0.064 A 
ATOM     92  C   UNL     1       3.336  20.832   4.332  1.00  0.00     0.173 A 
ATOM     93  C   UNL     1       1.710  22.517   3.784  1.00  0.00     0.173 A 
ATOM     94  F   UNL     1       3.721  19.549   4.405  1.00  0.00    -0.203 F 
ATOM     95  C   UNL     1       4.197  21.820   4.802  1.00  0.00     0.198 A 
ATOM     96  C   UNL     1       2.585  23.505   4.227  1.00  0.00     0.198 A 
ATOM     97  F   UNL     1       0.514  22.884   3.302  1.00  0.00    -0.203 F 
ATOM     98  F   UNL     1       5.382  21.480   5.327  1.00  0.00    -0.200 F 
ATOM     99  C   UNL     1       3.824  23.155   4.742  1.00  0.00     0.200 A 
ATOM    100  F   UNL     1       2.229  24.795   4.154  1.00  0.00    -0.200 F 
ATOM    101  F   UNL     1       4.657  24.105   5.188  1.00  0.00    -0.200 F 
ENDBRANCH  68  91
ENDBRANCH  42  43
ENDBRANCH  34  37
ENDBRANCH  32  33
ENDBRANCH  31  32
ENDBRANCH  30  31
ENDBRANCH   1  30
TORSDOF 18
