REMARK SMILES CS(=O)(=O)c1ccc(/C=C(/C(=O)NCCCCCCNC(=O)c2ccc(-c3c4nc(c(-c5c(F)c(F)c(F)c(F)c5F)c5ccc([nH]5)c(-c5c(F)c(F)c(F)c(F)c5F)c5nc(c(-c6c(F)c(F)c(F)c(F)c6F)c6ccc3[nH]6)C=C5)C=C4)cc2)c2ccc(O)cc2)cc1
REMARK SMILES IDX 16 1 15 2 14 3 13 4 11 5 12 6 10 8 9 9 8 10 5 11 6 12 94 13
REMARK SMILES IDX 7 14 93 15 2 16 1 17 3 18 4 19 86 20 87 21 92 22 88 23 91 24
REMARK SMILES IDX 89 25 90 26 17 28 18 29 19 30 20 31 21 32 22 34 23 35 24 36
REMARK SMILES IDX 85 37 25 38 84 39 26 40 27 41 28 42 78 43 29 44 83 45 77 46
REMARK SMILES IDX 79 47 30 48 82 49 76 50 75 51 31 53 63 54 43 55 62 56 44 57
REMARK SMILES IDX 47 58 61 59 80 60 45 61 46 62 60 64 81 65 48 66 32 67 33 68
REMARK SMILES IDX 41 69 34 70 35 71 39 72 42 73 36 74 37 75 40 76 38 77 64 78
REMARK SMILES IDX 65 79 73 80 66 81 67 82 71 83 74 84 68 85 69 86 72 87 70 88
REMARK SMILES IDX 49 89 50 90 58 91 51 92 52 93 56 94 59 95 53 96 54 97 57 98
REMARK SMILES IDX 55 99
REMARK H PARENT 13 7 90 27 20 33 79 52 47 63
REMARK Flexibility Score: inf
ROOT
ATOM      1  C   UNL     1       5.254  -1.895  -9.937  1.00  0.00     0.002 C 
ENDROOT
BRANCH   1   2
ATOM      2  C   UNL     1       4.623  -1.762  -8.540  1.00  0.00     0.021 C 
BRANCH   2   3
ATOM      3  C   UNL     1       3.165  -2.227  -8.481  1.00  0.00     0.116 C 
BRANCH   3   4
ATOM      4  N   UNL     1       3.114  -3.670  -8.600  1.00  0.00    -0.352 N 
ATOM      5  C   UNL     1       2.907  -4.690  -7.728  1.00  0.00     0.251 C 
ATOM      6  O   UNL     1       3.047  -5.825  -8.189  1.00  0.00    -0.269 OA
ATOM      7  H   UNL     1       3.263  -3.982  -9.522  1.00  0.00     0.163 HD
BRANCH   5   8
ATOM      8  C   UNL     1       2.432  -4.490  -6.306  1.00  0.00     0.047 C 
ATOM      9  C   UNL     1       2.846  -3.448  -5.549  1.00  0.00     0.022 C 
BRANCH   9  10
ATOM     10  C   UNL     1       2.364  -3.020  -4.217  1.00  0.00    -0.025 A 
ATOM     11  C   UNL     1       1.222  -2.093  -1.822  1.00  0.00     0.067 A 
ATOM     12  C   UNL     1       1.620  -3.427  -1.937  1.00  0.00     0.021 A 
ATOM     13  C   UNL     1       1.435  -1.202  -2.873  1.00  0.00     0.021 A 
ATOM     14  C   UNL     1       2.208  -3.880  -3.124  1.00  0.00     0.009 A 
ATOM     15  C   UNL     1       2.008  -1.668  -4.061  1.00  0.00     0.009 A 
BRANCH  11  16
ATOM     16  S   UNL     1       0.400  -1.555  -0.340  1.00  0.00     0.175 S 
ATOM     17  C   UNL     1       1.129   0.005   0.077  1.00  0.00     0.163 C 
ATOM     18  O   UNL     1       0.763  -2.487   0.715  1.00  0.00    -0.224 OA
ATOM     19  O   UNL     1      -0.985  -1.329  -0.695  1.00  0.00    -0.224 OA
ENDBRANCH  11  16
ENDBRANCH   9  10
BRANCH   8  20
ATOM     20  C   UNL     1       1.625  -5.590  -5.717  1.00  0.00    -0.013 A 
ATOM     21  C   UNL     1       2.245  -6.837  -5.513  1.00  0.00     0.013 A 
ATOM     22  C   UNL     1       0.303  -5.414  -5.287  1.00  0.00     0.013 A 
ATOM     23  C   UNL     1       1.576  -7.871  -4.863  1.00  0.00     0.047 A 
ATOM     24  C   UNL     1      -0.362  -6.447  -4.615  1.00  0.00     0.047 A 
ATOM     25  C   UNL     1       0.286  -7.661  -4.399  1.00  0.00     0.115 A 
BRANCH  25  26
ATOM     26  O   UNL     1      -0.309  -8.678  -3.715  1.00  0.00    -0.508 OA
ATOM     27  H   UNL     1       0.148  -9.485  -3.584  1.00  0.00     0.293 HD
ENDBRANCH  25  26
ENDBRANCH   8  20
ENDBRANCH   5   8
ENDBRANCH   3   4
ENDBRANCH   2   3
ENDBRANCH   1   2
BRANCH   1  28
ATOM     28  C   UNL     1       4.576  -1.068 -11.036  1.00  0.00     0.002 C 
BRANCH  28  29
ATOM     29  C   UNL     1       4.440   0.425 -10.727  1.00  0.00     0.021 C 
BRANCH  29  30
ATOM     30  C   UNL     1       5.765   1.142 -10.492  1.00  0.00     0.116 C 
BRANCH  30  31
ATOM     31  N   UNL     1       6.577   1.192 -11.697  1.00  0.00    -0.352 N 
ATOM     32  C   UNL     1       7.155   2.278 -12.306  1.00  0.00     0.251 C 
ATOM     33  H   UNL     1       6.734   0.327 -12.138  1.00  0.00     0.163 HD
ATOM     34  O   UNL     1       7.640   2.175 -13.428  1.00  0.00    -0.269 OA
BRANCH  32  35
ATOM     35  C   UNL     1       7.179   3.582 -11.611  1.00  0.00     0.039 A 
ATOM     36  C   UNL     1       6.842   4.735 -12.326  1.00  0.00     0.014 A 
ATOM     37  C   UNL     1       7.548   3.670 -10.266  1.00  0.00     0.014 A 
ATOM     38  C   UNL     1       6.824   5.971 -11.676  1.00  0.00     0.010 A 
ATOM     39  C   UNL     1       7.465   4.891  -9.603  1.00  0.00     0.010 A 
ATOM     40  C   UNL     1       7.109   6.054 -10.304  1.00  0.00    -0.014 A 
BRANCH  40  41
ATOM     41  C   UNL     1       7.052   7.352  -9.585  1.00  0.00     0.031 A 
ATOM     42  C   UNL     1       8.303   7.945  -9.001  1.00  0.00     0.074 A 
ATOM     43  C   UNL     1       5.865   7.962  -9.406  1.00  0.00     0.049 A 
ATOM     44  N   UNL     1       8.448   9.029  -8.280  1.00  0.00    -0.248 NA
ATOM     45  C   UNL     1       9.555   7.208  -9.234  1.00  0.00     0.031 C 
ATOM     46  C   UNL     1       4.576   7.462  -9.886  1.00  0.00     0.029 A 
ATOM     47  N   UNL     1       5.549   9.132  -8.761  1.00  0.00    -0.354 N 
ATOM     48  C   UNL     1       9.798   9.093  -7.963  1.00  0.00     0.074 A 
ATOM     49  C   UNL     1      10.422   7.914  -8.524  1.00  0.00     0.031 C 
ATOM     50  C   UNL     1       3.611   8.328  -9.536  1.00  0.00     0.029 A 
ATOM     51  C   UNL     1       4.207   9.425  -8.778  1.00  0.00     0.049 A 
ATOM     52  H   UNL     1       6.220   9.706  -8.326  1.00  0.00     0.167 HD
ATOM     53  C   UNL     1      10.462  10.060  -7.285  1.00  0.00     0.037 A 
ATOM     54  C   UNL     1       3.534  10.459  -8.239  1.00  0.00     0.037 A 
ATOM     55  C   UNL     1       9.842  11.246  -6.755  1.00  0.00     0.049 A 
ATOM     56  C   UNL     1       4.296  11.521  -7.494  1.00  0.00     0.074 A 
ATOM     57  C   UNL     1      10.437  12.315  -6.107  1.00  0.00     0.029 A 
ATOM     58  N   UNL     1       8.484  11.520  -6.813  1.00  0.00    -0.354 N 
ATOM     59  N   UNL     1       5.582  11.605  -7.256  1.00  0.00    -0.248 NA
ATOM     60  C   UNL     1       3.511  12.638  -6.948  1.00  0.00     0.031 C 
ATOM     61  C   UNL     1       9.433  13.214  -5.735  1.00  0.00     0.029 A 
ATOM     62  C   UNL     1       8.218  12.731  -6.194  1.00  0.00     0.049 A 
ATOM     63  H   UNL     1       7.808  10.940  -7.232  1.00  0.00     0.167 HD
ATOM     64  C   UNL     1       5.766  12.792  -6.561  1.00  0.00     0.074 A 
ATOM     65  C   UNL     1       4.460  13.403  -6.426  1.00  0.00     0.031 C 
ATOM     66  C   UNL     1       6.913  13.328  -6.077  1.00  0.00     0.037 A 
BRANCH  53  67
ATOM     67  C   UNL     1      11.938   9.878  -7.082  1.00  0.00     0.064 A 
ATOM     68  C   UNL     1      12.845   9.974  -8.149  1.00  0.00     0.173 A 
ATOM     69  C   UNL     1      12.457   9.639  -5.801  1.00  0.00     0.173 A 
ATOM     70  F   UNL     1      12.399  10.189  -9.396  1.00  0.00    -0.203 F 
ATOM     71  C   UNL     1      14.212   9.807  -7.945  1.00  0.00     0.198 A 
ATOM     72  C   UNL     1      13.828   9.503  -5.596  1.00  0.00     0.198 A 
ATOM     73  F   UNL     1      11.635   9.543  -4.745  1.00  0.00    -0.203 F 
ATOM     74  F   UNL     1      15.053   9.854  -8.988  1.00  0.00    -0.200 F 
ATOM     75  C   UNL     1      14.703   9.580  -6.669  1.00  0.00     0.200 A 
ATOM     76  F   UNL     1      14.302   9.296  -4.360  1.00  0.00    -0.200 F 
ATOM     77  F   UNL     1      16.020   9.427  -6.473  1.00  0.00    -0.200 F 
ENDBRANCH  53  67
BRANCH  54  78
ATOM     78  C   UNL     1       2.061  10.554  -8.408  1.00  0.00     0.064 A 
ATOM     79  C   UNL     1       1.494  11.541  -9.226  1.00  0.00     0.173 A 
ATOM     80  C   UNL     1       1.192   9.667  -7.758  1.00  0.00     0.173 A 
ATOM     81  F   UNL     1       2.284  12.425  -9.854  1.00  0.00    -0.203 F 
ATOM     82  C   UNL     1       0.113  11.649  -9.371  1.00  0.00     0.198 A 
ATOM     83  C   UNL     1      -0.188   9.759  -7.925  1.00  0.00     0.198 A 
ATOM     84  F   UNL     1       1.685   8.701  -6.968  1.00  0.00    -0.203 F 
ATOM     85  F   UNL     1      -0.405  12.630 -10.124  1.00  0.00    -0.200 F 
ATOM     86  C   UNL     1      -0.727  10.755  -8.725  1.00  0.00     0.200 A 
ATOM     87  F   UNL     1      -0.995   8.883  -7.310  1.00  0.00    -0.200 F 
ATOM     88  F   UNL     1      -2.055  10.857  -8.867  1.00  0.00    -0.200 F 
ENDBRANCH  54  78
BRANCH  66  89
ATOM     89  C   UNL     1       6.813  14.658  -5.388  1.00  0.00     0.064 A 
ATOM     90  C   UNL     1       6.240  14.786  -4.115  1.00  0.00     0.173 A 
ATOM     91  C   UNL     1       7.336  15.811  -5.994  1.00  0.00     0.173 A 
ATOM     92  F   UNL     1       5.712  13.716  -3.502  1.00  0.00    -0.203 F 
ATOM     93  C   UNL     1       6.172  16.025  -3.483  1.00  0.00     0.198 A 
ATOM     94  C   UNL     1       7.293  17.042  -5.347  1.00  0.00     0.198 A 
ATOM     95  F   UNL     1       7.901  15.740  -7.209  1.00  0.00    -0.203 F 
ATOM     96  F   UNL     1       5.578  16.133  -2.287  1.00  0.00    -0.200 F 
ATOM     97  C   UNL     1       6.705  17.150  -4.096  1.00  0.00     0.200 A 
ATOM     98  F   UNL     1       7.821  18.125  -5.934  1.00  0.00    -0.200 F 
ATOM     99  F   UNL     1       6.645  18.340  -3.482  1.00  0.00    -0.200 F 
ENDBRANCH  66  89
ENDBRANCH  40  41
ENDBRANCH  32  35
ENDBRANCH  30  31
ENDBRANCH  29  30
ENDBRANCH  28  29
ENDBRANCH   1  28
TORSDOF 17
