REMARK SMILES O=C(NCCCCCCNC(=O)c1ccc(-n2cc(CSc3nc4ccccc4c(=O)n3-c3ccc(Br)cc3)nn2)cc1)c1ccc(-c2c3nc(c(-c4c(F)c(F)c(F)c(F)c4F)c4ccc([nH]4)c(-c4c(F)c(F)c(F)c(F)c4F)c4nc(c(-c5c(F)c(F)c(F)c(F)c5F)c5ccc2[nH]5)C=C4)C=C3)cc1
REMARK SMILES IDX 8 1 7 2 6 3 5 4 4 5 3 6 1 7 2 8 44 10 45 11 106 12 46 13
REMARK SMILES IDX 105 14 47 15 48 16 49 17 99 18 50 19 104 20 98 21 100 22
REMARK SMILES IDX 51 23 103 24 97 25 96 26 52 28 84 29 64 30 83 31 65 32 68 33
REMARK SMILES IDX 82 34 101 35 66 36 67 37 81 39 102 40 69 41 53 42 54 43
REMARK SMILES IDX 62 44 55 45 56 46 60 47 63 48 57 49 58 50 61 51 59 52 85 53
REMARK SMILES IDX 86 54 94 55 87 56 88 57 92 58 95 59 89 60 90 61 93 62 91 63
REMARK SMILES IDX 70 64 71 65 79 66 72 67 73 68 77 69 80 70 74 71 75 72 78 73
REMARK SMILES IDX 76 74 9 75 10 76 11 77 12 79 13 80 14 81 43 82 15 83 42 84
REMARK SMILES IDX 16 85 17 86 18 87 41 88 19 89 40 90 20 91 21 92 22 93 23 94
REMARK SMILES IDX 32 95 24 96 30 97 25 98 29 99 31 100 26 101 28 102 27 103
REMARK SMILES IDX 33 104 34 105 39 106 35 107 38 108 36 109 37 110
REMARK H PARENT 3 9 100 27 68 38 10 78
REMARK Flexibility Score: inf
ROOT
ATOM      1  C   UNL     1       6.406  -3.122   2.929  1.00  0.00     0.021 C 
ENDROOT
BRANCH   1   2
ATOM      2  C   UNL     1       4.881  -2.987   2.954  1.00  0.00     0.002 C 
BRANCH   2   3
ATOM      3  C   UNL     1       4.343  -1.566   3.159  1.00  0.00     0.002 C 
BRANCH   3   4
ATOM      4  C   UNL     1       4.864  -0.504   2.184  1.00  0.00     0.021 C 
BRANCH   4   5
ATOM      5  C   UNL     1       4.713  -0.858   0.706  1.00  0.00     0.116 C 
BRANCH   5   6
ATOM      6  N   UNL     1       3.348  -1.076   0.276  1.00  0.00    -0.352 N 
ATOM      7  O   UNL     1       1.297  -0.814  -0.512  1.00  0.00    -0.269 OA
ATOM      8  C   UNL     1       2.310  -0.262  -0.076  1.00  0.00     0.251 C 
ATOM      9  H   UNL     1       3.115  -2.031   0.226  1.00  0.00     0.163 HD
BRANCH   8  10
ATOM     10  C   UNL     1       2.293   1.214   0.100  1.00  0.00     0.039 A 
ATOM     11  C   UNL     1       3.414   2.037   0.222  1.00  0.00     0.014 A 
ATOM     12  C   UNL     1       1.015   1.804   0.138  1.00  0.00     0.014 A 
ATOM     13  C   UNL     1       3.263   3.401   0.465  1.00  0.00     0.010 A 
ATOM     14  C   UNL     1       0.858   3.165   0.362  1.00  0.00     0.010 A 
ATOM     15  C   UNL     1       1.985   3.958   0.559  1.00  0.00    -0.014 A 
BRANCH  15  16
ATOM     16  C   UNL     1       1.862   5.406   0.701  1.00  0.00     0.031 A 
ATOM     17  C   UNL     1       2.313   6.193  -0.487  1.00  0.00     0.074 A 
ATOM     18  C   UNL     1       1.230   5.994   1.737  1.00  0.00     0.049 A 
ATOM     19  N   UNL     1       3.208   7.126  -0.541  1.00  0.00    -0.248 NA
ATOM     20  C   UNL     1       1.749   5.835  -1.799  1.00  0.00     0.031 C 
ATOM     21  C   UNL     1       0.473   5.346   2.811  1.00  0.00     0.029 A 
ATOM     22  N   UNL     1       1.039   7.321   1.987  1.00  0.00    -0.354 N 
ATOM     23  C   UNL     1       3.217   7.581  -1.861  1.00  0.00     0.074 A 
ATOM     24  C   UNL     1       2.392   6.673  -2.612  1.00  0.00     0.031 C 
ATOM     25  C   UNL     1      -0.273   6.274   3.453  1.00  0.00     0.029 A 
ATOM     26  C   UNL     1       0.047   7.588   2.922  1.00  0.00     0.049 A 
ATOM     27  H   UNL     1       1.559   8.029   1.542  1.00  0.00     0.167 HD
ATOM     28  C   UNL     1       3.746   8.790  -2.201  1.00  0.00     0.037 A 
ATOM     29  C   UNL     1      -0.517   8.794   3.187  1.00  0.00     0.037 A 
ATOM     30  C   UNL     1       4.625   9.287  -1.179  1.00  0.00     0.049 A 
ATOM     31  C   UNL     1       0.389   9.843   2.660  1.00  0.00     0.074 A 
ATOM     32  C   UNL     1       5.813   8.861  -0.621  1.00  0.00     0.029 A 
ATOM     33  N   UNL     1       4.144  10.253  -0.332  1.00  0.00    -0.354 N 
ATOM     34  N   UNL     1       1.558  10.119   3.164  1.00  0.00    -0.248 NA
ATOM     35  C   UNL     1       0.170  10.303   1.297  1.00  0.00     0.031 C 
ATOM     36  C   UNL     1       5.727   9.228   0.754  1.00  0.00     0.029 A 
ATOM     37  C   UNL     1       4.518   9.899   0.936  1.00  0.00     0.049 A 
ATOM     38  H   UNL     1       3.628  11.052  -0.588  1.00  0.00     0.167 HD
ATOM     39  C   UNL     1       2.358  10.380   2.062  1.00  0.00     0.074 A 
ATOM     40  C   UNL     1       1.430  10.574   0.952  1.00  0.00     0.031 C 
ATOM     41  C   UNL     1       3.700  10.134   2.099  1.00  0.00     0.037 A 
BRANCH  28  42
ATOM     42  C   UNL     1       3.205   9.691  -3.285  1.00  0.00     0.064 A 
ATOM     43  C   UNL     1       3.922  10.854  -3.636  1.00  0.00     0.173 A 
ATOM     44  C   UNL     1       1.875   9.633  -3.751  1.00  0.00     0.173 A 
ATOM     45  F   UNL     1       5.191  11.023  -3.235  1.00  0.00    -0.203 F 
ATOM     46  C   UNL     1       3.320  11.916  -4.318  1.00  0.00     0.198 A 
ATOM     47  C   UNL     1       1.294  10.672  -4.478  1.00  0.00     0.198 A 
ATOM     48  F   UNL     1       1.050   8.631  -3.424  1.00  0.00    -0.203 F 
ATOM     49  F   UNL     1       4.000  13.055  -4.508  1.00  0.00    -0.200 F 
ATOM     50  C   UNL     1       2.004  11.827  -4.730  1.00  0.00     0.200 A 
ATOM     51  F   UNL     1       0.011  10.575  -4.853  1.00  0.00    -0.200 F 
ATOM     52  F   UNL     1       1.404  12.868  -5.321  1.00  0.00    -0.200 F 
ENDBRANCH  28  42
BRANCH  29  53
ATOM     53  C   UNL     1      -1.917   9.097   3.576  1.00  0.00     0.064 A 
ATOM     54  C   UNL     1      -2.269  10.345   4.118  1.00  0.00     0.173 A 
ATOM     55  C   UNL     1      -2.982   8.274   3.162  1.00  0.00     0.173 A 
ATOM     56  F   UNL     1      -1.316  11.211   4.493  1.00  0.00    -0.203 F 
ATOM     57  C   UNL     1      -3.604  10.754   4.214  1.00  0.00     0.198 A 
ATOM     58  C   UNL     1      -4.313   8.679   3.266  1.00  0.00     0.198 A 
ATOM     59  F   UNL     1      -2.748   7.102   2.555  1.00  0.00    -0.203 F 
ATOM     60  F   UNL     1      -3.897  11.978   4.676  1.00  0.00    -0.200 F 
ATOM     61  C   UNL     1      -4.624   9.925   3.779  1.00  0.00     0.200 A 
ATOM     62  F   UNL     1      -5.288   7.883   2.805  1.00  0.00    -0.200 F 
ATOM     63  F   UNL     1      -5.898  10.339   3.812  1.00  0.00    -0.200 F 
ENDBRANCH  29  53
BRANCH  41  64
ATOM     64  C   UNL     1       4.322   9.846   3.434  1.00  0.00     0.064 A 
ATOM     65  C   UNL     1       3.997   8.734   4.231  1.00  0.00     0.173 A 
ATOM     66  C   UNL     1       5.390  10.650   3.853  1.00  0.00     0.173 A 
ATOM     67  F   UNL     1       3.060   7.859   3.847  1.00  0.00    -0.203 F 
ATOM     68  C   UNL     1       4.683   8.470   5.415  1.00  0.00     0.198 A 
ATOM     69  C   UNL     1       6.098  10.361   5.015  1.00  0.00     0.198 A 
ATOM     70  F   UNL     1       5.782  11.691   3.102  1.00  0.00    -0.203 F 
ATOM     71  F   UNL     1       4.348   7.408   6.163  1.00  0.00    -0.200 F 
ATOM     72  C   UNL     1       5.738   9.279   5.801  1.00  0.00     0.200 A 
ATOM     73  F   UNL     1       7.152  11.116   5.356  1.00  0.00    -0.200 F 
ATOM     74  F   UNL     1       6.428   8.999   6.916  1.00  0.00    -0.200 F 
ENDBRANCH  41  64
ENDBRANCH  15  16
ENDBRANCH   8  10
ENDBRANCH   5   6
ENDBRANCH   4   5
ENDBRANCH   3   4
ENDBRANCH   2   3
ENDBRANCH   1   2
BRANCH   1  75
ATOM     75  C   UNL     1       7.114  -2.645   4.194  1.00  0.00     0.116 C 
BRANCH  75  76
ATOM     76  N   UNL     1       6.814  -3.486   5.342  1.00  0.00    -0.352 N 
ATOM     77  C   UNL     1       7.655  -4.296   6.057  1.00  0.00     0.251 C 
ATOM     78  H   UNL     1       5.878  -3.471   5.646  1.00  0.00     0.163 HD
ATOM     79  O   UNL     1       7.209  -5.060   6.918  1.00  0.00    -0.269 OA
BRANCH  77  80
ATOM     80  C   UNL     1       9.102  -4.270   5.785  1.00  0.00     0.039 A 
ATOM     81  C   UNL     1       9.748  -5.458   5.433  1.00  0.00     0.016 A 
ATOM     82  C   UNL     1       9.819  -3.073   5.886  1.00  0.00     0.016 A 
ATOM     83  C   UNL     1      11.109  -5.444   5.116  1.00  0.00     0.029 A 
ATOM     84  C   UNL     1      11.181  -3.059   5.593  1.00  0.00     0.029 A 
ATOM     85  C   UNL     1      11.829  -4.247   5.211  1.00  0.00     0.066 A 
BRANCH  85  86
ATOM     86  N   UNL     1      13.225  -4.255   4.985  1.00  0.00    -0.220 N 
ATOM     87  C   UNL     1      14.136  -3.341   5.443  1.00  0.00     0.141 A 
ATOM     88  N   UNL     1      13.871  -5.209   4.276  1.00  0.00    -0.062 NA
ATOM     89  C   UNL     1      15.368  -3.817   5.059  1.00  0.00     0.093 A 
ATOM     90  N   UNL     1      15.172  -4.931   4.288  1.00  0.00    -0.134 NA
BRANCH  89  91
ATOM     91  C   UNL     1      16.692  -3.174   5.209  1.00  0.00     0.138 C 
BRANCH  91  92
ATOM     92  S   UNL     1      17.811  -3.563   6.559  1.00  0.00    -0.081 SA
BRANCH  92  93
ATOM     93  C   UNL     1      17.034  -4.502   7.808  1.00  0.00     0.176 A 
ATOM     94  N   UNL     1      17.793  -5.478   8.216  1.00  0.00    -0.223 NA
ATOM     95  N   UNL     1      15.784  -4.260   8.366  1.00  0.00    -0.255 N 
ATOM     96  C   UNL     1      17.288  -6.377   9.158  1.00  0.00     0.079 A 
ATOM     97  C   UNL     1      15.098  -5.421   8.763  1.00  0.00     0.266 A 
ATOM     98  C   UNL     1      18.136  -7.243   9.850  1.00  0.00     0.029 A 
ATOM     99  C   UNL     1      15.920  -6.496   9.339  1.00  0.00     0.066 A 
ATOM    100  O   UNL     1      13.889  -5.618   8.657  1.00  0.00    -0.268 OA
ATOM    101  C   UNL     1      17.605  -8.261  10.651  1.00  0.00     0.002 A 
ATOM    102  C   UNL     1      15.371  -7.541  10.090  1.00  0.00     0.016 A 
ATOM    103  C   UNL     1      16.222  -8.434  10.739  1.00  0.00     0.001 A 
BRANCH  95 104
ATOM    104  C   UNL     1      15.114  -2.978   8.529  1.00  0.00     0.051 A 
ATOM    105  C   UNL     1      13.911  -2.897   9.265  1.00  0.00     0.028 A 
ATOM    106  C   UNL     1      15.581  -1.760   8.020  1.00  0.00     0.028 A 
ATOM    107  C   UNL     1      13.107  -1.752   9.270  1.00  0.00     0.018 A 
ATOM    108  C   UNL     1      14.759  -0.621   7.963  1.00  0.00     0.018 A 
ATOM    109  C   UNL     1      13.503  -0.641   8.549  1.00  0.00     0.018 A 
ATOM    110  Br  UNL     1      12.332   0.822   8.343  1.00  0.00    -0.051 Br
ENDBRANCH  95 104
ENDBRANCH  92  93
ENDBRANCH  91  92
ENDBRANCH  89  91
ENDBRANCH  85  86
ENDBRANCH  77  80
ENDBRANCH  75  76
ENDBRANCH   1  75
TORSDOF 18
