REMARK SMILES COC(CNS(=O)(=O)c1ccc(Cl)c(C(=O)NCCCCCCNC(=O)c2ccc(-c3c4nc(c(-c5c(F)c(F)c(F)c(F)c5F)c5ccc([nH]5)c(-c5c(F)c(F)c(F)c(F)c5F)c5nc(c(-c6c(F)c(F)c(F)c(F)c6F)c6ccc3[nH]6)C=C5)C=C4)cc2)c1Cl)OC
REMARK SMILES IDX 19 1 18 2 17 3 15 4 16 5 14 7 9 8 10 9 90 10 11 11 91 12
REMARK SMILES IDX 12 13 13 14 6 15 7 16 8 17 5 18 4 20 3 21 2 22 1 23 92 24
REMARK SMILES IDX 93 25 20 26 21 27 22 28 23 29 24 30 25 31 26 33 27 34 28 35
REMARK SMILES IDX 89 36 29 37 88 38 30 39 31 40 32 41 82 42 33 43 87 44 81 45
REMARK SMILES IDX 83 46 34 47 86 48 80 49 79 50 35 52 67 53 47 54 66 55 48 56
REMARK SMILES IDX 51 57 65 58 84 59 49 60 50 61 64 63 85 64 52 65 36 66 37 67
REMARK SMILES IDX 45 68 38 69 39 70 43 71 46 72 40 73 41 74 44 75 42 76 68 77
REMARK SMILES IDX 69 78 77 79 70 80 71 81 75 82 78 83 72 84 73 85 76 86 74 87
REMARK SMILES IDX 53 88 54 89 62 90 55 91 56 92 60 93 63 94 57 95 58 96 61 97
REMARK SMILES IDX 59 98
REMARK H PARENT 17 6 5 19 24 32 83 51 51 62
REMARK Flexibility Score: inf
ROOT
ATOM      1  C   UNL     1       3.605  -0.134 -10.200  1.00  0.00     0.021 C 
ENDROOT
BRANCH   1   2
ATOM      2  C   UNL     1       2.159   0.024  -9.708  1.00  0.00     0.116 C 
BRANCH   2   3
ATOM      3  N   UNL     1       2.017  -0.696  -8.461  1.00  0.00    -0.352 N 
ATOM      4  C   UNL     1       2.052  -0.257  -7.168  1.00  0.00     0.254 C 
ATOM      5  O   UNL     1       2.316  -1.067  -6.279  1.00  0.00    -0.269 OA
ATOM      6  H   UNL     1       1.871  -1.664  -8.561  1.00  0.00     0.163 HD
BRANCH   4   7
ATOM      7  C   UNL     1       1.688   1.113  -6.744  1.00  0.00     0.078 A 
ATOM      8  C   UNL     1       0.589   2.296  -4.929  1.00  0.00     0.101 A 
ATOM      9  C   UNL     1       1.317   3.451  -5.234  1.00  0.00     0.025 A 
ATOM     10  C   UNL     1       0.660   1.185  -5.774  1.00  0.00     0.075 A 
ATOM     11  C   UNL     1       2.226   3.435  -6.287  1.00  0.00     0.023 A 
ATOM     12  Cl  UNL     1      -0.566  -0.052  -5.746  1.00  0.00    -0.082 Cl
ATOM     13  C   UNL     1       2.487   2.243  -6.971  1.00  0.00     0.055 A 
ATOM     14  Cl  UNL     1       3.889   2.267  -7.970  1.00  0.00    -0.083 Cl
BRANCH   8  15
ATOM     15  S   UNL     1      -0.192   2.209  -3.332  1.00  0.00     0.242 S 
ATOM     16  O   UNL     1      -1.528   1.680  -3.457  1.00  0.00    -0.207 OA
ATOM     17  O   UNL     1       0.040   3.481  -2.678  1.00  0.00    -0.207 OA
BRANCH  15  18
ATOM     18  N   UNL     1       0.787   1.131  -2.473  1.00  0.00    -0.206 NA
ATOM     19  H   UNL     1       1.749   1.309  -2.763  1.00  0.00     0.141 HD
BRANCH  18  20
ATOM     20  C   UNL     1       0.557  -0.327  -2.609  1.00  0.00     0.161 C 
BRANCH  20  21
ATOM     21  C   UNL     1       1.209  -1.249  -1.540  1.00  0.00     0.263 C 
BRANCH  21  22
ATOM     22  O   UNL     1       0.600  -1.260  -0.249  1.00  0.00    -0.355 OA
ATOM     23  C   UNL     1       0.682  -0.092   0.534  1.00  0.00     0.198 C 
ENDBRANCH  21  22
BRANCH  21  24
ATOM     24  O   UNL     1       2.629  -1.385  -1.528  1.00  0.00    -0.355 OA
ATOM     25  C   UNL     1       3.420  -0.219  -1.554  1.00  0.00     0.198 C 
ENDBRANCH  21  24
ENDBRANCH  20  21
ENDBRANCH  18  20
ENDBRANCH  15  18
ENDBRANCH   8  15
ENDBRANCH   4   7
ENDBRANCH   2   3
ENDBRANCH   1   2
BRANCH   1  26
ATOM     26  C   UNL     1       3.870  -1.432 -10.971  1.00  0.00     0.002 C 
BRANCH  26  27
ATOM     27  C   UNL     1       3.167  -1.529 -12.327  1.00  0.00     0.002 C 
BRANCH  27  28
ATOM     28  C   UNL     1       3.383  -0.329 -13.252  1.00  0.00     0.021 C 
BRANCH  28  29
ATOM     29  C   UNL     1       4.845  -0.047 -13.584  1.00  0.00     0.116 C 
BRANCH  29  30
ATOM     30  N   UNL     1       5.423  -1.099 -14.405  1.00  0.00    -0.352 N 
ATOM     31  C   UNL     1       6.005  -0.997 -15.644  1.00  0.00     0.251 C 
ATOM     32  H   UNL     1       5.393  -2.005 -14.022  1.00  0.00     0.163 HD
ATOM     33  O   UNL     1       6.241  -1.998 -16.312  1.00  0.00    -0.269 OA
BRANCH  31  34
ATOM     34  C   UNL     1       6.340   0.340 -16.174  1.00  0.00     0.039 A 
ATOM     35  C   UNL     1       5.971   0.673 -17.479  1.00  0.00     0.014 A 
ATOM     36  C   UNL     1       7.017   1.262 -15.370  1.00  0.00     0.014 A 
ATOM     37  C   UNL     1       6.236   1.956 -17.965  1.00  0.00     0.010 A 
ATOM     38  C   UNL     1       7.219   2.558 -15.831  1.00  0.00     0.010 A 
ATOM     39  C   UNL     1       6.837   2.915 -17.134  1.00  0.00    -0.014 A 
BRANCH  39  40
ATOM     40  C   UNL     1       7.111   4.296 -17.602  1.00  0.00     0.031 A 
ATOM     41  C   UNL     1       8.532   4.774 -17.701  1.00  0.00     0.074 A 
ATOM     42  C   UNL     1       6.091   5.141 -17.843  1.00  0.00     0.049 A 
ATOM     43  N   UNL     1       8.990   5.979 -17.928  1.00  0.00    -0.248 NA
ATOM     44  C   UNL     1       9.580   3.764 -17.479  1.00  0.00     0.031 C 
ATOM     45  C   UNL     1       4.671   4.802 -17.753  1.00  0.00     0.029 A 
ATOM     46  N   UNL     1       6.095   6.469 -18.190  1.00  0.00    -0.354 N 
ATOM     47  C   UNL     1      10.373   5.876 -17.849  1.00  0.00     0.074 A 
ATOM     48  C   UNL     1      10.678   4.504 -17.508  1.00  0.00     0.031 C 
ATOM     49  C   UNL     1       3.940   5.890 -18.044  1.00  0.00     0.029 A 
ATOM     50  C   UNL     1       4.838   7.013 -18.297  1.00  0.00     0.049 A 
ATOM     51  H   UNL     1       6.920   6.983 -18.347  1.00  0.00     0.167 HD
ATOM     52  C   UNL     1      11.303   6.837 -18.060  1.00  0.00     0.037 A 
ATOM     53  C   UNL     1       4.457   8.280 -18.551  1.00  0.00     0.037 A 
ATOM     54  C   UNL     1      10.992   8.192 -18.431  1.00  0.00     0.049 A 
ATOM     55  C   UNL     1       5.511   9.331 -18.779  1.00  0.00     0.074 A 
ATOM     56  C   UNL     1      11.860   9.230 -18.719  1.00  0.00     0.029 A 
ATOM     57  N   UNL     1       9.706   8.696 -18.567  1.00  0.00    -0.354 N 
ATOM     58  N   UNL     1       6.816   9.215 -18.748  1.00  0.00    -0.248 NA
ATOM     59  C   UNL     1       5.037  10.689 -19.081  1.00  0.00     0.031 C 
ATOM     60  C   UNL     1      11.100  10.373 -18.989  1.00  0.00     0.029 A 
ATOM     61  C   UNL     1       9.758  10.034 -18.921  1.00  0.00     0.049 A 
ATOM     62  H   UNL     1       8.879   8.179 -18.432  1.00  0.00     0.167 HD
ATOM     63  C   UNL     1       7.319  10.470 -19.063  1.00  0.00     0.074 A 
ATOM     64  C   UNL     1       6.178  11.333 -19.286  1.00  0.00     0.031 C 
ATOM     65  C   UNL     1       8.610  10.870 -19.162  1.00  0.00     0.037 A 
BRANCH  52  66
ATOM     66  C   UNL     1      12.746   6.457 -17.894  1.00  0.00     0.064 A 
ATOM     67  C   UNL     1      13.389   5.593 -18.794  1.00  0.00     0.173 A 
ATOM     68  C   UNL     1      13.504   6.985 -16.838  1.00  0.00     0.173 A 
ATOM     69  F   UNL     1      12.707   5.051 -19.813  1.00  0.00    -0.203 F 
ATOM     70  C   UNL     1      14.727   5.248 -18.624  1.00  0.00     0.198 A 
ATOM     71  C   UNL     1      14.851   6.663 -16.690  1.00  0.00     0.198 A 
ATOM     72  F   UNL     1      12.940   7.820 -15.951  1.00  0.00    -0.203 F 
ATOM     73  F   UNL     1      15.305   4.379 -19.465  1.00  0.00    -0.200 F 
ATOM     74  C   UNL     1      15.459   5.789 -17.577  1.00  0.00     0.200 A 
ATOM     75  F   UNL     1      15.559   7.198 -15.686  1.00  0.00    -0.200 F 
ATOM     76  F   UNL     1      16.748   5.461 -17.420  1.00  0.00    -0.200 F 
ENDBRANCH  52  66
BRANCH  53  77
ATOM     77  C   UNL     1       3.012   8.621 -18.624  1.00  0.00     0.064 A 
ATOM     78  C   UNL     1       2.416   8.964 -19.845  1.00  0.00     0.173 A 
ATOM     79  C   UNL     1       2.200   8.617 -17.480  1.00  0.00     0.173 A 
ATOM     80  F   UNL     1       3.157   9.002 -20.963  1.00  0.00    -0.203 F 
ATOM     81  C   UNL     1       1.069   9.312 -19.918  1.00  0.00     0.198 A 
ATOM     82  C   UNL     1       0.846   8.937 -17.558  1.00  0.00     0.198 A 
ATOM     83  F   UNL     1       2.720   8.290 -16.288  1.00  0.00    -0.203 F 
ATOM     84  F   UNL     1       0.537   9.681 -21.090  1.00  0.00    -0.200 F 
ATOM     85  C   UNL     1       0.284   9.293 -18.775  1.00  0.00     0.200 A 
ATOM     86  F   UNL     1       0.087   8.903 -16.454  1.00  0.00    -0.200 F 
ATOM     87  F   UNL     1      -1.013   9.624 -18.845  1.00  0.00    -0.200 F 
ENDBRANCH  53  77
BRANCH  65  88
ATOM     88  C   UNL     1       8.864  12.287 -19.586  1.00  0.00     0.064 A 
ATOM     89  C   UNL     1       8.632  13.370 -18.726  1.00  0.00     0.173 A 
ATOM     90  C   UNL     1       9.404  12.557 -20.853  1.00  0.00     0.173 A 
ATOM     91  F   UNL     1       8.103  13.165 -17.510  1.00  0.00    -0.203 F 
ATOM     92  C   UNL     1       8.912  14.673 -19.127  1.00  0.00     0.198 A 
ATOM     93  C   UNL     1       9.711  13.858 -21.239  1.00  0.00     0.198 A 
ATOM     94  F   UNL     1       9.652  11.555 -21.710  1.00  0.00    -0.203 F 
ATOM     95  F   UNL     1       8.644  15.697 -18.305  1.00  0.00    -0.200 F 
ATOM     96  C   UNL     1       9.460  14.915 -20.379  1.00  0.00     0.200 A 
ATOM     97  F   UNL     1      10.254  14.088 -22.443  1.00  0.00    -0.200 F 
ATOM     98  F   UNL     1       9.741  16.170 -20.757  1.00  0.00    -0.200 F 
ENDBRANCH  65  88
ENDBRANCH  39  40
ENDBRANCH  31  34
ENDBRANCH  29  30
ENDBRANCH  28  29
ENDBRANCH  27  28
ENDBRANCH  26  27
ENDBRANCH   1  26
TORSDOF 19
