REMARK SMILES COC(=O)c1ccc(-c2ccc(C(=O)NCCCCCCNC(=O)c3ccc(-c4c5nc(c(-c6c(F)c(F)c(F)c(F)c6F)c6ccc([nH]6)c(-c6c(F)c(F)c(F)c(F)c6F)c6nc(c(-c7c(F)c(F)c(F)c(F)c7F)c7ccc4[nH]7)C=C6)C=C5)cc3)cc2O)cc1F
REMARK SMILES IDX 18 1 17 2 16 3 15 4 13 5 14 6 12 8 9 9 10 10 89 11 11 12
REMARK SMILES IDX 88 13 8 14 5 15 6 16 92 17 7 18 91 19 93 20 3 21 4 22 2 23
REMARK SMILES IDX 1 24 90 25 19 27 20 28 21 29 22 30 23 31 24 33 25 34 26 35
REMARK SMILES IDX 87 36 27 37 86 38 28 39 29 40 30 41 80 42 31 43 85 44 79 45
REMARK SMILES IDX 81 46 32 47 84 48 78 49 77 50 33 52 65 53 45 54 64 55 46 56
REMARK SMILES IDX 49 57 63 58 82 59 47 60 48 61 62 63 83 64 50 65 34 66 35 67
REMARK SMILES IDX 43 68 36 69 37 70 41 71 44 72 38 73 39 74 42 75 40 76 66 77
REMARK SMILES IDX 67 78 75 79 68 80 69 81 73 82 76 83 70 84 71 85 74 86 72 87
REMARK SMILES IDX 51 88 52 89 60 90 53 91 54 92 58 93 61 94 55 95 56 96 59 97
REMARK SMILES IDX 57 98
REMARK H PARENT 15 7 90 26 22 32 81 51 49 62
REMARK Flexibility Score: inf
ROOT
ATOM      1  C   UNL     1      -5.729  13.098  -3.225  1.00  0.00     0.002 C 
ENDROOT
BRANCH   1   2
ATOM      2  C   UNL     1      -5.029  11.828  -2.721  1.00  0.00     0.021 C 
BRANCH   2   3
ATOM      3  C   UNL     1      -5.220  10.636  -3.661  1.00  0.00     0.116 C 
BRANCH   3   4
ATOM      4  N   UNL     1      -4.301  10.745  -4.774  1.00  0.00    -0.352 N 
ATOM      5  C   UNL     1      -3.095  10.165  -5.061  1.00  0.00     0.251 C 
ATOM      6  O   UNL     1      -2.530  10.535  -6.092  1.00  0.00    -0.269 OA
ATOM      7  H   UNL     1      -4.608  11.367  -5.472  1.00  0.00     0.163 HD
BRANCH   5   8
ATOM      8  C   UNL     1      -2.474   9.081  -4.248  1.00  0.00     0.043 A 
ATOM      9  C   UNL     1      -1.288   6.864  -2.936  1.00  0.00     0.024 A 
ATOM     10  C   UNL     1      -0.958   7.167  -4.262  1.00  0.00     0.013 A 
ATOM     11  C   UNL     1      -2.186   7.713  -2.272  1.00  0.00     0.124 A 
ATOM     12  C   UNL     1      -1.556   8.251  -4.912  1.00  0.00     0.015 A 
ATOM     13  C   UNL     1      -2.730   8.838  -2.898  1.00  0.00     0.060 A 
BRANCH   9  14
ATOM     14  C   UNL     1      -0.705   5.694  -2.274  1.00  0.00    -0.012 A 
ATOM     15  C   UNL     1       0.373   3.486  -0.906  1.00  0.00     0.095 A 
ATOM     16  C   UNL     1       1.164   4.615  -1.149  1.00  0.00     0.019 A 
ATOM     17  C   UNL     1      -0.950   3.466  -1.342  1.00  0.00     0.138 A 
ATOM     18  C   UNL     1       0.628   5.708  -1.836  1.00  0.00     0.010 A 
ATOM     19  C   UNL     1      -1.486   4.555  -2.025  1.00  0.00     0.049 A 
ATOM     20  F   UNL     1      -1.756   2.426  -1.086  1.00  0.00    -0.206 F 
BRANCH  15  21
ATOM     21  C   UNL     1       0.962   2.367  -0.147  1.00  0.00     0.340 C 
ATOM     22  O   UNL     1       1.823   2.520   0.704  1.00  0.00    -0.246 OA
BRANCH  21  23
ATOM     23  O   UNL     1       0.469   1.187  -0.589  1.00  0.00    -0.465 OA
ATOM     24  C   UNL     1       0.995   0.047   0.089  1.00  0.00     0.282 C 
ENDBRANCH  21  23
ENDBRANCH  15  21
ENDBRANCH   9  14
BRANCH  11  25
ATOM     25  O   UNL     1      -2.535   7.429  -0.978  1.00  0.00    -0.507 OA
ATOM     26  H   UNL     1      -2.175   6.677  -0.550  1.00  0.00     0.293 HD
ENDBRANCH  11  25
ENDBRANCH   5   8
ENDBRANCH   3   4
ENDBRANCH   2   3
ENDBRANCH   1   2
BRANCH   1  27
ATOM     27  C   UNL     1      -7.252  12.970  -3.365  1.00  0.00     0.002 C 
BRANCH  27  28
ATOM     28  C   UNL     1      -7.970  12.500  -2.098  1.00  0.00     0.021 C 
BRANCH  28  29
ATOM     29  C   UNL     1      -7.804  13.442  -0.911  1.00  0.00     0.116 C 
BRANCH  29  30
ATOM     30  N   UNL     1      -8.390  14.744  -1.186  1.00  0.00    -0.352 N 
ATOM     31  C   UNL     1      -9.361  15.423  -0.499  1.00  0.00     0.251 C 
ATOM     32  H   UNL     1      -8.038  15.204  -1.982  1.00  0.00     0.163 HD
ATOM     33  O   UNL     1      -9.928  16.378  -1.019  1.00  0.00    -0.269 OA
BRANCH  31  34
ATOM     34  C   UNL     1      -9.723  15.008   0.872  1.00  0.00     0.039 A 
ATOM     35  C   UNL     1     -11.066  15.055   1.255  1.00  0.00     0.014 A 
ATOM     36  C   UNL     1      -8.742  14.625   1.791  1.00  0.00     0.014 A 
ATOM     37  C   UNL     1     -11.425  14.694   2.553  1.00  0.00     0.010 A 
ATOM     38  C   UNL     1      -9.111  14.185   3.058  1.00  0.00     0.010 A 
ATOM     39  C   UNL     1     -10.453  14.239   3.460  1.00  0.00    -0.014 A 
BRANCH  39  40
ATOM     40  C   UNL     1     -10.829  13.845   4.839  1.00  0.00     0.031 A 
ATOM     41  C   UNL     1     -10.309  14.618   6.018  1.00  0.00     0.074 A 
ATOM     42  C   UNL     1     -11.616  12.769   5.027  1.00  0.00     0.049 A 
ATOM     43  N   UNL     1     -10.523  14.421   7.294  1.00  0.00    -0.248 NA
ATOM     44  C   UNL     1      -9.407  15.745   5.731  1.00  0.00     0.031 C 
ATOM     45  C   UNL     1     -12.136  11.910   3.962  1.00  0.00     0.029 A 
ATOM     46  N   UNL     1     -12.117  12.214   6.178  1.00  0.00    -0.354 N 
ATOM     47  C   UNL     1      -9.776  15.386   7.956  1.00  0.00     0.074 A 
ATOM     48  C   UNL     1      -9.056  16.131   6.949  1.00  0.00     0.031 C 
ATOM     49  C   UNL     1     -12.911  10.959   4.506  1.00  0.00     0.029 A 
ATOM     50  C   UNL     1     -12.912  11.116   5.957  1.00  0.00     0.049 A 
ATOM     51  H   UNL     1     -11.924  12.569   7.076  1.00  0.00     0.167 HD
ATOM     52  C   UNL     1      -9.719  15.642   9.284  1.00  0.00     0.037 A 
ATOM     53  C   UNL     1     -13.569  10.325   6.827  1.00  0.00     0.037 A 
ATOM     54  C   UNL     1     -10.467  14.915  10.277  1.00  0.00     0.049 A 
ATOM     55  C   UNL     1     -13.503  10.639   8.296  1.00  0.00     0.074 A 
ATOM     56  C   UNL     1     -10.537  15.146  11.639  1.00  0.00     0.029 A 
ATOM     57  N   UNL     1     -11.270  13.814  10.015  1.00  0.00    -0.354 N 
ATOM     58  N   UNL     1     -12.853  11.600   8.906  1.00  0.00    -0.248 NA
ATOM     59  C   UNL     1     -14.269   9.767   9.197  1.00  0.00     0.031 C 
ATOM     60  C   UNL     1     -11.330  14.148  12.210  1.00  0.00     0.029 A 
ATOM     61  C   UNL     1     -11.813  13.335  11.196  1.00  0.00     0.049 A 
ATOM     62  H   UNL     1     -11.429  13.430   9.123  1.00  0.00     0.167 HD
ATOM     63  C   UNL     1     -13.146  11.464  10.256  1.00  0.00     0.074 A 
ATOM     64  C   UNL     1     -14.046  10.335  10.374  1.00  0.00     0.031 C 
ATOM     65  C   UNL     1     -12.707  12.208  11.301  1.00  0.00     0.037 A 
BRANCH  52  66
ATOM     66  C   UNL     1      -8.826  16.756   9.750  1.00  0.00     0.064 A 
ATOM     67  C   UNL     1      -7.699  16.480  10.539  1.00  0.00     0.173 A 
ATOM     68  C   UNL     1      -9.120  18.101   9.478  1.00  0.00     0.173 A 
ATOM     69  F   UNL     1      -7.374  15.212  10.834  1.00  0.00    -0.203 F 
ATOM     70  C   UNL     1      -6.909  17.507  11.048  1.00  0.00     0.198 A 
ATOM     71  C   UNL     1      -8.308  19.125   9.961  1.00  0.00     0.198 A 
ATOM     72  F   UNL     1     -10.179  18.422   8.719  1.00  0.00    -0.203 F 
ATOM     73  F   UNL     1      -5.858  17.218  11.829  1.00  0.00    -0.200 F 
ATOM     74  C   UNL     1      -7.210  18.828  10.754  1.00  0.00     0.200 A 
ATOM     75  F   UNL     1      -8.585  20.399   9.653  1.00  0.00    -0.200 F 
ATOM     76  F   UNL     1      -6.442  19.815  11.235  1.00  0.00    -0.200 F 
ENDBRANCH  52  66
BRANCH  53  77
ATOM     77  C   UNL     1     -14.374   9.190   6.308  1.00  0.00     0.064 A 
ATOM     78  C   UNL     1     -13.761   8.074   5.718  1.00  0.00     0.173 A 
ATOM     79  C   UNL     1     -15.775   9.226   6.336  1.00  0.00     0.173 A 
ATOM     80  F   UNL     1     -12.424   7.996   5.658  1.00  0.00    -0.203 F 
ATOM     81  C   UNL     1     -14.519   7.051   5.152  1.00  0.00     0.198 A 
ATOM     82  C   UNL     1     -16.532   8.188   5.795  1.00  0.00     0.198 A 
ATOM     83  F   UNL     1     -16.406  10.263   6.904  1.00  0.00    -0.203 F 
ATOM     84  F   UNL     1     -13.908   6.021   4.552  1.00  0.00    -0.200 F 
ATOM     85  C   UNL     1     -15.904   7.108   5.193  1.00  0.00     0.200 A 
ATOM     86  F   UNL     1     -17.870   8.237   5.855  1.00  0.00    -0.200 F 
ATOM     87  F   UNL     1     -16.633   6.123   4.651  1.00  0.00    -0.200 F 
ENDBRANCH  53  77
BRANCH  65  88
ATOM     88  C   UNL     1     -13.202  11.847  12.672  1.00  0.00     0.064 A 
ATOM     89  C   UNL     1     -14.054  12.717  13.370  1.00  0.00     0.173 A 
ATOM     90  C   UNL     1     -12.770  10.685  13.327  1.00  0.00     0.173 A 
ATOM     91  F   UNL     1     -14.488  13.848  12.793  1.00  0.00    -0.203 F 
ATOM     92  C   UNL     1     -14.440  12.445  14.680  1.00  0.00     0.198 A 
ATOM     93  C   UNL     1     -13.186  10.399  14.625  1.00  0.00     0.198 A 
ATOM     94  F   UNL     1     -11.963   9.816  12.700  1.00  0.00    -0.203 F 
ATOM     95  F   UNL     1     -15.220  13.312  15.340  1.00  0.00    -0.200 F 
ATOM     96  C   UNL     1     -14.010  11.284  15.304  1.00  0.00     0.200 A 
ATOM     97  F   UNL     1     -12.791   9.264  15.218  1.00  0.00    -0.200 F 
ATOM     98  F   UNL     1     -14.393  11.018  16.560  1.00  0.00    -0.200 F 
ENDBRANCH  65  88
ENDBRANCH  39  40
ENDBRANCH  31  34
ENDBRANCH  29  30
ENDBRANCH  28  29
ENDBRANCH  27  28
ENDBRANCH   1  27
TORSDOF 17
