REMARK SMILES Cc1cc(N(C)C(C)C)cc(C(=O)NCCCCCCNC(=O)c2ccc(-c3c4nc(c(-c5c(F)c(F)c(F)c(F)c5F)c5ccc([nH]5)c(-c5c(F)c(F)c(F)c(F)c5F)c5nc(c(-c6c(F)c(F)c(F)c(F)c6F)c6ccc3[nH]6)C=C5)C=C4)cc2)c1N
REMARK SMILES IDX 17 1 16 2 15 3 14 4 12 5 13 6 11 8 1 9 2 10 3 11 87 12 4 13
REMARK SMILES IDX 10 14 88 15 5 18 6 19 7 20 8 21 9 22 18 23 19 24 20 25 21 26
REMARK SMILES IDX 22 27 23 29 24 30 25 31 86 32 26 33 85 34 27 35 28 36 29 37
REMARK SMILES IDX 79 38 30 39 84 40 78 41 80 42 31 43 83 44 77 45 76 46 32 48
REMARK SMILES IDX 64 49 44 50 63 51 45 52 48 53 62 54 81 55 46 56 47 57 61 59
REMARK SMILES IDX 82 60 49 61 33 62 34 63 42 64 35 65 36 66 40 67 43 68 37 69
REMARK SMILES IDX 38 70 41 71 39 72 65 73 66 74 74 75 67 76 68 77 72 78 75 79
REMARK SMILES IDX 69 80 70 81 73 82 71 83 50 84 51 85 59 86 52 87 53 88 57 89
REMARK SMILES IDX 60 90 54 91 55 92 58 93 56 94
REMARK H PARENT 14 7 88 16 88 17 21 28 80 47 48 58
REMARK Flexibility Score: inf
ROOT
ATOM      1  C   UNL     1      -4.124  -5.013  -0.983  1.00  0.00     0.002 C 
ENDROOT
BRANCH   1   2
ATOM      2  C   UNL     1      -3.824  -3.522  -0.767  1.00  0.00     0.021 C 
BRANCH   2   3
ATOM      3  C   UNL     1      -2.961  -3.261   0.472  1.00  0.00     0.116 C 
BRANCH   3   4
ATOM      4  N   UNL     1      -1.578  -3.553   0.162  1.00  0.00    -0.352 N 
ATOM      5  C   UNL     1      -0.508  -2.781  -0.214  1.00  0.00     0.253 C 
ATOM      6  O   UNL     1       0.512  -3.404  -0.524  1.00  0.00    -0.269 OA
ATOM      7  H   UNL     1      -1.359  -4.510   0.237  1.00  0.00     0.163 HD
BRANCH   5   8
ATOM      8  C   UNL     1      -0.496  -1.278  -0.203  1.00  0.00     0.065 A 
ATOM      9  C   UNL     1       2.029   1.563   0.159  1.00  0.00     0.046 C 
ATOM     10  C   UNL     1       0.746   0.786   0.019  1.00  0.00    -0.025 A 
ATOM     11  C   UNL     1      -0.472   1.496  -0.035  1.00  0.00     0.031 A 
ATOM     12  C   UNL     1       0.742  -0.615  -0.047  1.00  0.00     0.047 A 
ATOM     13  C   UNL     1      -1.720   0.882  -0.186  1.00  0.00     0.038 A 
ATOM     14  C   UNL     1      -1.666  -0.510  -0.375  1.00  0.00     0.042 A 
BRANCH  12  15
ATOM     15  N   UNL     1       1.929  -1.317   0.191  1.00  0.00    -0.398 N 
ATOM     16  H   UNL     1       2.778  -0.828   0.295  1.00  0.00     0.156 HD
ATOM     17  H   UNL     1       1.916  -2.299   0.255  1.00  0.00     0.156 HD
ENDBRANCH  12  15
BRANCH  13  18
ATOM     18  N   UNL     1      -2.923   1.580  -0.131  1.00  0.00    -0.372 N 
ATOM     19  C   UNL     1      -4.195   0.870   0.059  1.00  0.00     0.144 C 
BRANCH  18  20
ATOM     20  C   UNL     1      -3.073   3.057  -0.097  1.00  0.00     0.075 C 
ATOM     21  C   UNL     1      -2.618   3.670   1.228  1.00  0.00     0.030 C 
ATOM     22  C   UNL     1      -2.520   3.744  -1.341  1.00  0.00     0.030 C 
ENDBRANCH  18  20
ENDBRANCH  13  18
ENDBRANCH   5   8
ENDBRANCH   3   4
ENDBRANCH   2   3
ENDBRANCH   1   2
BRANCH   1  23
ATOM     23  C   UNL     1      -4.972  -5.659   0.120  1.00  0.00     0.002 C 
BRANCH  23  24
ATOM     24  C   UNL     1      -6.309  -4.965   0.390  1.00  0.00     0.021 C 
BRANCH  24  25
ATOM     25  C   UNL     1      -7.253  -4.944  -0.808  1.00  0.00     0.116 C 
BRANCH  25  26
ATOM     26  N   UNL     1      -7.681  -6.284  -1.175  1.00  0.00    -0.352 N 
ATOM     27  C   UNL     1      -8.951  -6.795  -1.268  1.00  0.00     0.251 C 
ATOM     28  H   UNL     1      -6.956  -6.916  -1.388  1.00  0.00     0.163 HD
ATOM     29  O   UNL     1      -9.129  -8.005  -1.356  1.00  0.00    -0.269 OA
BRANCH  27  30
ATOM     30  C   UNL     1     -10.111  -5.880  -1.254  1.00  0.00     0.039 A 
ATOM     31  C   UNL     1     -11.225  -6.210  -0.479  1.00  0.00     0.014 A 
ATOM     32  C   UNL     1     -10.108  -4.713  -2.023  1.00  0.00     0.014 A 
ATOM     33  C   UNL     1     -12.318  -5.343  -0.436  1.00  0.00     0.010 A 
ATOM     34  C   UNL     1     -11.168  -3.817  -1.927  1.00  0.00     0.010 A 
ATOM     35  C   UNL     1     -12.287  -4.128  -1.139  1.00  0.00    -0.014 A 
BRANCH  35  36
ATOM     36  C   UNL     1     -13.419  -3.171  -1.069  1.00  0.00     0.031 A 
ATOM     37  C   UNL     1     -14.222  -2.863  -2.302  1.00  0.00     0.074 A 
ATOM     38  C   UNL     1     -13.682  -2.534   0.088  1.00  0.00     0.049 A 
ATOM     39  N   UNL     1     -15.195  -2.002  -2.464  1.00  0.00    -0.248 NA
ATOM     40  C   UNL     1     -13.865  -3.601  -3.525  1.00  0.00     0.031 C 
ATOM     41  C   UNL     1     -12.944  -2.716   1.340  1.00  0.00     0.029 A 
ATOM     42  N   UNL     1     -14.633  -1.594   0.397  1.00  0.00    -0.354 N 
ATOM     43  C   UNL     1     -15.554  -2.084  -3.803  1.00  0.00     0.074 A 
ATOM     44  C   UNL     1     -14.663  -3.041  -4.422  1.00  0.00     0.031 C 
ATOM     45  C   UNL     1     -13.481  -1.928   2.285  1.00  0.00     0.029 A 
ATOM     46  C   UNL     1     -14.575  -1.159   1.699  1.00  0.00     0.049 A 
ATOM     47  H   UNL     1     -15.295  -1.263  -0.252  1.00  0.00     0.167 HD
ATOM     48  C   UNL     1     -16.552  -1.437  -4.450  1.00  0.00     0.037 A 
ATOM     49  C   UNL     1     -15.315  -0.236   2.342  1.00  0.00     0.037 A 
ATOM     50  C   UNL     1     -17.455  -0.509  -3.821  1.00  0.00     0.049 A 
ATOM     51  C   UNL     1     -16.417   0.468   1.598  1.00  0.00     0.074 A 
ATOM     52  C   UNL     1     -18.536   0.152  -4.376  1.00  0.00     0.029 A 
ATOM     53  N   UNL     1     -17.380  -0.112  -2.494  1.00  0.00    -0.354 N 
ATOM     54  N   UNL     1     -16.791   0.332   0.349  1.00  0.00    -0.248 NA
ATOM     55  C   UNL     1     -17.206   1.449   2.356  1.00  0.00     0.031 C 
ATOM     56  C   UNL     1     -19.090   0.984  -3.397  1.00  0.00     0.029 A 
ATOM     57  C   UNL     1     -18.385   0.801  -2.218  1.00  0.00     0.049 A 
ATOM     58  H   UNL     1     -16.713  -0.432  -1.845  1.00  0.00     0.167 HD
ATOM     59  C   UNL     1     -17.874   1.183   0.179  1.00  0.00     0.074 A 
ATOM     60  C   UNL     1     -18.108   1.821   1.458  1.00  0.00     0.031 C 
ATOM     61  C   UNL     1     -18.610   1.416  -0.935  1.00  0.00     0.037 A 
BRANCH  48  62
ATOM     62  C   UNL     1     -16.727  -1.711  -5.915  1.00  0.00     0.064 A 
ATOM     63  C   UNL     1     -17.213  -2.943  -6.379  1.00  0.00     0.173 A 
ATOM     64  C   UNL     1     -16.457  -0.714  -6.864  1.00  0.00     0.173 A 
ATOM     65  F   UNL     1     -17.476  -3.934  -5.514  1.00  0.00    -0.203 F 
ATOM     66  C   UNL     1     -17.399  -3.174  -7.740  1.00  0.00     0.198 A 
ATOM     67  C   UNL     1     -16.673  -0.937  -8.221  1.00  0.00     0.198 A 
ATOM     68  F   UNL     1     -15.996   0.484  -6.474  1.00  0.00    -0.203 F 
ATOM     69  F   UNL     1     -17.824  -4.372  -8.162  1.00  0.00    -0.200 F 
ATOM     70  C   UNL     1     -17.138  -2.168  -8.659  1.00  0.00     0.200 A 
ATOM     71  F   UNL     1     -16.432   0.040  -9.107  1.00  0.00    -0.200 F 
ATOM     72  F   UNL     1     -17.329  -2.388  -9.967  1.00  0.00    -0.200 F 
ENDBRANCH  48  62
BRANCH  49  73
ATOM     73  C   UNL     1     -15.053   0.063   3.775  1.00  0.00     0.064 A 
ATOM     74  C   UNL     1     -15.980  -0.293   4.765  1.00  0.00     0.173 A 
ATOM     75  C   UNL     1     -13.885   0.723   4.182  1.00  0.00     0.173 A 
ATOM     76  F   UNL     1     -17.122  -0.907   4.423  1.00  0.00    -0.203 F 
ATOM     77  C   UNL     1     -15.760   0.024   6.104  1.00  0.00     0.198 A 
ATOM     78  C   UNL     1     -13.652   1.012   5.524  1.00  0.00     0.198 A 
ATOM     79  F   UNL     1     -12.963   1.079   3.275  1.00  0.00    -0.203 F 
ATOM     80  F   UNL     1     -16.687  -0.281   7.023  1.00  0.00    -0.200 F 
ATOM     81  C   UNL     1     -14.594   0.672   6.483  1.00  0.00     0.200 A 
ATOM     82  F   UNL     1     -12.518   1.625   5.888  1.00  0.00    -0.200 F 
ATOM     83  F   UNL     1     -14.383   0.977   7.771  1.00  0.00    -0.200 F 
ENDBRANCH  49  73
BRANCH  61  84
ATOM     84  C   UNL     1     -19.762   2.370  -0.812  1.00  0.00     0.064 A 
ATOM     85  C   UNL     1     -19.564   3.751  -0.670  1.00  0.00     0.173 A 
ATOM     86  C   UNL     1     -21.082   1.898  -0.878  1.00  0.00     0.173 A 
ATOM     87  F   UNL     1     -18.321   4.249  -0.587  1.00  0.00    -0.203 F 
ATOM     88  C   UNL     1     -20.645   4.622  -0.574  1.00  0.00     0.198 A 
ATOM     89  C   UNL     1     -22.160   2.776  -0.812  1.00  0.00     0.198 A 
ATOM     90  F   UNL     1     -21.326   0.587  -1.020  1.00  0.00    -0.203 F 
ATOM     91  F   UNL     1     -20.432   5.933  -0.392  1.00  0.00    -0.200 F 
ATOM     92  C   UNL     1     -21.941   4.135  -0.653  1.00  0.00     0.200 A 
ATOM     93  F   UNL     1     -23.412   2.305  -0.903  1.00  0.00    -0.200 F 
ATOM     94  F   UNL     1     -22.981   4.977  -0.569  1.00  0.00    -0.200 F 
ENDBRANCH  61  84
ENDBRANCH  35  36
ENDBRANCH  27  30
ENDBRANCH  25  26
ENDBRANCH  24  25
ENDBRANCH  23  24
ENDBRANCH   1  23
TORSDOF 16
