REMARK SMILES O=C1C[N@@H+](Cc2ccc(C(=O)NCCCCCCNC(=O)c3ccc(-c4c5nc(c(-c6c(F)c(F)c(F)c(F)c6F)c6ccc([nH]6)c(-c6c(F)c(F)c(F)c(F)c6F)c6nc(c(-c7c(F)c(F)c(F)c(F)c7F)c7ccc4[nH]7)C=C6)C=C5)cc3)cc2)CCN1
REMARK SMILES IDX 15 1 14 2 13 3 12 4 10 5 11 6 9 8 6 9 7 10 86 11 8 12 85 13
REMARK SMILES IDX 5 14 4 15 1 16 2 17 3 18 89 19 88 20 87 22 16 24 17 25 18 26
REMARK SMILES IDX 19 27 20 28 21 30 22 31 23 32 84 33 24 34 83 35 25 36 26 37
REMARK SMILES IDX 27 38 77 39 28 40 82 41 76 42 78 43 29 44 81 45 75 46 74 47
REMARK SMILES IDX 30 49 62 50 42 51 61 52 43 53 46 54 60 55 79 56 44 57 45 58
REMARK SMILES IDX 59 60 80 61 47 62 31 63 32 64 40 65 33 66 34 67 38 68 41 69
REMARK SMILES IDX 35 70 36 71 39 72 37 73 63 74 64 75 72 76 65 77 66 78 70 79
REMARK SMILES IDX 73 80 67 81 68 82 71 83 69 84 48 85 49 86 57 87 50 88 51 89
REMARK SMILES IDX 55 90 58 91 52 92 53 93 56 94 54 95
REMARK H PARENT 12 7 89 21 4 23 19 29 78 48 46 59
REMARK Flexibility Score: inf
ROOT
ATOM      1  C   UNL     1      -1.069   7.326   3.349  1.00  0.00     0.002 C 
ENDROOT
BRANCH   1   2
ATOM      2  C   UNL     1      -1.463   5.918   2.882  1.00  0.00     0.021 C 
BRANCH   2   3
ATOM      3  C   UNL     1      -0.263   5.024   2.567  1.00  0.00     0.116 C 
BRANCH   3   4
ATOM      4  N   UNL     1       0.408   4.636   3.795  1.00  0.00    -0.352 N 
ATOM      5  C   UNL     1       0.456   3.434   4.454  1.00  0.00     0.251 C 
ATOM      6  O   UNL     1       1.118   3.340   5.484  1.00  0.00    -0.269 OA
ATOM      7  H   UNL     1       0.917   5.359   4.228  1.00  0.00     0.163 HD
BRANCH   5   8
ATOM      8  C   UNL     1      -0.201   2.232   3.894  1.00  0.00     0.039 A 
ATOM      9  C   UNL     1      -1.194  -0.015   2.549  1.00  0.00     0.006 A 
ATOM     10  C   UNL     1       0.056  -0.065   3.181  1.00  0.00     0.010 A 
ATOM     11  C   UNL     1      -1.995   1.124   2.716  1.00  0.00     0.010 A 
ATOM     12  C   UNL     1       0.551   1.054   3.849  1.00  0.00     0.014 A 
ATOM     13  C   UNL     1      -1.505   2.240   3.395  1.00  0.00     0.014 A 
BRANCH   9  14
ATOM     14  C   UNL     1      -1.653  -1.151   1.668  1.00  0.00     0.299 C 
BRANCH  14  15
ATOM     15  N   UNL     1      -1.224  -1.113   0.267  1.00  0.00    -0.322 N 
ATOM     16  O   UNL     1       2.319  -0.224   0.195  1.00  0.00    -0.269 OA
ATOM     17  C   UNL     1       1.109  -0.155  -0.019  1.00  0.00     0.275 C 
ATOM     18  C   UNL     1       0.203  -1.388   0.032  1.00  0.00     0.363 C 
ATOM     19  N   UNL     1       0.566   1.029  -0.435  1.00  0.00    -0.346 N 
ATOM     20  C   UNL     1      -0.854   1.272  -0.521  1.00  0.00     0.177 C 
ATOM     21  H   UNL     1       1.179   1.757  -0.690  1.00  0.00     0.163 HD
ATOM     22  C   UNL     1      -1.712  -0.002  -0.551  1.00  0.00     0.284 C 
ATOM     23  H   UNL     1      -1.734  -1.924  -0.085  1.00  0.00     0.348 HD
ENDBRANCH  14  15
ENDBRANCH   9  14
ENDBRANCH   5   8
ENDBRANCH   3   4
ENDBRANCH   2   3
ENDBRANCH   1   2
BRANCH   1  24
ATOM     24  C   UNL     1      -0.325   8.166   2.305  1.00  0.00     0.002 C 
BRANCH  24  25
ATOM     25  C   UNL     1      -1.063   8.345   0.976  1.00  0.00     0.021 C 
BRANCH  25  26
ATOM     26  C   UNL     1      -2.426   9.017   1.100  1.00  0.00     0.116 C 
BRANCH  26  27
ATOM     27  N   UNL     1      -2.316  10.389   1.571  1.00  0.00    -0.352 N 
ATOM     28  C   UNL     1      -2.777  11.547   0.996  1.00  0.00     0.251 C 
ATOM     29  H   UNL     1      -1.842  10.503   2.427  1.00  0.00     0.163 HD
ATOM     30  O   UNL     1      -2.413  12.637   1.419  1.00  0.00    -0.269 OA
BRANCH  28  31
ATOM     31  C   UNL     1      -3.707  11.475  -0.151  1.00  0.00     0.039 A 
ATOM     32  C   UNL     1      -3.494  12.313  -1.248  1.00  0.00     0.014 A 
ATOM     33  C   UNL     1      -4.789  10.591  -0.140  1.00  0.00     0.014 A 
ATOM     34  C   UNL     1      -4.334  12.223  -2.360  1.00  0.00     0.010 A 
ATOM     35  C   UNL     1      -5.577  10.448  -1.277  1.00  0.00     0.010 A 
ATOM     36  C   UNL     1      -5.361  11.265  -2.397  1.00  0.00    -0.014 A 
BRANCH  36  37
ATOM     37  C   UNL     1      -6.220  11.105  -3.597  1.00  0.00     0.031 A 
ATOM     38  C   UNL     1      -7.696  11.379  -3.513  1.00  0.00     0.074 A 
ATOM     39  C   UNL     1      -5.682  10.651  -4.745  1.00  0.00     0.049 A 
ATOM     40  N   UNL     1      -8.621  11.229  -4.428  1.00  0.00    -0.248 NA
ATOM     41  C   UNL     1      -8.205  11.858  -2.218  1.00  0.00     0.031 C 
ATOM     42  C   UNL     1      -4.272  10.310  -4.941  1.00  0.00     0.029 A 
ATOM     43  N   UNL     1      -6.259  10.388  -5.963  1.00  0.00    -0.354 N 
ATOM     44  C   UNL     1      -9.816  11.585  -3.817  1.00  0.00     0.074 A 
ATOM     45  C   UNL     1      -9.510  11.898  -2.439  1.00  0.00     0.031 C 
ATOM     46  C   UNL     1      -4.088   9.908  -6.208  1.00  0.00     0.029 A 
ATOM     47  C   UNL     1      -5.372   9.921  -6.902  1.00  0.00     0.049 A 
ATOM     48  H   UNL     1      -7.217  10.522  -6.146  1.00  0.00     0.167 HD
ATOM     49  C   UNL     1     -11.053  11.667  -4.364  1.00  0.00     0.037 A 
ATOM     50  C   UNL     1      -5.575   9.537  -8.177  1.00  0.00     0.037 A 
ATOM     51  C   UNL     1     -11.348  11.369  -5.742  1.00  0.00     0.049 A 
ATOM     52  C   UNL     1      -6.963   9.614  -8.755  1.00  0.00     0.074 A 
ATOM     53  C   UNL     1     -12.558  11.471  -6.407  1.00  0.00     0.029 A 
ATOM     54  N   UNL     1     -10.423  10.904  -6.665  1.00  0.00    -0.354 N 
ATOM     55  N   UNL     1      -8.074  10.015  -8.188  1.00  0.00    -0.248 NA
ATOM     56  C   UNL     1      -7.122   9.189 -10.152  1.00  0.00     0.031 C 
ATOM     57  C   UNL     1     -12.377  11.015  -7.716  1.00  0.00     0.029 A 
ATOM     58  C   UNL     1     -11.041  10.687  -7.887  1.00  0.00     0.049 A 
ATOM     59  H   UNL     1      -9.468  10.750  -6.480  1.00  0.00     0.167 HD
ATOM     60  C   UNL     1      -9.057   9.922  -9.164  1.00  0.00     0.074 A 
ATOM     61  C   UNL     1      -8.406   9.439 -10.364  1.00  0.00     0.031 C 
ATOM     62  C   UNL     1     -10.379  10.212  -9.075  1.00  0.00     0.037 A 
BRANCH  49  63
ATOM     63  C   UNL     1     -12.181  12.094  -3.468  1.00  0.00     0.064 A 
ATOM     64  C   UNL     1     -12.265  13.399  -2.957  1.00  0.00     0.173 A 
ATOM     65  C   UNL     1     -13.207  11.195  -3.137  1.00  0.00     0.173 A 
ATOM     66  F   UNL     1     -11.306  14.295  -3.234  1.00  0.00    -0.203 F 
ATOM     67  C   UNL     1     -13.312  13.777  -2.121  1.00  0.00     0.198 A 
ATOM     68  C   UNL     1     -14.272  11.587  -2.329  1.00  0.00     0.198 A 
ATOM     69  F   UNL     1     -13.182   9.937  -3.602  1.00  0.00    -0.203 F 
ATOM     70  F   UNL     1     -13.338  15.011  -1.599  1.00  0.00    -0.200 F 
ATOM     71  C   UNL     1     -14.318  12.873  -1.813  1.00  0.00     0.200 A 
ATOM     72  F   UNL     1     -15.251  10.717  -2.045  1.00  0.00    -0.200 F 
ATOM     73  F   UNL     1     -15.329  13.240  -1.013  1.00  0.00    -0.200 F 
ENDBRANCH  49  63
BRANCH  50  74
ATOM     74  C   UNL     1      -4.430   9.068  -9.002  1.00  0.00     0.064 A 
ATOM     75  C   UNL     1      -3.965   9.827 -10.085  1.00  0.00     0.173 A 
ATOM     76  C   UNL     1      -3.781   7.855  -8.730  1.00  0.00     0.173 A 
ATOM     77  F   UNL     1      -4.565  10.985 -10.398  1.00  0.00    -0.203 F 
ATOM     78  C   UNL     1      -2.908   9.381 -10.876  1.00  0.00     0.198 A 
ATOM     79  C   UNL     1      -2.704   7.425  -9.503  1.00  0.00     0.198 A 
ATOM     80  F   UNL     1      -4.183   7.093  -7.702  1.00  0.00    -0.203 F 
ATOM     81  F   UNL     1      -2.515  10.104 -11.934  1.00  0.00    -0.200 F 
ATOM     82  C   UNL     1      -2.275   8.184 -10.581  1.00  0.00     0.200 A 
ATOM     83  F   UNL     1      -2.084   6.275  -9.203  1.00  0.00    -0.200 F 
ATOM     84  F   UNL     1      -1.255   7.758 -11.339  1.00  0.00    -0.200 F 
ENDBRANCH  50  74
BRANCH  62  85
ATOM     85  C   UNL     1     -11.205  10.053 -10.320  1.00  0.00     0.064 A 
ATOM     86  C   UNL     1     -11.512   8.790 -10.847  1.00  0.00     0.173 A 
ATOM     87  C   UNL     1     -11.731  11.180 -10.969  1.00  0.00     0.173 A 
ATOM     88  F   UNL     1     -11.021   7.681 -10.273  1.00  0.00    -0.203 F 
ATOM     89  C   UNL     1     -12.292   8.663 -11.994  1.00  0.00     0.198 A 
ATOM     90  C   UNL     1     -12.539  11.049 -12.095  1.00  0.00     0.198 A 
ATOM     91  F   UNL     1     -11.474  12.412 -10.502  1.00  0.00    -0.203 F 
ATOM     92  F   UNL     1     -12.530   7.449 -12.509  1.00  0.00    -0.200 F 
ATOM     93  C   UNL     1     -12.811   9.791 -12.611  1.00  0.00     0.200 A 
ATOM     94  F   UNL     1     -13.053  12.139 -12.681  1.00  0.00    -0.200 F 
ATOM     95  F   UNL     1     -13.570   9.666 -13.709  1.00  0.00    -0.200 F 
ENDBRANCH  62  85
ENDBRANCH  36  37
ENDBRANCH  28  31
ENDBRANCH  26  27
ENDBRANCH  25  26
ENDBRANCH  24  25
ENDBRANCH   1  24
TORSDOF 15
