REMARK SMILES Cc1cccc(NC(=O)COc2ccc(N3C[C@@H](C(=O)NCCCCCCNC(=O)c4ccc(-c5c6nc(c(-c7c(F)c(F)c(F)c(F)c7F)c7ccc([nH]7)c(-c7c(F)c(F)c(F)c(F)c7F)c7nc(c(-c8c(F)c(F)c(F)c(F)c8F)c8ccc5[nH]8)C=C7)C=C6)cc4)CC3=O)cc2)c1
REMARK SMILES IDX 23 1 22 2 21 3 19 4 20 5 18 7 16 8 17 9 95 10 94 11 96 12
REMARK SMILES IDX 15 13 12 14 13 15 98 16 14 17 97 18 11 19 10 20 8 21 7 22
REMARK SMILES IDX 9 24 6 25 1 26 2 27 3 28 99 29 4 30 5 31 24 32 25 33 26 34
REMARK SMILES IDX 27 35 28 36 29 37 30 39 31 40 32 41 93 42 33 43 92 44 34 45
REMARK SMILES IDX 35 46 36 47 86 48 37 49 91 50 85 51 87 52 38 53 90 54 84 55
REMARK SMILES IDX 83 56 39 58 71 59 51 60 70 61 52 62 55 63 69 64 88 65 53 66
REMARK SMILES IDX 54 67 68 69 89 70 56 71 40 72 41 73 49 74 42 75 43 76 47 77
REMARK SMILES IDX 50 78 44 79 45 80 48 81 46 82 72 83 73 84 81 85 74 86 75 87
REMARK SMILES IDX 79 88 82 89 76 90 77 91 80 92 78 93 57 94 58 95 66 96 59 97
REMARK SMILES IDX 60 98 64 99 67 100 61 101 62 102 65 103 63 104
REMARK H PARENT 21 6 7 23 28 38 87 57 55 68
REMARK Flexibility Score: inf
ROOT
ATOM      1  C   UNL     1      -6.839   6.633  -7.994  1.00  0.00     0.021 C 
ENDROOT
BRANCH   1   2
ATOM      2  C   UNL     1      -7.105   5.198  -7.534  1.00  0.00     0.116 C 
BRANCH   2   3
ATOM      3  N   UNL     1      -7.534   4.347  -8.627  1.00  0.00    -0.356 N 
ATOM      4  C   UNL     1      -7.033   3.194  -9.134  1.00  0.00     0.225 C 
ATOM      5  O   UNL     1      -7.673   2.656 -10.043  1.00  0.00    -0.275 OA
ATOM      6  H   UNL     1      -8.342   4.668  -9.089  1.00  0.00     0.163 HD
BRANCH   4   7
ATOM      7  C   UNL     1      -5.776   2.529  -8.612  1.00  0.00     0.107 C 
ATOM      8  N   UNL     1      -4.804   2.375  -6.462  1.00  0.00    -0.312 N 
ATOM      9  C   UNL     1      -5.959   1.958  -7.221  1.00  0.00     0.139 C 
ATOM     10  C   UNL     1      -3.987   3.251  -7.177  1.00  0.00     0.227 C 
ATOM     11  C   UNL     1      -4.535   3.402  -8.573  1.00  0.00     0.116 C 
ATOM     12  O   UNL     1      -2.967   3.817  -6.811  1.00  0.00    -0.274 OA
BRANCH   8  13
ATOM     13  C   UNL     1      -4.606   1.969  -5.116  1.00  0.00     0.044 A 
ATOM     14  C   UNL     1      -4.238   1.158  -2.433  1.00  0.00     0.120 A 
ATOM     15  C   UNL     1      -4.943   0.353  -3.323  1.00  0.00     0.048 A 
ATOM     16  C   UNL     1      -3.695   2.355  -2.885  1.00  0.00     0.048 A 
ATOM     17  C   UNL     1      -5.151   0.766  -4.643  1.00  0.00     0.030 A 
ATOM     18  C   UNL     1      -3.867   2.748  -4.219  1.00  0.00     0.030 A 
BRANCH  14  19
ATOM     19  O   UNL     1      -4.056   0.642  -1.185  1.00  0.00    -0.484 OA
BRANCH  19  20
ATOM     20  C   UNL     1      -4.241   1.535  -0.100  1.00  0.00     0.329 C 
BRANCH  20  21
ATOM     21  C   UNL     1      -3.130   2.516   0.272  1.00  0.00     0.262 C 
ATOM     22  N   UNL     1      -1.816   2.174   0.354  1.00  0.00    -0.323 N 
ATOM     23  H   UNL     1      -1.231   2.949   0.515  1.00  0.00     0.170 HD
ATOM     24  O   UNL     1      -3.415   3.701   0.498  1.00  0.00    -0.271 OA
BRANCH  22  25
ATOM     25  C   UNL     1      -1.103   0.967   0.261  1.00  0.00     0.041 A 
ATOM     26  C   UNL     1       2.607   0.099  -0.079  1.00  0.00     0.044 C 
ATOM     27  C   UNL     1       1.119  -0.042   0.045  1.00  0.00    -0.049 A 
ATOM     28  C   UNL     1       0.536  -1.310   0.060  1.00  0.00     0.003 A 
ATOM     29  C   UNL     1       0.293   1.086   0.150  1.00  0.00     0.029 A 
ATOM     30  C   UNL     1      -0.844  -1.442   0.193  1.00  0.00     0.002 A 
ATOM     31  C   UNL     1      -1.658  -0.309   0.305  1.00  0.00     0.026 A 
ENDBRANCH  22  25
ENDBRANCH  20  21
ENDBRANCH  19  20
ENDBRANCH  14  19
ENDBRANCH   8  13
ENDBRANCH   4   7
ENDBRANCH   2   3
ENDBRANCH   1   2
BRANCH   1  32
ATOM     32  C   UNL     1      -8.056   7.397  -8.536  1.00  0.00     0.002 C 
BRANCH  32  33
ATOM     33  C   UNL     1      -9.311   7.431  -7.649  1.00  0.00     0.002 C 
BRANCH  33  34
ATOM     34  C   UNL     1      -9.102   7.788  -6.175  1.00  0.00     0.021 C 
BRANCH  34  35
ATOM     35  C   UNL     1      -8.564   9.191  -5.931  1.00  0.00     0.116 C 
BRANCH  35  36
ATOM     36  N   UNL     1      -9.568  10.172  -5.551  1.00  0.00    -0.352 N 
ATOM     37  C   UNL     1      -9.440  11.538  -5.336  1.00  0.00     0.251 C 
ATOM     38  H   UNL     1     -10.477   9.813  -5.426  1.00  0.00     0.163 HD
ATOM     39  O   UNL     1     -10.383  12.179  -4.920  1.00  0.00    -0.269 OA
BRANCH  37  40
ATOM     40  C   UNL     1      -8.194  12.236  -5.758  1.00  0.00     0.039 A 
ATOM     41  C   UNL     1      -8.328  13.458  -6.432  1.00  0.00     0.014 A 
ATOM     42  C   UNL     1      -6.950  11.619  -5.689  1.00  0.00     0.014 A 
ATOM     43  C   UNL     1      -7.293  13.909  -7.250  1.00  0.00     0.010 A 
ATOM     44  C   UNL     1      -5.971  11.995  -6.583  1.00  0.00     0.010 A 
ATOM     45  C   UNL     1      -6.172  13.100  -7.415  1.00  0.00    -0.014 A 
BRANCH  45  46
ATOM     46  C   UNL     1      -5.212  13.248  -8.501  1.00  0.00     0.031 A 
ATOM     47  C   UNL     1      -3.843  13.730  -8.236  1.00  0.00     0.074 A 
ATOM     48  C   UNL     1      -5.538  12.771  -9.724  1.00  0.00     0.049 A 
ATOM     49  N   UNL     1      -3.038  14.159  -9.147  1.00  0.00    -0.248 NA
ATOM     50  C   UNL     1      -3.274  13.781  -6.896  1.00  0.00     0.031 C 
ATOM     51  C   UNL     1      -4.641  12.515 -10.848  1.00  0.00     0.029 A 
ATOM     52  N   UNL     1      -6.824  12.600 -10.263  1.00  0.00    -0.354 N 
ATOM     53  C   UNL     1      -1.791  14.288  -8.583  1.00  0.00     0.074 A 
ATOM     54  C   UNL     1      -2.000  14.081  -7.167  1.00  0.00     0.031 C 
ATOM     55  C   UNL     1      -5.357  12.534 -11.983  1.00  0.00     0.029 A 
ATOM     56  C   UNL     1      -6.702  12.950 -11.632  1.00  0.00     0.049 A 
ATOM     57  H   UNL     1      -7.635  12.301  -9.792  1.00  0.00     0.167 HD
ATOM     58  C   UNL     1      -0.707  14.447  -9.397  1.00  0.00     0.037 A 
ATOM     59  C   UNL     1      -7.335  14.059 -12.117  1.00  0.00     0.037 A 
ATOM     60  C   UNL     1      -1.104  14.563 -10.800  1.00  0.00     0.049 A 
ATOM     61  C   UNL     1      -6.409  15.140 -12.637  1.00  0.00     0.074 A 
ATOM     62  C   UNL     1      -1.146  13.693 -11.877  1.00  0.00     0.029 A 
ATOM     63  N   UNL     1      -1.841  15.669 -11.178  1.00  0.00    -0.354 N 
ATOM     64  N   UNL     1      -5.107  15.087 -12.580  1.00  0.00    -0.248 NA
ATOM     65  C   UNL     1      -6.887  16.416 -13.175  1.00  0.00     0.031 C 
ATOM     66  C   UNL     1      -1.942  14.289 -12.899  1.00  0.00     0.029 A 
ATOM     67  C   UNL     1      -2.375  15.520 -12.442  1.00  0.00     0.049 A 
ATOM     68  H   UNL     1      -1.969  16.467 -10.615  1.00  0.00     0.167 HD
ATOM     69  C   UNL     1      -4.585  16.283 -12.991  1.00  0.00     0.074 A 
ATOM     70  C   UNL     1      -5.736  17.083 -13.363  1.00  0.00     0.031 C 
ATOM     71  C   UNL     1      -3.251  16.557 -12.956  1.00  0.00     0.037 A 
BRANCH  58  72
ATOM     72  C   UNL     1       0.725  14.287  -8.946  1.00  0.00     0.064 A 
ATOM     73  C   UNL     1       1.716  13.826  -9.840  1.00  0.00     0.173 A 
ATOM     74  C   UNL     1       1.182  14.531  -7.638  1.00  0.00     0.173 A 
ATOM     75  F   UNL     1       1.458  13.654 -11.143  1.00  0.00    -0.203 F 
ATOM     76  C   UNL     1       3.015  13.520  -9.428  1.00  0.00     0.198 A 
ATOM     77  C   UNL     1       2.463  14.166  -7.210  1.00  0.00     0.198 A 
ATOM     78  F   UNL     1       0.427  15.187  -6.748  1.00  0.00    -0.203 F 
ATOM     79  F   UNL     1       3.911  13.084 -10.326  1.00  0.00    -0.200 F 
ATOM     80  C   UNL     1       3.377  13.649  -8.104  1.00  0.00     0.200 A 
ATOM     81  F   UNL     1       2.804  14.325  -5.923  1.00  0.00    -0.200 F 
ATOM     82  F   UNL     1       4.607  13.307  -7.699  1.00  0.00    -0.200 F 
ENDBRANCH  58  72
BRANCH  59  83
ATOM     83  C   UNL     1      -8.643  14.297 -11.447  1.00  0.00     0.064 A 
ATOM     84  C   UNL     1      -9.636  13.302 -11.555  1.00  0.00     0.173 A 
ATOM     85  C   UNL     1      -8.780  15.239 -10.422  1.00  0.00     0.173 A 
ATOM     86  F   UNL     1      -9.552  12.373 -12.521  1.00  0.00    -0.203 F 
ATOM     87  C   UNL     1     -10.642  13.176 -10.600  1.00  0.00     0.198 A 
ATOM     88  C   UNL     1      -9.803  15.123  -9.480  1.00  0.00     0.198 A 
ATOM     89  F   UNL     1      -7.859  16.198 -10.253  1.00  0.00    -0.203 F 
ATOM     90  F   UNL     1     -11.493  12.143 -10.658  1.00  0.00    -0.200 F 
ATOM     91  C   UNL     1     -10.706  14.071  -9.546  1.00  0.00     0.200 A 
ATOM     92  F   UNL     1      -9.853  15.976  -8.446  1.00  0.00    -0.200 F 
ATOM     93  F   UNL     1     -11.611  13.898  -8.572  1.00  0.00    -0.200 F 
ENDBRANCH  59  83
BRANCH  71  94
ATOM     94  C   UNL     1      -2.667  17.858 -13.414  1.00  0.00     0.064 A 
ATOM     95  C   UNL     1      -2.979  18.410 -14.665  1.00  0.00     0.173 A 
ATOM     96  C   UNL     1      -1.671  18.518 -12.665  1.00  0.00     0.173 A 
ATOM     97  F   UNL     1      -3.888  17.828 -15.461  1.00  0.00    -0.203 F 
ATOM     98  C   UNL     1      -2.349  19.566 -15.127  1.00  0.00     0.198 A 
ATOM     99  C   UNL     1      -1.007  19.640 -13.152  1.00  0.00     0.198 A 
ATOM    100  F   UNL     1      -1.336  18.104 -11.434  1.00  0.00    -0.203 F 
ATOM    101  F   UNL     1      -2.704  20.090 -16.309  1.00  0.00    -0.200 F 
ATOM    102  C   UNL     1      -1.352  20.170 -14.380  1.00  0.00     0.200 A 
ATOM    103  F   UNL     1      -0.034  20.205 -12.423  1.00  0.00    -0.200 F 
ATOM    104  F   UNL     1      -0.728  21.264 -14.838  1.00  0.00    -0.200 F 
ENDBRANCH  71  94
ENDBRANCH  45  46
ENDBRANCH  37  40
ENDBRANCH  35  36
ENDBRANCH  34  35
ENDBRANCH  33  34
ENDBRANCH  32  33
ENDBRANCH   1  32
TORSDOF 18
