REMARK SMILES Cc1cc(C)c2c(c1)C=C(C(=O)NCCCCCCNC(=O)c1ccc(-c3c4nc(c(-c5c(F)c(F)c(F)c(F)c5F)c5ccc([nH]5)c(-c5c(F)c(F)c(F)c(F)c5F)c5nc(c(-c6c(F)c(F)c(F)c(F)c6F)c6ccc3[nH]6)C=C5)C=C4)cc1)[C@@H](C(F)(F)F)O2
REMARK SMILES IDX 17 1 16 2 15 3 14 4 13 5 11 6 12 7 10 9 1 10 2 11 3 12 8 13
REMARK SMILES IDX 4 14 7 15 5 16 6 17 9 18 91 19 86 20 87 21 88 22 89 23 90 24
REMARK SMILES IDX 18 25 19 26 20 27 21 28 22 30 23 31 24 32 85 33 25 34 84 35
REMARK SMILES IDX 26 36 27 37 28 38 78 39 29 40 83 41 77 42 79 43 30 44 82 45
REMARK SMILES IDX 76 46 75 47 31 49 63 50 43 51 62 52 44 53 47 54 61 55 80 56
REMARK SMILES IDX 45 57 46 58 60 60 81 61 48 62 32 63 33 64 41 65 34 66 35 67
REMARK SMILES IDX 39 68 42 69 36 70 37 71 40 72 38 73 64 74 65 75 73 76 66 77
REMARK SMILES IDX 67 78 71 79 74 80 68 81 69 82 72 83 70 84 49 85 50 86 58 87
REMARK SMILES IDX 51 88 52 89 56 90 59 91 53 92 54 93 57 94 55 95
REMARK H PARENT 13 8 20 29 79 48 47 59
REMARK Flexibility Score: inf
ROOT
ATOM      1  C   UNL     1       0.196  10.799   5.749  1.00  0.00     0.002 C 
ENDROOT
BRANCH   1   2
ATOM      2  C   UNL     1       1.462   9.971   5.489  1.00  0.00     0.002 C 
BRANCH   2   3
ATOM      3  C   UNL     1       1.265   8.452   5.477  1.00  0.00     0.021 C 
BRANCH   3   4
ATOM      4  C   UNL     1       0.221   7.969   4.475  1.00  0.00     0.116 C 
BRANCH   4   5
ATOM      5  N   UNL     1       0.782   7.807   3.147  1.00  0.00    -0.352 N 
ATOM      6  C   UNL     1       0.946   6.802   2.256  1.00  0.00     0.251 C 
ATOM      7  O   UNL     1       1.478   7.133   1.191  1.00  0.00    -0.270 OA
ATOM      8  H   UNL     1       1.139   8.656   2.801  1.00  0.00     0.163 HD
BRANCH   6   9
ATOM      9  C   UNL     1       0.545   5.379   2.469  1.00  0.00     0.067 C 
ATOM     10  C   UNL     1       1.028  -0.132  -0.297  1.00  0.00     0.044 C 
ATOM     11  C   UNL     1       0.652   0.834   0.787  1.00  0.00    -0.050 A 
ATOM     12  C   UNL     1       0.028   0.387   1.960  1.00  0.00     0.010 A 
ATOM     13  C   UNL     1       0.958   2.194   0.648  1.00  0.00     0.015 A 
ATOM     14  C   UNL     1      -0.301   1.285   2.983  1.00  0.00    -0.008 A 
ATOM     15  C   UNL     1       0.636   3.102   1.661  1.00  0.00     0.018 A 
ATOM     16  C   UNL     1      -0.964   0.797   4.240  1.00  0.00     0.048 C 
ATOM     17  C   UNL     1       0.004   2.643   2.818  1.00  0.00     0.130 A 
ATOM     18  C   UNL     1       0.993   4.510   1.545  1.00  0.00     0.025 C 
ATOM     19  O   UNL     1      -0.297   3.472   3.859  1.00  0.00    -0.475 OA
ATOM     20  C   UNL     1      -0.326   4.898   3.594  1.00  0.00     0.314 C 
BRANCH  20  21
ATOM     21  C   UNL     1      -1.791   5.345   3.453  1.00  0.00     0.429 C 
ATOM     22  F   UNL     1      -2.451   5.180   4.628  1.00  0.00    -0.167 F 
ATOM     23  F   UNL     1      -1.910   6.656   3.137  1.00  0.00    -0.167 F 
ATOM     24  F   UNL     1      -2.462   4.648   2.510  1.00  0.00    -0.167 F 
ENDBRANCH  20  21
ENDBRANCH   6   9
ENDBRANCH   4   5
ENDBRANCH   3   4
ENDBRANCH   2   3
ENDBRANCH   1   2
BRANCH   1  25
ATOM     25  C   UNL     1      -0.653  10.351   6.942  1.00  0.00     0.021 C 
BRANCH  25  26
ATOM     26  C   UNL     1       0.092  10.306   8.271  1.00  0.00     0.116 C 
BRANCH  26  27
ATOM     27  N   UNL     1       0.561  11.619   8.678  1.00  0.00    -0.352 N 
ATOM     28  C   UNL     1       0.237  12.347   9.793  1.00  0.00     0.251 C 
ATOM     29  H   UNL     1       1.203  12.046   8.066  1.00  0.00     0.163 HD
ATOM     30  O   UNL     1       0.571  13.525   9.886  1.00  0.00    -0.269 OA
BRANCH  28  31
ATOM     31  C   UNL     1      -0.532  11.713  10.881  1.00  0.00     0.039 A 
ATOM     32  C   UNL     1      -1.627  12.393  11.417  1.00  0.00     0.014 A 
ATOM     33  C   UNL     1      -0.165  10.458  11.377  1.00  0.00     0.014 A 
ATOM     34  C   UNL     1      -2.385  11.793  12.423  1.00  0.00     0.010 A 
ATOM     35  C   UNL     1      -0.961   9.832  12.331  1.00  0.00     0.010 A 
ATOM     36  C   UNL     1      -2.069  10.499  12.873  1.00  0.00    -0.014 A 
BRANCH  36  37
ATOM     37  C   UNL     1      -2.873   9.852  13.937  1.00  0.00     0.031 A 
ATOM     38  C   UNL     1      -2.264   9.598  15.286  1.00  0.00     0.074 A 
ATOM     39  C   UNL     1      -4.141   9.478  13.682  1.00  0.00     0.049 A 
ATOM     40  N   UNL     1      -2.802   9.053  16.346  1.00  0.00    -0.248 NA
ATOM     41  C   UNL     1      -0.856   9.990  15.463  1.00  0.00     0.031 C 
ATOM     42  C   UNL     1      -4.825   9.635  12.398  1.00  0.00     0.029 A 
ATOM     43  N   UNL     1      -5.082   8.893  14.491  1.00  0.00    -0.354 N 
ATOM     44  C   UNL     1      -1.803   9.038  17.310  1.00  0.00     0.074 A 
ATOM     45  C   UNL     1      -0.608   9.567  16.693  1.00  0.00     0.031 C 
ATOM     46  C   UNL     1      -6.088   9.194  12.517  1.00  0.00     0.029 A 
ATOM     47  C   UNL     1      -6.294   8.700  13.876  1.00  0.00     0.049 A 
ATOM     48  H   UNL     1      -4.905   8.636  15.425  1.00  0.00     0.167 HD
ATOM     49  C   UNL     1      -1.887   8.652  18.604  1.00  0.00     0.037 A 
ATOM     50  C   UNL     1      -7.444   8.190  14.358  1.00  0.00     0.037 A 
ATOM     51  C   UNL     1      -3.086   8.154  19.222  1.00  0.00     0.049 A 
ATOM     52  C   UNL     1      -7.503   7.744  15.794  1.00  0.00     0.074 A 
ATOM     53  C   UNL     1      -3.288   7.792  20.541  1.00  0.00     0.029 A 
ATOM     54  N   UNL     1      -4.287   7.952  18.560  1.00  0.00    -0.354 N 
ATOM     55  N   UNL     1      -6.572   7.798  16.714  1.00  0.00    -0.248 NA
ATOM     56  C   UNL     1      -8.773   7.167  16.259  1.00  0.00     0.031 C 
ATOM     57  C   UNL     1      -4.602   7.333  20.670  1.00  0.00     0.029 A 
ATOM     58  C   UNL     1      -5.229   7.446  19.439  1.00  0.00     0.049 A 
ATOM     59  H   UNL     1      -4.447   8.140  17.607  1.00  0.00     0.167 HD
ATOM     60  C   UNL     1      -7.144   7.280  17.868  1.00  0.00     0.074 A 
ATOM     61  C   UNL     1      -8.510   6.931  17.537  1.00  0.00     0.031 C 
ATOM     62  C   UNL     1      -6.585   7.106  19.090  1.00  0.00     0.037 A 
BRANCH  49  63
ATOM     63  C   UNL     1      -0.654   8.777  19.448  1.00  0.00     0.064 A 
ATOM     64  C   UNL     1      -0.174  10.031  19.854  1.00  0.00     0.173 A 
ATOM     65  C   UNL     1       0.026   7.635  19.896  1.00  0.00     0.173 A 
ATOM     66  F   UNL     1      -0.783  11.153  19.441  1.00  0.00    -0.203 F 
ATOM     67  C   UNL     1       0.954  10.139  20.663  1.00  0.00     0.198 A 
ATOM     68  C   UNL     1       1.138   7.746  20.727  1.00  0.00     0.198 A 
ATOM     69  F   UNL     1      -0.395   6.413  19.539  1.00  0.00    -0.203 F 
ATOM     70  F   UNL     1       1.416  11.349  21.007  1.00  0.00    -0.200 F 
ATOM     71  C   UNL     1       1.604   8.997  21.105  1.00  0.00     0.200 A 
ATOM     72  F   UNL     1       1.760   6.641  21.163  1.00  0.00    -0.200 F 
ATOM     73  F   UNL     1       2.683   9.101  21.892  1.00  0.00    -0.200 F 
ENDBRANCH  49  63
BRANCH  50  74
ATOM     74  C   UNL     1      -8.643   8.119  13.485  1.00  0.00     0.064 A 
ATOM     75  C   UNL     1      -9.732   8.975  13.696  1.00  0.00     0.173 A 
ATOM     76  C   UNL     1      -8.720   7.215  12.416  1.00  0.00     0.173 A 
ATOM     77  F   UNL     1      -9.712   9.843  14.719  1.00  0.00    -0.203 F 
ATOM     78  C   UNL     1     -10.857   8.925  12.876  1.00  0.00     0.198 A 
ATOM     79  C   UNL     1      -9.835   7.181  11.582  1.00  0.00     0.198 A 
ATOM     80  F   UNL     1      -7.702   6.377  12.170  1.00  0.00    -0.203 F 
ATOM     81  F   UNL     1     -11.897   9.734  13.118  1.00  0.00    -0.200 F 
ATOM     82  C   UNL     1     -10.905   8.033  11.815  1.00  0.00     0.200 A 
ATOM     83  F   UNL     1      -9.873   6.327  10.550  1.00  0.00    -0.200 F 
ATOM     84  F   UNL     1     -11.983   7.991  11.020  1.00  0.00    -0.200 F 
ENDBRANCH  50  74
BRANCH  62  85
ATOM     85  C   UNL     1      -7.441   6.514  20.169  1.00  0.00     0.064 A 
ATOM     86  C   UNL     1      -7.739   5.145  20.187  1.00  0.00     0.173 A 
ATOM     87  C   UNL     1      -7.883   7.302  21.242  1.00  0.00     0.173 A 
ATOM     88  F   UNL     1      -7.348   4.355  19.176  1.00  0.00    -0.203 F 
ATOM     89  C   UNL     1      -8.454   4.585  21.243  1.00  0.00     0.198 A 
ATOM     90  C   UNL     1      -8.575   6.734  22.307  1.00  0.00     0.198 A 
ATOM     91  F   UNL     1      -7.614   8.616  21.271  1.00  0.00    -0.203 F 
ATOM     92  F   UNL     1      -8.746   3.277  21.232  1.00  0.00    -0.200 F 
ATOM     93  C   UNL     1      -8.860   5.377  22.306  1.00  0.00     0.200 A 
ATOM     94  F   UNL     1      -8.954   7.498  23.341  1.00  0.00    -0.200 F 
ATOM     95  F   UNL     1      -9.527   4.832  23.333  1.00  0.00    -0.200 F 
ENDBRANCH  62  85
ENDBRANCH  36  37
ENDBRANCH  28  31
ENDBRANCH  26  27
ENDBRANCH  25  26
ENDBRANCH   1  25
TORSDOF 14
