REMARK SMILES CC1(C)[C@H](C#N)C(SCC(=O)NCCCCCCNC(=O)c2ccc(-c3c4nc(c(-c5c(F)c(F)c(F)c(F)c5F)c5ccc([nH]5)c(-c5c(F)c(F)c(F)c(F)c5F)c5nc(c(-c6c(F)c(F)c(F)c(F)c6F)c6ccc3[nH]6)C=C5)C=C4)cc2)=NC(=O)[C@@H]1C#N
REMARK SMILES IDX 15 1 14 2 13 3 12 4 10 5 11 6 9 8 8 9 7 10 1 11 2 12 3 13
REMARK SMILES IDX 4 14 88 15 86 16 85 17 87 18 5 19 6 20 89 21 90 22 16 23
REMARK SMILES IDX 17 24 18 25 19 26 20 27 21 29 22 30 23 31 84 32 24 33 83 34
REMARK SMILES IDX 25 35 26 36 27 37 77 38 28 39 82 40 76 41 78 42 29 43 81 44
REMARK SMILES IDX 75 45 74 46 30 48 62 49 42 50 61 51 43 52 46 53 60 54 79 55
REMARK SMILES IDX 44 56 45 57 59 59 80 60 47 61 31 62 32 63 40 64 33 65 34 66
REMARK SMILES IDX 38 67 41 68 35 69 36 70 39 71 37 72 63 73 64 74 72 75 65 76
REMARK SMILES IDX 66 77 70 78 73 79 67 80 68 81 71 82 69 83 48 84 49 85 57 86
REMARK SMILES IDX 50 87 51 88 55 89 58 90 52 91 53 92 56 93 54 94
REMARK H PARENT 12 7 19 28 78 47 46 58
REMARK Flexibility Score: inf
ROOT
ATOM      1  C   UNL     1       3.998   5.038   1.518  1.00  0.00     0.002 C 
ENDROOT
BRANCH   1   2
ATOM      2  C   UNL     1       2.577   5.195   0.956  1.00  0.00     0.021 C 
BRANCH   2   3
ATOM      3  C   UNL     1       2.475   6.233  -0.164  1.00  0.00     0.116 C 
BRANCH   3   4
ATOM      4  N   UNL     1       3.221   5.792  -1.325  1.00  0.00    -0.355 N 
ATOM      5  C   UNL     1       2.799   5.369  -2.549  1.00  0.00     0.230 C 
ATOM      6  O   UNL     1       3.670   5.012  -3.346  1.00  0.00    -0.274 OA
ATOM      7  H   UNL     1       4.199   5.799  -1.210  1.00  0.00     0.163 HD
BRANCH   5   8
ATOM      8  C   UNL     1       1.345   5.468  -2.965  1.00  0.00     0.176 C 
BRANCH   8   9
ATOM      9  S   UNL     1       0.174   4.564  -1.928  1.00  0.00    -0.099 SA
BRANCH   9  10
ATOM     10  C   UNL     1       0.588   2.865  -2.165  1.00  0.00     0.095 C 
ATOM     11  C   UNL     1       0.784  -0.064  -0.081  1.00  0.00     0.015 C 
ATOM     12  C   UNL     1       0.200   0.390  -1.455  1.00  0.00     0.012 C 
ATOM     13  C   UNL     1      -1.048  -0.520  -1.663  1.00  0.00     0.015 C 
ATOM     14  C   UNL     1      -0.193   1.897  -1.304  1.00  0.00     0.156 C 
ATOM     15  C   UNL     1       1.302   0.118  -2.534  1.00  0.00     0.191 C 
ATOM     16  C   UNL     1       2.007   1.308  -3.153  1.00  0.00     0.264 C 
ATOM     17  N   UNL     1       1.541   2.578  -2.971  1.00  0.00    -0.209 NA
ATOM     18  O   UNL     1       3.018   1.114  -3.825  1.00  0.00    -0.271 OA
BRANCH  14  19
ATOM     19  C   UNL     1      -1.640   2.149  -1.483  1.00  0.00     0.073 C 
ATOM     20  N   UNL     1      -2.780   2.343  -1.599  1.00  0.00    -0.198 NA
ENDBRANCH  14  19
BRANCH  15  21
ATOM     21  C   UNL     1       0.871  -0.750  -3.644  1.00  0.00     0.076 C 
ATOM     22  N   UNL     1       0.501  -1.472  -4.477  1.00  0.00    -0.197 NA
ENDBRANCH  15  21
ENDBRANCH   9  10
ENDBRANCH   8   9
ENDBRANCH   5   8
ENDBRANCH   3   4
ENDBRANCH   2   3
ENDBRANCH   1   2
BRANCH   1  23
ATOM     23  C   UNL     1       4.612   6.326   2.078  1.00  0.00     0.002 C 
BRANCH  23  24
ATOM     24  C   UNL     1       3.790   6.995   3.181  1.00  0.00     0.021 C 
BRANCH  24  25
ATOM     25  C   UNL     1       3.565   6.120   4.408  1.00  0.00     0.116 C 
BRANCH  25  26
ATOM     26  N   UNL     1       4.814   5.788   5.075  1.00  0.00    -0.352 N 
ATOM     27  C   UNL     1       5.188   5.989   6.379  1.00  0.00     0.251 C 
ATOM     28  H   UNL     1       5.492   5.355   4.506  1.00  0.00     0.163 HD
ATOM     29  O   UNL     1       6.359   5.848   6.714  1.00  0.00    -0.269 OA
BRANCH  27  30
ATOM     30  C   UNL     1       4.179   6.396   7.379  1.00  0.00     0.039 A 
ATOM     31  C   UNL     1       4.514   7.381   8.310  1.00  0.00     0.014 A 
ATOM     32  C   UNL     1       2.913   5.804   7.407  1.00  0.00     0.014 A 
ATOM     33  C   UNL     1       3.561   7.809   9.234  1.00  0.00     0.010 A 
ATOM     34  C   UNL     1       1.937   6.295   8.269  1.00  0.00     0.010 A 
ATOM     35  C   UNL     1       2.252   7.297   9.197  1.00  0.00    -0.014 A 
BRANCH  35  36
ATOM     36  C   UNL     1       1.209   7.811  10.121  1.00  0.00     0.031 A 
ATOM     37  C   UNL     1       0.559   6.899  11.123  1.00  0.00     0.074 A 
ATOM     38  C   UNL     1       0.819   9.097  10.028  1.00  0.00     0.049 A 
ATOM     39  N   UNL     1      -0.384   7.163  11.994  1.00  0.00    -0.248 NA
ATOM     40  C   UNL     1       1.006   5.498  11.132  1.00  0.00     0.031 C 
ATOM     41  C   UNL     1       1.335  10.067   9.061  1.00  0.00     0.029 A 
ATOM     42  N   UNL     1      -0.104   9.809  10.752  1.00  0.00    -0.354 N 
ATOM     43  C   UNL     1      -0.637   5.967  12.652  1.00  0.00     0.074 A 
ATOM     44  C   UNL     1       0.194   4.960  12.029  1.00  0.00     0.031 C 
ATOM     45  C   UNL     1       0.743  11.253   9.269  1.00  0.00     0.029 A 
ATOM     46  C   UNL     1      -0.226  11.117  10.351  1.00  0.00     0.049 A 
ATOM     47  H   UNL     1      -0.629   9.419  11.488  1.00  0.00     0.167 HD
ATOM     48  C   UNL     1      -1.465   5.735  13.700  1.00  0.00     0.037 A 
ATOM     49  C   UNL     1      -1.038  12.095  10.797  1.00  0.00     0.037 A 
ATOM     50  C   UNL     1      -2.294   6.741  14.312  1.00  0.00     0.049 A 
ATOM     51  C   UNL     1      -1.972  11.806  11.940  1.00  0.00     0.074 A 
ATOM     52  C   UNL     1      -3.140   6.618  15.400  1.00  0.00     0.029 A 
ATOM     53  N   UNL     1      -2.391   8.057  13.879  1.00  0.00    -0.354 N 
ATOM     54  N   UNL     1      -2.152  10.688  12.602  1.00  0.00    -0.248 NA
ATOM     55  C   UNL     1      -2.808  12.920  12.406  1.00  0.00     0.031 C 
ATOM     56  C   UNL     1      -3.799   7.838  15.584  1.00  0.00     0.029 A 
ATOM     57  C   UNL     1      -3.307   8.747  14.660  1.00  0.00     0.049 A 
ATOM     58  H   UNL     1      -1.885   8.444  13.129  1.00  0.00     0.167 HD
ATOM     59  C   UNL     1      -3.100  10.969  13.576  1.00  0.00     0.074 A 
ATOM     60  C   UNL     1      -3.439  12.370  13.434  1.00  0.00     0.031 C 
ATOM     61  C   UNL     1      -3.642  10.141  14.504  1.00  0.00     0.037 A 
BRANCH  48  62
ATOM     62  C   UNL     1      -1.515   4.333  14.244  1.00  0.00     0.064 A 
ATOM     63  C   UNL     1      -0.408   3.747  14.879  1.00  0.00     0.173 A 
ATOM     64  C   UNL     1      -2.689   3.571  14.147  1.00  0.00     0.173 A 
ATOM     65  F   UNL     1       0.744   4.426  14.992  1.00  0.00    -0.203 F 
ATOM     66  C   UNL     1      -0.461   2.440  15.356  1.00  0.00     0.198 A 
ATOM     67  C   UNL     1      -2.751   2.277  14.661  1.00  0.00     0.198 A 
ATOM     68  F   UNL     1      -3.781   4.080  13.557  1.00  0.00    -0.203 F 
ATOM     69  F   UNL     1       0.631   1.881  15.895  1.00  0.00    -0.200 F 
ATOM     70  C   UNL     1      -1.634   1.708  15.253  1.00  0.00     0.200 A 
ATOM     71  F   UNL     1      -3.891   1.578  14.576  1.00  0.00    -0.200 F 
ATOM     72  F   UNL     1      -1.684   0.452  15.715  1.00  0.00    -0.200 F 
ENDBRANCH  48  62
BRANCH  49  73
ATOM     73  C   UNL     1      -0.994  13.438  10.160  1.00  0.00     0.064 A 
ATOM     74  C   UNL     1      -0.524  14.560  10.858  1.00  0.00     0.173 A 
ATOM     75  C   UNL     1      -1.418  13.627   8.836  1.00  0.00     0.173 A 
ATOM     76  F   UNL     1      -0.123  14.437  12.132  1.00  0.00    -0.203 F 
ATOM     77  C   UNL     1      -0.504  15.821  10.264  1.00  0.00     0.198 A 
ATOM     78  C   UNL     1      -1.363  14.880   8.232  1.00  0.00     0.198 A 
ATOM     79  F   UNL     1      -1.869  12.585   8.120  1.00  0.00    -0.203 F 
ATOM     80  F   UNL     1      -0.099  16.884  10.971  1.00  0.00    -0.200 F 
ATOM     81  C   UNL     1      -0.916  15.979   8.950  1.00  0.00     0.200 A 
ATOM     82  F   UNL     1      -1.742  15.023   6.955  1.00  0.00    -0.200 F 
ATOM     83  F   UNL     1      -0.887  17.189   8.376  1.00  0.00    -0.200 F 
ENDBRANCH  49  73
BRANCH  61  84
ATOM     84  C   UNL     1      -4.636  10.739  15.462  1.00  0.00     0.064 A 
ATOM     85  C   UNL     1      -5.900  11.180  15.041  1.00  0.00     0.173 A 
ATOM     86  C   UNL     1      -4.326  10.854  16.826  1.00  0.00     0.173 A 
ATOM     87  F   UNL     1      -6.245  11.105  13.746  1.00  0.00    -0.203 F 
ATOM     88  C   UNL     1      -6.797  11.752  15.940  1.00  0.00     0.198 A 
ATOM     89  C   UNL     1      -5.241  11.388  17.730  1.00  0.00     0.198 A 
ATOM     90  F   UNL     1      -3.136  10.440  17.288  1.00  0.00    -0.203 F 
ATOM     91  F   UNL     1      -7.971  12.229  15.501  1.00  0.00    -0.200 F 
ATOM     92  C   UNL     1      -6.470  11.848  17.284  1.00  0.00     0.200 A 
ATOM     93  F   UNL     1      -4.930  11.461  19.031  1.00  0.00    -0.200 F 
ATOM     94  F   UNL     1      -7.336  12.395  18.149  1.00  0.00    -0.200 F 
ENDBRANCH  61  84
ENDBRANCH  35  36
ENDBRANCH  27  30
ENDBRANCH  25  26
ENDBRANCH  24  25
ENDBRANCH  23  24
ENDBRANCH   1  23
TORSDOF 17
