REMARK SMILES C[C@@H](C(=O)NCCCCCCNC(=O)c1ccc(-c2c3nc(c(-c4c(F)c(F)c(F)c(F)c4F)c4ccc([nH]4)c(-c4c(F)c(F)c(F)c(F)c4F)c4nc(c(-c5c(F)c(F)c(F)c(F)c5F)c5ccc2[nH]5)C=C4)C=C3)cc1)c1ccc(-c2cccc(OC(=O)Nc3ccccc3)c2)c(F)c1
REMARK SMILES IDX 7 1 6 2 5 3 3 4 4 5 2 7 1 8 78 9 79 10 100 11 80 12 98 13
REMARK SMILES IDX 81 14 99 15 82 16 83 17 97 18 84 19 86 20 85 21 87 22 88 23
REMARK SMILES IDX 89 24 90 25 91 27 92 28 96 29 93 30 95 31 94 32 8 33 9 34
REMARK SMILES IDX 10 35 11 36 12 37 13 38 14 40 15 41 16 42 77 43 17 44 76 45
REMARK SMILES IDX 18 46 19 47 20 48 70 49 21 50 75 51 69 52 71 53 22 54 74 55
REMARK SMILES IDX 68 56 67 57 23 59 55 60 35 61 54 62 36 63 39 64 53 65 72 66
REMARK SMILES IDX 37 67 38 68 52 70 73 71 40 72 24 73 25 74 33 75 26 76 27 77
REMARK SMILES IDX 31 78 34 79 28 80 29 81 32 82 30 83 56 84 57 85 65 86 58 87
REMARK SMILES IDX 59 88 63 89 66 90 60 91 61 92 64 93 62 94 41 95 42 96 50 97
REMARK SMILES IDX 43 98 44 99 48 100 51 101 45 102 46 103 49 104 47 105
REMARK H PARENT 5 6 90 26 12 39 71 58 39 69
REMARK Flexibility Score: inf
ROOT
ATOM      1  C   UNL     1       4.223   0.894  -1.285  1.00  0.00     0.021 C 
ENDROOT
BRANCH   1   2
ATOM      2  C   UNL     1       3.382   1.927  -0.530  1.00  0.00     0.116 C 
BRANCH   2   3
ATOM      3  N   UNL     1       2.282   2.367  -1.360  1.00  0.00    -0.356 N 
ATOM      4  C   UNL     1       0.988   1.935  -1.387  1.00  0.00     0.227 C 
ATOM      5  O   UNL     1       0.315   2.264  -2.365  1.00  0.00    -0.274 OA
ATOM      6  H   UNL     1       2.498   3.083  -1.999  1.00  0.00     0.163 HD
BRANCH   4   7
ATOM      7  C   UNL     1       0.422   1.133  -0.201  1.00  0.00     0.105 C 
ATOM      8  C   UNL     1       0.965  -0.303  -0.187  1.00  0.00     0.023 C 
BRANCH   7   9
ATOM      9  C   UNL     1      -1.105   1.199  -0.167  1.00  0.00    -0.033 A 
ATOM     10  C   UNL     1      -1.747   2.444  -0.031  1.00  0.00     0.005 A 
ATOM     11  C   UNL     1      -1.907   0.057  -0.275  1.00  0.00     0.044 A 
ATOM     12  C   UNL     1      -3.144   2.541   0.004  1.00  0.00     0.012 A 
ATOM     13  C   UNL     1      -3.291   0.158  -0.227  1.00  0.00     0.131 A 
ATOM     14  C   UNL     1      -3.938   1.391  -0.075  1.00  0.00     0.018 A 
ATOM     15  F   UNL     1      -4.005  -0.977  -0.307  1.00  0.00    -0.206 F 
BRANCH  14  16
ATOM     16  C   UNL     1      -5.391   1.442   0.093  1.00  0.00    -0.012 A 
ATOM     17  C   UNL     1      -6.231   2.133  -0.789  1.00  0.00     0.009 A 
ATOM     18  C   UNL     1      -5.966   0.751   1.173  1.00  0.00     0.056 A 
ATOM     19  C   UNL     1      -7.617   2.116  -0.604  1.00  0.00     0.004 A 
ATOM     20  C   UNL     1      -7.340   0.743   1.363  1.00  0.00     0.133 A 
ATOM     21  C   UNL     1      -8.173   1.419   0.471  1.00  0.00     0.047 A 
BRANCH  20  22
ATOM     22  O   UNL     1      -7.984   0.084   2.438  1.00  0.00    -0.410 OA
BRANCH  22  23
ATOM     23  C   UNL     1      -7.353  -0.504   3.536  1.00  0.00     0.417 C 
ATOM     24  O   UNL     1      -6.141  -0.618   3.699  1.00  0.00    -0.224 OA
ATOM     25  N   UNL     1      -8.195  -0.875   4.551  1.00  0.00    -0.291 N 
ATOM     26  H   UNL     1      -7.746  -1.139   5.385  1.00  0.00     0.173 HD
BRANCH  25  27
ATOM     27  C   UNL     1      -9.594  -0.937   4.591  1.00  0.00     0.044 A 
ATOM     28  C   UNL     1     -10.192  -0.899   5.855  1.00  0.00     0.026 A 
ATOM     29  C   UNL     1     -10.398  -1.071   3.458  1.00  0.00     0.026 A 
ATOM     30  C   UNL     1     -11.581  -0.942   5.982  1.00  0.00     0.002 A 
ATOM     31  C   UNL     1     -11.787  -1.135   3.587  1.00  0.00     0.002 A 
ATOM     32  C   UNL     1     -12.379  -1.060   4.846  1.00  0.00     0.000 A 
ENDBRANCH  25  27
ENDBRANCH  22  23
ENDBRANCH  20  22
ENDBRANCH  14  16
ENDBRANCH   7   9
ENDBRANCH   4   7
ENDBRANCH   2   3
ENDBRANCH   1   2
BRANCH   1  33
ATOM     33  C   UNL     1       4.968   1.469  -2.497  1.00  0.00     0.002 C 
BRANCH  33  34
ATOM     34  C   UNL     1       5.939   2.606  -2.171  1.00  0.00     0.002 C 
BRANCH  34  35
ATOM     35  C   UNL     1       6.985   2.270  -1.105  1.00  0.00     0.021 C 
BRANCH  35  36
ATOM     36  C   UNL     1       7.870   1.073  -1.441  1.00  0.00     0.116 C 
BRANCH  36  37
ATOM     37  N   UNL     1       8.664   1.303  -2.636  1.00  0.00    -0.352 N 
ATOM     38  C   UNL     1      10.016   1.183  -2.824  1.00  0.00     0.251 C 
ATOM     39  H   UNL     1       8.155   1.589  -3.429  1.00  0.00     0.163 HD
ATOM     40  O   UNL     1      10.534   1.619  -3.847  1.00  0.00    -0.269 OA
BRANCH  38  41
ATOM     41  C   UNL     1      10.860   0.545  -1.790  1.00  0.00     0.039 A 
ATOM     42  C   UNL     1      12.098   1.119  -1.492  1.00  0.00     0.014 A 
ATOM     43  C   UNL     1      10.458  -0.628  -1.144  1.00  0.00     0.014 A 
ATOM     44  C   UNL     1      12.912   0.543  -0.516  1.00  0.00     0.010 A 
ATOM     45  C   UNL     1      11.239  -1.162  -0.120  1.00  0.00     0.010 A 
ATOM     46  C   UNL     1      12.478  -0.587   0.198  1.00  0.00    -0.014 A 
BRANCH  46  47
ATOM     47  C   UNL     1      13.319  -1.166   1.276  1.00  0.00     0.031 A 
ATOM     48  C   UNL     1      13.907  -2.542   1.130  1.00  0.00     0.074 A 
ATOM     49  C   UNL     1      13.531  -0.456   2.401  1.00  0.00     0.049 A 
ATOM     50  N   UNL     1      14.665  -3.209   1.965  1.00  0.00    -0.248 NA
ATOM     51  C   UNL     1      13.586  -3.274  -0.104  1.00  0.00     0.031 C 
ATOM     52  C   UNL     1      12.966   0.865   2.684  1.00  0.00     0.029 A 
ATOM     53  N   UNL     1      14.275  -0.745   3.517  1.00  0.00    -0.354 N 
ATOM     54  C   UNL     1      14.913  -4.432   1.355  1.00  0.00     0.074 A 
ATOM     55  C   UNL     1      14.173  -4.442   0.112  1.00  0.00     0.031 C 
ATOM     56  C   UNL     1      13.403   1.281   3.884  1.00  0.00     0.029 A 
ATOM     57  C   UNL     1      14.253   0.247   4.465  1.00  0.00     0.049 A 
ATOM     58  H   UNL     1      14.778  -1.585   3.627  1.00  0.00     0.167 HD
ATOM     59  C   UNL     1      15.710  -5.442   1.779  1.00  0.00     0.037 A 
ATOM     60  C   UNL     1      14.852   0.316   5.669  1.00  0.00     0.037 A 
ATOM     61  C   UNL     1      16.452  -5.428   3.013  1.00  0.00     0.049 A 
ATOM     62  C   UNL     1      15.735  -0.819   6.113  1.00  0.00     0.074 A 
ATOM     63  C   UNL     1      17.309  -6.390   3.519  1.00  0.00     0.029 A 
ATOM     64  N   UNL     1      16.426  -4.393   3.937  1.00  0.00    -0.354 N 
ATOM     65  N   UNL     1      16.013  -1.942   5.497  1.00  0.00    -0.248 NA
ATOM     66  C   UNL     1      16.402  -0.668   7.414  1.00  0.00     0.031 C 
ATOM     67  C   UNL     1      17.772  -5.955   4.765  1.00  0.00     0.029 A 
ATOM     68  C   UNL     1      17.242  -4.699   5.014  1.00  0.00     0.049 A 
ATOM     69  H   UNL     1      15.904  -3.563   3.841  1.00  0.00     0.167 HD
ATOM     70  C   UNL     1      16.901  -2.620   6.322  1.00  0.00     0.074 A 
ATOM     71  C   UNL     1      17.136  -1.770   7.470  1.00  0.00     0.031 C 
ATOM     72  C   UNL     1      17.466  -3.840   6.148  1.00  0.00     0.037 A 
BRANCH  59  73
ATOM     73  C   UNL     1      15.838  -6.645   0.889  1.00  0.00     0.064 A 
ATOM     74  C   UNL     1      16.529  -6.580  -0.331  1.00  0.00     0.173 A 
ATOM     75  C   UNL     1      15.308  -7.885   1.276  1.00  0.00     0.173 A 
ATOM     76  F   UNL     1      17.045  -5.415  -0.753  1.00  0.00    -0.203 F 
ATOM     77  C   UNL     1      16.664  -7.704  -1.141  1.00  0.00     0.198 A 
ATOM     78  C   UNL     1      15.470  -9.014   0.477  1.00  0.00     0.198 A 
ATOM     79  F   UNL     1      14.642  -8.005   2.434  1.00  0.00    -0.203 F 
ATOM     80  F   UNL     1      17.291  -7.606  -2.321  1.00  0.00    -0.200 F 
ATOM     81  C   UNL     1      16.142  -8.922  -0.732  1.00  0.00     0.200 A 
ATOM     82  F   UNL     1      14.977 -10.194   0.879  1.00  0.00    -0.200 F 
ATOM     83  F   UNL     1      16.283 -10.006  -1.508  1.00  0.00    -0.200 F 
ENDBRANCH  59  73
BRANCH  60  84
ATOM     84  C   UNL     1      14.654   1.510   6.532  1.00  0.00     0.064 A 
ATOM     85  C   UNL     1      15.706   2.401   6.788  1.00  0.00     0.173 A 
ATOM     86  C   UNL     1      13.414   1.775   7.131  1.00  0.00     0.173 A 
ATOM     87  F   UNL     1      16.916   2.180   6.253  1.00  0.00    -0.203 F 
ATOM     88  C   UNL     1      15.533   3.494   7.635  1.00  0.00     0.198 A 
ATOM     89  C   UNL     1      13.234   2.886   7.952  1.00  0.00     0.198 A 
ATOM     90  F   UNL     1      12.373   0.958   6.912  1.00  0.00    -0.203 F 
ATOM     91  F   UNL     1      16.570   4.298   7.906  1.00  0.00    -0.200 F 
ATOM     92  C   UNL     1      14.296   3.739   8.212  1.00  0.00     0.200 A 
ATOM     93  F   UNL     1      12.033   3.127   8.495  1.00  0.00    -0.200 F 
ATOM     94  F   UNL     1      14.130   4.790   9.025  1.00  0.00    -0.200 F 
ENDBRANCH  60  84
BRANCH  72  95
ATOM     95  C   UNL     1      18.414  -4.311   7.213  1.00  0.00     0.064 A 
ATOM     96  C   UNL     1      17.960  -4.689   8.486  1.00  0.00     0.173 A 
ATOM     97  C   UNL     1      19.789  -4.402   6.952  1.00  0.00     0.173 A 
ATOM     98  F   UNL     1      16.656  -4.606   8.790  1.00  0.00    -0.203 F 
ATOM     99  C   UNL     1      18.853  -5.107   9.468  1.00  0.00     0.198 A 
ATOM    100  C   UNL     1      20.675  -4.851   7.927  1.00  0.00     0.198 A 
ATOM    101  F   UNL     1      20.273  -4.060   5.748  1.00  0.00    -0.203 F 
ATOM    102  F   UNL     1      18.404  -5.408  10.694  1.00  0.00    -0.200 F 
ATOM    103  C   UNL     1      20.209  -5.193   9.187  1.00  0.00     0.200 A 
ATOM    104  F   UNL     1      21.983  -4.945   7.649  1.00  0.00    -0.200 F 
ATOM    105  F   UNL     1      21.067  -5.596  10.134  1.00  0.00    -0.200 F 
ENDBRANCH  72  95
ENDBRANCH  46  47
ENDBRANCH  38  41
ENDBRANCH  36  37
ENDBRANCH  35  36
ENDBRANCH  34  35
ENDBRANCH  33  34
ENDBRANCH   1  33
TORSDOF 18
