REMARK SMILES Cc1ccc(C(=O)NCCCCCCNC(=O)c2ccc(-c3c4nc(c(-c5c(F)c(F)c(F)c(F)c5F)c5ccc([nH]5)c(-c5c(F)c(F)c(F)c(F)c5F)c5nc(c(-c6c(F)c(F)c(F)c(F)c6F)c6ccc3[nH]6)C=C5)C=C4)cc2)c(Oc2cccc(F)c2C(N)=O)c1
REMARK SMILES IDX 11 1 10 2 9 3 8 4 6 5 7 6 5 8 1 9 2 10 3 11 93 12 4 13 81 14
REMARK SMILES IDX 82 15 83 16 84 17 89 18 85 19 87 20 86 21 88 22 90 23 91 24
REMARK SMILES IDX 92 25 12 28 13 29 14 30 15 31 16 32 17 34 18 35 19 36 80 37
REMARK SMILES IDX 20 38 79 39 21 40 22 41 23 42 73 43 24 44 78 45 72 46 74 47
REMARK SMILES IDX 25 48 77 49 71 50 70 51 26 53 58 54 38 55 57 56 39 57 42 58
REMARK SMILES IDX 56 59 75 60 40 61 41 62 55 64 76 65 43 66 27 67 28 68 36 69
REMARK SMILES IDX 29 70 30 71 34 72 37 73 31 74 32 75 35 76 33 77 59 78 60 79
REMARK SMILES IDX 68 80 61 81 62 82 66 83 69 84 63 85 64 86 67 87 65 88 44 89
REMARK SMILES IDX 45 90 53 91 46 92 47 93 51 94 54 95 48 96 49 97 52 98 50 99
REMARK H PARENT 8 7 91 26 91 27 15 33 74 52 42 63
REMARK Flexibility Score: inf
ROOT
ATOM      1  C   UNL     1      -6.010   3.467  -1.069  1.00  0.00     0.002 C 
ENDROOT
BRANCH   1   2
ATOM      2  C   UNL     1      -4.574   3.168  -1.504  1.00  0.00     0.021 C 
BRANCH   2   3
ATOM      3  C   UNL     1      -3.647   2.486  -0.505  1.00  0.00     0.116 C 
BRANCH   3   4
ATOM      4  N   UNL     1      -3.901   1.099  -0.230  1.00  0.00    -0.352 N 
ATOM      5  C   UNL     1      -3.059   0.076   0.150  1.00  0.00     0.255 C 
ATOM      6  O   UNL     1      -3.616  -0.971   0.494  1.00  0.00    -0.269 OA
ATOM      7  H   UNL     1      -4.843   0.832  -0.331  1.00  0.00     0.163 HD
BRANCH   5   8
ATOM      8  C   UNL     1      -1.554   0.087   0.108  1.00  0.00     0.082 A 
ATOM      9  C   UNL     1       2.755  -0.505   0.052  1.00  0.00     0.044 C 
ATOM     10  C   UNL     1       1.268  -0.309   0.077  1.00  0.00    -0.047 A 
ATOM     11  C   UNL     1       0.406  -1.363  -0.216  1.00  0.00     0.004 A 
ATOM     12  C   UNL     1       0.718   0.924   0.433  1.00  0.00     0.051 A 
ATOM     13  C   UNL     1      -0.980  -1.169  -0.189  1.00  0.00     0.018 A 
ATOM     14  C   UNL     1      -0.674   1.143   0.403  1.00  0.00     0.140 A 
BRANCH  14  15
ATOM     15  O   UNL     1      -1.169   2.358   0.782  1.00  0.00    -0.456 OA
BRANCH  15  16
ATOM     16  C   UNL     1      -0.591   3.548   0.380  1.00  0.00     0.143 A 
ATOM     17  C   UNL     1      -0.818   4.560   1.335  1.00  0.00     0.048 A 
ATOM     18  C   UNL     1       0.058   3.875  -0.825  1.00  0.00     0.117 A 
ATOM     19  C   UNL     1      -0.398   5.872   1.124  1.00  0.00     0.007 A 
ATOM     20  C   UNL     1       0.459   5.207  -1.023  1.00  0.00     0.139 A 
ATOM     21  C   UNL     1       0.238   6.196  -0.066  1.00  0.00     0.040 A 
ATOM     22  F   UNL     1       1.040   5.587  -2.172  1.00  0.00    -0.206 F 
BRANCH  18  23
ATOM     23  C   UNL     1       0.462   2.952  -1.911  1.00  0.00     0.255 C 
ATOM     24  N   UNL     1      -0.468   2.149  -2.502  1.00  0.00    -0.365 N 
ATOM     25  O   UNL     1       1.627   2.922  -2.295  1.00  0.00    -0.269 OA
ATOM     26  H   UNL     1      -1.403   2.171  -2.195  1.00  0.00     0.159 HD
ATOM     27  H   UNL     1      -0.204   1.547  -3.235  1.00  0.00     0.159 HD
ENDBRANCH  18  23
ENDBRANCH  15  16
ENDBRANCH  14  15
ENDBRANCH   5   8
ENDBRANCH   3   4
ENDBRANCH   2   3
ENDBRANCH   1   2
BRANCH   1  28
ATOM     28  C   UNL     1      -6.237   4.087   0.317  1.00  0.00     0.002 C 
BRANCH  28  29
ATOM     29  C   UNL     1      -5.332   5.242   0.745  1.00  0.00     0.021 C 
BRANCH  29  30
ATOM     30  C   UNL     1      -5.410   6.500  -0.105  1.00  0.00     0.116 C 
BRANCH  30  31
ATOM     31  N   UNL     1      -6.316   7.521   0.409  1.00  0.00    -0.352 N 
ATOM     32  C   UNL     1      -6.603   8.767  -0.126  1.00  0.00     0.251 C 
ATOM     33  H   UNL     1      -6.784   7.295   1.245  1.00  0.00     0.163 HD
ATOM     34  O   UNL     1      -7.395   9.518   0.417  1.00  0.00    -0.269 OA
BRANCH  32  35
ATOM     35  C   UNL     1      -6.019   9.121  -1.442  1.00  0.00     0.039 A 
ATOM     36  C   UNL     1      -6.890   9.487  -2.472  1.00  0.00     0.014 A 
ATOM     37  C   UNL     1      -4.673   8.876  -1.705  1.00  0.00     0.014 A 
ATOM     38  C   UNL     1      -6.466   9.362  -3.793  1.00  0.00     0.010 A 
ATOM     39  C   UNL     1      -4.281   8.656  -3.011  1.00  0.00     0.010 A 
ATOM     40  C   UNL     1      -5.200   8.831  -4.050  1.00  0.00    -0.014 A 
BRANCH  40  41
ATOM     41  C   UNL     1      -4.822   8.294  -5.351  1.00  0.00     0.031 A 
ATOM     42  C   UNL     1      -3.895   9.017  -6.240  1.00  0.00     0.074 A 
ATOM     43  C   UNL     1      -5.293   7.089  -5.745  1.00  0.00     0.049 A 
ATOM     44  N   UNL     1      -3.948   8.941  -7.529  1.00  0.00    -0.248 NA
ATOM     45  C   UNL     1      -2.843   9.901  -5.751  1.00  0.00     0.031 C 
ATOM     46  C   UNL     1      -4.848   6.300  -6.891  1.00  0.00     0.029 A 
ATOM     47  N   UNL     1      -6.442   6.423  -5.288  1.00  0.00    -0.354 N 
ATOM     48  C   UNL     1      -2.797   9.505  -8.015  1.00  0.00     0.074 A 
ATOM     49  C   UNL     1      -2.181  10.163  -6.883  1.00  0.00     0.031 C 
ATOM     50  C   UNL     1      -5.835   5.466  -7.251  1.00  0.00     0.029 A 
ATOM     51  C   UNL     1      -6.985   5.785  -6.427  1.00  0.00     0.049 A 
ATOM     52  H   UNL     1      -6.795   6.405  -4.369  1.00  0.00     0.167 HD
ATOM     53  C   UNL     1      -2.387   9.237  -9.285  1.00  0.00     0.037 A 
ATOM     54  C   UNL     1      -8.232   6.073  -6.894  1.00  0.00     0.037 A 
ATOM     55  C   UNL     1      -3.286   8.328  -9.982  1.00  0.00     0.049 A 
ATOM     56  C   UNL     1      -8.273   6.499  -8.340  1.00  0.00     0.074 A 
ATOM     57  C   UNL     1      -3.237   6.965 -10.231  1.00  0.00     0.029 A 
ATOM     58  N   UNL     1      -4.586   8.727 -10.272  1.00  0.00    -0.354 N 
ATOM     59  N   UNL     1      -7.241   6.946  -8.999  1.00  0.00    -0.248 NA
ATOM     60  C   UNL     1      -9.487   6.489  -9.147  1.00  0.00     0.031 C 
ATOM     61  C   UNL     1      -4.506   6.548 -10.695  1.00  0.00     0.029 A 
ATOM     62  C   UNL     1      -5.332   7.656 -10.727  1.00  0.00     0.049 A 
ATOM     63  H   UNL     1      -4.928   9.645 -10.168  1.00  0.00     0.167 HD
ATOM     64  C   UNL     1      -7.619   7.292 -10.276  1.00  0.00     0.074 A 
ATOM     65  C   UNL     1      -9.031   6.962 -10.320  1.00  0.00     0.031 C 
ATOM     66  C   UNL     1      -6.714   7.824 -11.157  1.00  0.00     0.037 A 
BRANCH  53  67
ATOM     67  C   UNL     1      -0.995   9.583  -9.738  1.00  0.00     0.064 A 
ATOM     68  C   UNL     1      -0.193   8.666 -10.444  1.00  0.00     0.173 A 
ATOM     69  C   UNL     1      -0.384  10.812  -9.429  1.00  0.00     0.173 A 
ATOM     70  F   UNL     1      -0.672   7.489 -10.861  1.00  0.00    -0.203 F 
ATOM     71  C   UNL     1       1.152   8.916 -10.723  1.00  0.00     0.198 A 
ATOM     72  C   UNL     1       0.974  11.043  -9.665  1.00  0.00     0.198 A 
ATOM     73  F   UNL     1      -1.094  11.809  -8.878  1.00  0.00    -0.203 F 
ATOM     74  F   UNL     1       1.876   7.998 -11.379  1.00  0.00    -0.200 F 
ATOM     75  C   UNL     1       1.745  10.089 -10.301  1.00  0.00     0.200 A 
ATOM     76  F   UNL     1       1.536  12.187  -9.251  1.00  0.00    -0.200 F 
ATOM     77  F   UNL     1       3.051  10.300 -10.512  1.00  0.00    -0.200 F 
ENDBRANCH  53  67
BRANCH  54  78
ATOM     78  C   UNL     1      -9.162   6.549  -5.838  1.00  0.00     0.064 A 
ATOM     79  C   UNL     1      -9.466   5.680  -4.772  1.00  0.00     0.173 A 
ATOM     80  C   UNL     1      -9.439   7.909  -5.666  1.00  0.00     0.173 A 
ATOM     81  F   UNL     1      -9.213   4.366  -4.884  1.00  0.00    -0.203 F 
ATOM     82  C   UNL     1      -9.913   6.167  -3.546  1.00  0.00     0.198 A 
ATOM     83  C   UNL     1      -9.903   8.392  -4.440  1.00  0.00     0.198 A 
ATOM     84  F   UNL     1      -9.153   8.788  -6.637  1.00  0.00    -0.203 F 
ATOM     85  F   UNL     1     -10.077   5.328  -2.513  1.00  0.00    -0.200 F 
ATOM     86  C   UNL     1     -10.106   7.527  -3.374  1.00  0.00     0.200 A 
ATOM     87  F   UNL     1     -10.061   9.711  -4.262  1.00  0.00    -0.200 F 
ATOM     88  F   UNL     1     -10.444   8.009  -2.170  1.00  0.00    -0.200 F 
ENDBRANCH  54  78
BRANCH  66  89
ATOM     89  C   UNL     1      -6.956   8.447 -12.527  1.00  0.00     0.064 A 
ATOM     90  C   UNL     1      -8.207   8.820 -13.045  1.00  0.00     0.173 A 
ATOM     91  C   UNL     1      -5.852   8.797 -13.357  1.00  0.00     0.173 A 
ATOM     92  F   UNL     1      -9.335   8.663 -12.347  1.00  0.00    -0.203 F 
ATOM     93  C   UNL     1      -8.348   9.435 -14.297  1.00  0.00     0.198 A 
ATOM     94  C   UNL     1      -5.992   9.460 -14.576  1.00  0.00     0.198 A 
ATOM     95  F   UNL     1      -4.585   8.533 -13.006  1.00  0.00    -0.203 F 
ATOM     96  F   UNL     1      -9.574   9.731 -14.752  1.00  0.00    -0.200 F 
ATOM     97  C   UNL     1      -7.243   9.767 -15.056  1.00  0.00     0.200 A 
ATOM     98  F   UNL     1      -4.900   9.812 -15.270  1.00  0.00    -0.200 F 
ATOM     99  F   UNL     1      -7.384  10.397 -16.229  1.00  0.00    -0.200 F 
ENDBRANCH  66  89
ENDBRANCH  40  41
ENDBRANCH  32  35
ENDBRANCH  30  31
ENDBRANCH  29  30
ENDBRANCH  28  29
ENDBRANCH   1  28
TORSDOF 16
