REMARK SMILES CS(=O)(=O)c1ccc(/C=C(/C(=O)NCCCCCCNC(=O)c2ccc(-c3c4nc(c(-c5c(F)c(F)c(F)c(F)c5F)c5ccc([nH]5)c(-c5c(F)c(F)c(F)c(F)c5F)c5nc(c(-c6c(F)c(F)c(F)c(F)c6F)c6ccc3[nH]6)C=C5)C=C4)cc2)c2cccc(-c3ccc(S(C)(=O)=O)cc3)c2)cc1
REMARK SMILES IDX 16 1 15 2 14 3 13 4 11 5 12 6 10 8 9 9 8 10 5 11 6 12 103 13
REMARK SMILES IDX 7 14 102 15 2 16 1 17 3 18 4 19 86 20 87 21 101 22 88 23
REMARK SMILES IDX 90 24 89 25 91 26 92 27 100 28 93 29 99 30 94 31 95 32 96 33
REMARK SMILES IDX 97 34 98 35 17 36 18 37 19 38 20 39 21 40 22 42 23 43 24 44
REMARK SMILES IDX 85 45 25 46 84 47 26 48 27 49 28 50 78 51 29 52 83 53 77 54
REMARK SMILES IDX 79 55 30 56 82 57 76 58 75 59 31 61 63 62 43 63 62 64 44 65
REMARK SMILES IDX 47 66 61 67 80 68 45 69 46 70 60 72 81 73 48 74 32 75 33 76
REMARK SMILES IDX 41 77 34 78 35 79 39 80 42 81 36 82 37 83 40 84 38 85 64 86
REMARK SMILES IDX 65 87 73 88 66 89 67 90 71 91 74 92 68 93 69 94 72 95 70 96
REMARK SMILES IDX 49 97 50 98 58 99 51 100 52 101 56 102 59 103 53 104 54 105
REMARK SMILES IDX 57 106 55 107
REMARK H PARENT 13 7 20 41 79 60 47 71
REMARK Flexibility Score: inf
ROOT
ATOM      1  C   UNL     1       5.199  -7.589  -7.114  1.00  0.00     0.002 C 
ENDROOT
BRANCH   1   2
ATOM      2  C   UNL     1       4.661  -6.678  -5.998  1.00  0.00     0.021 C 
BRANCH   2   3
ATOM      3  C   UNL     1       3.138  -6.524  -6.033  1.00  0.00     0.116 C 
BRANCH   3   4
ATOM      4  N   UNL     1       2.529  -7.753  -5.575  1.00  0.00    -0.352 N 
ATOM      5  C   UNL     1       1.971  -8.158  -4.407  1.00  0.00     0.251 C 
ATOM      6  O   UNL     1       1.681  -9.356  -4.348  1.00  0.00    -0.269 OA
ATOM      7  H   UNL     1       2.515  -8.453  -6.267  1.00  0.00     0.163 HD
BRANCH   5   8
ATOM      8  C   UNL     1       1.608  -7.221  -3.274  1.00  0.00     0.047 C 
ATOM      9  C   UNL     1       2.322  -6.109  -2.973  1.00  0.00     0.022 C 
BRANCH   9  10
ATOM     10  C   UNL     1       2.000  -5.010  -2.026  1.00  0.00    -0.025 A 
ATOM     11  C   UNL     1       1.141  -2.828  -0.466  1.00  0.00     0.067 A 
ATOM     12  C   UNL     1       1.040  -4.130   0.028  1.00  0.00     0.021 A 
ATOM     13  C   UNL     1       1.739  -2.594  -1.702  1.00  0.00     0.021 A 
ATOM     14  C   UNL     1       1.502  -5.207  -0.734  1.00  0.00     0.009 A 
ATOM     15  C   UNL     1       2.159  -3.686  -2.477  1.00  0.00     0.009 A 
BRANCH  11  16
ATOM     16  S   UNL     1       0.465  -1.525   0.536  1.00  0.00     0.175 S 
ATOM     17  C   UNL     1       1.116   0.008  -0.059  1.00  0.00     0.163 C 
ATOM     18  O   UNL     1       0.995  -1.721   1.873  1.00  0.00    -0.224 OA
ATOM     19  O   UNL     1      -0.963  -1.524   0.286  1.00  0.00    -0.224 OA
ENDBRANCH  11  16
ENDBRANCH   9  10
BRANCH   8  20
ATOM     20  C   UNL     1       0.504  -7.676  -2.387  1.00  0.00    -0.012 A 
ATOM     21  C   UNL     1       0.699  -8.838  -1.623  1.00  0.00     0.009 A 
ATOM     22  C   UNL     1      -0.659  -6.921  -2.189  1.00  0.00     0.017 A 
ATOM     23  C   UNL     1      -0.228  -9.222  -0.659  1.00  0.00     0.001 A 
ATOM     24  C   UNL     1      -1.565  -7.250  -1.163  1.00  0.00    -0.018 A 
ATOM     25  C   UNL     1      -1.341  -8.421  -0.419  1.00  0.00     0.009 A 
BRANCH  24  26
ATOM     26  C   UNL     1      -2.651  -6.326  -0.803  1.00  0.00    -0.018 A 
ATOM     27  C   UNL     1      -2.768  -5.854   0.519  1.00  0.00     0.010 A 
ATOM     28  C   UNL     1      -3.554  -5.848  -1.765  1.00  0.00     0.010 A 
ATOM     29  C   UNL     1      -3.760  -4.939   0.874  1.00  0.00     0.021 A 
ATOM     30  C   UNL     1      -4.555  -4.936  -1.418  1.00  0.00     0.021 A 
ATOM     31  C   UNL     1      -4.657  -4.496  -0.097  1.00  0.00     0.067 A 
BRANCH  31  32
ATOM     32  S   UNL     1      -5.939  -3.359   0.367  1.00  0.00     0.175 S 
ATOM     33  C   UNL     1      -6.959  -4.312   1.461  1.00  0.00     0.163 C 
ATOM     34  O   UNL     1      -5.325  -2.295   1.132  1.00  0.00    -0.224 OA
ATOM     35  O   UNL     1      -6.727  -3.071  -0.820  1.00  0.00    -0.224 OA
ENDBRANCH  31  32
ENDBRANCH  24  26
ENDBRANCH   8  20
ENDBRANCH   5   8
ENDBRANCH   3   4
ENDBRANCH   2   3
ENDBRANCH   1   2
BRANCH   1  36
ATOM     36  C   UNL     1       4.881  -7.115  -8.537  1.00  0.00     0.002 C 
BRANCH  36  37
ATOM     37  C   UNL     1       5.300  -5.674  -8.833  1.00  0.00     0.021 C 
BRANCH  37  38
ATOM     38  C   UNL     1       6.796  -5.425  -8.680  1.00  0.00     0.116 C 
BRANCH  38  39
ATOM     39  N   UNL     1       7.565  -6.177  -9.659  1.00  0.00    -0.352 N 
ATOM     40  C   UNL     1       8.438  -5.717 -10.611  1.00  0.00     0.251 C 
ATOM     41  H   UNL     1       7.441  -7.154  -9.635  1.00  0.00     0.163 HD
ATOM     42  O   UNL     1       8.814  -6.452 -11.517  1.00  0.00    -0.269 OA
BRANCH  40  43
ATOM     43  C   UNL     1       8.916  -4.321 -10.545  1.00  0.00     0.039 A 
ATOM     44  C   UNL     1       8.970  -3.567 -11.718  1.00  0.00     0.014 A 
ATOM     45  C   UNL     1       9.316  -3.764  -9.327  1.00  0.00     0.014 A 
ATOM     46  C   UNL     1       9.378  -2.234 -11.661  1.00  0.00     0.010 A 
ATOM     47  C   UNL     1       9.643  -2.414  -9.259  1.00  0.00     0.010 A 
ATOM     48  C   UNL     1       9.687  -1.638 -10.427  1.00  0.00    -0.014 A 
BRANCH  48  49
ATOM     49  C   UNL     1      10.069  -0.206 -10.340  1.00  0.00     0.031 A 
ATOM     50  C   UNL     1      11.438   0.181  -9.856  1.00  0.00     0.074 A 
ATOM     51  C   UNL     1       9.164   0.743 -10.645  1.00  0.00     0.049 A 
ATOM     52  N   UNL     1      11.940   1.374  -9.657  1.00  0.00    -0.248 NA
ATOM     53  C   UNL     1      12.359  -0.919  -9.525  1.00  0.00     0.031 C 
ATOM     54  C   UNL     1       7.790   0.491 -11.085  1.00  0.00     0.029 A 
ATOM     55  N   UNL     1       9.260   2.112 -10.624  1.00  0.00    -0.354 N 
ATOM     56  C   UNL     1      13.224   1.167  -9.171  1.00  0.00     0.074 A 
ATOM     57  C   UNL     1      13.404  -0.263  -9.044  1.00  0.00     0.031 C 
ATOM     58  C   UNL     1       7.182   1.664 -11.319  1.00  0.00     0.029 A 
ATOM     59  C   UNL     1       8.105   2.751 -11.004  1.00  0.00     0.049 A 
ATOM     60  H   UNL     1      10.079   2.591 -10.362  1.00  0.00     0.167 HD
ATOM     61  C   UNL     1      14.177   2.086  -8.882  1.00  0.00     0.037 A 
ATOM     62  C   UNL     1       7.820   4.064 -11.079  1.00  0.00     0.037 A 
ATOM     63  C   UNL     1      13.996   3.507  -9.026  1.00  0.00     0.049 A 
ATOM     64  C   UNL     1       8.888   5.065 -10.726  1.00  0.00     0.074 A 
ATOM     65  C   UNL     1      14.914   4.519  -8.811  1.00  0.00     0.029 A 
ATOM     66  N   UNL     1      12.812   4.117  -9.415  1.00  0.00    -0.354 N 
ATOM     67  N   UNL     1      10.122   4.858 -10.335  1.00  0.00    -0.248 NA
ATOM     68  C   UNL     1       8.524   6.485 -10.830  1.00  0.00     0.031 C 
ATOM     69  C   UNL     1      14.269   5.744  -9.011  1.00  0.00     0.029 A 
ATOM     70  C   UNL     1      12.968   5.494  -9.415  1.00  0.00     0.049 A 
ATOM     71  H   UNL     1      11.983   3.642  -9.655  1.00  0.00     0.167 HD
ATOM     72  C   UNL     1      10.690   6.115 -10.178  1.00  0.00     0.074 A 
ATOM     73  C   UNL     1       9.669   7.080 -10.532  1.00  0.00     0.031 C 
ATOM     74  C   UNL     1      11.943   6.442  -9.776  1.00  0.00     0.037 A 
BRANCH  61  75
ATOM     75  C   UNL     1      15.499   1.582  -8.378  1.00  0.00     0.064 A 
ATOM     76  C   UNL     1      16.375   0.855  -9.200  1.00  0.00     0.173 A 
ATOM     77  C   UNL     1      15.913   1.856  -7.066  1.00  0.00     0.173 A 
ATOM     78  F   UNL     1      16.026   0.555 -10.461  1.00  0.00    -0.203 F 
ATOM     79  C   UNL     1      17.597   0.394  -8.717  1.00  0.00     0.198 A 
ATOM     80  C   UNL     1      17.151   1.424  -6.597  1.00  0.00     0.198 A 
ATOM     81  F   UNL     1      15.119   2.551  -6.237  1.00  0.00    -0.203 F 
ATOM     82  F   UNL     1      18.390  -0.347  -9.505  1.00  0.00    -0.200 F 
ATOM     83  C   UNL     1      17.988   0.685  -7.420  1.00  0.00     0.200 A 
ATOM     84  F   UNL     1      17.533   1.720  -5.347  1.00  0.00    -0.200 F 
ATOM     85  F   UNL     1      19.167   0.247  -6.959  1.00  0.00    -0.200 F 
ENDBRANCH  61  75
BRANCH  62  86
ATOM     86  C   UNL     1       6.473   4.510 -11.524  1.00  0.00     0.064 A 
ATOM     87  C   UNL     1       6.301   5.180 -12.743  1.00  0.00     0.173 A 
ATOM     88  C   UNL     1       5.333   4.287 -10.737  1.00  0.00     0.173 A 
ATOM     89  F   UNL     1       7.362   5.434 -13.523  1.00  0.00    -0.203 F 
ATOM     90  C   UNL     1       5.046   5.631 -13.147  1.00  0.00     0.198 A 
ATOM     91  C   UNL     1       4.074   4.709 -11.157  1.00  0.00     0.198 A 
ATOM     92  F   UNL     1       5.440   3.646  -9.564  1.00  0.00    -0.203 F 
ATOM     93  F   UNL     1       4.919   6.315 -14.293  1.00  0.00    -0.200 F 
ATOM     94  C   UNL     1       3.932   5.390 -12.357  1.00  0.00     0.200 A 
ATOM     95  F   UNL     1       2.998   4.458 -10.398  1.00  0.00    -0.200 F 
ATOM     96  F   UNL     1       2.725   5.821 -12.747  1.00  0.00    -0.200 F 
ENDBRANCH  62  86
BRANCH  74  97
ATOM     97  C   UNL     1      12.295   7.902  -9.733  1.00  0.00     0.064 A 
ATOM     98  C   UNL     1      11.744   8.768  -8.777  1.00  0.00     0.173 A 
ATOM     99  C   UNL     1      13.229   8.433 -10.637  1.00  0.00     0.173 A 
ATOM    100  F   UNL     1      10.836   8.315  -7.899  1.00  0.00    -0.203 F 
ATOM    101  C   UNL     1      12.092  10.116  -8.747  1.00  0.00     0.198 A 
ATOM    102  C   UNL     1      13.601   9.772 -10.581  1.00  0.00     0.198 A 
ATOM    103  F   UNL     1      13.792   7.647 -11.567  1.00  0.00    -0.203 F 
ATOM    104  F   UNL     1      11.511  10.936  -7.860  1.00  0.00    -0.200 F 
ATOM    105  C   UNL     1      13.026  10.615  -9.642  1.00  0.00     0.200 A 
ATOM    106  F   UNL     1      14.518  10.248 -11.436  1.00  0.00    -0.200 F 
ATOM    107  F   UNL     1      13.367  11.910  -9.605  1.00  0.00    -0.200 F 
ENDBRANCH  74  97
ENDBRANCH  48  49
ENDBRANCH  40  43
ENDBRANCH  38  39
ENDBRANCH  37  38
ENDBRANCH  36  37
ENDBRANCH   1  36
TORSDOF 18
