REMARK SMILES C[C@@H]1[C@H](C(=O)NCCCCCCNC(=O)c2ccc(-c3c4nc(c(-c5c(F)c(F)c(F)c(F)c5F)c5ccc([nH]5)c(-c5c(F)c(F)c(F)c(F)c5F)c5nc(c(-c6c(F)c(F)c(F)c(F)c6F)c6ccc3[nH]6)C=C5)C=C4)cc2)CCN1C(=O)COCc1ccccc1
REMARK SMILES IDX 8 1 7 2 6 3 4 4 5 5 3 7 1 8 2 9 81 10 79 11 80 12 82 13
REMARK SMILES IDX 83 14 84 15 85 16 86 17 87 18 88 19 92 20 89 21 91 22 90 23
REMARK SMILES IDX 9 24 10 25 11 26 12 27 13 28 14 29 15 31 16 32 17 33 78 34
REMARK SMILES IDX 18 35 77 36 19 37 20 38 21 39 71 40 22 41 76 42 70 43 72 44
REMARK SMILES IDX 23 45 75 46 69 47 68 48 24 50 56 51 36 52 55 53 37 54 40 55
REMARK SMILES IDX 54 56 73 57 38 58 39 59 53 61 74 62 41 63 25 64 26 65 34 66
REMARK SMILES IDX 27 67 28 68 32 69 35 70 29 71 30 72 33 73 31 74 57 75 58 76
REMARK SMILES IDX 66 77 59 78 60 79 64 80 67 81 61 82 62 83 65 84 63 85 42 86
REMARK SMILES IDX 43 87 51 88 44 89 45 90 49 91 52 92 46 93 47 94 50 95 48 96
REMARK H PARENT 6 6 13 30 72 49 40 60
REMARK Flexibility Score: inf
ROOT
ATOM      1  C   UNL     1       2.821   1.596   2.505  1.00  0.00     0.021 C 
ENDROOT
BRANCH   1   2
ATOM      2  C   UNL     1       1.351   1.814   2.141  1.00  0.00     0.116 C 
BRANCH   2   3
ATOM      3  N   UNL     1       1.215   2.647   0.961  1.00  0.00    -0.356 N 
ATOM      4  C   UNL     1       0.650   2.419  -0.253  1.00  0.00     0.225 C 
ATOM      5  O   UNL     1       0.787   3.304  -1.105  1.00  0.00    -0.275 OA
ATOM      6  H   UNL     1       1.605   3.545   1.058  1.00  0.00     0.163 HD
BRANCH   4   7
ATOM      7  C   UNL     1      -0.124   1.158  -0.604  1.00  0.00     0.102 C 
ATOM      8  C   UNL     1       2.079  -0.218  -0.302  1.00  0.00     0.032 C 
ATOM      9  C   UNL     1       0.655  -0.157  -0.839  1.00  0.00     0.094 C 
ATOM     10  N   UNL     1      -0.239  -1.203  -0.307  1.00  0.00    -0.337 N 
ATOM     11  C   UNL     1      -1.276   0.825   0.343  1.00  0.00     0.037 C 
ATOM     12  C   UNL     1      -1.509  -0.654   0.130  1.00  0.00     0.121 C 
BRANCH  10  13
ATOM     13  C   UNL     1      -0.128  -2.578  -0.416  1.00  0.00     0.248 C 
ATOM     14  O   UNL     1      -1.045  -3.324  -0.061  1.00  0.00    -0.272 OA
BRANCH  13  15
ATOM     15  C   UNL     1       1.179  -3.174  -0.948  1.00  0.00     0.260 C 
BRANCH  15  16
ATOM     16  O   UNL     1       1.633  -2.721  -2.216  1.00  0.00    -0.367 OA
BRANCH  16  17
ATOM     17  C   UNL     1       0.767  -3.078  -3.297  1.00  0.00     0.196 C 
BRANCH  17  18
ATOM     18  C   UNL     1       0.730  -4.568  -3.504  1.00  0.00    -0.022 A 
ATOM     19  C   UNL     1      -0.485  -5.262  -3.451  1.00  0.00     0.006 A 
ATOM     20  C   UNL     1       1.922  -5.285  -3.683  1.00  0.00     0.006 A 
ATOM     21  C   UNL     1      -0.504  -6.653  -3.546  1.00  0.00     0.000 A 
ATOM     22  C   UNL     1       1.901  -6.676  -3.772  1.00  0.00     0.000 A 
ATOM     23  C   UNL     1       0.689  -7.359  -3.699  1.00  0.00     0.000 A 
ENDBRANCH  17  18
ENDBRANCH  16  17
ENDBRANCH  15  16
ENDBRANCH  13  15
ENDBRANCH  10  13
ENDBRANCH   4   7
ENDBRANCH   2   3
ENDBRANCH   1   2
BRANCH   1  24
ATOM     24  C   UNL     1       3.513   2.802   3.143  1.00  0.00     0.002 C 
BRANCH  24  25
ATOM     25  C   UNL     1       2.955   3.232   4.502  1.00  0.00     0.002 C 
BRANCH  25  26
ATOM     26  C   UNL     1       2.834   2.123   5.549  1.00  0.00     0.021 C 
BRANCH  26  27
ATOM     27  C   UNL     1       4.103   1.311   5.796  1.00  0.00     0.116 C 
BRANCH  27  28
ATOM     28  N   UNL     1       5.206   2.132   6.260  1.00  0.00    -0.352 N 
ATOM     29  C   UNL     1       5.985   2.003   7.381  1.00  0.00     0.251 C 
ATOM     30  H   UNL     1       5.429   2.897   5.682  1.00  0.00     0.163 HD
ATOM     31  O   UNL     1       6.766   2.897   7.691  1.00  0.00    -0.269 OA
BRANCH  29  32
ATOM     32  C   UNL     1       5.878   0.798   8.233  1.00  0.00     0.039 A 
ATOM     33  C   UNL     1       5.855   0.964   9.620  1.00  0.00     0.014 A 
ATOM     34  C   UNL     1       5.848  -0.486   7.680  1.00  0.00     0.014 A 
ATOM     35  C   UNL     1       5.761  -0.153  10.452  1.00  0.00     0.010 A 
ATOM     36  C   UNL     1       5.691  -1.596   8.508  1.00  0.00     0.010 A 
ATOM     37  C   UNL     1       5.659  -1.441   9.902  1.00  0.00    -0.014 A 
BRANCH  37  38
ATOM     38  C   UNL     1       5.544  -2.632  10.781  1.00  0.00     0.031 A 
ATOM     39  C   UNL     1       6.660  -3.637  10.844  1.00  0.00     0.074 A 
ATOM     40  C   UNL     1       4.420  -2.826  11.496  1.00  0.00     0.049 A 
ATOM     41  N   UNL     1       6.737  -4.746  11.536  1.00  0.00    -0.248 NA
ATOM     42  C   UNL     1       7.836  -3.374  10.001  1.00  0.00     0.031 C 
ATOM     43  C   UNL     1       3.249  -1.947  11.484  1.00  0.00     0.029 A 
ATOM     44  N   UNL     1       4.076  -3.827  12.370  1.00  0.00    -0.354 N 
ATOM     45  C   UNL     1       7.960  -5.315  11.204  1.00  0.00     0.074 A 
ATOM     46  C   UNL     1       8.570  -4.457  10.211  1.00  0.00     0.031 C 
ATOM     47  C   UNL     1       2.326  -2.434  12.329  1.00  0.00     0.029 A 
ATOM     48  C   UNL     1       2.828  -3.672  12.921  1.00  0.00     0.049 A 
ATOM     49  H   UNL     1       4.668  -4.584  12.582  1.00  0.00     0.167 HD
ATOM     50  C   UNL     1       8.534  -6.437  11.701  1.00  0.00     0.037 A 
ATOM     51  C   UNL     1       2.164  -4.441  13.805  1.00  0.00     0.037 A 
ATOM     52  C   UNL     1       7.939  -7.273  12.710  1.00  0.00     0.049 A 
ATOM     53  C   UNL     1       2.827  -5.678  14.346  1.00  0.00     0.074 A 
ATOM     54  C   UNL     1       8.468  -8.395  13.324  1.00  0.00     0.029 A 
ATOM     55  N   UNL     1       6.678  -7.076  13.254  1.00  0.00    -0.354 N 
ATOM     56  N   UNL     1       4.014  -6.166  14.078  1.00  0.00    -0.248 NA
ATOM     57  C   UNL     1       2.060  -6.467  15.321  1.00  0.00     0.031 C 
ATOM     58  C   UNL     1       7.511  -8.900  14.211  1.00  0.00     0.029 A 
ATOM     59  C   UNL     1       6.404  -8.068  14.182  1.00  0.00     0.049 A 
ATOM     60  H   UNL     1       6.069  -6.341  13.016  1.00  0.00     0.167 HD
ATOM     61  C   UNL     1       4.146  -7.302  14.865  1.00  0.00     0.074 A 
ATOM     62  C   UNL     1       2.925  -7.422  15.634  1.00  0.00     0.031 C 
ATOM     63  C   UNL     1       5.184  -8.170  14.941  1.00  0.00     0.037 A 
BRANCH  50  64
ATOM     64  C   UNL     1       9.881  -6.822  11.164  1.00  0.00     0.064 A 
ATOM     65  C   UNL     1      11.034  -6.086  11.479  1.00  0.00     0.173 A 
ATOM     66  C   UNL     1      10.028  -7.959  10.355  1.00  0.00     0.173 A 
ATOM     67  F   UNL     1      10.945  -4.984  12.239  1.00  0.00    -0.203 F 
ATOM     68  C   UNL     1      12.280  -6.459  10.981  1.00  0.00     0.198 A 
ATOM     69  C   UNL     1      11.280  -8.344   9.882  1.00  0.00     0.198 A 
ATOM     70  F   UNL     1       8.959  -8.700  10.029  1.00  0.00    -0.203 F 
ATOM     71  F   UNL     1      13.360  -5.714  11.257  1.00  0.00    -0.200 F 
ATOM     72  C   UNL     1      12.403  -7.590  10.189  1.00  0.00     0.200 A 
ATOM     73  F   UNL     1      11.400  -9.444   9.126  1.00  0.00    -0.200 F 
ATOM     74  F   UNL     1      13.604  -7.951   9.716  1.00  0.00    -0.200 F 
ENDBRANCH  50  64
BRANCH  51  75
ATOM     75  C   UNL     1       0.807  -4.044  14.260  1.00  0.00     0.064 A 
ATOM     76  C   UNL     1       0.594  -3.584  15.567  1.00  0.00     0.173 A 
ATOM     77  C   UNL     1      -0.300  -4.119  13.404  1.00  0.00     0.173 A 
ATOM     78  F   UNL     1       1.619  -3.515  16.428  1.00  0.00    -0.203 F 
ATOM     79  C   UNL     1      -0.680  -3.231  16.006  1.00  0.00     0.198 A 
ATOM     80  C   UNL     1      -1.570  -3.741  13.836  1.00  0.00     0.198 A 
ATOM     81  F   UNL     1      -0.147  -4.548  12.143  1.00  0.00    -0.203 F 
ATOM     82  F   UNL     1      -0.864  -2.834  17.272  1.00  0.00    -0.200 F 
ATOM     83  C   UNL     1      -1.760  -3.304  15.138  1.00  0.00     0.200 A 
ATOM     84  F   UNL     1      -2.608  -3.801  12.991  1.00  0.00    -0.200 F 
ATOM     85  F   UNL     1      -2.985  -2.961  15.560  1.00  0.00    -0.200 F 
ENDBRANCH  51  75
BRANCH  63  86
ATOM     86  C   UNL     1       5.054  -9.311  15.906  1.00  0.00     0.064 A 
ATOM     87  C   UNL     1       4.200 -10.393  15.650  1.00  0.00     0.173 A 
ATOM     88  C   UNL     1       5.817  -9.337  17.083  1.00  0.00     0.173 A 
ATOM     89  F   UNL     1       3.439 -10.406  14.545  1.00  0.00    -0.203 F 
ATOM     90  C   UNL     1       4.097 -11.451  16.549  1.00  0.00     0.198 A 
ATOM     91  C   UNL     1       5.731 -10.409  17.967  1.00  0.00     0.198 A 
ATOM     92  F   UNL     1       6.652  -8.328  17.371  1.00  0.00    -0.203 F 
ATOM     93  F   UNL     1       3.242 -12.453  16.307  1.00  0.00    -0.200 F 
ATOM     94  C   UNL     1       4.867 -11.461  17.703  1.00  0.00     0.200 A 
ATOM     95  F   UNL     1       6.484 -10.423  19.076  1.00  0.00    -0.200 F 
ATOM     96  F   UNL     1       4.770 -12.482  18.566  1.00  0.00    -0.200 F 
ENDBRANCH  63  86
ENDBRANCH  37  38
ENDBRANCH  29  32
ENDBRANCH  27  28
ENDBRANCH  26  27
ENDBRANCH  25  26
ENDBRANCH  24  25
ENDBRANCH   1  24
TORSDOF 18
