REMARK SMILES O=C(C[NH+]1CCN(c2ncc(C(F)(F)F)cc2Cl)CC1)NCCCCCCNC(=O)c1ccc(-c2c3nc(c(-c4c(F)c(F)c(F)c(F)c4F)c4ccc([nH]4)c(-c4c(F)c(F)c(F)c(F)c4F)c4nc(c(-c5c(F)c(F)c(F)c(F)c5F)c5ccc2[nH]5)C=C4)C=C3)cc1
REMARK SMILES IDX 24 1 23 2 22 3 21 4 1 5 2 6 3 8 4 9 5 10 20 11 6 13 19 14
REMARK SMILES IDX 7 15 8 16 9 17 17 18 10 19 16 20 18 21 11 22 12 23 13 24
REMARK SMILES IDX 14 25 15 26 25 27 26 28 27 29 28 30 29 31 30 33 31 34 32 35
REMARK SMILES IDX 93 36 33 37 92 38 34 39 35 40 36 41 86 42 37 43 91 44 85 45
REMARK SMILES IDX 87 46 38 47 90 48 84 49 83 50 39 52 71 53 51 54 70 55 52 56
REMARK SMILES IDX 55 57 69 58 88 59 53 60 54 61 68 63 89 64 56 65 40 66 41 67
REMARK SMILES IDX 49 68 42 69 43 70 47 71 50 72 44 73 45 74 48 75 46 76 72 77
REMARK SMILES IDX 73 78 81 79 74 80 75 81 79 82 82 83 76 84 77 85 80 86 78 87
REMARK SMILES IDX 57 88 58 89 66 90 59 91 60 92 64 93 67 94 61 95 62 96 65 97
REMARK SMILES IDX 63 98
REMARK H PARENT 21 7 4 12 28 32 87 51 55 62
REMARK Flexibility Score: inf
ROOT
ATOM      1  C   UNL     1       3.657  -0.009   3.935  1.00  0.00     0.002 C 
ENDROOT
BRANCH   1   2
ATOM      2  C   UNL     1       2.201  -0.406   3.672  1.00  0.00     0.021 C 
BRANCH   2   3
ATOM      3  C   UNL     1       1.602   0.222   2.417  1.00  0.00     0.116 C 
BRANCH   3   4
ATOM      4  N   UNL     1       2.268  -0.229   1.214  1.00  0.00    -0.351 N 
ATOM      5  O   UNL     1       0.927   0.973  -0.200  1.00  0.00    -0.269 OA
ATOM      6  C   UNL     1       1.867   0.201  -0.032  1.00  0.00     0.275 C 
ATOM      7  H   UNL     1       3.023  -0.856   1.287  1.00  0.00     0.163 HD
BRANCH   6   8
ATOM      8  C   UNL     1       2.689  -0.374  -1.184  1.00  0.00     0.363 C 
BRANCH   8   9
ATOM      9  N   UNL     1       3.916   0.357  -1.531  1.00  0.00    -0.324 N 
ATOM     10  C   UNL     1       4.140   1.696  -0.959  1.00  0.00     0.284 C 
ATOM     11  C   UNL     1       5.145  -0.451  -1.505  1.00  0.00     0.284 C 
ATOM     12  H   UNL     1       3.686   0.566  -2.502  1.00  0.00     0.348 HD
ATOM     13  C   UNL     1       4.938   1.755   0.374  1.00  0.00     0.179 C 
ATOM     14  C   UNL     1       5.864  -0.479  -0.140  1.00  0.00     0.179 C 
ATOM     15  N   UNL     1       6.128   0.893   0.306  1.00  0.00    -0.344 N 
BRANCH  15  16
ATOM     16  C   UNL     1       7.101   1.058   1.287  1.00  0.00     0.147 A 
ATOM     17  N   UNL     1       6.696   1.463   2.515  1.00  0.00    -0.237 NA
ATOM     18  C   UNL     1       8.467   0.829   1.039  1.00  0.00     0.084 A 
ATOM     19  C   UNL     1       7.621   1.609   3.499  1.00  0.00     0.126 A 
ATOM     20  C   UNL     1       9.398   0.979   2.072  1.00  0.00     0.039 A 
ATOM     21  Cl  UNL     1       9.084   0.439  -0.530  1.00  0.00    -0.080 Cl
ATOM     22  C   UNL     1       8.972   1.374   3.339  1.00  0.00     0.075 A 
BRANCH  22  23
ATOM     23  C   UNL     1       9.899   1.535   4.503  1.00  0.00     0.417 C 
ATOM     24  F   UNL     1       9.710   2.707   5.166  1.00  0.00    -0.166 F 
ATOM     25  F   UNL     1       9.745   0.545   5.422  1.00  0.00    -0.166 F 
ATOM     26  F   UNL     1      11.213   1.514   4.148  1.00  0.00    -0.166 F 
ENDBRANCH  22  23
ENDBRANCH  15  16
ENDBRANCH   8   9
ENDBRANCH   6   8
ENDBRANCH   3   4
ENDBRANCH   2   3
ENDBRANCH   1   2
BRANCH   1  27
ATOM     27  C   UNL     1       3.866   1.475   4.246  1.00  0.00     0.002 C 
BRANCH  27  28
ATOM     28  C   UNL     1       3.242   1.976   5.542  1.00  0.00     0.021 C 
BRANCH  28  29
ATOM     29  C   UNL     1       3.637   1.192   6.788  1.00  0.00     0.116 C 
BRANCH  29  30
ATOM     30  N   UNL     1       5.078   1.111   6.994  1.00  0.00    -0.352 N 
ATOM     31  C   UNL     1       5.817   1.352   8.130  1.00  0.00     0.251 C 
ATOM     32  H   UNL     1       5.600   0.844   6.203  1.00  0.00     0.163 HD
ATOM     33  O   UNL     1       7.037   1.359   8.085  1.00  0.00    -0.269 OA
BRANCH  31  34
ATOM     34  C   UNL     1       5.111   1.638   9.400  1.00  0.00     0.039 A 
ATOM     35  C   UNL     1       5.525   2.717  10.184  1.00  0.00     0.014 A 
ATOM     36  C   UNL     1       4.006   0.875   9.779  1.00  0.00     0.014 A 
ATOM     37  C   UNL     1       4.763   3.093  11.294  1.00  0.00     0.010 A 
ATOM     38  C   UNL     1       3.197   1.308  10.822  1.00  0.00     0.010 A 
ATOM     39  C   UNL     1       3.563   2.425  11.588  1.00  0.00    -0.014 A 
BRANCH  39  40
ATOM     40  C   UNL     1       2.660   2.878  12.677  1.00  0.00     0.031 A 
ATOM     41  C   UNL     1       2.338   1.956  13.820  1.00  0.00     0.074 A 
ATOM     42  C   UNL     1       2.048   4.074  12.582  1.00  0.00     0.049 A 
ATOM     43  N   UNL     1       1.492   2.120  14.805  1.00  0.00    -0.248 NA
ATOM     44  C   UNL     1       3.028   0.657  13.833  1.00  0.00     0.031 C 
ATOM     45  C   UNL     1       2.221   5.033  11.490  1.00  0.00     0.029 A 
ATOM     46  N   UNL     1       1.143   4.684  13.416  1.00  0.00    -0.354 N 
ATOM     47  C   UNL     1       1.522   0.935  15.529  1.00  0.00     0.074 A 
ATOM     48  C   UNL     1       2.429   0.043  14.841  1.00  0.00     0.031 C 
ATOM     49  C   UNL     1       1.480   6.124  11.739  1.00  0.00     0.029 A 
ATOM     50  C   UNL     1       0.748   5.927  12.986  1.00  0.00     0.049 A 
ATOM     51  H   UNL     1       0.809   4.269  14.244  1.00  0.00     0.167 HD
ATOM     52  C   UNL     1       0.872   0.628  16.677  1.00  0.00     0.037 A 
ATOM     53  C   UNL     1      -0.106   6.809  13.539  1.00  0.00     0.037 A 
ATOM     54  C   UNL     1       0.014   1.539  17.387  1.00  0.00     0.049 A 
ATOM     55  C   UNL     1      -0.790   6.457  14.831  1.00  0.00     0.074 A 
ATOM     56  C   UNL     1      -0.611   1.362  18.609  1.00  0.00     0.029 A 
ATOM     57  N   UNL     1      -0.337   2.803  16.937  1.00  0.00    -0.354 N 
ATOM     58  N   UNL     1      -0.690   5.367  15.551  1.00  0.00    -0.248 NA
ATOM     59  C   UNL     1      -1.704   7.464  15.388  1.00  0.00     0.031 C 
ATOM     60  C   UNL     1      -1.372   2.505  18.880  1.00  0.00     0.029 A 
ATOM     61  C   UNL     1      -1.187   3.410  17.847  1.00  0.00     0.049 A 
ATOM     62  H   UNL     1      -0.028   3.209  16.095  1.00  0.00     0.167 HD
ATOM     63  C   UNL     1      -1.502   5.566  16.659  1.00  0.00     0.074 A 
ATOM     64  C   UNL     1      -2.079   6.887  16.521  1.00  0.00     0.031 C 
ATOM     65  C   UNL     1      -1.746   4.730  17.698  1.00  0.00     0.037 A 
BRANCH  52  66
ATOM     66  C   UNL     1       1.074  -0.750  17.236  1.00  0.00     0.064 A 
ATOM     67  C   UNL     1       2.303  -1.155  17.778  1.00  0.00     0.173 A 
ATOM     68  C   UNL     1       0.021  -1.677  17.237  1.00  0.00     0.173 A 
ATOM     69  F   UNL     1       3.346  -0.311  17.790  1.00  0.00    -0.203 F 
ATOM     70  C   UNL     1       2.483  -2.448  18.262  1.00  0.00     0.198 A 
ATOM     71  C   UNL     1       0.195  -2.960  17.751  1.00  0.00     0.198 A 
ATOM     72  F   UNL     1      -1.177  -1.342  16.735  1.00  0.00    -0.203 F 
ATOM     73  F   UNL     1       3.685  -2.830  18.717  1.00  0.00    -0.200 F 
ATOM     74  C   UNL     1       1.428  -3.348  18.253  1.00  0.00     0.200 A 
ATOM     75  F   UNL     1      -0.829  -3.825  17.752  1.00  0.00    -0.200 F 
ATOM     76  F   UNL     1       1.603  -4.592  18.718  1.00  0.00    -0.200 F 
ENDBRANCH  52  66
BRANCH  53  77
ATOM     77  C   UNL     1      -0.319   8.134  12.903  1.00  0.00     0.064 A 
ATOM     78  C   UNL     1       0.202   9.295  13.492  1.00  0.00     0.173 A 
ATOM     79  C   UNL     1      -1.034   8.273  11.706  1.00  0.00     0.173 A 
ATOM     80  F   UNL     1       0.876   9.213  14.649  1.00  0.00    -0.203 F 
ATOM     81  C   UNL     1       0.002  10.547  12.915  1.00  0.00     0.198 A 
ATOM     82  C   UNL     1      -1.214   9.523  11.117  1.00  0.00     0.198 A 
ATOM     83  F   UNL     1      -1.549   7.192  11.102  1.00  0.00    -0.203 F 
ATOM     84  F   UNL     1       0.477  11.644  13.520  1.00  0.00    -0.200 F 
ATOM     85  C   UNL     1      -0.702  10.660  11.726  1.00  0.00     0.200 A 
ATOM     86  F   UNL     1      -1.884   9.628   9.962  1.00  0.00    -0.200 F 
ATOM     87  F   UNL     1      -0.891  11.864  11.169  1.00  0.00    -0.200 F 
ENDBRANCH  53  77
BRANCH  65  88
ATOM     88  C   UNL     1      -2.647   5.235  18.785  1.00  0.00     0.064 A 
ATOM     89  C   UNL     1      -4.030   5.360  18.595  1.00  0.00     0.173 A 
ATOM     90  C   UNL     1      -2.122   5.569  20.043  1.00  0.00     0.173 A 
ATOM     91  F   UNL     1      -4.577   5.069  17.405  1.00  0.00    -0.203 F 
ATOM     92  C   UNL     1      -4.853   5.826  19.617  1.00  0.00     0.198 A 
ATOM     93  C   UNL     1      -2.950   6.008  21.071  1.00  0.00     0.198 A 
ATOM     94  F   UNL     1      -0.805   5.462  20.276  1.00  0.00    -0.203 F 
ATOM     95  F   UNL     1      -6.166   5.982  19.399  1.00  0.00    -0.200 F 
ATOM     96  C   UNL     1      -4.314   6.143  20.855  1.00  0.00     0.200 A 
ATOM     97  F   UNL     1      -2.430   6.303  22.270  1.00  0.00    -0.200 F 
ATOM     98  F   UNL     1      -5.108   6.587  21.839  1.00  0.00    -0.200 F 
ENDBRANCH  65  88
ENDBRANCH  39  40
ENDBRANCH  31  34
ENDBRANCH  29  30
ENDBRANCH  28  29
ENDBRANCH  27  28
ENDBRANCH   1  27
TORSDOF 16
