REMARK SMILES CS(=O)(=O)c1ccc(C2=NN(c3ccc(C(=O)NCCCCCCNC(=O)c4ccc(-c5c6nc(c(-c7c(F)c(F)c(F)c(F)c7F)c7ccc([nH]7)c(-c7c(F)c(F)c(F)c(F)c7F)c7nc(c(-c8c(F)c(F)c(F)c(F)c8F)c8ccc5[nH]8)C=C7)C=C6)cc4)cc3)[C@H](c3ccc(F)cc3)C2)cc1
REMARK SMILES IDX 21 1 20 2 19 3 18 4 16 5 17 6 15 8 12 9 13 10 92 11 14 12
REMARK SMILES IDX 91 13 11 14 9 15 10 16 101 17 93 18 8 19 5 20 6 21 103 22
REMARK SMILES IDX 7 23 102 24 2 25 1 26 3 27 4 28 94 29 95 30 100 31 96 32
REMARK SMILES IDX 99 33 97 34 98 35 22 36 23 37 24 38 25 39 26 40 27 42 28 43
REMARK SMILES IDX 29 44 90 45 30 46 89 47 31 48 32 49 33 50 83 51 34 52 88 53
REMARK SMILES IDX 82 54 84 55 35 56 87 57 81 58 80 59 36 61 68 62 48 63 67 64
REMARK SMILES IDX 49 65 52 66 66 67 85 68 50 69 51 70 65 72 86 73 53 74 37 75
REMARK SMILES IDX 38 76 46 77 39 78 40 79 44 80 47 81 41 82 42 83 45 84 43 85
REMARK SMILES IDX 69 86 70 87 78 88 71 89 72 90 76 91 79 92 73 93 74 94 77 95
REMARK SMILES IDX 75 96 54 97 55 98 63 99 56 100 57 101 61 102 64 103 58 104
REMARK SMILES IDX 59 105 62 106 60 107
REMARK H PARENT 18 7 25 41 84 60 52 71
REMARK Flexibility Score: inf
ROOT
ATOM      1  C   UNL     1       8.525   0.408  14.014  1.00  0.00     0.002 C 
ENDROOT
BRANCH   1   2
ATOM      2  C   UNL     1       7.387   0.717  13.035  1.00  0.00     0.021 C 
BRANCH   2   3
ATOM      3  C   UNL     1       7.198   2.215  12.785  1.00  0.00     0.116 C 
BRANCH   3   4
ATOM      4  N   UNL     1       8.209   2.698  11.863  1.00  0.00    -0.352 N 
ATOM      5  C   UNL     1       8.139   3.030  10.534  1.00  0.00     0.251 C 
ATOM      6  O   UNL     1       9.154   3.452   9.982  1.00  0.00    -0.269 OA
ATOM      7  H   UNL     1       9.102   2.807  12.262  1.00  0.00     0.163 HD
BRANCH   5   8
ATOM      8  C   UNL     1       6.866   2.964   9.771  1.00  0.00     0.039 A 
ATOM      9  C   UNL     1       4.417   3.058   8.383  1.00  0.00     0.060 A 
ATOM     10  C   UNL     1       5.422   3.992   8.110  1.00  0.00     0.029 A 
ATOM     11  C   UNL     1       4.686   2.033   9.292  1.00  0.00     0.029 A 
ATOM     12  C   UNL     1       6.638   3.948   8.801  1.00  0.00     0.016 A 
ATOM     13  C   UNL     1       5.907   1.968   9.962  1.00  0.00     0.016 A 
BRANCH   9  14
ATOM     14  N   UNL     1       3.178   3.095   7.761  1.00  0.00    -0.257 N 
ATOM     15  C   UNL     1       2.054   3.191   5.962  1.00  0.00     0.071 C 
ATOM     16  N   UNL     1       3.110   2.658   6.484  1.00  0.00    -0.176 NA
ATOM     17  C   UNL     1       1.287   4.135   6.843  1.00  0.00     0.091 C 
ATOM     18  C   UNL     1       2.119   4.042   8.137  1.00  0.00     0.144 C 
BRANCH  15  19
ATOM     19  C   UNL     1       1.624   2.854   4.599  1.00  0.00    -0.002 A 
ATOM     20  C   UNL     1       0.891   2.099   2.027  1.00  0.00     0.067 A 
ATOM     21  C   UNL     1       1.295   1.121   2.938  1.00  0.00     0.021 A 
ATOM     22  C   UNL     1       0.864   3.453   2.395  1.00  0.00     0.021 A 
ATOM     23  C   UNL     1       1.674   1.506   4.222  1.00  0.00     0.011 A 
ATOM     24  C   UNL     1       1.220   3.833   3.692  1.00  0.00     0.011 A 
BRANCH  20  25
ATOM     25  S   UNL     1       0.413   1.676   0.368  1.00  0.00     0.175 S 
ATOM     26  C   UNL     1       1.129   0.097   0.005  1.00  0.00     0.163 C 
ATOM     27  O   UNL     1       1.047   2.644  -0.503  1.00  0.00    -0.224 OA
ATOM     28  O   UNL     1      -1.030   1.519   0.395  1.00  0.00    -0.224 OA
ENDBRANCH  20  25
ENDBRANCH  15  19
BRANCH  18  29
ATOM     29  C   UNL     1       1.421   3.583   9.419  1.00  0.00    -0.023 A 
ATOM     30  C   UNL     1       0.176   2.931   9.454  1.00  0.00     0.009 A 
ATOM     31  C   UNL     1       2.087   3.783  10.650  1.00  0.00     0.009 A 
ATOM     32  C   UNL     1      -0.379   2.503  10.668  1.00  0.00     0.039 A 
ATOM     33  C   UNL     1       1.547   3.329  11.856  1.00  0.00     0.039 A 
ATOM     34  C   UNL     1       0.315   2.696  11.854  1.00  0.00     0.123 A 
ATOM     35  F   UNL     1      -0.207   2.259  13.007  1.00  0.00    -0.207 F 
ENDBRANCH  18  29
ENDBRANCH   9  14
ENDBRANCH   5   8
ENDBRANCH   3   4
ENDBRANCH   2   3
ENDBRANCH   1   2
BRANCH   1  36
ATOM     36  C   UNL     1       8.315   0.956  15.430  1.00  0.00     0.002 C 
BRANCH  36  37
ATOM     37  C   UNL     1       7.011   0.516  16.100  1.00  0.00     0.021 C 
BRANCH  37  38
ATOM     38  C   UNL     1       6.883  -0.992  16.279  1.00  0.00     0.116 C 
BRANCH  38  39
ATOM     39  N   UNL     1       7.895  -1.512  17.186  1.00  0.00    -0.352 N 
ATOM     40  C   UNL     1       7.737  -2.214  18.353  1.00  0.00     0.251 C 
ATOM     41  H   UNL     1       8.828  -1.334  16.923  1.00  0.00     0.163 HD
ATOM     42  O   UNL     1       8.683  -2.365  19.119  1.00  0.00    -0.269 OA
BRANCH  40  43
ATOM     43  C   UNL     1       6.416  -2.781  18.692  1.00  0.00     0.039 A 
ATOM     44  C   UNL     1       5.942  -2.662  20.000  1.00  0.00     0.014 A 
ATOM     45  C   UNL     1       5.654  -3.440  17.722  1.00  0.00     0.014 A 
ATOM     46  C   UNL     1       4.679  -3.159  20.323  1.00  0.00     0.010 A 
ATOM     47  C   UNL     1       4.365  -3.864  18.026  1.00  0.00     0.010 A 
ATOM     48  C   UNL     1       3.868  -3.736  19.331  1.00  0.00    -0.014 A 
BRANCH  48  49
ATOM     49  C   UNL     1       2.500  -4.222  19.644  1.00  0.00     0.031 A 
ATOM     50  C   UNL     1       2.170  -5.682  19.508  1.00  0.00     0.074 A 
ATOM     51  C   UNL     1       1.544  -3.340  19.995  1.00  0.00     0.049 A 
ATOM     52  N   UNL     1       1.022  -6.292  19.670  1.00  0.00    -0.248 NA
ATOM     53  C   UNL     1       3.271  -6.575  19.111  1.00  0.00     0.031 C 
ATOM     54  C   UNL     1       1.733  -1.894  20.120  1.00  0.00     0.029 A 
ATOM     55  N   UNL     1       0.220  -3.530  20.302  1.00  0.00    -0.354 N 
ATOM     56  C   UNL     1       1.262  -7.630  19.390  1.00  0.00     0.074 A 
ATOM     57  C   UNL     1       2.647  -7.736  18.984  1.00  0.00     0.031 C 
ATOM     58  C   UNL     1       0.575  -1.332  20.503  1.00  0.00     0.029 A 
ATOM     59  C   UNL     1      -0.447  -2.368  20.606  1.00  0.00     0.049 A 
ATOM     60  H   UNL     1      -0.211  -4.415  20.303  1.00  0.00     0.167 HD
ATOM     61  C   UNL     1       0.412  -8.680  19.489  1.00  0.00     0.037 A 
ATOM     62  C   UNL     1      -1.739  -2.164  20.924  1.00  0.00     0.037 A 
ATOM     63  C   UNL     1      -0.961  -8.570  19.906  1.00  0.00     0.049 A 
ATOM     64  C   UNL     1      -2.670  -3.345  20.994  1.00  0.00     0.074 A 
ATOM     65  C   UNL     1      -1.895  -9.577  20.078  1.00  0.00     0.029 A 
ATOM     66  N   UNL     1      -1.600  -7.377  20.212  1.00  0.00    -0.354 N 
ATOM     67  N   UNL     1      -2.416  -4.615  20.791  1.00  0.00    -0.248 NA
ATOM     68  C   UNL     1      -4.069  -3.063  21.346  1.00  0.00     0.031 C 
ATOM     69  C   UNL     1      -3.111  -8.989  20.437  1.00  0.00     0.029 A 
ATOM     70  C   UNL     1      -2.922  -7.621  20.550  1.00  0.00     0.049 A 
ATOM     71  H   UNL     1      -1.177  -6.488  20.193  1.00  0.00     0.167 HD
ATOM     72  C   UNL     1      -3.610  -5.286  21.025  1.00  0.00     0.074 A 
ATOM     73  C   UNL     1      -4.584  -4.283  21.400  1.00  0.00     0.031 C 
ATOM     74  C   UNL     1      -3.875  -6.612  20.936  1.00  0.00     0.037 A 
BRANCH  61  75
ATOM     75  C   UNL     1       0.947 -10.042  19.145  1.00  0.00     0.064 A 
ATOM     76  C   UNL     1       1.906 -10.680  19.947  1.00  0.00     0.173 A 
ATOM     77  C   UNL     1       0.470 -10.733  18.020  1.00  0.00     0.173 A 
ATOM     78  F   UNL     1       2.403 -10.060  21.027  1.00  0.00    -0.203 F 
ATOM     79  C   UNL     1       2.390 -11.944  19.619  1.00  0.00     0.198 A 
ATOM     80  C   UNL     1       0.932 -12.011  17.715  1.00  0.00     0.198 A 
ATOM     81  F   UNL     1      -0.451 -10.173  17.222  1.00  0.00    -0.203 F 
ATOM     82  F   UNL     1       3.345 -12.509  20.370  1.00  0.00    -0.200 F 
ATOM     83  C   UNL     1       1.897 -12.611  18.508  1.00  0.00     0.200 A 
ATOM     84  F   UNL     1       0.443 -12.661  16.649  1.00  0.00    -0.200 F 
ATOM     85  F   UNL     1       2.358 -13.831  18.198  1.00  0.00    -0.200 F 
ENDBRANCH  61  75
BRANCH  62  86
ATOM     86  C   UNL     1      -2.229  -0.791  21.218  1.00  0.00     0.064 A 
ATOM     87  C   UNL     1      -2.656  -0.440  22.507  1.00  0.00     0.173 A 
ATOM     88  C   UNL     1      -2.305   0.190  20.218  1.00  0.00     0.173 A 
ATOM     89  F   UNL     1      -2.622  -1.348  23.494  1.00  0.00    -0.203 F 
ATOM     90  C   UNL     1      -3.168   0.828  22.777  1.00  0.00     0.198 A 
ATOM     91  C   UNL     1      -2.786   1.468  20.497  1.00  0.00     0.198 A 
ATOM     92  F   UNL     1      -1.905  -0.091  18.970  1.00  0.00    -0.203 F 
ATOM     93  F   UNL     1      -3.623   1.116  24.004  1.00  0.00    -0.200 F 
ATOM     94  C   UNL     1      -3.228   1.782  21.773  1.00  0.00     0.200 A 
ATOM     95  F   UNL     1      -2.827   2.392  19.528  1.00  0.00    -0.200 F 
ATOM     96  F   UNL     1      -3.721   3.000  22.032  1.00  0.00    -0.200 F 
ENDBRANCH  62  86
BRANCH  74  97
ATOM     97  C   UNL     1      -5.262  -7.064  21.299  1.00  0.00     0.064 A 
ATOM     98  C   UNL     1      -6.370  -6.776  20.488  1.00  0.00     0.173 A 
ATOM     99  C   UNL     1      -5.476  -7.827  22.457  1.00  0.00     0.173 A 
ATOM    100  F   UNL     1      -6.221  -6.037  19.378  1.00  0.00    -0.203 F 
ATOM    101  C   UNL     1      -7.645  -7.210  20.840  1.00  0.00     0.198 A 
ATOM    102  C   UNL     1      -6.747  -8.289  22.786  1.00  0.00     0.198 A 
ATOM    103  F   UNL     1      -4.450  -8.137  23.263  1.00  0.00    -0.203 F 
ATOM    104  F   UNL     1      -8.697  -6.877  20.079  1.00  0.00    -0.200 F 
ATOM    105  C   UNL     1      -7.832  -7.973  21.983  1.00  0.00     0.200 A 
ATOM    106  F   UNL     1      -6.922  -9.040  23.882  1.00  0.00    -0.200 F 
ATOM    107  F   UNL     1      -9.059  -8.397  22.314  1.00  0.00    -0.200 F 
ENDBRANCH  74  97
ENDBRANCH  48  49
ENDBRANCH  40  43
ENDBRANCH  38  39
ENDBRANCH  37  38
ENDBRANCH  36  37
ENDBRANCH   1  36
TORSDOF 17
