REMARK SMILES CC(C)[C@@H](C)C(=O)N[C@@](C)(C(=O)NCCCCCCNC(=O)c1ccc(-c2c3nc(c(-c4c(F)c(F)c(F)c(F)c4F)c4ccc([nH]4)c(-c4c(F)c(F)c(F)c(F)c4F)c4nc(c(-c5c(F)c(F)c(F)c(F)c5F)c5ccc2[nH]5)C=C4)C=C3)cc1)C(F)(F)F
REMARK SMILES IDX 16 1 15 2 14 3 13 4 11 5 12 6 9 8 10 9 8 10 6 11 7 12 4 14
REMARK SMILES IDX 5 15 2 16 1 17 3 18 86 19 87 20 88 21 89 22 17 23 18 24
REMARK SMILES IDX 19 25 20 26 21 27 22 29 23 30 24 31 85 32 25 33 84 34 26 35
REMARK SMILES IDX 27 36 28 37 78 38 29 39 83 40 77 41 79 42 30 43 82 44 76 45
REMARK SMILES IDX 75 46 31 48 63 49 43 50 62 51 44 52 47 53 61 54 80 55 45 56
REMARK SMILES IDX 46 57 60 59 81 60 48 61 32 62 33 63 41 64 34 65 35 66 39 67
REMARK SMILES IDX 42 68 36 69 37 70 40 71 38 72 64 73 65 74 73 75 66 76 67 77
REMARK SMILES IDX 71 78 74 79 68 80 69 81 72 82 70 83 49 84 50 85 58 86 51 87
REMARK SMILES IDX 52 88 56 89 59 90 53 91 54 92 57 93 55 94
REMARK H PARENT 13 7 8 13 20 28 79 47 47 58
REMARK Flexibility Score: inf
ROOT
ATOM      1  C   UNL     1      -3.404  -7.851   1.829  1.00  0.00     0.002 C 
ENDROOT
BRANCH   1   2
ATOM      2  C   UNL     1      -2.675  -6.668   2.477  1.00  0.00     0.021 C 
BRANCH   2   3
ATOM      3  C   UNL     1      -1.257  -6.445   1.954  1.00  0.00     0.116 C 
BRANCH   3   4
ATOM      4  N   UNL     1      -1.281  -6.120   0.539  1.00  0.00    -0.354 N 
ATOM      5  C   UNL     1      -0.799  -5.094  -0.215  1.00  0.00     0.254 C 
ATOM      6  O   UNL     1      -1.165  -5.114  -1.394  1.00  0.00    -0.272 OA
ATOM      7  H   UNL     1      -1.754  -6.797   0.002  1.00  0.00     0.163 HD
BRANCH   5   8
ATOM      8  C   UNL     1       0.071  -3.958   0.368  1.00  0.00     0.212 C 
ATOM      9  C   UNL     1       1.297  -4.515   1.119  1.00  0.00     0.056 C 
BRANCH   8  10
ATOM     10  N   UNL     1      -0.866  -3.297   1.356  1.00  0.00    -0.334 N 
ATOM     11  C   UNL     1      -1.291  -2.100   1.798  1.00  0.00     0.224 C 
ATOM     12  O   UNL     1      -2.055  -2.146   2.771  1.00  0.00    -0.275 OA
ATOM     13  H   UNL     1      -1.337  -4.001   1.858  1.00  0.00     0.164 HD
BRANCH  11  14
ATOM     14  C   UNL     1      -0.963  -0.763   1.172  1.00  0.00     0.078 C 
ATOM     15  C   UNL     1      -1.732  -0.663  -0.147  1.00  0.00     0.018 C 
BRANCH  14  16
ATOM     16  C   UNL     1       0.554  -0.495   1.228  1.00  0.00    -0.005 C 
ATOM     17  C   UNL     1       1.063   0.481   0.172  1.00  0.00     0.008 C 
ATOM     18  C   UNL     1       0.963  -0.009   2.627  1.00  0.00     0.008 C 
ENDBRANCH  14  16
ENDBRANCH  11  14
ENDBRANCH   8  10
BRANCH   8  19
ATOM     19  C   UNL     1       0.638  -3.240  -0.893  1.00  0.00     0.420 C 
ATOM     20  F   UNL     1      -0.266  -2.536  -1.594  1.00  0.00    -0.168 F 
ATOM     21  F   UNL     1       1.645  -2.388  -0.578  1.00  0.00    -0.168 F 
ATOM     22  F   UNL     1       1.215  -4.129  -1.746  1.00  0.00    -0.168 F 
ENDBRANCH   8  19
ENDBRANCH   5   8
ENDBRANCH   3   4
ENDBRANCH   2   3
ENDBRANCH   1   2
BRANCH   1  23
ATOM     23  C   UNL     1      -2.641  -9.178   1.876  1.00  0.00     0.002 C 
BRANCH  23  24
ATOM     24  C   UNL     1      -2.199  -9.612   3.275  1.00  0.00     0.021 C 
BRANCH  24  25
ATOM     25  C   UNL     1      -3.336  -9.731   4.282  1.00  0.00     0.116 C 
BRANCH  25  26
ATOM     26  N   UNL     1      -4.303 -10.743   3.894  1.00  0.00    -0.352 N 
ATOM     27  C   UNL     1      -4.784 -11.801   4.620  1.00  0.00     0.251 C 
ATOM     28  H   UNL     1      -4.664 -10.657   2.982  1.00  0.00     0.163 HD
ATOM     29  O   UNL     1      -5.450 -12.678   4.075  1.00  0.00    -0.269 OA
BRANCH  27  30
ATOM     30  C   UNL     1      -4.479 -11.895   6.062  1.00  0.00     0.039 A 
ATOM     31  C   UNL     1      -4.074 -13.124   6.587  1.00  0.00     0.014 A 
ATOM     32  C   UNL     1      -4.589 -10.774   6.891  1.00  0.00     0.014 A 
ATOM     33  C   UNL     1      -3.724 -13.215   7.935  1.00  0.00     0.010 A 
ATOM     34  C   UNL     1      -4.164 -10.849   8.213  1.00  0.00     0.010 A 
ATOM     35  C   UNL     1      -3.733 -12.071   8.750  1.00  0.00    -0.014 A 
BRANCH  35  36
ATOM     36  C   UNL     1      -3.299 -12.137  10.168  1.00  0.00     0.031 A 
ATOM     37  C   UNL     1      -4.275 -11.841  11.272  1.00  0.00     0.074 A 
ATOM     38  C   UNL     1      -2.011 -12.408  10.457  1.00  0.00     0.049 A 
ATOM     39  N   UNL     1      -4.073 -11.790  12.565  1.00  0.00    -0.248 NA
ATOM     40  C   UNL     1      -5.656 -11.534  10.869  1.00  0.00     0.031 C 
ATOM     41  C   UNL     1      -0.961 -12.669   9.472  1.00  0.00     0.029 A 
ATOM     42  N   UNL     1      -1.365 -12.501  11.665  1.00  0.00    -0.354 N 
ATOM     43  C   UNL     1      -5.294 -11.437  13.124  1.00  0.00     0.074 A 
ATOM     44  C   UNL     1      -6.216 -11.227  12.029  1.00  0.00     0.031 C 
ATOM     45  C   UNL     1       0.192 -12.917  10.114  1.00  0.00     0.029 A 
ATOM     46  C   UNL     1      -0.027 -12.791  11.552  1.00  0.00     0.049 A 
ATOM     47  H   UNL     1      -1.817 -12.371  12.529  1.00  0.00     0.167 HD
ATOM     48  C   UNL     1      -5.622 -11.323  14.433  1.00  0.00     0.037 A 
ATOM     49  C   UNL     1       0.917 -12.930  12.501  1.00  0.00     0.037 A 
ATOM     50  C   UNL     1      -4.705 -11.550  15.519  1.00  0.00     0.049 A 
ATOM     51  C   UNL     1       0.530 -12.778  13.948  1.00  0.00     0.074 A 
ATOM     52  C   UNL     1      -4.953 -11.514  16.880  1.00  0.00     0.029 A 
ATOM     53  N   UNL     1      -3.359 -11.850  15.366  1.00  0.00    -0.354 N 
ATOM     54  N   UNL     1      -0.643 -12.514  14.468  1.00  0.00    -0.248 NA
ATOM     55  C   UNL     1       1.600 -12.951  14.940  1.00  0.00     0.031 C 
ATOM     56  C   UNL     1      -3.746 -11.736  17.550  1.00  0.00     0.029 A 
ATOM     57  C   UNL     1      -2.758 -11.973  16.609  1.00  0.00     0.049 A 
ATOM     58  H   UNL     1      -2.899 -11.959  14.502  1.00  0.00     0.167 HD
ATOM     59  C   UNL     1      -0.462 -12.520  15.845  1.00  0.00     0.074 A 
ATOM     60  C   UNL     1       0.933 -12.830  16.079  1.00  0.00     0.031 C 
ATOM     61  C   UNL     1      -1.369 -12.290  16.826  1.00  0.00     0.037 A 
BRANCH  48  62
ATOM     62  C   UNL     1      -7.035 -10.933  14.764  1.00  0.00     0.064 A 
ATOM     63  C   UNL     1      -8.115 -11.797  14.522  1.00  0.00     0.173 A 
ATOM     64  C   UNL     1      -7.311  -9.694  15.363  1.00  0.00     0.173 A 
ATOM     65  F   UNL     1      -7.909 -12.989  13.942  1.00  0.00    -0.203 F 
ATOM     66  C   UNL     1      -9.419 -11.423  14.838  1.00  0.00     0.198 A 
ATOM     67  C   UNL     1      -8.612  -9.337  15.708  1.00  0.00     0.198 A 
ATOM     68  F   UNL     1      -6.317  -8.832  15.622  1.00  0.00    -0.203 F 
ATOM     69  F   UNL     1     -10.438 -12.243  14.547  1.00  0.00    -0.200 F 
ATOM     70  C   UNL     1      -9.665 -10.197  15.437  1.00  0.00     0.200 A 
ATOM     71  F   UNL     1      -8.846  -8.159  16.302  1.00  0.00    -0.200 F 
ATOM     72  F   UNL     1     -10.919  -9.842  15.748  1.00  0.00    -0.200 F 
ENDBRANCH  48  62
BRANCH  49  73
ATOM     73  C   UNL     1       2.317 -13.251  12.116  1.00  0.00     0.064 A 
ATOM     74  C   UNL     1       2.884 -14.494  12.430  1.00  0.00     0.173 A 
ATOM     75  C   UNL     1       3.119 -12.322  11.437  1.00  0.00     0.173 A 
ATOM     76  F   UNL     1       2.164 -15.409  13.096  1.00  0.00    -0.203 F 
ATOM     77  C   UNL     1       4.206 -14.787  12.101  1.00  0.00     0.198 A 
ATOM     78  C   UNL     1       4.431 -12.628  11.079  1.00  0.00     0.198 A 
ATOM     79  F   UNL     1       2.624 -11.120  11.107  1.00  0.00    -0.203 F 
ATOM     80  F   UNL     1       4.738 -15.964  12.458  1.00  0.00    -0.200 F 
ATOM     81  C   UNL     1       4.976 -13.856  11.420  1.00  0.00     0.200 A 
ATOM     82  F   UNL     1       5.166 -11.732  10.407  1.00  0.00    -0.200 F 
ATOM     83  F   UNL     1       6.246 -14.139  11.100  1.00  0.00    -0.200 F 
ENDBRANCH  49  73
BRANCH  61  84
ATOM     84  C   UNL     1      -0.892 -12.405  18.246  1.00  0.00     0.064 A 
ATOM     85  C   UNL     1      -0.023 -11.461  18.813  1.00  0.00     0.173 A 
ATOM     86  C   UNL     1      -1.342 -13.455  19.062  1.00  0.00     0.173 A 
ATOM     87  F   UNL     1       0.449 -10.446  18.073  1.00  0.00    -0.203 F 
ATOM     88  C   UNL     1       0.400 -11.580  20.135  1.00  0.00     0.198 A 
ATOM     89  C   UNL     1      -0.945 -13.551  20.392  1.00  0.00     0.198 A 
ATOM     90  F   UNL     1      -2.180 -14.381  18.571  1.00  0.00    -0.203 F 
ATOM     91  F   UNL     1       1.272 -10.696  20.639  1.00  0.00    -0.200 F 
ATOM     92  C   UNL     1      -0.068 -12.619  20.925  1.00  0.00     0.200 A 
ATOM     93  F   UNL     1      -1.411 -14.547  21.158  1.00  0.00    -0.200 F 
ATOM     94  F   UNL     1       0.334 -12.727  22.199  1.00  0.00    -0.200 F 
ENDBRANCH  61  84
ENDBRANCH  35  36
ENDBRANCH  27  30
ENDBRANCH  25  26
ENDBRANCH  24  25
ENDBRANCH  23  24
ENDBRANCH   1  23
TORSDOF 17
