REMARK SMILES CCc1ccc(CNC(=O)CCC(=O)NCCCCCCNC(=O)c2ccc(-c3c4nc(c(-c5c(F)c(F)c(F)c(F)c5F)c5ccc([nH]5)c(-c5c(F)c(F)c(F)c(F)c5F)c5nc(c(-c6c(F)c(F)c(F)c(F)c6F)c6ccc3[nH]6)C=C5)C=C4)cc2)cc1
REMARK SMILES IDX 17 1 16 2 15 3 13 4 14 5 12 7 11 8 9 9 8 10 10 12 7 13 6 14
REMARK SMILES IDX 3 15 4 16 89 17 5 18 88 19 2 20 1 21 18 22 19 23 20 24 21 25
REMARK SMILES IDX 22 26 23 27 24 29 25 30 26 31 87 32 27 33 86 34 28 35 29 36
REMARK SMILES IDX 30 37 80 38 31 39 85 40 79 41 81 42 32 43 84 44 78 45 77 46
REMARK SMILES IDX 33 48 65 49 45 50 64 51 46 52 49 53 63 54 82 55 47 56 48 57
REMARK SMILES IDX 62 59 83 60 50 61 34 62 35 63 43 64 36 65 37 66 41 67 44 68
REMARK SMILES IDX 38 69 39 70 42 71 40 72 66 73 67 74 75 75 68 76 69 77 73 78
REMARK SMILES IDX 76 79 70 80 71 81 74 82 72 83 51 84 52 85 60 86 53 87 54 88
REMARK SMILES IDX 58 89 61 90 55 91 56 92 59 93 57 94
REMARK H PARENT 15 6 8 11 22 28 81 47 49 58
REMARK Flexibility Score: inf
ROOT
ATOM      1  C   UNL     1      -0.798   2.178   7.238  1.00  0.00     0.021 C 
ENDROOT
BRANCH   1   2
ATOM      2  C   UNL     1      -0.050   0.869   7.517  1.00  0.00     0.116 C 
BRANCH   2   3
ATOM      3  N   UNL     1       1.214   0.676   6.833  1.00  0.00    -0.356 N 
ATOM      4  C   UNL     1       2.473   0.494   7.330  1.00  0.00     0.220 C 
ATOM      5  O   UNL     1       3.313  -0.128   6.677  1.00  0.00    -0.275 OA
ATOM      6  H   UNL     1       1.154   0.677   5.851  1.00  0.00     0.163 HD
BRANCH   4   7
ATOM      7  C   UNL     1       2.899   1.182   8.591  1.00  0.00     0.110 C 
BRANCH   7   8
ATOM      8  C   UNL     1       3.478   2.550   8.226  1.00  0.00     0.110 C 
BRANCH   8   9
ATOM      9  C   UNL     1       2.437   3.458   7.604  1.00  0.00     0.220 C 
ATOM     10  N   UNL     1       2.235   3.545   6.255  1.00  0.00    -0.352 N 
ATOM     11  H   UNL     1       1.372   3.950   6.012  1.00  0.00     0.163 HD
ATOM     12  O   UNL     1       1.694   4.109   8.347  1.00  0.00    -0.275 OA
BRANCH  10  13
ATOM     13  C   UNL     1       3.047   3.155   5.097  1.00  0.00     0.151 C 
BRANCH  13  14
ATOM     14  C   UNL     1       2.326   2.408   3.972  1.00  0.00    -0.029 A 
ATOM     15  C   UNL     1       1.048   0.904   1.879  1.00  0.00    -0.048 A 
ATOM     16  C   UNL     1       1.707   0.268   2.926  1.00  0.00     0.004 A 
ATOM     17  C   UNL     1       1.034   2.306   1.881  1.00  0.00     0.004 A 
ATOM     18  C   UNL     1       2.380   1.011   3.904  1.00  0.00     0.006 A 
ATOM     19  C   UNL     1       1.643   3.047   2.925  1.00  0.00     0.006 A 
BRANCH  15  20
ATOM     20  C   UNL     1       0.418   0.065   0.789  1.00  0.00     0.032 C 
ATOM     21  C   UNL     1       1.053   0.263  -0.581  1.00  0.00     0.009 C 
ENDBRANCH  15  20
ENDBRANCH  13  14
ENDBRANCH  10  13
ENDBRANCH   8   9
ENDBRANCH   7   8
ENDBRANCH   4   7
ENDBRANCH   2   3
ENDBRANCH   1   2
BRANCH   1  22
ATOM     22  C   UNL     1      -0.926   2.653   5.785  1.00  0.00     0.002 C 
BRANCH  22  23
ATOM     23  C   UNL     1      -1.819   1.848   4.844  1.00  0.00     0.002 C 
BRANCH  23  24
ATOM     24  C   UNL     1      -3.248   1.639   5.328  1.00  0.00     0.021 C 
BRANCH  24  25
ATOM     25  C   UNL     1      -3.993   2.916   5.698  1.00  0.00     0.116 C 
BRANCH  25  26
ATOM     26  N   UNL     1      -4.372   3.714   4.541  1.00  0.00    -0.352 N 
ATOM     27  C   UNL     1      -5.601   4.271   4.276  1.00  0.00     0.251 C 
ATOM     28  H   UNL     1      -3.668   3.874   3.872  1.00  0.00     0.163 HD
ATOM     29  O   UNL     1      -5.844   4.804   3.196  1.00  0.00    -0.269 OA
BRANCH  27  30
ATOM     30  C   UNL     1      -6.648   4.187   5.314  1.00  0.00     0.039 A 
ATOM     31  C   UNL     1      -7.880   3.612   4.998  1.00  0.00     0.014 A 
ATOM     32  C   UNL     1      -6.368   4.600   6.620  1.00  0.00     0.014 A 
ATOM     33  C   UNL     1      -8.814   3.393   6.013  1.00  0.00     0.010 A 
ATOM     34  C   UNL     1      -7.266   4.306   7.640  1.00  0.00     0.010 A 
ATOM     35  C   UNL     1      -8.500   3.705   7.347  1.00  0.00    -0.014 A 
BRANCH  35  36
ATOM     36  C   UNL     1      -9.457   3.422   8.447  1.00  0.00     0.031 A 
ATOM     37  C   UNL     1     -10.033   4.555   9.250  1.00  0.00     0.074 A 
ATOM     38  C   UNL     1      -9.765   2.147   8.757  1.00  0.00     0.049 A 
ATOM     39  N   UNL     1     -10.852   4.516  10.271  1.00  0.00    -0.248 NA
ATOM     40  C   UNL     1      -9.610   5.913   8.874  1.00  0.00     0.031 C 
ATOM     41  C   UNL     1      -9.232   0.961   8.085  1.00  0.00     0.029 A 
ATOM     42  N   UNL     1     -10.598   1.635   9.721  1.00  0.00    -0.354 N 
ATOM     43  C   UNL     1     -11.029   5.836  10.662  1.00  0.00     0.074 A 
ATOM     44  C   UNL     1     -10.185   6.647   9.814  1.00  0.00     0.031 C 
ATOM     45  C   UNL     1      -9.776  -0.138   8.635  1.00  0.00     0.029 A 
ATOM     46  C   UNL     1     -10.663   0.263   9.723  1.00  0.00     0.049 A 
ATOM     47  H   UNL     1     -11.102   2.199  10.352  1.00  0.00     0.167 HD
ATOM     48  C   UNL     1     -11.844   6.331  11.624  1.00  0.00     0.037 A 
ATOM     49  C   UNL     1     -11.358  -0.575  10.516  1.00  0.00     0.037 A 
ATOM     50  C   UNL     1     -12.697   5.520  12.453  1.00  0.00     0.049 A 
ATOM     51  C   UNL     1     -12.244  -0.000  11.590  1.00  0.00     0.074 A 
ATOM     52  C   UNL     1     -13.605   5.926  13.414  1.00  0.00     0.029 A 
ATOM     53  N   UNL     1     -12.739   4.133  12.423  1.00  0.00    -0.354 N 
ATOM     54  N   UNL     1     -12.467   1.255  11.897  1.00  0.00    -0.248 NA
ATOM     55  C   UNL     1     -12.980  -0.961  12.424  1.00  0.00     0.031 C 
ATOM     56  C   UNL     1     -14.153   4.784  14.008  1.00  0.00     0.029 A 
ATOM     57  C   UNL     1     -13.636   3.667  13.370  1.00  0.00     0.049 A 
ATOM     58  H   UNL     1     -12.210   3.565  11.817  1.00  0.00     0.167 HD
ATOM     59  C   UNL     1     -13.393   1.237  12.932  1.00  0.00     0.074 A 
ATOM     60  C   UNL     1     -13.701  -0.155  13.190  1.00  0.00     0.031 C 
ATOM     61  C   UNL     1     -13.939   2.278  13.608  1.00  0.00     0.037 A 
BRANCH  48  62
ATOM     62  C   UNL     1     -11.848   7.819  11.834  1.00  0.00     0.064 A 
ATOM     63  C   UNL     1     -12.361   8.700  10.869  1.00  0.00     0.173 A 
ATOM     64  C   UNL     1     -11.358   8.371  13.027  1.00  0.00     0.173 A 
ATOM     65  F   UNL     1     -12.832   8.227   9.705  1.00  0.00    -0.203 F 
ATOM     66  C   UNL     1     -12.349  10.077  11.075  1.00  0.00     0.198 A 
ATOM     67  C   UNL     1     -11.381   9.746  13.245  1.00  0.00     0.198 A 
ATOM     68  F   UNL     1     -10.862   7.576  13.987  1.00  0.00    -0.203 F 
ATOM     69  F   UNL     1     -12.789  10.901  10.114  1.00  0.00    -0.200 F 
ATOM     70  C   UNL     1     -11.866  10.598  12.265  1.00  0.00     0.200 A 
ATOM     71  F   UNL     1     -10.929  10.247  14.403  1.00  0.00    -0.200 F 
ATOM     72  F   UNL     1     -11.862  11.923  12.466  1.00  0.00    -0.200 F 
ENDBRANCH  48  62
BRANCH  49  73
ATOM     73  C   UNL     1     -11.270  -2.046  10.309  1.00  0.00     0.064 A 
ATOM     74  C   UNL     1     -12.377  -2.776   9.851  1.00  0.00     0.173 A 
ATOM     75  C   UNL     1     -10.090  -2.754  10.576  1.00  0.00     0.173 A 
ATOM     76  F   UNL     1     -13.536  -2.149   9.601  1.00  0.00    -0.203 F 
ATOM     77  C   UNL     1     -12.314  -4.160   9.695  1.00  0.00     0.198 A 
ATOM     78  C   UNL     1     -10.018  -4.133  10.388  1.00  0.00     0.198 A 
ATOM     79  F   UNL     1      -9.000  -2.105  11.011  1.00  0.00    -0.203 F 
ATOM     80  F   UNL     1     -13.403  -4.838   9.308  1.00  0.00    -0.200 F 
ATOM     81  C   UNL     1     -11.133  -4.836   9.958  1.00  0.00     0.200 A 
ATOM     82  F   UNL     1      -8.870  -4.781  10.628  1.00  0.00    -0.200 F 
ATOM     83  F   UNL     1     -11.072  -6.166   9.805  1.00  0.00    -0.200 F 
ENDBRANCH  49  73
BRANCH  61  84
ATOM     84  C   UNL     1     -14.960   1.956  14.662  1.00  0.00     0.064 A 
ATOM     85  C   UNL     1     -14.608   1.335  15.870  1.00  0.00     0.173 A 
ATOM     86  C   UNL     1     -16.305   2.311  14.475  1.00  0.00     0.173 A 
ATOM     87  F   UNL     1     -13.339   0.963  16.094  1.00  0.00    -0.203 F 
ATOM     88  C   UNL     1     -15.570   1.053  16.836  1.00  0.00     0.198 A 
ATOM     89  C   UNL     1     -17.258   2.060  15.459  1.00  0.00     0.198 A 
ATOM     90  F   UNL     1     -16.695   2.915  13.342  1.00  0.00    -0.203 F 
ATOM     91  F   UNL     1     -15.221   0.408  17.958  1.00  0.00    -0.200 F 
ATOM     92  C   UNL     1     -16.892   1.423  16.634  1.00  0.00     0.200 A 
ATOM     93  F   UNL     1     -18.530   2.435  15.268  1.00  0.00    -0.200 F 
ATOM     94  F   UNL     1     -17.814   1.158  17.569  1.00  0.00    -0.200 F 
ENDBRANCH  61  84
ENDBRANCH  35  36
ENDBRANCH  27  30
ENDBRANCH  25  26
ENDBRANCH  24  25
ENDBRANCH  23  24
ENDBRANCH  22  23
ENDBRANCH   1  22
TORSDOF 18
