REMARK SMILES CC(C)Cc1ccc([C@@H](C)C(=O)NCCCCCCNC(=O)c2ccc(-c3c4nc(c(-c5c(F)c(F)c(F)c(F)c5F)c5ccc([nH]5)c(-c5c(F)c(F)c(F)c(F)c5F)c5nc(c(-c6c(F)c(F)c(F)c(F)c6F)c6ccc3[nH]6)C=C5)C=C4)cc2)cc1
REMARK SMILES IDX 16 1 15 2 14 3 13 4 11 5 12 6 9 8 10 9 8 10 5 11 6 12 87 13
REMARK SMILES IDX 7 14 86 15 4 16 2 17 1 18 3 19 17 20 18 21 19 22 20 23 21 24
REMARK SMILES IDX 22 26 23 27 24 28 85 29 25 30 84 31 26 32 27 33 28 34 78 35
REMARK SMILES IDX 29 36 83 37 77 38 79 39 30 40 82 41 76 42 75 43 31 45 63 46
REMARK SMILES IDX 43 47 62 48 44 49 47 50 61 51 80 52 45 53 46 54 60 56 81 57
REMARK SMILES IDX 48 58 32 59 33 60 41 61 34 62 35 63 39 64 42 65 36 66 37 67
REMARK SMILES IDX 40 68 38 69 64 70 65 71 73 72 66 73 67 74 71 75 74 76 68 77
REMARK SMILES IDX 69 78 72 79 70 80 49 81 50 82 58 83 51 84 52 85 56 86 59 87
REMARK SMILES IDX 53 88 54 89 57 90 55 91
REMARK H PARENT 13 7 20 25 79 44 47 55
REMARK Flexibility Score: inf
ROOT
ATOM      1  C   UNL     1       1.466   3.664  -3.317  1.00  0.00     0.002 C 
ENDROOT
BRANCH   1   2
ATOM      2  C   UNL     1       0.128   2.998  -2.976  1.00  0.00     0.021 C 
BRANCH   2   3
ATOM      3  C   UNL     1      -0.996   3.311  -3.965  1.00  0.00     0.116 C 
BRANCH   3   4
ATOM      4  N   UNL     1      -0.981   2.419  -5.105  1.00  0.00    -0.356 N 
ATOM      5  C   UNL     1      -1.774   1.358  -5.421  1.00  0.00     0.227 C 
ATOM      6  O   UNL     1      -1.475   0.725  -6.441  1.00  0.00    -0.274 OA
ATOM      7  H   UNL     1      -0.278   2.614  -5.766  1.00  0.00     0.163 HD
BRANCH   5   8
ATOM      8  C   UNL     1      -2.997   0.942  -4.588  1.00  0.00     0.105 C 
ATOM      9  C   UNL     1      -4.094   2.007  -4.557  1.00  0.00     0.023 C 
BRANCH   8  10
ATOM     10  C   UNL     1      -2.614   0.300  -3.262  1.00  0.00    -0.036 A 
ATOM     11  C   UNL     1      -1.658  -0.929  -0.900  1.00  0.00    -0.048 A 
ATOM     12  C   UNL     1      -2.148   0.381  -0.876  1.00  0.00     0.004 A 
ATOM     13  C   UNL     1      -1.703  -1.643  -2.100  1.00  0.00     0.004 A 
ATOM     14  C   UNL     1      -2.637   0.982  -2.039  1.00  0.00     0.005 A 
ATOM     15  C   UNL     1      -2.167  -1.032  -3.267  1.00  0.00     0.005 A 
BRANCH  11  16
ATOM     16  C   UNL     1      -1.036  -1.536   0.334  1.00  0.00     0.038 C 
BRANCH  16  17
ATOM     17  C   UNL     1       0.507  -1.549   0.296  1.00  0.00    -0.013 C 
ATOM     18  C   UNL     1       1.105  -0.142   0.184  1.00  0.00     0.008 C 
ATOM     19  C   UNL     1       1.050  -2.238   1.550  1.00  0.00     0.008 C 
ENDBRANCH  16  17
ENDBRANCH  11  16
ENDBRANCH   8  10
ENDBRANCH   5   8
ENDBRANCH   3   4
ENDBRANCH   2   3
ENDBRANCH   1   2
BRANCH   1  20
ATOM     20  C   UNL     1       1.457   5.199  -3.316  1.00  0.00     0.002 C 
BRANCH  20  21
ATOM     21  C   UNL     1       0.938   5.860  -2.034  1.00  0.00     0.021 C 
BRANCH  21  22
ATOM     22  C   UNL     1       1.715   5.511  -0.767  1.00  0.00     0.116 C 
BRANCH  22  23
ATOM     23  N   UNL     1       3.094   5.966  -0.829  1.00  0.00    -0.352 N 
ATOM     24  C   UNL     1       3.790   6.795   0.013  1.00  0.00     0.251 C 
ATOM     25  H   UNL     1       3.610   5.625  -1.595  1.00  0.00     0.163 HD
ATOM     26  O   UNL     1       4.889   7.224  -0.322  1.00  0.00    -0.269 OA
BRANCH  24  27
ATOM     27  C   UNL     1       3.224   7.188   1.323  1.00  0.00     0.039 A 
ATOM     28  C   UNL     1       3.379   8.510   1.752  1.00  0.00     0.014 A 
ATOM     29  C   UNL     1       2.595   6.255   2.153  1.00  0.00     0.014 A 
ATOM     30  C   UNL     1       2.864   8.907   2.988  1.00  0.00     0.010 A 
ATOM     31  C   UNL     1       2.026   6.665   3.357  1.00  0.00     0.010 A 
ATOM     32  C   UNL     1       2.163   7.993   3.791  1.00  0.00    -0.014 A 
BRANCH  32  33
ATOM     33  C   UNL     1       1.579   8.412   5.090  1.00  0.00     0.031 A 
ATOM     34  C   UNL     1       2.115   7.854   6.379  1.00  0.00     0.074 A 
ATOM     35  C   UNL     1       0.538   9.265   5.106  1.00  0.00     0.049 A 
ATOM     36  N   UNL     1       1.719   8.079   7.607  1.00  0.00    -0.248 NA
ATOM     37  C   UNL     1       3.227   6.899   6.272  1.00  0.00     0.031 C 
ATOM     38  C   UNL     1      -0.098   9.842   3.921  1.00  0.00     0.029 A 
ATOM     39  N   UNL     1      -0.170   9.793   6.155  1.00  0.00    -0.354 N 
ATOM     40  C   UNL     1       2.526   7.289   8.415  1.00  0.00     0.074 A 
ATOM     41  C   UNL     1       3.396   6.537   7.535  1.00  0.00     0.031 C 
ATOM     42  C   UNL     1      -1.081  10.669   4.311  1.00  0.00     0.029 A 
ATOM     43  C   UNL     1      -1.165  10.657   5.768  1.00  0.00     0.049 A 
ATOM     44  H   UNL     1       0.017   9.574   7.097  1.00  0.00     0.167 HD
ATOM     45  C   UNL     1       2.557   7.215   9.768  1.00  0.00     0.037 A 
ATOM     46  C   UNL     1      -2.041  11.363   6.507  1.00  0.00     0.037 A 
ATOM     47  C   UNL     1       1.703   7.976  10.642  1.00  0.00     0.049 A 
ATOM     48  C   UNL     1      -1.989  11.261   8.006  1.00  0.00     0.074 A 
ATOM     49  C   UNL     1       1.685   8.005  12.025  1.00  0.00     0.029 A 
ATOM     50  N   UNL     1       0.712   8.847  10.212  1.00  0.00    -0.354 N 
ATOM     51  N   UNL     1      -1.184  10.554   8.761  1.00  0.00    -0.248 NA
ATOM     52  C   UNL     1      -2.965  12.064   8.755  1.00  0.00     0.031 C 
ATOM     53  C   UNL     1       0.658   8.865  12.433  1.00  0.00     0.029 A 
ATOM     54  C   UNL     1       0.066   9.406  11.304  1.00  0.00     0.049 A 
ATOM     55  H   UNL     1       0.498   9.040   9.271  1.00  0.00     0.167 HD
ATOM     56  C   UNL     1      -1.535  10.847  10.072  1.00  0.00     0.074 A 
ATOM     57  C   UNL     1      -2.618  11.807  10.009  1.00  0.00     0.031 C 
ATOM     58  C   UNL     1      -1.008  10.364  11.224  1.00  0.00     0.037 A 
BRANCH  45  59
ATOM     59  C   UNL     1       3.553   6.274  10.382  1.00  0.00     0.064 A 
ATOM     60  C   UNL     1       4.932   6.533  10.336  1.00  0.00     0.173 A 
ATOM     61  C   UNL     1       3.128   5.109  11.037  1.00  0.00     0.173 A 
ATOM     62  F   UNL     1       5.392   7.628   9.711  1.00  0.00    -0.203 F 
ATOM     63  C   UNL     1       5.849   5.643  10.890  1.00  0.00     0.198 A 
ATOM     64  C   UNL     1       4.046   4.236  11.616  1.00  0.00     0.198 A 
ATOM     65  F   UNL     1       1.821   4.815  11.116  1.00  0.00    -0.203 F 
ATOM     66  F   UNL     1       7.163   5.885  10.783  1.00  0.00    -0.200 F 
ATOM     67  C   UNL     1       5.405   4.499  11.534  1.00  0.00     0.200 A 
ATOM     68  F   UNL     1       3.615   3.135  12.248  1.00  0.00    -0.200 F 
ATOM     69  F   UNL     1       6.288   3.643  12.066  1.00  0.00    -0.200 F 
ENDBRANCH  45  59
BRANCH  46  70
ATOM     70  C   UNL     1      -3.010  12.268   5.839  1.00  0.00     0.064 A 
ATOM     71  C   UNL     1      -2.865  13.660   5.926  1.00  0.00     0.173 A 
ATOM     72  C   UNL     1      -4.090  11.768   5.098  1.00  0.00     0.173 A 
ATOM     73  F   UNL     1      -1.858  14.183   6.641  1.00  0.00    -0.203 F 
ATOM     74  C   UNL     1      -3.773  14.518   5.311  1.00  0.00     0.198 A 
ATOM     75  C   UNL     1      -4.984  12.627   4.463  1.00  0.00     0.198 A 
ATOM     76  F   UNL     1      -4.269  10.444   4.981  1.00  0.00    -0.203 F 
ATOM     77  F   UNL     1      -3.633  15.844   5.442  1.00  0.00    -0.200 F 
ATOM     78  C   UNL     1      -4.828  14.001   4.575  1.00  0.00     0.200 A 
ATOM     79  F   UNL     1      -5.995  12.125   3.741  1.00  0.00    -0.200 F 
ATOM     80  F   UNL     1      -5.699  14.827   3.978  1.00  0.00    -0.200 F 
ENDBRANCH  46  70
BRANCH  58  81
ATOM     81  C   UNL     1      -1.576  10.893  12.508  1.00  0.00     0.064 A 
ATOM     82  C   UNL     1      -2.855  10.529  12.952  1.00  0.00     0.173 A 
ATOM     83  C   UNL     1      -0.823  11.763  13.311  1.00  0.00     0.173 A 
ATOM     84  F   UNL     1      -3.620   9.713  12.211  1.00  0.00    -0.203 F 
ATOM     85  C   UNL     1      -3.372  11.040  14.140  1.00  0.00     0.198 A 
ATOM     86  C   UNL     1      -1.332  12.250  14.512  1.00  0.00     0.198 A 
ATOM     87  F   UNL     1       0.408  12.138  12.933  1.00  0.00    -0.203 F 
ATOM     88  F   UNL     1      -4.618  10.721  14.518  1.00  0.00    -0.200 F 
ATOM     89  C   UNL     1      -2.609  11.896  14.920  1.00  0.00     0.200 A 
ATOM     90  F   UNL     1      -0.590  13.068  15.270  1.00  0.00    -0.200 F 
ATOM     91  F   UNL     1      -3.109  12.387  16.062  1.00  0.00    -0.200 F 
ENDBRANCH  58  81
ENDBRANCH  32  33
ENDBRANCH  24  27
ENDBRANCH  22  23
ENDBRANCH  21  22
ENDBRANCH  20  21
ENDBRANCH   1  20
TORSDOF 16
