REMARK SMILES CCN1C(=O)/C(=C2/SC(=S)N([C@@H](C)C(=O)NCCCCCCNC(=O)c3ccc(-c4c5nc(c(-c6c(F)c(F)c(F)c(F)c6F)c6ccc([nH]6)c(-c6c(F)c(F)c(F)c(F)c6F)c6nc(c(-c7c(F)c(F)c(F)c(F)c7F)c7ccc4[nH]7)C=C6)C=C5)cc3)C2=O)c2cc(Br)ccc21
REMARK SMILES IDX 19 1 18 2 17 3 16 4 14 5 15 6 12 8 13 9 11 10 3 11 4 12
REMARK SMILES IDX 97 13 5 14 6 15 91 16 96 17 7 18 92 19 95 20 8 21 89 22
REMARK SMILES IDX 93 23 9 24 90 25 94 26 10 27 2 28 1 29 20 30 21 31 22 32
REMARK SMILES IDX 23 33 24 34 25 36 26 37 27 38 88 39 28 40 87 41 29 42 30 43
REMARK SMILES IDX 31 44 81 45 32 46 86 47 80 48 82 49 33 50 85 51 79 52 78 53
REMARK SMILES IDX 34 55 66 56 46 57 65 58 47 59 50 60 64 61 83 62 48 63 49 64
REMARK SMILES IDX 63 66 84 67 51 68 35 69 36 70 44 71 37 72 38 73 42 74 45 75
REMARK SMILES IDX 39 76 40 77 43 78 41 79 67 80 68 81 76 82 69 83 70 84 74 85
REMARK SMILES IDX 77 86 71 87 72 88 75 89 73 90 52 91 53 92 61 93 54 94 55 95
REMARK SMILES IDX 59 96 62 97 56 98 57 99 60 100 58 101
REMARK H PARENT 16 7 23 35 82 54 50 65
REMARK Flexibility Score: inf
ROOT
ATOM      1  C   UNL     1       2.930 -11.846  -0.404  1.00  0.00     0.002 C 
ENDROOT
BRANCH   1   2
ATOM      2  C   UNL     1       2.194 -10.680  -1.074  1.00  0.00     0.021 C 
BRANCH   2   3
ATOM      3  C   UNL     1       0.716 -10.959  -1.343  1.00  0.00     0.116 C 
BRANCH   3   4
ATOM      4  N   UNL     1      -0.112 -10.548  -0.232  1.00  0.00    -0.354 N 
ATOM      5  C   UNL     1      -1.063  -9.583  -0.097  1.00  0.00     0.242 C 
ATOM      6  O   UNL     1      -1.632  -9.551   1.001  1.00  0.00    -0.273 OA
ATOM      7  H   UNL     1       0.043 -11.068   0.590  1.00  0.00     0.163 HD
BRANCH   5   8
ATOM      8  C   UNL     1      -1.507  -8.620  -1.233  1.00  0.00     0.178 C 
ATOM      9  C   UNL     1      -2.253  -9.379  -2.327  1.00  0.00     0.042 C 
BRANCH   8  10
ATOM     10  N   UNL     1      -0.429  -7.694  -1.648  1.00  0.00    -0.280 N 
ATOM     11  N   UNL     1       1.173  -2.241  -1.354  1.00  0.00    -0.308 N 
ATOM     12  C   UNL     1       0.447  -3.397  -1.041  1.00  0.00     0.260 C 
ATOM     13  C   UNL     1       2.457  -2.549  -1.827  1.00  0.00     0.052 A 
ATOM     14  O   UNL     1      -0.711  -3.463  -0.690  1.00  0.00    -0.269 OA
ATOM     15  C   UNL     1       1.380  -4.543  -1.362  1.00  0.00     0.069 C 
ATOM     16  C   UNL     1       2.639  -3.934  -1.854  1.00  0.00     0.014 A 
ATOM     17  C   UNL     1       3.448  -1.672  -2.248  1.00  0.00     0.028 A 
ATOM     18  C   UNL     1       1.035  -5.842  -1.350  1.00  0.00     0.093 C 
ATOM     19  C   UNL     1       3.850  -4.457  -2.294  1.00  0.00     0.026 A 
ATOM     20  C   UNL     1       4.652  -2.204  -2.719  1.00  0.00     0.018 A 
ATOM     21  S   UNL     1       1.966  -7.075  -2.134  1.00  0.00    -0.053 SA
ATOM     22  C   UNL     1      -0.227  -6.526  -0.896  1.00  0.00     0.267 C 
ATOM     23  C   UNL     1       4.844  -3.588  -2.742  1.00  0.00     0.018 A 
ATOM     24  C   UNL     1       0.498  -7.869  -2.640  1.00  0.00     0.149 C 
ATOM     25  O   UNL     1      -0.913  -6.151   0.039  1.00  0.00    -0.268 OA
ATOM     26  Br  UNL     1       6.463  -4.306  -3.406  1.00  0.00    -0.051 Br
ATOM     27  S   UNL     1       0.378  -8.537  -4.161  1.00  0.00    -0.052 S 
BRANCH  11  28
ATOM     28  C   UNL     1       0.645  -0.895  -1.250  1.00  0.00     0.122 C 
ATOM     29  C   UNL     1       1.063  -0.215   0.044  1.00  0.00     0.028 C 
ENDBRANCH  11  28
ENDBRANCH   8  10
ENDBRANCH   5   8
ENDBRANCH   3   4
ENDBRANCH   2   3
ENDBRANCH   1   2
BRANCH   1  30
ATOM     30  C   UNL     1       2.994 -13.137  -1.232  1.00  0.00     0.002 C 
BRANCH  30  31
ATOM     31  C   UNL     1       3.551 -12.977  -2.647  1.00  0.00     0.021 C 
BRANCH  31  32
ATOM     32  C   UNL     1       4.960 -12.399  -2.705  1.00  0.00     0.116 C 
BRANCH  32  33
ATOM     33  N   UNL     1       5.944 -13.270  -2.075  1.00  0.00    -0.352 N 
ATOM     34  C   UNL     1       7.048 -13.879  -2.623  1.00  0.00     0.251 C 
ATOM     35  H   UNL     1       5.796 -13.448  -1.118  1.00  0.00     0.163 HD
ATOM     36  O   UNL     1       7.668 -14.734  -2.001  1.00  0.00    -0.269 OA
BRANCH  34  37
ATOM     37  C   UNL     1       7.459 -13.513  -3.993  1.00  0.00     0.039 A 
ATOM     38  C   UNL     1       7.524 -12.170  -4.367  1.00  0.00     0.014 A 
ATOM     39  C   UNL     1       7.715 -14.521  -4.926  1.00  0.00     0.014 A 
ATOM     40  C   UNL     1       7.641 -11.841  -5.710  1.00  0.00     0.010 A 
ATOM     41  C   UNL     1       7.935 -14.181  -6.262  1.00  0.00     0.010 A 
ATOM     42  C   UNL     1       7.838 -12.842  -6.676  1.00  0.00    -0.014 A 
BRANCH  42  43
ATOM     43  C   UNL     1       7.911 -12.468  -8.112  1.00  0.00     0.031 A 
ATOM     44  C   UNL     1       6.874 -12.960  -9.087  1.00  0.00     0.074 A 
ATOM     45  C   UNL     1       8.883 -11.634  -8.527  1.00  0.00     0.049 A 
ATOM     46  N   UNL     1       6.785 -12.746 -10.377  1.00  0.00    -0.248 NA
ATOM     47  C   UNL     1       5.795 -13.803  -8.548  1.00  0.00     0.031 C 
ATOM     48  C   UNL     1       9.926 -11.067  -7.670  1.00  0.00     0.029 A 
ATOM     49  N   UNL     1       9.141 -11.099  -9.763  1.00  0.00    -0.354 N 
ATOM     50  C   UNL     1       5.657 -13.436 -10.802  1.00  0.00     0.074 A 
ATOM     51  C   UNL     1       5.112 -14.108  -9.643  1.00  0.00     0.031 C 
ATOM     52  C   UNL     1      10.678 -10.225  -8.392  1.00  0.00     0.029 A 
ATOM     53  C   UNL     1      10.222 -10.252  -9.778  1.00  0.00     0.049 A 
ATOM     54  H   UNL     1       8.604 -11.303 -10.562  1.00  0.00     0.167 HD
ATOM     55  C   UNL     1       5.116 -13.489 -12.043  1.00  0.00     0.037 A 
ATOM     56  C   UNL     1      10.796  -9.586 -10.796  1.00  0.00     0.037 A 
ATOM     57  C   UNL     1       5.653 -12.802 -13.190  1.00  0.00     0.049 A 
ATOM     58  C   UNL     1      10.220  -9.724 -12.177  1.00  0.00     0.074 A 
ATOM     59  C   UNL     1       5.172 -12.787 -14.488  1.00  0.00     0.029 A 
ATOM     60  N   UNL     1       6.790 -12.007 -13.178  1.00  0.00    -0.354 N 
ATOM     61  N   UNL     1       9.155 -10.381 -12.566  1.00  0.00    -0.248 NA
ATOM     62  C   UNL     1      10.931  -9.034 -13.261  1.00  0.00     0.031 C 
ATOM     63  C   UNL     1       6.047 -12.029 -15.271  1.00  0.00     0.029 A 
ATOM     64  C   UNL     1       7.040 -11.519 -14.451  1.00  0.00     0.049 A 
ATOM     65  H   UNL     1       7.339 -11.818 -12.382  1.00  0.00     0.167 HD
ATOM     66  C   UNL     1       9.056 -10.169 -13.934  1.00  0.00     0.074 A 
ATOM     67  C   UNL     1      10.157  -9.303 -14.303  1.00  0.00     0.031 C 
ATOM     68  C   UNL     1       8.138 -10.655 -14.806  1.00  0.00     0.037 A 
BRANCH  55  69
ATOM     69  C   UNL     1       3.879 -14.320 -12.240  1.00  0.00     0.064 A 
ATOM     70  C   UNL     1       2.638 -13.928 -11.718  1.00  0.00     0.173 A 
ATOM     71  C   UNL     1       3.921 -15.484 -13.024  1.00  0.00     0.173 A 
ATOM     72  F   UNL     1       2.543 -12.831 -10.952  1.00  0.00    -0.203 F 
ATOM     73  C   UNL     1       1.488 -14.676 -11.962  1.00  0.00     0.198 A 
ATOM     74  C   UNL     1       2.764 -16.212 -13.292  1.00  0.00     0.198 A 
ATOM     75  F   UNL     1       5.080 -15.902 -13.554  1.00  0.00    -0.203 F 
ATOM     76  F   UNL     1       0.320 -14.300 -11.423  1.00  0.00    -0.200 F 
ATOM     77  C   UNL     1       1.550 -15.810 -12.757  1.00  0.00     0.200 A 
ATOM     78  F   UNL     1       2.823 -17.298 -14.075  1.00  0.00    -0.200 F 
ATOM     79  F   UNL     1       0.439 -16.517 -13.007  1.00  0.00    -0.200 F 
ENDBRANCH  55  69
BRANCH  56  80
ATOM     80  C   UNL     1      11.983  -8.730 -10.537  1.00  0.00     0.064 A 
ATOM     81  C   UNL     1      11.906  -7.337 -10.663  1.00  0.00     0.173 A 
ATOM     82  C   UNL     1      13.207  -9.282 -10.129  1.00  0.00     0.173 A 
ATOM     83  F   UNL     1      10.763  -6.764 -11.070  1.00  0.00    -0.203 F 
ATOM     84  C   UNL     1      13.009  -6.529 -10.398  1.00  0.00     0.198 A 
ATOM     85  C   UNL     1      14.299  -8.470  -9.831  1.00  0.00     0.198 A 
ATOM     86  F   UNL     1      13.333 -10.610  -9.989  1.00  0.00    -0.203 F 
ATOM     87  F   UNL     1      12.918  -5.202 -10.560  1.00  0.00    -0.200 F 
ATOM     88  C   UNL     1      14.201  -7.095  -9.972  1.00  0.00     0.200 A 
ATOM     89  F   UNL     1      15.443  -9.021  -9.400  1.00  0.00    -0.200 F 
ATOM     90  F   UNL     1      15.256  -6.315  -9.699  1.00  0.00    -0.200 F 
ENDBRANCH  56  80
BRANCH  68  91
ATOM     91  C   UNL     1       8.266 -10.246 -16.245  1.00  0.00     0.064 A 
ATOM     92  C   UNL     1       9.302 -10.731 -17.057  1.00  0.00     0.173 A 
ATOM     93  C   UNL     1       7.308  -9.408 -16.836  1.00  0.00     0.173 A 
ATOM     94  F   UNL     1      10.252 -11.524 -16.537  1.00  0.00    -0.203 F 
ATOM     95  C   UNL     1       9.386 -10.375 -18.400  1.00  0.00     0.198 A 
ATOM     96  C   UNL     1       7.375  -9.083 -18.187  1.00  0.00     0.198 A 
ATOM     97  F   UNL     1       6.291  -8.923 -16.106  1.00  0.00    -0.203 F 
ATOM     98  F   UNL     1      10.410 -10.814 -19.145  1.00  0.00    -0.200 F 
ATOM     99  C   UNL     1       8.417  -9.561 -18.966  1.00  0.00     0.200 A 
ATOM    100  F   UNL     1       6.427  -8.310 -18.737  1.00  0.00    -0.200 F 
ATOM    101  F   UNL     1       8.491  -9.232 -20.264  1.00  0.00    -0.200 F 
ENDBRANCH  68  91
ENDBRANCH  42  43
ENDBRANCH  34  37
ENDBRANCH  32  33
ENDBRANCH  31  32
ENDBRANCH  30  31
ENDBRANCH   1  30
TORSDOF 15
