REMARK SMILES O=C(NCCCCCCNC(=O)[C@@H](F)[C@H](O)c1cccc(Cl)c1)c1ccc(-c2c3nc(c(-c4c(F)c(F)c(F)c(F)c4F)c4ccc([nH]4)c(-c4c(F)c(F)c(F)c(F)c4F)c4nc(c(-c5c(F)c(F)c(F)c(F)c5F)c5ccc2[nH]5)C=C4)C=C3)cc1
REMARK SMILES IDX 6 1 5 2 4 3 3 4 1 5 2 6 24 8 25 9 86 10 26 11 85 12 27 13
REMARK SMILES IDX 28 14 29 15 79 16 30 17 84 18 78 19 80 20 31 21 83 22 77 23
REMARK SMILES IDX 76 24 32 26 64 27 44 28 63 29 45 30 48 31 62 32 81 33 46 34
REMARK SMILES IDX 47 35 61 37 82 38 49 39 33 40 34 41 42 42 35 43 36 44 40 45
REMARK SMILES IDX 43 46 37 47 38 48 41 49 39 50 65 51 66 52 74 53 67 54 68 55
REMARK SMILES IDX 72 56 75 57 69 58 70 59 73 60 71 61 50 62 51 63 59 64 52 65
REMARK SMILES IDX 53 66 57 67 60 68 54 69 55 70 58 71 56 72 7 73 8 74 9 75
REMARK SMILES IDX 10 76 11 77 12 79 13 80 14 81 15 82 17 83 18 84 23 85 19 86
REMARK SMILES IDX 21 87 20 88 22 89 16 90
REMARK H PARENT 3 7 80 25 48 36 10 78 16 91
REMARK Flexibility Score: inf
ROOT
ATOM      1  C   UNL     1      11.832  11.300   6.552  1.00  0.00     0.002 C 
ENDROOT
BRANCH   1   2
ATOM      2  C   UNL     1      13.102  11.602   5.757  1.00  0.00     0.021 C 
BRANCH   2   3
ATOM      3  C   UNL     1      13.193  13.015   5.200  1.00  0.00     0.116 C 
BRANCH   3   4
ATOM      4  N   UNL     1      13.240  14.026   6.243  1.00  0.00    -0.352 N 
ATOM      5  O   UNL     1      14.153  15.691   7.467  1.00  0.00    -0.269 OA
ATOM      6  C   UNL     1      14.170  15.014   6.441  1.00  0.00     0.251 C 
ATOM      7  H   UNL     1      12.505  13.997   6.897  1.00  0.00     0.163 HD
BRANCH   6   8
ATOM      8  C   UNL     1      15.205  15.259   5.416  1.00  0.00     0.039 A 
ATOM      9  C   UNL     1      14.859  15.332   4.063  1.00  0.00     0.014 A 
ATOM     10  C   UNL     1      16.532  15.443   5.814  1.00  0.00     0.014 A 
ATOM     11  C   UNL     1      15.851  15.485   3.102  1.00  0.00     0.010 A 
ATOM     12  C   UNL     1      17.517  15.682   4.853  1.00  0.00     0.010 A 
ATOM     13  C   UNL     1      17.183  15.701   3.489  1.00  0.00    -0.014 A 
BRANCH  13  14
ATOM     14  C   UNL     1      18.183  16.087   2.465  1.00  0.00     0.031 A 
ATOM     15  C   UNL     1      19.360  15.213   2.148  1.00  0.00     0.074 A 
ATOM     16  C   UNL     1      18.019  17.270   1.839  1.00  0.00     0.049 A 
ATOM     17  N   UNL     1      20.348  15.436   1.318  1.00  0.00    -0.248 NA
ATOM     18  C   UNL     1      19.448  13.925   2.852  1.00  0.00     0.031 C 
ATOM     19  C   UNL     1      16.918  18.206   2.087  1.00  0.00     0.029 A 
ATOM     20  N   UNL     1      18.771  17.894   0.876  1.00  0.00    -0.354 N 
ATOM     21  C   UNL     1      21.185  14.333   1.416  1.00  0.00     0.074 A 
ATOM     22  C   UNL     1      20.597  13.442   2.393  1.00  0.00     0.031 C 
ATOM     23  C   UNL     1      17.057  19.273   1.289  1.00  0.00     0.029 A 
ATOM     24  C   UNL     1      18.291  19.133   0.529  1.00  0.00     0.049 A 
ATOM     25  H   UNL     1      19.575  17.492   0.474  1.00  0.00     0.167 HD
ATOM     26  C   UNL     1      22.338  14.098   0.746  1.00  0.00     0.037 A 
ATOM     27  C   UNL     1      18.811  20.077  -0.278  1.00  0.00     0.037 A 
ATOM     28  C   UNL     1      22.898  14.987  -0.241  1.00  0.00     0.049 A 
ATOM     29  C   UNL     1      20.114  19.796  -0.971  1.00  0.00     0.074 A 
ATOM     30  C   UNL     1      24.014  14.795  -1.037  1.00  0.00     0.029 A 
ATOM     31  N   UNL     1      22.396  16.242  -0.553  1.00  0.00    -0.354 N 
ATOM     32  N   UNL     1      20.853  18.715  -0.934  1.00  0.00    -0.248 NA
ATOM     33  C   UNL     1      20.662  20.869  -1.811  1.00  0.00     0.031 C 
ATOM     34  C   UNL     1      24.230  15.962  -1.776  1.00  0.00     0.029 A 
ATOM     35  C   UNL     1      23.213  16.857  -1.489  1.00  0.00     0.049 A 
ATOM     36  H   UNL     1      21.582  16.638  -0.167  1.00  0.00     0.167 HD
ATOM     37  C   UNL     1      21.943  18.971  -1.751  1.00  0.00     0.074 A 
ATOM     38  C   UNL     1      21.754  20.299  -2.297  1.00  0.00     0.031 C 
ATOM     39  C   UNL     1      23.011  18.181  -2.019  1.00  0.00     0.037 A 
BRANCH  26  40
ATOM     40  C   UNL     1      23.104  12.845   1.057  1.00  0.00     0.064 A 
ATOM     41  C   UNL     1      22.666  11.582   0.633  1.00  0.00     0.173 A 
ATOM     42  C   UNL     1      24.353  12.926   1.694  1.00  0.00     0.173 A 
ATOM     43  F   UNL     1      21.479  11.449   0.023  1.00  0.00    -0.203 F 
ATOM     44  C   UNL     1      23.447  10.447   0.841  1.00  0.00     0.198 A 
ATOM     45  C   UNL     1      25.142  11.793   1.877  1.00  0.00     0.198 A 
ATOM     46  F   UNL     1      24.823  14.111   2.111  1.00  0.00    -0.203 F 
ATOM     47  F   UNL     1      23.000   9.247   0.444  1.00  0.00    -0.200 F 
ATOM     48  C   UNL     1      24.688  10.555   1.451  1.00  0.00     0.200 A 
ATOM     49  F   UNL     1      26.348  11.904   2.451  1.00  0.00    -0.200 F 
ATOM     50  F   UNL     1      25.448   9.465   1.627  1.00  0.00    -0.200 F 
ENDBRANCH  26  40
BRANCH  27  51
ATOM     51  C   UNL     1      18.129  21.389  -0.426  1.00  0.00     0.064 A 
ATOM     52  C   UNL     1      17.595  21.795  -1.656  1.00  0.00     0.173 A 
ATOM     53  C   UNL     1      18.018  22.275   0.657  1.00  0.00     0.173 A 
ATOM     54  F   UNL     1      17.691  20.992  -2.726  1.00  0.00    -0.203 F 
ATOM     55  C   UNL     1      17.005  23.049  -1.805  1.00  0.00     0.198 A 
ATOM     56  C   UNL     1      17.394  23.512   0.517  1.00  0.00     0.198 A 
ATOM     57  F   UNL     1      18.507  21.934   1.859  1.00  0.00    -0.203 F 
ATOM     58  F   UNL     1      16.559  23.437  -3.007  1.00  0.00    -0.200 F 
ATOM     59  C   UNL     1      16.901  23.904  -0.717  1.00  0.00     0.200 A 
ATOM     60  F   UNL     1      17.278  24.325   1.575  1.00  0.00    -0.200 F 
ATOM     61  F   UNL     1      16.335  25.109  -0.862  1.00  0.00    -0.200 F 
ENDBRANCH  27  51
BRANCH  39  62
ATOM     62  C   UNL     1      24.053  18.730  -2.949  1.00  0.00     0.064 A 
ATOM     63  C   UNL     1      24.915  19.763  -2.552  1.00  0.00     0.173 A 
ATOM     64  C   UNL     1      24.221  18.187  -4.231  1.00  0.00     0.173 A 
ATOM     65  F   UNL     1      24.780  20.329  -1.343  1.00  0.00    -0.203 F 
ATOM     66  C   UNL     1      25.896  20.245  -3.414  1.00  0.00     0.198 A 
ATOM     67  C   UNL     1      25.225  18.649  -5.077  1.00  0.00     0.198 A 
ATOM     68  F   UNL     1      23.424  17.196  -4.657  1.00  0.00    -0.203 F 
ATOM     69  F   UNL     1      26.679  21.263  -3.031  1.00  0.00    -0.200 F 
ATOM     70  C   UNL     1      26.057  19.681  -4.671  1.00  0.00     0.200 A 
ATOM     71  F   UNL     1      25.388  18.093  -6.286  1.00  0.00    -0.200 F 
ATOM     72  F   UNL     1      27.012  20.137  -5.493  1.00  0.00    -0.200 F 
ENDBRANCH  39  62
ENDBRANCH  13  14
ENDBRANCH   6   8
ENDBRANCH   3   4
ENDBRANCH   2   3
ENDBRANCH   1   2
BRANCH   1  73
ATOM     73  C   UNL     1      10.513  11.600   5.835  1.00  0.00     0.002 C 
BRANCH  73  74
ATOM     74  C   UNL     1      10.343  10.966   4.453  1.00  0.00     0.021 C 
BRANCH  74  75
ATOM     75  C   UNL     1      10.512   9.453   4.392  1.00  0.00     0.116 C 
BRANCH  75  76
ATOM     76  N   UNL     1       9.559   8.732   5.210  1.00  0.00    -0.353 N 
ATOM     77  C   UNL     1       8.842   7.606   4.946  1.00  0.00     0.257 C 
ATOM     78  H   UNL     1       9.405   9.120   6.102  1.00  0.00     0.163 HD
ATOM     79  O   UNL     1       8.198   7.113   5.883  1.00  0.00    -0.272 OA
BRANCH  77  80
ATOM     80  C   UNL     1       8.770   6.947   3.574  1.00  0.00     0.288 C 
ATOM     81  F   UNL     1       9.190   7.708   2.526  1.00  0.00    -0.234 F 
BRANCH  80  82
ATOM     82  C   UNL     1       9.408   5.537   3.529  1.00  0.00     0.188 C 
BRANCH  82  83
ATOM     83  C   UNL     1      10.922   5.381   3.417  1.00  0.00    -0.015 A 
ATOM     84  C   UNL     1      11.493   4.099   3.539  1.00  0.00     0.006 A 
ATOM     85  C   UNL     1      11.787   6.431   3.087  1.00  0.00     0.027 A 
ATOM     86  C   UNL     1      12.866   3.887   3.372  1.00  0.00     0.002 A 
ATOM     87  C   UNL     1      13.165   6.227   2.952  1.00  0.00     0.041 A 
ATOM     88  C   UNL     1      13.709   4.957   3.090  1.00  0.00     0.020 A 
ATOM     89  Cl  UNL     1      14.188   7.568   2.601  1.00  0.00    -0.084 Cl
ENDBRANCH  82  83
BRANCH  82  90
ATOM     90  O   UNL     1       8.936   4.680   4.583  1.00  0.00    -0.385 OA
ATOM     91  H   UNL     1       9.283   4.992   5.434  1.00  0.00     0.211 HD
ENDBRANCH  82  90
ENDBRANCH  80  82
ENDBRANCH  77  80
ENDBRANCH  75  76
ENDBRANCH  74  75
ENDBRANCH  73  74
ENDBRANCH   1  73
TORSDOF 16
