REMARK SMILES CC1=Nc2c(c(C)nn2-c2ccc(F)cc2)[C@H](c2ccc(C(=O)NCCCCCCNC(=O)c3ccc(-c4c5nc(c(-c6c(F)c(F)c(F)c(F)c6F)c6ccc([nH]6)c(-c6c(F)c(F)c(F)c(F)c6F)c6nc(c(-c7c(F)c(F)c(F)c(F)c7F)c7ccc4[nH]7)C=C6)C=C5)cc3)cc2)S1
REMARK SMILES IDX 27 1 26 2 25 3 24 4 22 5 23 6 21 8 18 9 19 10 98 11 20 12
REMARK SMILES IDX 97 13 17 14 1 15 2 16 3 17 99 18 4 19 5 20 9 21 6 22 8 23
REMARK SMILES IDX 7 24 10 25 11 26 16 27 12 28 15 29 13 30 14 31 28 32 29 33
REMARK SMILES IDX 30 34 31 35 32 36 33 38 34 39 35 40 96 41 36 42 95 43 37 44
REMARK SMILES IDX 38 45 39 46 89 47 40 48 94 49 88 50 90 51 41 52 93 53 87 54
REMARK SMILES IDX 86 55 42 57 74 58 54 59 73 60 55 61 58 62 72 63 91 64 56 65
REMARK SMILES IDX 57 66 71 68 92 69 59 70 43 71 44 72 52 73 45 74 46 75 50 76
REMARK SMILES IDX 53 77 47 78 48 79 51 80 49 81 75 82 76 83 84 84 77 85 78 86
REMARK SMILES IDX 82 87 85 88 79 89 80 90 83 91 81 92 60 93 61 94 69 95 62 96
REMARK SMILES IDX 63 97 67 98 70 99 64 100 65 101 68 102 66 103
REMARK H PARENT 24 7 31 37 90 56 58 67
REMARK Flexibility Score: inf
ROOT
ATOM      1  C   UNL     1       9.275  -3.023   2.342  1.00  0.00     0.002 C 
ENDROOT
BRANCH   1   2
ATOM      2  C   UNL     1       7.781  -2.787   2.083  1.00  0.00     0.021 C 
BRANCH   2   3
ATOM      3  C   UNL     1       7.102  -3.953   1.362  1.00  0.00     0.116 C 
BRANCH   3   4
ATOM      4  N   UNL     1       6.882  -5.043   2.292  1.00  0.00    -0.352 N 
ATOM      5  C   UNL     1       5.743  -5.540   2.867  1.00  0.00     0.251 C 
ATOM      6  O   UNL     1       5.848  -6.487   3.645  1.00  0.00    -0.269 OA
ATOM      7  H   UNL     1       7.704  -5.514   2.559  1.00  0.00     0.163 HD
BRANCH   5   8
ATOM      8  C   UNL     1       4.393  -5.034   2.520  1.00  0.00     0.039 A 
ATOM      9  C   UNL     1       1.780  -4.265   1.751  1.00  0.00    -0.030 A 
ATOM     10  C   UNL     1       2.077  -5.601   2.069  1.00  0.00     0.006 A 
ATOM     11  C   UNL     1       2.810  -3.316   1.879  1.00  0.00     0.006 A 
ATOM     12  C   UNL     1       3.363  -5.978   2.458  1.00  0.00     0.014 A 
ATOM     13  C   UNL     1       4.096  -3.693   2.280  1.00  0.00     0.014 A 
BRANCH   9  14
ATOM     14  C   UNL     1       0.355  -3.899   1.359  1.00  0.00     0.119 C 
ATOM     15  C   UNL     1       0.793  -0.062  -0.059  1.00  0.00     0.075 C 
ATOM     16  C   UNL     1       0.237  -1.200   0.757  1.00  0.00     0.074 C 
ATOM     17  N   UNL     1      -0.154  -0.951   1.968  1.00  0.00    -0.227 NA
ATOM     18  S   UNL     1       0.249  -2.759  -0.058  1.00  0.00    -0.098 SA
ATOM     19  C   UNL     1      -0.504  -1.996   2.757  1.00  0.00     0.161 A 
ATOM     20  C   UNL     1      -0.266  -3.340   2.579  1.00  0.00     0.038 A 
ATOM     21  N   UNL     1      -1.062  -1.868   4.020  1.00  0.00    -0.215 N 
ATOM     22  C   UNL     1      -0.685  -3.954   3.787  1.00  0.00     0.067 A 
ATOM     23  N   UNL     1      -1.073  -3.048   4.692  1.00  0.00    -0.171 NA
ATOM     24  C   UNL     1      -0.682  -5.394   4.148  1.00  0.00     0.069 C 
BRANCH  21  25
ATOM     25  C   UNL     1      -1.588  -0.696   4.612  1.00  0.00     0.067 A 
ATOM     26  C   UNL     1      -2.321   0.209   3.831  1.00  0.00     0.031 A 
ATOM     27  C   UNL     1      -1.379  -0.457   5.976  1.00  0.00     0.031 A 
ATOM     28  C   UNL     1      -2.845   1.358   4.419  1.00  0.00     0.041 A 
ATOM     29  C   UNL     1      -1.861   0.723   6.543  1.00  0.00     0.041 A 
ATOM     30  C   UNL     1      -2.595   1.613   5.764  1.00  0.00     0.123 A 
ATOM     31  F   UNL     1      -3.070   2.737   6.316  1.00  0.00    -0.207 F 
ENDBRANCH  21  25
ENDBRANCH   9  14
ENDBRANCH   5   8
ENDBRANCH   3   4
ENDBRANCH   2   3
ENDBRANCH   1   2
BRANCH   1  32
ATOM     32  C   UNL     1      10.121  -3.309   1.090  1.00  0.00     0.002 C 
BRANCH  32  33
ATOM     33  C   UNL     1       9.975  -2.307  -0.065  1.00  0.00     0.021 C 
BRANCH  33  34
ATOM     34  C   UNL     1      10.538  -0.933   0.259  1.00  0.00     0.116 C 
BRANCH  34  35
ATOM     35  N   UNL     1      11.995  -0.958   0.408  1.00  0.00    -0.352 N 
ATOM     36  C   UNL     1      12.835   0.070   0.767  1.00  0.00     0.251 C 
ATOM     37  H   UNL     1      12.429  -1.823   0.229  1.00  0.00     0.163 HD
ATOM     38  O   UNL     1      14.041   0.031   0.498  1.00  0.00    -0.269 OA
BRANCH  36  39
ATOM     39  C   UNL     1      12.280   1.219   1.490  1.00  0.00     0.039 A 
ATOM     40  C   UNL     1      12.689   2.529   1.229  1.00  0.00     0.014 A 
ATOM     41  C   UNL     1      11.297   0.953   2.439  1.00  0.00     0.014 A 
ATOM     42  C   UNL     1      12.045   3.573   1.888  1.00  0.00     0.010 A 
ATOM     43  C   UNL     1      10.540   1.976   2.933  1.00  0.00     0.010 A 
ATOM     44  C   UNL     1      10.960   3.283   2.730  1.00  0.00    -0.014 A 
BRANCH  44  45
ATOM     45  C   UNL     1      10.172   4.338   3.350  1.00  0.00     0.031 A 
ATOM     46  C   UNL     1       9.565   5.292   2.385  1.00  0.00     0.074 A 
ATOM     47  C   UNL     1       9.828   4.298   4.657  1.00  0.00     0.049 A 
ATOM     48  N   UNL     1       9.805   6.555   2.262  1.00  0.00    -0.248 NA
ATOM     49  C   UNL     1       8.682   4.750   1.337  1.00  0.00     0.031 C 
ATOM     50  C   UNL     1      10.089   3.236   5.640  1.00  0.00     0.029 A 
ATOM     51  N   UNL     1       9.069   5.172   5.370  1.00  0.00    -0.354 N 
ATOM     52  C   UNL     1       8.962   7.010   1.251  1.00  0.00     0.074 A 
ATOM     53  C   UNL     1       8.439   5.837   0.602  1.00  0.00     0.031 C 
ATOM     54  C   UNL     1       9.313   3.418   6.730  1.00  0.00     0.029 A 
ATOM     55  C   UNL     1       8.643   4.697   6.606  1.00  0.00     0.049 A 
ATOM     56  H   UNL     1       8.838   6.070   5.038  1.00  0.00     0.167 HD
ATOM     57  C   UNL     1       8.575   8.315   1.200  1.00  0.00     0.037 A 
ATOM     58  C   UNL     1       7.785   5.313   7.457  1.00  0.00     0.037 A 
ATOM     59  C   UNL     1       9.438   9.135   2.011  1.00  0.00     0.049 A 
ATOM     60  C   UNL     1       7.753   6.745   7.072  1.00  0.00     0.074 A 
ATOM     61  C   UNL     1      10.781   9.451   1.988  1.00  0.00     0.029 A 
ATOM     62  N   UNL     1       8.998   9.457   3.271  1.00  0.00    -0.354 N 
ATOM     63  N   UNL     1       8.773   7.550   7.188  1.00  0.00    -0.248 NA
ATOM     64  C   UNL     1       6.728   7.161   6.130  1.00  0.00     0.031 C 
ATOM     65  C   UNL     1      11.174   9.495   3.358  1.00  0.00     0.029 A 
ATOM     66  C   UNL     1      10.040   9.280   4.143  1.00  0.00     0.049 A 
ATOM     67  H   UNL     1       8.092   9.762   3.507  1.00  0.00     0.167 HD
ATOM     68  C   UNL     1       8.732   8.335   6.045  1.00  0.00     0.074 A 
ATOM     69  C   UNL     1       7.403   8.111   5.479  1.00  0.00     0.031 C 
ATOM     70  C   UNL     1       9.876   8.859   5.517  1.00  0.00     0.037 A 
BRANCH  57  71
ATOM     71  C   UNL     1       7.214   8.791   0.744  1.00  0.00     0.064 A 
ATOM     72  C   UNL     1       6.066   7.971   0.681  1.00  0.00     0.173 A 
ATOM     73  C   UNL     1       6.969  10.177   0.651  1.00  0.00     0.173 A 
ATOM     74  F   UNL     1       6.122   6.645   0.853  1.00  0.00    -0.203 F 
ATOM     75  C   UNL     1       4.779   8.492   0.556  1.00  0.00     0.198 A 
ATOM     76  C   UNL     1       5.674  10.698   0.581  1.00  0.00     0.198 A 
ATOM     77  F   UNL     1       7.980  11.056   0.720  1.00  0.00    -0.203 F 
ATOM     78  F   UNL     1       3.731   7.657   0.536  1.00  0.00    -0.200 F 
ATOM     79  C   UNL     1       4.580   9.855   0.538  1.00  0.00     0.200 A 
ATOM     80  F   UNL     1       5.487  12.024   0.625  1.00  0.00    -0.200 F 
ATOM     81  F   UNL     1       3.336  10.351   0.529  1.00  0.00    -0.200 F 
ENDBRANCH  57  71
BRANCH  58  82
ATOM     82  C   UNL     1       6.757   4.707   8.337  1.00  0.00     0.064 A 
ATOM     83  C   UNL     1       6.114   3.505   7.983  1.00  0.00     0.173 A 
ATOM     84  C   UNL     1       6.173   5.444   9.381  1.00  0.00     0.173 A 
ATOM     85  F   UNL     1       6.553   2.772   6.949  1.00  0.00    -0.203 F 
ATOM     86  C   UNL     1       4.943   3.081   8.615  1.00  0.00     0.198 A 
ATOM     87  C   UNL     1       4.998   5.019  10.011  1.00  0.00     0.198 A 
ATOM     88  F   UNL     1       6.697   6.622   9.748  1.00  0.00    -0.203 F 
ATOM     89  F   UNL     1       4.329   1.964   8.197  1.00  0.00    -0.200 F 
ATOM     90  C   UNL     1       4.377   3.845   9.619  1.00  0.00     0.200 A 
ATOM     91  F   UNL     1       4.434   5.782  10.958  1.00  0.00    -0.200 F 
ATOM     92  F   UNL     1       3.215   3.473  10.175  1.00  0.00    -0.200 F 
ENDBRANCH  58  82
BRANCH  70  93
ATOM     93  C   UNL     1      11.131   8.796   6.348  1.00  0.00     0.064 A 
ATOM     94  C   UNL     1      11.783  10.000   6.642  1.00  0.00     0.173 A 
ATOM     95  C   UNL     1      11.790   7.604   6.698  1.00  0.00     0.173 A 
ATOM     96  F   UNL     1      11.223  11.168   6.290  1.00  0.00    -0.203 F 
ATOM     97  C   UNL     1      13.041  10.016   7.237  1.00  0.00     0.198 A 
ATOM     98  C   UNL     1      13.035   7.622   7.327  1.00  0.00     0.198 A 
ATOM     99  F   UNL     1      11.277   6.411   6.380  1.00  0.00    -0.203 F 
ATOM    100  F   UNL     1      13.666  11.184   7.439  1.00  0.00    -0.200 F 
ATOM    101  C   UNL     1      13.665   8.828   7.584  1.00  0.00     0.200 A 
ATOM    102  F   UNL     1      13.646   6.471   7.646  1.00  0.00    -0.200 F 
ATOM    103  F   UNL     1      14.886   8.847   8.136  1.00  0.00    -0.200 F 
ENDBRANCH  70  93
ENDBRANCH  44  45
ENDBRANCH  36  39
ENDBRANCH  34  35
ENDBRANCH  33  34
ENDBRANCH  32  33
ENDBRANCH   1  32
TORSDOF 15
