REMARK SMILES O=C(C[N@@H+]1CCC[C@@H]1C(=O)NCCCCCCNC(=O)c1ccc(-c2c3nc(c(-c4c(F)c(F)c(F)c(F)c4F)c4ccc([nH]4)c(-c4c(F)c(F)c(F)c(F)c4F)c4nc(c(-c5c(F)c(F)c(F)c(F)c5F)c5ccc2[nH]5)C=C4)C=C3)cc1)NCc1ccc(Cl)cc1
REMARK SMILES IDX 13 1 12 2 11 3 9 4 10 5 8 7 4 8 5 9 6 11 7 12 3 13 2 14 1 15
REMARK SMILES IDX 84 16 85 18 86 19 87 20 92 21 88 22 91 23 89 24 90 25 14 26
REMARK SMILES IDX 15 27 16 28 17 29 18 30 19 31 20 33 21 34 22 35 83 36 23 37
REMARK SMILES IDX 82 38 24 39 25 40 26 41 76 42 27 43 81 44 75 45 77 46 28 47
REMARK SMILES IDX 80 48 74 49 73 50 29 52 61 53 41 54 60 55 42 56 45 57 59 58
REMARK SMILES IDX 78 59 43 60 44 61 58 63 79 64 46 65 30 66 31 67 39 68 32 69
REMARK SMILES IDX 33 70 37 71 40 72 34 73 35 74 38 75 36 76 62 77 63 78 71 79
REMARK SMILES IDX 64 80 65 81 69 82 72 83 66 84 67 85 70 86 68 87 47 88 48 89
REMARK SMILES IDX 56 90 49 91 50 92 54 93 57 94 51 95 52 96 55 97 53 98
REMARK H PARENT 11 6 4 10 84 17 18 32 77 51 45 62
REMARK Flexibility Score: inf
ROOT
ATOM      1  C   UNL     1       5.505  -2.490   3.671  1.00  0.00     0.021 C 
ENDROOT
BRANCH   1   2
ATOM      2  C   UNL     1       4.726  -1.992   2.468  1.00  0.00     0.116 C 
BRANCH   2   3
ATOM      3  N   UNL     1       5.252  -0.757   1.935  1.00  0.00    -0.351 N 
ATOM      4  C   UNL     1       5.377  -0.360   0.640  1.00  0.00     0.278 C 
ATOM      5  O   UNL     1       5.540   0.851   0.448  1.00  0.00    -0.268 OA
ATOM      6  H   UNL     1       5.565  -0.108   2.606  1.00  0.00     0.163 HD
BRANCH   4   7
ATOM      7  C   UNL     1       5.239  -1.308  -0.559  1.00  0.00     0.274 C 
ATOM      8  N   UNL     1       3.864  -1.653  -0.986  1.00  0.00    -0.317 N 
ATOM      9  C   UNL     1       3.874  -3.057  -1.408  1.00  0.00     0.263 C 
ATOM     10  H   UNL     1       3.662  -1.012  -1.754  1.00  0.00     0.349 HD
ATOM     11  C   UNL     1       5.050  -3.721  -0.715  1.00  0.00     0.068 C 
ATOM     12  C   UNL     1       6.050  -2.601  -0.486  1.00  0.00     0.081 C 
BRANCH   8  13
ATOM     13  C   UNL     1       2.705  -1.268  -0.177  1.00  0.00     0.364 C 
BRANCH  13  14
ATOM     14  C   UNL     1       2.058   0.049  -0.623  1.00  0.00     0.275 C 
ATOM     15  O   UNL     1       0.898   0.073  -1.035  1.00  0.00    -0.268 OA
ATOM     16  N   UNL     1       2.790   1.194  -0.414  1.00  0.00    -0.347 N 
ATOM     17  H   UNL     1       3.719   1.114  -0.097  1.00  0.00     0.164 HD
BRANCH  16  18
ATOM     18  C   UNL     1       2.240   2.509  -0.646  1.00  0.00     0.151 C 
BRANCH  18  19
ATOM     19  C   UNL     1       2.517   3.480   0.481  1.00  0.00    -0.029 A 
ATOM     20  C   UNL     1       2.579   3.072   1.824  1.00  0.00     0.007 A 
ATOM     21  C   UNL     1       2.613   4.852   0.193  1.00  0.00     0.007 A 
ATOM     22  C   UNL     1       2.754   4.009   2.848  1.00  0.00     0.021 A 
ATOM     23  C   UNL     1       2.782   5.789   1.216  1.00  0.00     0.021 A 
ATOM     24  C   UNL     1       2.852   5.363   2.539  1.00  0.00     0.041 A 
ATOM     25  Cl  UNL     1       3.040   6.518   3.801  1.00  0.00    -0.084 Cl
ENDBRANCH  18  19
ENDBRANCH  16  18
ENDBRANCH  13  14
ENDBRANCH   8  13
ENDBRANCH   4   7
ENDBRANCH   2   3
ENDBRANCH   1   2
BRANCH   1  26
ATOM     26  C   UNL     1       5.260  -1.668   4.940  1.00  0.00     0.002 C 
BRANCH  26  27
ATOM     27  C   UNL     1       3.788  -1.502   5.340  1.00  0.00     0.002 C 
BRANCH  27  28
ATOM     28  C   UNL     1       2.983  -2.801   5.432  1.00  0.00     0.021 C 
BRANCH  28  29
ATOM     29  C   UNL     1       3.582  -3.852   6.357  1.00  0.00     0.116 C 
BRANCH  29  30
ATOM     30  N   UNL     1       3.737  -3.357   7.715  1.00  0.00    -0.352 N 
ATOM     31  C   UNL     1       3.320  -3.915   8.893  1.00  0.00     0.251 C 
ATOM     32  H   UNL     1       4.210  -2.498   7.799  1.00  0.00     0.163 HD
ATOM     33  O   UNL     1       3.358  -3.265   9.935  1.00  0.00    -0.269 OA
BRANCH  31  34
ATOM     34  C   UNL     1       2.806  -5.298   8.904  1.00  0.00     0.039 A 
ATOM     35  C   UNL     1       1.647  -5.581   9.629  1.00  0.00     0.014 A 
ATOM     36  C   UNL     1       3.469  -6.312   8.205  1.00  0.00     0.014 A 
ATOM     37  C   UNL     1       1.123  -6.873   9.612  1.00  0.00     0.010 A 
ATOM     38  C   UNL     1       2.902  -7.579   8.124  1.00  0.00     0.010 A 
ATOM     39  C   UNL     1       1.729  -7.874   8.834  1.00  0.00    -0.014 A 
BRANCH  39  40
ATOM     40  C   UNL     1       1.152  -9.239   8.759  1.00  0.00     0.031 A 
ATOM     41  C   UNL     1       1.926 -10.415   9.283  1.00  0.00     0.074 A 
ATOM     42  C   UNL     1      -0.045  -9.421   8.171  1.00  0.00     0.049 A 
ATOM     43  N   UNL     1       1.617 -11.687   9.261  1.00  0.00    -0.248 NA
ATOM     44  C   UNL     1       3.237 -10.127   9.887  1.00  0.00     0.031 C 
ATOM     45  C   UNL     1      -0.870  -8.362   7.588  1.00  0.00     0.029 A 
ATOM     46  N   UNL     1      -0.774 -10.564   7.960  1.00  0.00    -0.354 N 
ATOM     47  C   UNL     1       2.693 -12.347   9.839  1.00  0.00     0.074 A 
ATOM     48  C   UNL     1       3.691 -11.345  10.142  1.00  0.00     0.031 C 
ATOM     49  C   UNL     1      -2.004  -8.899   7.112  1.00  0.00     0.029 A 
ATOM     50  C   UNL     1      -1.968 -10.344   7.317  1.00  0.00     0.049 A 
ATOM     51  H   UNL     1      -0.471 -11.457   8.244  1.00  0.00     0.167 HD
ATOM     52  C   UNL     1       2.824 -13.666  10.116  1.00  0.00     0.037 A 
ATOM     53  C   UNL     1      -2.921 -11.213   6.930  1.00  0.00     0.037 A 
ATOM     54  C   UNL     1       1.820 -14.655   9.823  1.00  0.00     0.049 A 
ATOM     55  C   UNL     1      -2.737 -12.678   7.223  1.00  0.00     0.074 A 
ATOM     56  C   UNL     1       1.833 -16.009  10.108  1.00  0.00     0.029 A 
ATOM     57  N   UNL     1       0.624 -14.396   9.169  1.00  0.00    -0.354 N 
ATOM     58  N   UNL     1      -1.747 -13.283   7.833  1.00  0.00    -0.248 NA
ATOM     59  C   UNL     1      -3.808 -13.579   6.778  1.00  0.00     0.031 C 
ATOM     60  C   UNL     1       0.672 -16.579   9.575  1.00  0.00     0.029 A 
ATOM     61  C   UNL     1      -0.096 -15.571   9.015  1.00  0.00     0.049 A 
ATOM     62  H   UNL     1       0.329 -13.509   8.860  1.00  0.00     0.167 HD
ATOM     63  C   UNL     1      -2.087 -14.628   7.872  1.00  0.00     0.074 A 
ATOM     64  C   UNL     1      -3.385 -14.747   7.239  1.00  0.00     0.031 C 
ATOM     65  C   UNL     1      -1.389 -15.671   8.385  1.00  0.00     0.037 A 
BRANCH  52  66
ATOM     66  C   UNL     1       4.103 -14.115  10.765  1.00  0.00     0.064 A 
ATOM     67  C   UNL     1       4.431 -13.748  12.081  1.00  0.00     0.173 A 
ATOM     68  C   UNL     1       5.002 -14.942  10.075  1.00  0.00     0.173 A 
ATOM     69  F   UNL     1       3.613 -12.949  12.783  1.00  0.00    -0.203 F 
ATOM     70  C   UNL     1       5.625 -14.162  12.665  1.00  0.00     0.198 A 
ATOM     71  C   UNL     1       6.178 -15.383  10.676  1.00  0.00     0.198 A 
ATOM     72  F   UNL     1       4.737 -15.328   8.818  1.00  0.00    -0.203 F 
ATOM     73  F   UNL     1       5.943 -13.749  13.900  1.00  0.00    -0.200 F 
ATOM     74  C   UNL     1       6.494 -14.985  11.966  1.00  0.00     0.200 A 
ATOM     75  F   UNL     1       7.010 -16.191  10.003  1.00  0.00    -0.200 F 
ATOM     76  F   UNL     1       7.640 -15.387  12.531  1.00  0.00    -0.200 F 
ENDBRANCH  52  66
BRANCH  53  77
ATOM     77  C   UNL     1      -4.143 -10.718   6.244  1.00  0.00     0.064 A 
ATOM     78  C   UNL     1      -5.396 -10.781   6.870  1.00  0.00     0.173 A 
ATOM     79  C   UNL     1      -4.088 -10.178   4.950  1.00  0.00     0.173 A 
ATOM     80  F   UNL     1      -5.503 -11.307   8.099  1.00  0.00    -0.203 F 
ATOM     81  C   UNL     1      -6.549 -10.345   6.222  1.00  0.00     0.198 A 
ATOM     82  C   UNL     1      -5.237  -9.712   4.315  1.00  0.00     0.198 A 
ATOM     83  F   UNL     1      -2.914 -10.088   4.309  1.00  0.00    -0.203 F 
ATOM     84  F   UNL     1      -7.739 -10.464   6.825  1.00  0.00    -0.200 F 
ATOM     85  C   UNL     1      -6.468  -9.805   4.947  1.00  0.00     0.200 A 
ATOM     86  F   UNL     1      -5.152  -9.176   3.090  1.00  0.00    -0.200 F 
ATOM     87  F   UNL     1      -7.577  -9.382   4.325  1.00  0.00    -0.200 F 
ENDBRANCH  53  77
BRANCH  65  88
ATOM     88  C   UNL     1      -2.029 -17.029   8.316  1.00  0.00     0.064 A 
ATOM     89  C   UNL     1      -2.185 -17.711   7.100  1.00  0.00     0.173 A 
ATOM     90  C   UNL     1      -2.457 -17.671   9.488  1.00  0.00     0.173 A 
ATOM     91  F   UNL     1      -1.806 -17.135   5.949  1.00  0.00    -0.203 F 
ATOM     92  C   UNL     1      -2.774 -18.972   7.057  1.00  0.00     0.198 A 
ATOM     93  C   UNL     1      -3.013 -18.947   9.445  1.00  0.00     0.198 A 
ATOM     94  F   UNL     1      -2.324 -17.067  10.678  1.00  0.00    -0.203 F 
ATOM     95  F   UNL     1      -2.963 -19.581   5.878  1.00  0.00    -0.200 F 
ATOM     96  C   UNL     1      -3.179 -19.592   8.230  1.00  0.00     0.200 A 
ATOM     97  F   UNL     1      -3.387 -19.551  10.581  1.00  0.00    -0.200 F 
ATOM     98  F   UNL     1      -3.737 -20.810   8.187  1.00  0.00    -0.200 F 
ENDBRANCH  65  88
ENDBRANCH  39  40
ENDBRANCH  31  34
ENDBRANCH  29  30
ENDBRANCH  28  29
ENDBRANCH  27  28
ENDBRANCH  26  27
ENDBRANCH   1  26
TORSDOF 17
