REMARK SMILES C[C@@H]1CCC[C@](CCSc2ccccc2)(C(=O)NCCCCCCNC(=O)c2ccc(-c3c4nc(c(-c5c(F)c(F)c(F)c(F)c5F)c5ccc([nH]5)c(-c5c(F)c(F)c(F)c(F)c5F)c5nc(c(-c6c(F)c(F)c(F)c(F)c6F)c6ccc3[nH]6)C=C5)C=C4)cc2)C1
REMARK SMILES IDX 20 1 19 2 18 3 16 4 17 5 6 7 1 8 2 9 3 10 91 11 4 12 5 13
REMARK SMILES IDX 7 14 8 15 9 16 10 17 11 18 15 19 12 20 14 21 13 22 21 23
REMARK SMILES IDX 22 24 23 25 24 26 25 27 26 28 27 30 28 31 29 32 90 33 30 34
REMARK SMILES IDX 89 35 31 36 32 37 33 38 83 39 34 40 88 41 82 42 84 43 35 44
REMARK SMILES IDX 87 45 81 46 80 47 36 49 68 50 48 51 67 52 49 53 52 54 66 55
REMARK SMILES IDX 85 56 50 57 51 58 65 60 86 61 53 62 37 63 38 64 46 65 39 66
REMARK SMILES IDX 40 67 44 68 47 69 41 70 42 71 45 72 43 73 69 74 70 75 78 76
REMARK SMILES IDX 71 77 72 78 76 79 79 80 73 81 74 82 77 83 75 84 54 85 55 86
REMARK SMILES IDX 63 87 56 88 57 89 61 90 64 91 58 92 59 93 62 94 60 95
REMARK H PARENT 18 6 25 29 84 48 52 59
REMARK Flexibility Score: inf
ROOT
ATOM      1  C   UNL     1      -1.275   2.525   2.821  1.00  0.00     0.021 C 
ENDROOT
BRANCH   1   2
ATOM      2  C   UNL     1      -0.718   1.201   2.303  1.00  0.00     0.116 C 
BRANCH   2   3
ATOM      3  N   UNL     1      -1.738   0.191   2.332  1.00  0.00    -0.356 N 
ATOM      4  C   UNL     1      -2.174  -0.716   1.435  1.00  0.00     0.226 C 
ATOM      5  O   UNL     1      -3.263  -1.218   1.747  1.00  0.00    -0.274 OA
ATOM      6  H   UNL     1      -2.220   0.151   3.189  1.00  0.00     0.163 HD
BRANCH   4   7
ATOM      7  C   UNL     1      -1.490  -1.073   0.081  1.00  0.00     0.050 C 
ATOM      8  C   UNL     1       2.048   0.409   0.329  1.00  0.00     0.007 C 
ATOM      9  C   UNL     1       0.884   0.004  -0.596  1.00  0.00    -0.013 C 
ATOM     10  C   UNL     1       0.148   1.207  -1.195  1.00  0.00     0.003 C 
ATOM     11  C   UNL     1       0.049  -1.122   0.039  1.00  0.00     0.020 C 
ATOM     12  C   UNL     1      -1.374   1.235  -1.083  1.00  0.00     0.001 C 
ATOM     13  C   UNL     1      -2.036  -0.132  -1.018  1.00  0.00     0.017 C 
BRANCH   7  14
ATOM     14  C   UNL     1      -2.020  -2.537  -0.249  1.00  0.00     0.028 C 
BRANCH  14  15
ATOM     15  C   UNL     1      -1.370  -3.757   0.450  1.00  0.00     0.076 C 
BRANCH  15  16
ATOM     16  S   UNL     1      -1.635  -4.008   2.246  1.00  0.00    -0.126 SA
BRANCH  16  17
ATOM     17  C   UNL     1      -0.238  -3.184   2.993  1.00  0.00     0.007 A 
ATOM     18  C   UNL     1      -0.480  -2.301   4.053  1.00  0.00     0.015 A 
ATOM     19  C   UNL     1       1.083  -3.401   2.587  1.00  0.00     0.015 A 
ATOM     20  C   UNL     1       0.566  -1.585   4.640  1.00  0.00     0.001 A 
ATOM     21  C   UNL     1       2.130  -2.679   3.170  1.00  0.00     0.001 A 
ATOM     22  C   UNL     1       1.870  -1.760   4.186  1.00  0.00     0.000 A 
ENDBRANCH  16  17
ENDBRANCH  15  16
ENDBRANCH  14  15
ENDBRANCH   7  14
ENDBRANCH   4   7
ENDBRANCH   2   3
ENDBRANCH   1   2
BRANCH   1  23
ATOM     23  C   UNL     1      -1.052   2.729   4.320  1.00  0.00     0.002 C 
BRANCH  23  24
ATOM     24  C   UNL     1       0.419   2.833   4.739  1.00  0.00     0.002 C 
BRANCH  24  25
ATOM     25  C   UNL     1       1.254   3.856   3.961  1.00  0.00     0.021 C 
BRANCH  25  26
ATOM     26  C   UNL     1       0.678   5.269   3.919  1.00  0.00     0.116 C 
BRANCH  26  27
ATOM     27  N   UNL     1       0.417   5.799   5.245  1.00  0.00    -0.352 N 
ATOM     28  C   UNL     1       0.704   7.028   5.768  1.00  0.00     0.251 C 
ATOM     29  H   UNL     1      -0.035   5.178   5.861  1.00  0.00     0.163 HD
ATOM     30  O   UNL     1       0.540   7.231   6.974  1.00  0.00    -0.269 OA
BRANCH  28  31
ATOM     31  C   UNL     1       1.228   8.110   4.912  1.00  0.00     0.039 A 
ATOM     32  C   UNL     1       2.259   8.908   5.414  1.00  0.00     0.014 A 
ATOM     33  C   UNL     1       0.690   8.371   3.647  1.00  0.00     0.014 A 
ATOM     34  C   UNL     1       2.775   9.943   4.636  1.00  0.00     0.010 A 
ATOM     35  C   UNL     1       1.249   9.365   2.845  1.00  0.00     0.010 A 
ATOM     36  C   UNL     1       2.291  10.165   3.336  1.00  0.00    -0.014 A 
BRANCH  36  37
ATOM     37  C   UNL     1       2.878  11.238   2.497  1.00  0.00     0.031 A 
ATOM     38  C   UNL     1       2.069  12.450   2.129  1.00  0.00     0.074 A 
ATOM     39  C   UNL     1       4.148  11.112   2.067  1.00  0.00     0.049 A 
ATOM     40  N   UNL     1       2.427  13.504   1.439  1.00  0.00    -0.248 NA
ATOM     41  C   UNL     1       0.667  12.476   2.578  1.00  0.00     0.031 C 
ATOM     42  C   UNL     1       5.012   9.956   2.317  1.00  0.00     0.029 A 
ATOM     43  N   UNL     1       4.937  11.964   1.337  1.00  0.00    -0.354 N 
ATOM     44  C   UNL     1       1.302  14.316   1.378  1.00  0.00     0.074 A 
ATOM     45  C   UNL     1       0.232  13.609   2.046  1.00  0.00     0.031 C 
ATOM     46  C   UNL     1       6.221  10.186   1.780  1.00  0.00     0.029 A 
ATOM     47  C   UNL     1       6.210  11.491   1.128  1.00  0.00     0.049 A 
ATOM     48  H   UNL     1       4.621  12.832   0.996  1.00  0.00     0.167 HD
ATOM     49  C   UNL     1       1.183  15.553   0.838  1.00  0.00     0.037 A 
ATOM     50  C   UNL     1       7.252  12.055   0.489  1.00  0.00     0.037 A 
ATOM     51  C   UNL     1       2.255  16.259   0.186  1.00  0.00     0.049 A 
ATOM     52  C   UNL     1       7.089  13.433  -0.095  1.00  0.00     0.074 A 
ATOM     53  C   UNL     1       2.245  17.527  -0.369  1.00  0.00     0.029 A 
ATOM     54  N   UNL     1       3.535  15.754   0.004  1.00  0.00    -0.354 N 
ATOM     55  N   UNL     1       6.039  14.217  -0.088  1.00  0.00    -0.248 NA
ATOM     56  C   UNL     1       8.264  14.009  -0.762  1.00  0.00     0.031 C 
ATOM     57  C   UNL     1       3.508  17.776  -0.916  1.00  0.00     0.029 A 
ATOM     58  C   UNL     1       4.318  16.682  -0.664  1.00  0.00     0.049 A 
ATOM     59  H   UNL     1       3.841  14.868   0.305  1.00  0.00     0.167 HD
ATOM     60  C   UNL     1       6.432  15.385  -0.726  1.00  0.00     0.074 A 
ATOM     61  C   UNL     1       7.826  15.217  -1.080  1.00  0.00     0.031 C 
ATOM     62  C   UNL     1       5.705  16.495  -1.003  1.00  0.00     0.037 A 
BRANCH  49  63
ATOM     63  C   UNL     1      -0.149  16.237   0.949  1.00  0.00     0.064 A 
ATOM     64  C   UNL     1      -0.616  16.728   2.178  1.00  0.00     0.173 A 
ATOM     65  C   UNL     1      -0.939  16.457  -0.189  1.00  0.00     0.173 A 
ATOM     66  F   UNL     1       0.097  16.532   3.297  1.00  0.00    -0.203 F 
ATOM     67  C   UNL     1      -1.832  17.401   2.266  1.00  0.00     0.198 A 
ATOM     68  C   UNL     1      -2.142  17.154  -0.102  1.00  0.00     0.198 A 
ATOM     69  F   UNL     1      -0.537  16.011  -1.388  1.00  0.00    -0.203 F 
ATOM     70  F   UNL     1      -2.273  17.831   3.456  1.00  0.00    -0.200 F 
ATOM     71  C   UNL     1      -2.589  17.621   1.125  1.00  0.00     0.200 A 
ATOM     72  F   UNL     1      -2.867  17.377  -1.206  1.00  0.00    -0.200 F 
ATOM     73  F   UNL     1      -3.752  18.282   1.209  1.00  0.00    -0.200 F 
ENDBRANCH  49  63
BRANCH  50  74
ATOM     74  C   UNL     1       8.549  11.337   0.390  1.00  0.00     0.064 A 
ATOM     75  C   UNL     1       9.687  11.805   1.063  1.00  0.00     0.173 A 
ATOM     76  C   UNL     1       8.688  10.190  -0.404  1.00  0.00     0.173 A 
ATOM     77  F   UNL     1       9.609  12.910   1.820  1.00  0.00    -0.203 F 
ATOM     78  C   UNL     1      10.920  11.174   0.919  1.00  0.00     0.198 A 
ATOM     79  C   UNL     1       9.915   9.541  -0.523  1.00  0.00     0.198 A 
ATOM     80  F   UNL     1       7.630   9.696  -1.063  1.00  0.00    -0.203 F 
ATOM     81  F   UNL     1      12.003  11.679   1.525  1.00  0.00    -0.200 F 
ATOM     82  C   UNL     1      11.033  10.041   0.128  1.00  0.00     0.200 A 
ATOM     83  F   UNL     1      10.017   8.437  -1.276  1.00  0.00    -0.200 F 
ATOM     84  F   UNL     1      12.220   9.437  -0.015  1.00  0.00    -0.200 F 
ENDBRANCH  50  74
BRANCH  62  85
ATOM     85  C   UNL     1       6.418  17.616  -1.700  1.00  0.00     0.064 A 
ATOM     86  C   UNL     1       6.809  17.515  -3.043  1.00  0.00     0.173 A 
ATOM     87  C   UNL     1       6.711  18.807  -1.017  1.00  0.00     0.173 A 
ATOM     88  F   UNL     1       6.566  16.390  -3.734  1.00  0.00    -0.203 F 
ATOM     89  C   UNL     1       7.503  18.548  -3.666  1.00  0.00     0.198 A 
ATOM     90  C   UNL     1       7.377  19.851  -1.653  1.00  0.00     0.198 A 
ATOM     91  F   UNL     1       6.352  18.957   0.267  1.00  0.00    -0.203 F 
ATOM     92  F   UNL     1       7.922  18.403  -4.931  1.00  0.00    -0.200 F 
ATOM     93  C   UNL     1       7.782  19.716  -2.972  1.00  0.00     0.200 A 
ATOM     94  F   UNL     1       7.636  20.983  -0.985  1.00  0.00    -0.200 F 
ATOM     95  F   UNL     1       8.454  20.708  -3.572  1.00  0.00    -0.200 F 
ENDBRANCH  62  85
ENDBRANCH  36  37
ENDBRANCH  28  31
ENDBRANCH  26  27
ENDBRANCH  25  26
ENDBRANCH  24  25
ENDBRANCH  23  24
ENDBRANCH   1  23
TORSDOF 17
