REMARK SMILES O=C(C[C@@H]1CSCC[NH2+]1)NC[C@@H](C(=O)NCCCCCCNC(=O)c1ccc(-c2c3nc(c(-c4c(F)c(F)c(F)c(F)c4F)c4ccc([nH]4)c(-c4c(F)c(F)c(F)c(F)c4F)c4nc(c(-c5c(F)c(F)c(F)c(F)c5F)c5ccc2[nH]5)C=C4)C=C3)cc1)c1ccccc1
REMARK SMILES IDX 17 1 16 2 15 3 13 4 14 5 12 7 11 8 10 9 1 10 2 11 3 13 4 14
REMARK SMILES IDX 5 15 9 16 6 17 8 18 7 21 88 22 89 23 93 24 90 25 92 26 91 27
REMARK SMILES IDX 18 28 19 29 20 30 21 31 22 32 23 33 24 35 25 36 26 37 87 38
REMARK SMILES IDX 27 39 86 40 28 41 29 42 30 43 80 44 31 45 85 46 79 47 81 48
REMARK SMILES IDX 32 49 84 50 78 51 77 52 33 54 65 55 45 56 64 57 46 58 49 59
REMARK SMILES IDX 63 60 82 61 47 62 48 63 62 65 83 66 50 67 34 68 35 69 43 70
REMARK SMILES IDX 36 71 37 72 41 73 44 74 38 75 39 76 42 77 40 78 66 79 67 80
REMARK SMILES IDX 75 81 68 82 69 83 73 84 76 85 70 86 71 87 74 88 72 89 51 90
REMARK SMILES IDX 52 91 60 92 53 93 54 94 58 95 61 96 55 97 56 98 59 99 57 100
REMARK H PARENT 15 6 10 12 9 19 9 20 22 34 81 53 49 64
REMARK Flexibility Score: inf
ROOT
ATOM      1  C   UNL     1       5.647   1.116  -0.127  1.00  0.00     0.021 C 
ENDROOT
BRANCH   1   2
ATOM      2  C   UNL     1       5.011   2.497   0.076  1.00  0.00     0.116 C 
BRANCH   2   3
ATOM      3  N   UNL     1       4.987   3.196  -1.194  1.00  0.00    -0.356 N 
ATOM      4  C   UNL     1       3.973   3.333  -2.100  1.00  0.00     0.229 C 
ATOM      5  O   UNL     1       4.311   3.571  -3.263  1.00  0.00    -0.274 OA
ATOM      6  H   UNL     1       5.830   3.641  -1.441  1.00  0.00     0.163 HD
BRANCH   4   7
ATOM      7  C   UNL     1       2.494   3.229  -1.672  1.00  0.00     0.127 C 
BRANCH   7   8
ATOM      8  C   UNL     1       1.971   1.798  -1.916  1.00  0.00     0.134 C 
BRANCH   8   9
ATOM      9  N   UNL     1       2.531   0.769  -1.052  1.00  0.00    -0.355 N 
ATOM     10  O   UNL     1       0.580   0.264   0.017  1.00  0.00    -0.275 OA
ATOM     11  C   UNL     1       1.764   0.017  -0.199  1.00  0.00     0.226 C 
ATOM     12  H   UNL     1       3.502   0.606  -1.081  1.00  0.00     0.163 HD
BRANCH  11  13
ATOM     13  C   UNL     1       2.481  -1.068   0.587  1.00  0.00     0.165 C 
BRANCH  13  14
ATOM     14  C   UNL     1       3.423  -2.063  -0.131  1.00  0.00     0.201 C 
ATOM     15  C   UNL     1       3.315  -2.227  -1.660  1.00  0.00     0.135 C 
ATOM     16  N   UNL     1       3.436  -3.386   0.555  1.00  0.00    -0.342 N 
ATOM     17  S   UNL     1       1.757  -2.979  -2.179  1.00  0.00    -0.150 SA
ATOM     18  C   UNL     1       2.220  -4.185   0.283  1.00  0.00     0.271 C 
ATOM     19  H   UNL     1       3.506  -3.230   1.561  1.00  0.00     0.346 HD
ATOM     20  H   UNL     1       4.234  -3.910   0.196  1.00  0.00     0.346 HD
ATOM     21  C   UNL     1       1.934  -4.493  -1.193  1.00  0.00     0.131 C 
ENDBRANCH  13  14
ENDBRANCH  11  13
ENDBRANCH   8   9
ENDBRANCH   7   8
BRANCH   7  22
ATOM     22  C   UNL     1       1.680   4.303  -2.423  1.00  0.00    -0.034 A 
ATOM     23  C   UNL     1       1.989   5.661  -2.217  1.00  0.00     0.004 A 
ATOM     24  C   UNL     1       0.680   3.996  -3.362  1.00  0.00     0.004 A 
ATOM     25  C   UNL     1       1.347   6.665  -2.947  1.00  0.00     0.000 A 
ATOM     26  C   UNL     1       0.028   5.003  -4.080  1.00  0.00     0.000 A 
ATOM     27  C   UNL     1       0.368   6.336  -3.880  1.00  0.00     0.000 A 
ENDBRANCH   7  22
ENDBRANCH   4   7
ENDBRANCH   2   3
ENDBRANCH   1   2
BRANCH   1  28
ATOM     28  C   UNL     1       7.169   1.078   0.011  1.00  0.00     0.002 C 
BRANCH  28  29
ATOM     29  C   UNL     1       7.684   1.165   1.449  1.00  0.00     0.002 C 
BRANCH  29  30
ATOM     30  C   UNL     1       7.109   0.131   2.425  1.00  0.00     0.021 C 
BRANCH  30  31
ATOM     31  C   UNL     1       7.241  -1.329   1.994  1.00  0.00     0.116 C 
BRANCH  31  32
ATOM     32  N   UNL     1       8.628  -1.746   1.890  1.00  0.00    -0.352 N 
ATOM     33  C   UNL     1       9.304  -2.723   2.568  1.00  0.00     0.251 C 
ATOM     34  H   UNL     1       9.164  -1.249   1.231  1.00  0.00     0.163 HD
ATOM     35  O   UNL     1      10.536  -2.780   2.478  1.00  0.00    -0.269 OA
BRANCH  33  36
ATOM     36  C   UNL     1       8.596  -3.709   3.412  1.00  0.00     0.039 A 
ATOM     37  C   UNL     1       9.174  -4.085   4.628  1.00  0.00     0.014 A 
ATOM     38  C   UNL     1       7.415  -4.325   2.985  1.00  0.00     0.014 A 
ATOM     39  C   UNL     1       8.562  -5.057   5.425  1.00  0.00     0.010 A 
ATOM     40  C   UNL     1       6.770  -5.249   3.811  1.00  0.00     0.010 A 
ATOM     41  C   UNL     1       7.349  -5.641   5.028  1.00  0.00    -0.014 A 
BRANCH  41  42
ATOM     42  C   UNL     1       6.716  -6.709   5.846  1.00  0.00     0.031 A 
ATOM     43  C   UNL     1       6.627  -8.113   5.308  1.00  0.00     0.074 A 
ATOM     44  C   UNL     1       6.205  -6.419   7.058  1.00  0.00     0.049 A 
ATOM     45  N   UNL     1       6.071  -9.172   5.841  1.00  0.00    -0.248 NA
ATOM     46  C   UNL     1       7.223  -8.352   3.984  1.00  0.00     0.031 C 
ATOM     47  C   UNL     1       6.199  -5.095   7.680  1.00  0.00     0.029 A 
ATOM     48  N   UNL     1       5.586  -7.223   7.983  1.00  0.00    -0.354 N 
ATOM     49  C   UNL     1       6.246 -10.196   4.919  1.00  0.00     0.074 A 
ATOM     50  C   UNL     1       6.907  -9.620   3.768  1.00  0.00     0.031 C 
ATOM     51  C   UNL     1       5.618  -5.179   8.888  1.00  0.00     0.029 A 
ATOM     52  C   UNL     1       5.188  -6.556   9.116  1.00  0.00     0.049 A 
ATOM     53  H   UNL     1       5.441  -8.188   7.847  1.00  0.00     0.167 HD
ATOM     54  C   UNL     1       5.912 -11.505   5.030  1.00  0.00     0.037 A 
ATOM     55  C   UNL     1       4.547  -7.005  10.212  1.00  0.00     0.037 A 
ATOM     56  C   UNL     1       5.275 -12.085   6.183  1.00  0.00     0.049 A 
ATOM     57  C   UNL     1       4.202  -8.468  10.315  1.00  0.00     0.074 A 
ATOM     58  C   UNL     1       4.895 -13.400   6.392  1.00  0.00     0.029 A 
ATOM     59  N   UNL     1       4.936 -11.384   7.330  1.00  0.00    -0.354 N 
ATOM     60  N   UNL     1       4.402  -9.430   9.448  1.00  0.00    -0.248 NA
ATOM     61  C   UNL     1       3.560  -8.910  11.561  1.00  0.00     0.031 C 
ATOM     62  C   UNL     1       4.308 -13.491   7.659  1.00  0.00     0.029 A 
ATOM     63  C   UNL     1       4.360 -12.242   8.254  1.00  0.00     0.049 A 
ATOM     64  H   UNL     1       5.083 -10.421   7.468  1.00  0.00     0.167 HD
ATOM     65  C   UNL     1       3.949 -10.593  10.057  1.00  0.00     0.074 A 
ATOM     66  C   UNL     1       3.476 -10.218  11.373  1.00  0.00     0.031 C 
ATOM     67  C   UNL     1       3.925 -11.857   9.571  1.00  0.00     0.037 A 
BRANCH  54  68
ATOM     68  C   UNL     1       6.249 -12.406   3.878  1.00  0.00     0.064 A 
ATOM     69  C   UNL     1       7.577 -12.762   3.595  1.00  0.00     0.173 A 
ATOM     70  C   UNL     1       5.238 -12.955   3.076  1.00  0.00     0.173 A 
ATOM     71  F   UNL     1       8.581 -12.253   4.324  1.00  0.00    -0.203 F 
ATOM     72  C   UNL     1       7.881 -13.616   2.539  1.00  0.00     0.198 A 
ATOM     73  C   UNL     1       5.543 -13.831   2.037  1.00  0.00     0.198 A 
ATOM     74  F   UNL     1       3.951 -12.650   3.306  1.00  0.00    -0.203 F 
ATOM     75  F   UNL     1       9.159 -13.907   2.261  1.00  0.00    -0.200 F 
ATOM     76  C   UNL     1       6.864 -14.156   1.766  1.00  0.00     0.200 A 
ATOM     77  F   UNL     1       4.559 -14.362   1.299  1.00  0.00    -0.200 F 
ATOM     78  F   UNL     1       7.157 -14.986   0.755  1.00  0.00    -0.200 F 
ENDBRANCH  54  68
BRANCH  55  79
ATOM     79  C   UNL     1       4.209  -6.071  11.318  1.00  0.00     0.064 A 
ATOM     80  C   UNL     1       4.847  -6.164  12.563  1.00  0.00     0.173 A 
ATOM     81  C   UNL     1       3.217  -5.091  11.165  1.00  0.00     0.173 A 
ATOM     82  F   UNL     1       5.788  -7.098  12.764  1.00  0.00    -0.203 F 
ATOM     83  C   UNL     1       4.481  -5.338  13.624  1.00  0.00     0.198 A 
ATOM     84  C   UNL     1       2.873  -4.246  12.217  1.00  0.00     0.198 A 
ATOM     85  F   UNL     1       2.582  -4.956   9.992  1.00  0.00    -0.203 F 
ATOM     86  F   UNL     1       5.064  -5.491  14.821  1.00  0.00    -0.200 F 
ATOM     87  C   UNL     1       3.496  -4.378  13.450  1.00  0.00     0.200 A 
ATOM     88  F   UNL     1       1.931  -3.309  12.041  1.00  0.00    -0.200 F 
ATOM     89  F   UNL     1       3.140  -3.588  14.471  1.00  0.00    -0.200 F 
ENDBRANCH  55  79
BRANCH  67  90
ATOM     90  C   UNL     1       3.431 -12.938  10.488  1.00  0.00     0.064 A 
ATOM     91  C   UNL     1       2.077 -13.056  10.832  1.00  0.00     0.173 A 
ATOM     92  C   UNL     1       4.329 -13.880  11.014  1.00  0.00     0.173 A 
ATOM     93  F   UNL     1       1.183 -12.171  10.366  1.00  0.00    -0.203 F 
ATOM     94  C   UNL     1       1.644 -14.058  11.697  1.00  0.00     0.198 A 
ATOM     95  C   UNL     1       3.888 -14.898  11.854  1.00  0.00     0.198 A 
ATOM     96  F   UNL     1       5.633 -13.815  10.708  1.00  0.00    -0.203 F 
ATOM     97  F   UNL     1       0.355 -14.119  12.056  1.00  0.00    -0.200 F 
ATOM     98  C   UNL     1       2.548 -14.981  12.203  1.00  0.00     0.200 A 
ATOM     99  F   UNL     1       4.761 -15.796  12.332  1.00  0.00    -0.200 F 
ATOM    100  F   UNL     1       2.130 -15.944  13.034  1.00  0.00    -0.200 F 
ENDBRANCH  67  90
ENDBRANCH  41  42
ENDBRANCH  33  36
ENDBRANCH  31  32
ENDBRANCH  30  31
ENDBRANCH  29  30
ENDBRANCH  28  29
ENDBRANCH   1  28
TORSDOF 18
