REMARK SMILES CCCC[C@@H](C(=O)NCCCCCCNC(=O)c1ccc(-c2c3nc(c(-c4c(F)c(F)c(F)c(F)c4F)c4ccc([nH]4)c(-c4c(F)c(F)c(F)c(F)c4F)c4nc(c(-c5c(F)c(F)c(F)c(F)c5F)c5ccc2[nH]5)C=C4)C=C3)cc1)[C@]1(O)CCC[C@H](C(C)(C)C)CC1
REMARK SMILES IDX 10 1 9 2 8 3 6 4 7 5 5 7 4 8 3 9 2 10 1 11 81 12 82 13 83 15
REMARK SMILES IDX 84 16 92 18 91 19 86 20 85 21 87 23 88 24 89 25 90 26 11 27
REMARK SMILES IDX 12 28 13 29 14 30 15 31 16 32 17 34 18 35 19 36 80 37 20 38
REMARK SMILES IDX 79 39 21 40 22 41 23 42 73 43 24 44 78 45 72 46 74 47 25 48
REMARK SMILES IDX 77 49 71 50 70 51 26 53 58 54 38 55 57 56 39 57 42 58 56 59
REMARK SMILES IDX 75 60 40 61 41 62 55 64 76 65 43 66 27 67 28 68 36 69 29 70
REMARK SMILES IDX 30 71 34 72 37 73 31 74 32 75 35 76 33 77 59 78 60 79 68 80
REMARK SMILES IDX 61 81 62 82 66 83 69 84 63 85 64 86 67 87 65 88 44 89 45 90
REMARK SMILES IDX 53 91 46 92 47 93 51 94 54 95 48 96 49 97 52 98 50 99
REMARK H PARENT 8 6 82 14 15 33 74 52 42 63
REMARK Flexibility Score: 90.00
ROOT
ATOM      1  C   UNL     1       0.525  -4.546   0.883  1.00  0.00     0.021 C 
ENDROOT
BRANCH   1   2
ATOM      2  C   UNL     1      -0.668  -3.615   0.691  1.00  0.00     0.116 C 
BRANCH   2   3
ATOM      3  N   UNL     1      -1.362  -3.409   1.929  1.00  0.00    -0.356 N 
ATOM      4  C   UNL     1      -1.810  -2.264   2.485  1.00  0.00     0.226 C 
ATOM      5  O   UNL     1      -2.937  -2.404   2.977  1.00  0.00    -0.275 OA
ATOM      6  H   UNL     1      -1.538  -4.225   2.451  1.00  0.00     0.163 HD
BRANCH   4   7
ATOM      7  C   UNL     1      -1.069  -0.889   2.503  1.00  0.00     0.110 C 
BRANCH   7   8
ATOM      8  C   UNL     1       0.469  -0.782   2.379  1.00  0.00     0.016 C 
BRANCH   8   9
ATOM      9  C   UNL     1       1.335  -1.158   1.180  1.00  0.00     0.001 C 
BRANCH   9  10
ATOM     10  C   UNL     1       0.919  -0.593  -0.176  1.00  0.00    -0.003 C 
ATOM     11  C   UNL     1       1.401   0.829  -0.397  1.00  0.00     0.004 C 
ENDBRANCH   9  10
ENDBRANCH   8   9
ENDBRANCH   7   8
BRANCH   7  12
ATOM     12  C   UNL     1      -1.549  -0.105   3.853  1.00  0.00     0.076 C 
BRANCH  12  13
ATOM     13  O   UNL     1      -2.792   0.537   3.460  1.00  0.00    -0.389 OA
ATOM     14  H   UNL     1      -2.639   1.085   2.675  1.00  0.00     0.211 HD
ENDBRANCH  12  13
BRANCH  12  15
ATOM     15  C   UNL     1      -0.673   1.093   4.321  1.00  0.00     0.036 C 
BRANCH  15  16
ATOM     16  C   UNL     1       0.638   0.834   5.086  1.00  0.00     0.003 CG0
ATOM     17  G   UNL     1       0.534   0.100   6.422  1.00  0.00     0.000 G0
ENDBRANCH  15  16
ENDBRANCH  12  15
BRANCH  12  18
ATOM     18  C   UNL     1      -1.851  -0.969   5.114  1.00  0.00     0.036 C 
BRANCH  18  19
ATOM     19  C   UNL     1      -0.760  -1.964   5.506  1.00  0.00     0.007 C 
BRANCH  19  20
ATOM     20  C   UNL     1       0.349  -1.439   6.440  1.00  0.00    -0.006 C 
BRANCH  20  21
ATOM     21  C   UNL     1       0.534   0.100   6.422  1.00  0.00     0.004 CG0
ATOM     22  G   UNL     1       0.638   0.834   5.086  1.00  0.00     0.000 G0
ENDBRANCH  20  21
BRANCH  20  23
ATOM     23  C   UNL     1       1.666  -2.332   6.407  1.00  0.00    -0.035 C 
ATOM     24  C   UNL     1       2.476  -2.239   5.103  1.00  0.00     0.011 C 
ATOM     25  C   UNL     1       2.614  -1.946   7.563  1.00  0.00     0.011 C 
ATOM     26  C   UNL     1       1.301  -3.826   6.597  1.00  0.00     0.011 C 
ENDBRANCH  20  23
ENDBRANCH  19  20
ENDBRANCH  18  19
ENDBRANCH  12  18
ENDBRANCH   7  12
ENDBRANCH   4   7
ENDBRANCH   2   3
ENDBRANCH   1   2
BRANCH   1  27
ATOM     27  C   UNL     1       0.165  -6.030   0.785  1.00  0.00     0.002 C 
BRANCH  27  28
ATOM     28  C   UNL     1      -0.450  -6.445  -0.556  1.00  0.00     0.002 C 
BRANCH  28  29
ATOM     29  C   UNL     1       0.341  -5.999  -1.789  1.00  0.00     0.021 C 
BRANCH  29  30
ATOM     30  C   UNL     1       1.785  -6.485  -1.806  1.00  0.00     0.116 C 
BRANCH  30  31
ATOM     31  N   UNL     1       1.856  -7.938  -1.792  1.00  0.00    -0.352 N 
ATOM     32  C   UNL     1       2.366  -8.783  -2.744  1.00  0.00     0.251 C 
ATOM     33  H   UNL     1       1.486  -8.374  -0.991  1.00  0.00     0.163 HD
ATOM     34  O   UNL     1       2.120  -9.982  -2.718  1.00  0.00    -0.269 OA
BRANCH  32  35
ATOM     35  C   UNL     1       3.222  -8.223  -3.806  1.00  0.00     0.039 A 
ATOM     36  C   UNL     1       2.993  -8.585  -5.134  1.00  0.00     0.014 A 
ATOM     37  C   UNL     1       4.247  -7.331  -3.476  1.00  0.00     0.014 A 
ATOM     38  C   UNL     1       3.763  -8.007  -6.144  1.00  0.00     0.010 A 
ATOM     39  C   UNL     1       4.958  -6.700  -4.486  1.00  0.00     0.010 A 
ATOM     40  C   UNL     1       4.731  -7.040  -5.829  1.00  0.00    -0.014 A 
BRANCH  40  41
ATOM     41  C   UNL     1       5.547  -6.381  -6.877  1.00  0.00     0.031 A 
ATOM     42  C   UNL     1       7.036  -6.580  -6.888  1.00  0.00     0.074 A 
ATOM     43  C   UNL     1       4.963  -5.543  -7.753  1.00  0.00     0.049 A 
ATOM     44  N   UNL     1       7.946  -5.995  -7.623  1.00  0.00    -0.248 NA
ATOM     45  C   UNL     1       7.577  -7.547  -5.919  1.00  0.00     0.031 C 
ATOM     46  C   UNL     1       3.531  -5.250  -7.820  1.00  0.00     0.029 A 
ATOM     47  N   UNL     1       5.508  -4.767  -8.745  1.00  0.00    -0.354 N 
ATOM     48  C   UNL     1       9.162  -6.506  -7.192  1.00  0.00     0.074 A 
ATOM     49  C   UNL     1       8.881  -7.404  -6.094  1.00  0.00     0.031 C 
ATOM     50  C   UNL     1       3.309  -4.371  -8.810  1.00  0.00     0.029 A 
ATOM     51  C   UNL     1       4.585  -4.002  -9.414  1.00  0.00     0.049 A 
ATOM     52  H   UNL     1       6.470  -4.760  -8.957  1.00  0.00     0.167 HD
ATOM     53  C   UNL     1      10.400  -6.265  -7.685  1.00  0.00     0.037 A 
ATOM     54  C   UNL     1       4.755  -3.091 -10.392  1.00  0.00     0.037 A 
ATOM     55  C   UNL     1      10.667  -5.384  -8.790  1.00  0.00     0.049 A 
ATOM     56  C   UNL     1       6.146  -2.813 -10.899  1.00  0.00     0.074 A 
ATOM     57  C   UNL     1      11.878  -5.103  -9.397  1.00  0.00     0.029 A 
ATOM     58  N   UNL     1       9.703  -4.636  -9.452  1.00  0.00    -0.354 N 
ATOM     59  N   UNL     1       7.285  -3.341 -10.522  1.00  0.00    -0.248 NA
ATOM     60  C   UNL     1       6.274  -1.814 -11.969  1.00  0.00     0.031 C 
ATOM     61  C   UNL     1      11.655  -4.144 -10.389  1.00  0.00     0.029 A 
ATOM     62  C   UNL     1      10.297  -3.875 -10.446  1.00  0.00     0.049 A 
ATOM     63  H   UNL     1       8.741  -4.644  -9.246  1.00  0.00     0.167 HD
ATOM     64  C   UNL     1       8.258  -2.771 -11.333  1.00  0.00     0.074 A 
ATOM     65  C   UNL     1       7.574  -1.858 -12.225  1.00  0.00     0.031 C 
ATOM     66  C   UNL     1       9.596  -2.989 -11.341  1.00  0.00     0.037 A 
BRANCH  53  67
ATOM     67  C   UNL     1      11.557  -6.962  -7.027  1.00  0.00     0.064 A 
ATOM     68  C   UNL     1      11.731  -8.351  -7.118  1.00  0.00     0.173 A 
ATOM     69  C   UNL     1      12.519  -6.228  -6.316  1.00  0.00     0.173 A 
ATOM     70  F   UNL     1      10.835  -9.102  -7.777  1.00  0.00    -0.203 F 
ATOM     71  C   UNL     1      12.802  -8.984  -6.492  1.00  0.00     0.198 A 
ATOM     72  C   UNL     1      13.608  -6.859  -5.721  1.00  0.00     0.198 A 
ATOM     73  F   UNL     1      12.406  -4.896  -6.201  1.00  0.00    -0.203 F 
ATOM     74  F   UNL     1      12.912 -10.319  -6.543  1.00  0.00    -0.200 F 
ATOM     75  C   UNL     1      13.743  -8.237  -5.800  1.00  0.00     0.200 A 
ATOM     76  F   UNL     1      14.525  -6.134  -5.066  1.00  0.00    -0.200 F 
ATOM     77  F   UNL     1      14.776  -8.846  -5.202  1.00  0.00    -0.200 F 
ENDBRANCH  53  67
BRANCH  54  78
ATOM     78  C   UNL     1       3.578  -2.392 -10.970  1.00  0.00     0.064 A 
ATOM     79  C   UNL     1       3.174  -2.638 -12.290  1.00  0.00     0.173 A 
ATOM     80  C   UNL     1       2.835  -1.465 -10.224  1.00  0.00     0.173 A 
ATOM     81  F   UNL     1       3.862  -3.501 -13.051  1.00  0.00    -0.203 F 
ATOM     82  C   UNL     1       2.087  -1.967 -12.848  1.00  0.00     0.198 A 
ATOM     83  C   UNL     1       1.730  -0.818 -10.773  1.00  0.00     0.198 A 
ATOM     84  F   UNL     1       3.175  -1.198  -8.954  1.00  0.00    -0.203 F 
ATOM     85  F   UNL     1       1.754  -2.186 -14.128  1.00  0.00    -0.200 F 
ATOM     86  C   UNL     1       1.363  -1.062 -12.088  1.00  0.00     0.200 A 
ATOM     87  F   UNL     1       1.023   0.044 -10.030  1.00  0.00    -0.200 F 
ATOM     88  F   UNL     1       0.316  -0.420 -12.624  1.00  0.00    -0.200 F 
ENDBRANCH  54  78
BRANCH  66  89
ATOM     89  C   UNL     1      10.411  -2.277 -12.382  1.00  0.00     0.064 A 
ATOM     90  C   UNL     1      10.664  -0.900 -12.312  1.00  0.00     0.173 A 
ATOM     91  C   UNL     1      11.006  -3.004 -13.426  1.00  0.00     0.173 A 
ATOM     92  F   UNL     1      10.107  -0.160 -11.342  1.00  0.00    -0.203 F 
ATOM     93  C   UNL     1      11.472  -0.274 -13.258  1.00  0.00     0.198 A 
ATOM     94  C   UNL     1      11.838  -2.380 -14.350  1.00  0.00     0.198 A 
ATOM     95  F   UNL     1      10.800  -4.325 -13.533  1.00  0.00    -0.203 F 
ATOM     96  F   UNL     1      11.670   1.050 -13.194  1.00  0.00    -0.200 F 
ATOM     97  C   UNL     1      12.066  -1.015 -14.268  1.00  0.00     0.200 A 
ATOM     98  F   UNL     1      12.425  -3.101 -15.314  1.00  0.00    -0.200 F 
ATOM     99  F   UNL     1      12.859  -0.413 -15.165  1.00  0.00    -0.200 F 
ENDBRANCH  66  89
ENDBRANCH  40  41
ENDBRANCH  32  35
ENDBRANCH  30  31
ENDBRANCH  29  30
ENDBRANCH  28  29
ENDBRANCH  27  28
ENDBRANCH   1  27
TORSDOF 19
