REMARK SMILES CN(CC(N)=O)c1ccccc1/C=C/C(=O)NCCCCCCNC(=O)c1ccc(-c2c3nc(c(-c4c(F)c(F)c(F)c(F)c4F)c4ccc([nH]4)c(-c4c(F)c(F)c(F)c(F)c4F)c4nc(c(-c5c(F)c(F)c(F)c(F)c5F)c5ccc2[nH]5)C=C4)C=C3)cc1
REMARK SMILES IDX 19 1 18 2 17 3 15 4 16 5 14 7 13 8 12 9 7 10 8 11 9 12 11 13
REMARK SMILES IDX 10 14 2 15 1 16 3 17 4 18 5 19 6 20 20 23 21 24 22 25 23 26
REMARK SMILES IDX 24 27 25 28 26 30 27 31 28 32 89 33 29 34 88 35 30 36 31 37
REMARK SMILES IDX 32 38 82 39 33 40 87 41 81 42 83 43 34 44 86 45 80 46 79 47
REMARK SMILES IDX 35 49 67 50 47 51 66 52 48 53 51 54 65 55 84 56 49 57 50 58
REMARK SMILES IDX 64 60 85 61 52 62 36 63 37 64 45 65 38 66 39 67 43 68 46 69
REMARK SMILES IDX 40 70 41 71 44 72 42 73 68 74 69 75 77 76 70 77 71 78 75 79
REMARK SMILES IDX 78 80 72 81 73 82 76 83 74 84 53 85 54 86 62 87 55 88 56 89
REMARK SMILES IDX 60 90 63 91 57 92 58 93 61 94 59 95
REMARK H PARENT 17 6 5 21 5 22 24 29 83 48 51 59
REMARK Flexibility Score: inf
ROOT
ATOM      1  C   UNL     1       3.890   1.494  -1.235  1.00  0.00     0.021 C 
ENDROOT
BRANCH   1   2
ATOM      2  C   UNL     1       3.986  -0.027  -1.343  1.00  0.00     0.116 C 
BRANCH   2   3
ATOM      3  N   UNL     1       5.234  -0.491  -0.779  1.00  0.00    -0.353 N 
ATOM      4  C   UNL     1       5.463  -1.220   0.342  1.00  0.00     0.244 C 
ATOM      5  O   UNL     1       6.607  -1.572   0.618  1.00  0.00    -0.270 OA
ATOM      6  H   UNL     1       6.041  -0.240  -1.286  1.00  0.00     0.163 HD
BRANCH   4   7
ATOM      7  C   UNL     1       4.338  -1.697   1.177  1.00  0.00     0.072 C 
ATOM      8  C   UNL     1       3.347  -0.946   1.689  1.00  0.00     0.016 C 
BRANCH   8   9
ATOM      9  C   UNL     1       2.297  -1.511   2.569  1.00  0.00    -0.002 A 
ATOM     10  C   UNL     1       0.947  -1.075   2.533  1.00  0.00     0.044 A 
ATOM     11  C   UNL     1       0.037  -1.706   3.405  1.00  0.00     0.026 A 
ATOM     12  C   UNL     1       0.435  -2.674   4.330  1.00  0.00     0.002 A 
ATOM     13  C   UNL     1       2.687  -2.466   3.534  1.00  0.00     0.010 A 
ATOM     14  C   UNL     1       1.767  -3.042   4.407  1.00  0.00     0.001 A 
BRANCH  10  15
ATOM     15  N   UNL     1       0.494  -0.068   1.687  1.00  0.00    -0.365 N 
ATOM     16  C   UNL     1       0.480  -0.284   0.251  1.00  0.00     0.144 C 
BRANCH  15  17
ATOM     17  C   UNL     1      -0.250   1.082   2.223  1.00  0.00     0.215 C 
BRANCH  17  18
ATOM     18  C   UNL     1      -1.755   0.828   2.383  1.00  0.00     0.236 C 
ATOM     19  N   UNL     1      -2.235   0.900   3.664  1.00  0.00    -0.368 N 
ATOM     20  O   UNL     1      -2.515   0.575   1.453  1.00  0.00    -0.273 OA
ATOM     21  H   UNL     1      -1.623   1.104   4.408  1.00  0.00     0.159 HD
ATOM     22  H   UNL     1      -3.191   0.748   3.841  1.00  0.00     0.159 HD
ENDBRANCH  17  18
ENDBRANCH  15  17
ENDBRANCH  10  15
ENDBRANCH   8   9
ENDBRANCH   4   7
ENDBRANCH   2   3
ENDBRANCH   1   2
BRANCH   1  23
ATOM     23  C   UNL     1       4.575   2.222  -2.397  1.00  0.00     0.002 C 
BRANCH  23  24
ATOM     24  C   UNL     1       3.940   1.968  -3.771  1.00  0.00     0.002 C 
BRANCH  24  25
ATOM     25  C   UNL     1       2.448   2.299  -3.866  1.00  0.00     0.021 C 
BRANCH  25  26
ATOM     26  C   UNL     1       2.110   3.759  -3.583  1.00  0.00     0.116 C 
BRANCH  26  27
ATOM     27  N   UNL     1       2.730   4.651  -4.550  1.00  0.00    -0.352 N 
ATOM     28  C   UNL     1       2.150   5.550  -5.408  1.00  0.00     0.251 C 
ATOM     29  H   UNL     1       3.712   4.603  -4.595  1.00  0.00     0.163 HD
ATOM     30  O   UNL     1       2.804   6.042  -6.321  1.00  0.00    -0.269 OA
BRANCH  28  31
ATOM     31  C   UNL     1       0.731   5.923  -5.237  1.00  0.00     0.039 A 
ATOM     32  C   UNL     1      -0.081   6.031  -6.369  1.00  0.00     0.014 A 
ATOM     33  C   UNL     1       0.212   6.195  -3.968  1.00  0.00     0.014 A 
ATOM     34  C   UNL     1      -1.429   6.362  -6.222  1.00  0.00     0.010 A 
ATOM     35  C   UNL     1      -1.147   6.452  -3.817  1.00  0.00     0.010 A 
ATOM     36  C   UNL     1      -1.979   6.548  -4.943  1.00  0.00    -0.014 A 
BRANCH  36  37
ATOM     37  C   UNL     1      -3.421   6.844  -4.764  1.00  0.00     0.031 A 
ATOM     38  C   UNL     1      -3.857   8.153  -4.169  1.00  0.00     0.074 A 
ATOM     39  C   UNL     1      -4.334   5.902  -5.067  1.00  0.00     0.049 A 
ATOM     40  N   UNL     1      -5.062   8.569  -3.870  1.00  0.00    -0.248 NA
ATOM     41  C   UNL     1      -2.792   9.113  -3.837  1.00  0.00     0.031 C 
ATOM     42  C   UNL     1      -4.029   4.571  -5.591  1.00  0.00     0.029 A 
ATOM     43  N   UNL     1      -5.702   5.913  -4.960  1.00  0.00    -0.354 N 
ATOM     44  C   UNL     1      -4.899   9.824  -3.301  1.00  0.00     0.074 A 
ATOM     45  C   UNL     1      -3.476  10.080  -3.244  1.00  0.00     0.031 C 
ATOM     46  C   UNL     1      -5.175   3.896  -5.769  1.00  0.00     0.029 A 
ATOM     47  C   UNL     1      -6.292   4.733  -5.339  1.00  0.00     0.049 A 
ATOM     48  H   UNL     1      -6.212   6.693  -4.641  1.00  0.00     0.167 HD
ATOM     49  C   UNL     1      -5.851  10.694  -2.885  1.00  0.00     0.037 A 
ATOM     50  C   UNL     1      -7.586   4.362  -5.329  1.00  0.00     0.037 A 
ATOM     51  C   UNL     1      -7.266  10.439  -2.964  1.00  0.00     0.049 A 
ATOM     52  C   UNL     1      -8.627   5.347  -4.874  1.00  0.00     0.074 A 
ATOM     53  C   UNL     1      -8.314  11.282  -2.641  1.00  0.00     0.029 A 
ATOM     54  N   UNL     1      -7.830   9.243  -3.388  1.00  0.00    -0.354 N 
ATOM     55  N   UNL     1      -8.469   6.567  -4.420  1.00  0.00    -0.248 NA
ATOM     56  C   UNL     1     -10.027   4.909  -4.942  1.00  0.00     0.031 C 
ATOM     57  C   UNL     1      -9.511  10.578  -2.817  1.00  0.00     0.029 A 
ATOM     58  C   UNL     1      -9.212   9.316  -3.306  1.00  0.00     0.049 A 
ATOM     59  H   UNL     1      -7.323   8.459  -3.700  1.00  0.00     0.167 HD
ATOM     60  C   UNL     1      -9.745   7.050  -4.167  1.00  0.00     0.074 A 
ATOM     61  C   UNL     1     -10.669   5.997  -4.536  1.00  0.00     0.031 C 
ATOM     62  C   UNL     1     -10.118   8.257  -3.673  1.00  0.00     0.037 A 
BRANCH  49  63
ATOM     63  C   UNL     1      -5.388  11.998  -2.300  1.00  0.00     0.064 A 
ATOM     64  C   UNL     1      -4.753  12.977  -3.082  1.00  0.00     0.173 A 
ATOM     65  C   UNL     1      -5.592  12.281  -0.941  1.00  0.00     0.173 A 
ATOM     66  F   UNL     1      -4.524  12.755  -4.385  1.00  0.00    -0.203 F 
ATOM     67  C   UNL     1      -4.302  14.167  -2.517  1.00  0.00     0.198 A 
ATOM     68  C   UNL     1      -5.172  13.487  -0.386  1.00  0.00     0.198 A 
ATOM     69  F   UNL     1      -6.200  11.386  -0.147  1.00  0.00    -0.203 F 
ATOM     70  F   UNL     1      -3.641  15.056  -3.271  1.00  0.00    -0.200 F 
ATOM     71  C   UNL     1      -4.517  14.424  -1.171  1.00  0.00     0.200 A 
ATOM     72  F   UNL     1      -5.393  13.740   0.911  1.00  0.00    -0.200 F 
ATOM     73  F   UNL     1      -4.083  15.570  -0.629  1.00  0.00    -0.200 F 
ENDBRANCH  49  63
BRANCH  50  74
ATOM     74  C   UNL     1      -7.960   2.998  -5.782  1.00  0.00     0.064 A 
ATOM     75  C   UNL     1      -8.638   2.799  -6.992  1.00  0.00     0.173 A 
ATOM     76  C   UNL     1      -7.622   1.864  -5.028  1.00  0.00     0.173 A 
ATOM     77  F   UNL     1      -8.998   3.853  -7.739  1.00  0.00    -0.203 F 
ATOM     78  C   UNL     1      -8.976   1.518  -7.425  1.00  0.00     0.198 A 
ATOM     79  C   UNL     1      -7.936   0.583  -5.476  1.00  0.00     0.198 A 
ATOM     80  F   UNL     1      -6.966   2.001  -3.867  1.00  0.00    -0.203 F 
ATOM     81  F   UNL     1      -9.657   1.358  -8.568  1.00  0.00    -0.200 F 
ATOM     82  C   UNL     1      -8.618   0.411  -6.670  1.00  0.00     0.200 A 
ATOM     83  F   UNL     1      -7.572  -0.485  -4.752  1.00  0.00    -0.200 F 
ATOM     84  F   UNL     1      -8.933  -0.821  -7.093  1.00  0.00    -0.200 F 
ENDBRANCH  50  74
BRANCH  62  85
ATOM     85  C   UNL     1     -11.591   8.513  -3.525  1.00  0.00     0.064 A 
ATOM     86  C   UNL     1     -12.355   7.872  -2.538  1.00  0.00     0.173 A 
ATOM     87  C   UNL     1     -12.236   9.443  -4.355  1.00  0.00     0.173 A 
ATOM     88  F   UNL     1     -11.788   6.964  -1.729  1.00  0.00    -0.203 F 
ATOM     89  C   UNL     1     -13.716   8.134  -2.405  1.00  0.00     0.198 A 
ATOM     90  C   UNL     1     -13.590   9.726  -4.198  1.00  0.00     0.198 A 
ATOM     91  F   UNL     1     -11.550  10.088  -5.310  1.00  0.00    -0.203 F 
ATOM     92  F   UNL     1     -14.436   7.474  -1.488  1.00  0.00    -0.200 F 
ATOM     93  C   UNL     1     -14.330   9.066  -3.229  1.00  0.00     0.200 A 
ATOM     94  F   UNL     1     -14.178  10.637  -4.984  1.00  0.00    -0.200 F 
ATOM     95  F   UNL     1     -15.638   9.323  -3.093  1.00  0.00    -0.200 F 
ENDBRANCH  62  85
ENDBRANCH  36  37
ENDBRANCH  28  31
ENDBRANCH  26  27
ENDBRANCH  25  26
ENDBRANCH  24  25
ENDBRANCH  23  24
ENDBRANCH   1  23
TORSDOF 17
