REMARK SMILES CC(C)Oc1ccc(/C=C(\NC(=O)c2ccccc2)C(=O)NCCCCCCNC(=O)c2ccc(-c3c4nc(c(-c5c(F)c(F)c(F)c(F)c5F)c5ccc([nH]5)c(-c5c(F)c(F)c(F)c(F)c5F)c5nc(c(-c6c(F)c(F)c(F)c(F)c6F)c6ccc3[nH]6)C=C5)C=C4)cc2)cc1
REMARK SMILES IDX 25 1 24 2 23 3 22 4 20 5 21 6 10 8 9 9 8 10 5 11 6 12 96 13
REMARK SMILES IDX 7 14 95 15 4 16 2 17 1 18 3 19 11 20 12 21 13 23 14 24 15 25
REMARK SMILES IDX 19 26 16 27 18 28 17 29 26 30 27 31 28 32 29 33 30 34 31 36
REMARK SMILES IDX 32 37 33 38 94 39 34 40 93 41 35 42 36 43 37 44 87 45 38 46
REMARK SMILES IDX 92 47 86 48 88 49 39 50 91 51 85 52 84 53 40 55 72 56 52 57
REMARK SMILES IDX 71 58 53 59 56 60 70 61 89 62 54 63 55 64 69 66 90 67 57 68
REMARK SMILES IDX 41 69 42 70 50 71 43 72 44 73 48 74 51 75 45 76 46 77 49 78
REMARK SMILES IDX 47 79 73 80 74 81 82 82 75 83 76 84 80 85 83 86 77 87 78 88
REMARK SMILES IDX 81 89 79 90 58 91 59 92 67 93 60 94 61 95 65 96 68 97 62 98
REMARK SMILES IDX 63 99 66 100 64 101
REMARK H PARENT 22 7 11 22 29 35 88 54 56 65
REMARK Flexibility Score: inf
ROOT
ATOM      1  C   UNL     1      -7.827   7.803  -5.210  1.00  0.00     0.002 C 
ENDROOT
BRANCH   1   2
ATOM      2  C   UNL     1      -6.614   7.515  -4.313  1.00  0.00     0.021 C 
BRANCH   2   3
ATOM      3  C   UNL     1      -6.281   6.071  -3.916  1.00  0.00     0.116 C 
BRANCH   3   4
ATOM      4  N   UNL     1      -6.043   5.131  -4.998  1.00  0.00    -0.351 N 
ATOM      5  C   UNL     1      -5.525   3.855  -4.921  1.00  0.00     0.267 C 
ATOM      6  O   UNL     1      -5.276   3.240  -5.959  1.00  0.00    -0.268 OA
ATOM      7  H   UNL     1      -6.282   5.445  -5.901  1.00  0.00     0.163 HD
BRANCH   5   8
ATOM      8  C   UNL     1      -5.196   3.256  -3.559  1.00  0.00     0.107 C 
ATOM      9  C   UNL     1      -3.960   2.716  -3.449  1.00  0.00     0.040 C 
BRANCH   9  10
ATOM     10  C   UNL     1      -3.239   2.091  -2.306  1.00  0.00    -0.023 A 
ATOM     11  C   UNL     1      -1.580   1.065  -0.242  1.00  0.00     0.119 A 
ATOM     12  C   UNL     1      -2.666   1.873   0.061  1.00  0.00     0.047 A 
ATOM     13  C   UNL     1      -1.357   0.698  -1.562  1.00  0.00     0.047 A 
ATOM     14  C   UNL     1      -3.465   2.400  -0.959  1.00  0.00     0.012 A 
ATOM     15  C   UNL     1      -2.176   1.211  -2.584  1.00  0.00     0.012 A 
BRANCH  11  16
ATOM     16  O   UNL     1      -0.850   0.612   0.815  1.00  0.00    -0.491 OA
BRANCH  16  17
ATOM     17  C   UNL     1       0.543   0.963   0.880  1.00  0.00     0.167 C 
ATOM     18  C   UNL     1       1.408  -0.028   0.111  1.00  0.00     0.052 C 
ATOM     19  C   UNL     1       0.877   2.420   0.553  1.00  0.00     0.052 C 
ENDBRANCH  16  17
ENDBRANCH  11  16
ENDBRANCH   9  10
BRANCH   8  20
ATOM     20  N   UNL     1      -6.095   3.292  -2.517  1.00  0.00    -0.317 N 
ATOM     21  C   UNL     1      -7.467   3.307  -2.486  1.00  0.00     0.255 C 
ATOM     22  H   UNL     1      -5.675   3.310  -1.626  1.00  0.00     0.170 HD
ATOM     23  O   UNL     1      -8.053   3.603  -1.447  1.00  0.00    -0.269 OA
BRANCH  21  24
ATOM     24  C   UNL     1      -8.233   2.996  -3.703  1.00  0.00     0.040 A 
ATOM     25  C   UNL     1      -9.166   3.938  -4.123  1.00  0.00     0.014 A 
ATOM     26  C   UNL     1      -7.963   1.870  -4.479  1.00  0.00     0.014 A 
ATOM     27  C   UNL     1      -9.697   3.856  -5.408  1.00  0.00     0.001 A 
ATOM     28  C   UNL     1      -8.527   1.772  -5.750  1.00  0.00     0.001 A 
ATOM     29  C   UNL     1      -9.353   2.789  -6.231  1.00  0.00     0.000 A 
ENDBRANCH  21  24
ENDBRANCH   8  20
ENDBRANCH   5   8
ENDBRANCH   3   4
ENDBRANCH   2   3
ENDBRANCH   1   2
BRANCH   1  30
ATOM     30  C   UNL     1      -9.226   7.427  -4.729  1.00  0.00     0.002 C 
BRANCH  30  31
ATOM     31  C   UNL     1      -9.661   7.859  -3.336  1.00  0.00     0.021 C 
BRANCH  31  32
ATOM     32  C   UNL     1      -9.777   9.365  -3.163  1.00  0.00     0.116 C 
BRANCH  32  33
ATOM     33  N   UNL     1     -10.684   9.971  -4.137  1.00  0.00    -0.352 N 
ATOM     34  C   UNL     1     -11.892  10.608  -3.957  1.00  0.00     0.251 C 
ATOM     35  H   UNL     1     -10.383   9.915  -5.073  1.00  0.00     0.163 HD
ATOM     36  O   UNL     1     -12.627  10.836  -4.904  1.00  0.00    -0.269 OA
BRANCH  34  37
ATOM     37  C   UNL     1     -12.287  11.014  -2.593  1.00  0.00     0.039 A 
ATOM     38  C   UNL     1     -13.610  10.867  -2.168  1.00  0.00     0.014 A 
ATOM     39  C   UNL     1     -11.319  11.517  -1.727  1.00  0.00     0.014 A 
ATOM     40  C   UNL     1     -13.935  11.149  -0.839  1.00  0.00     0.010 A 
ATOM     41  C   UNL     1     -11.608  11.645  -0.382  1.00  0.00     0.010 A 
ATOM     42  C   UNL     1     -12.925  11.496   0.073  1.00  0.00    -0.014 A 
BRANCH  42  43
ATOM     43  C   UNL     1     -13.200  11.767   1.504  1.00  0.00     0.031 A 
ATOM     44  C   UNL     1     -12.806  13.100   2.084  1.00  0.00     0.074 A 
ATOM     45  C   UNL     1     -13.692  10.791   2.290  1.00  0.00     0.049 A 
ATOM     46  N   UNL     1     -12.807  13.497   3.331  1.00  0.00    -0.248 NA
ATOM     47  C   UNL     1     -12.278  14.104   1.142  1.00  0.00     0.031 C 
ATOM     48  C   UNL     1     -14.039   9.438   1.850  1.00  0.00     0.029 A 
ATOM     49  N   UNL     1     -13.972  10.783   3.633  1.00  0.00    -0.354 N 
ATOM     50  C   UNL     1     -12.252  14.770   3.317  1.00  0.00     0.074 A 
ATOM     51  C   UNL     1     -11.841  15.045   1.961  1.00  0.00     0.031 C 
ATOM     52  C   UNL     1     -14.522   8.745   2.893  1.00  0.00     0.029 A 
ATOM     53  C   UNL     1     -14.472   9.586   4.084  1.00  0.00     0.049 A 
ATOM     54  H   UNL     1     -13.829  11.562   4.218  1.00  0.00     0.167 HD
ATOM     55  C   UNL     1     -12.133  15.649   4.339  1.00  0.00     0.037 A 
ATOM     56  C   UNL     1     -14.840   9.214   5.324  1.00  0.00     0.037 A 
ATOM     57  C   UNL     1     -12.597  15.380   5.671  1.00  0.00     0.049 A 
ATOM     58  C   UNL     1     -14.719  10.216   6.441  1.00  0.00     0.074 A 
ATOM     59  C   UNL     1     -12.608  16.219   6.769  1.00  0.00     0.029 A 
ATOM     60  N   UNL     1     -13.142  14.170   6.082  1.00  0.00    -0.354 N 
ATOM     61  N   UNL     1     -14.269  11.448   6.405  1.00  0.00    -0.248 NA
ATOM     62  C   UNL     1     -15.164   9.781   7.771  1.00  0.00     0.031 C 
ATOM     63  C   UNL     1     -13.107  15.500   7.859  1.00  0.00     0.029 A 
ATOM     64  C   UNL     1     -13.468  14.233   7.425  1.00  0.00     0.049 A 
ATOM     65  H   UNL     1     -13.275  13.385   5.504  1.00  0.00     0.167 HD
ATOM     66  C   UNL     1     -14.403  11.944   7.694  1.00  0.00     0.074 A 
ATOM     67  C   UNL     1     -14.994  10.884   8.486  1.00  0.00     0.031 C 
ATOM     68  C   UNL     1     -14.067  13.164   8.183  1.00  0.00     0.037 A 
BRANCH  55  69
ATOM     69  C   UNL     1     -11.496  16.979   4.046  1.00  0.00     0.064 A 
ATOM     70  C   UNL     1     -12.103  17.920   3.199  1.00  0.00     0.173 A 
ATOM     71  C   UNL     1     -10.269  17.324   4.631  1.00  0.00     0.173 A 
ATOM     72  F   UNL     1     -13.270  17.638   2.600  1.00  0.00    -0.203 F 
ATOM     73  C   UNL     1     -11.487  19.137   2.918  1.00  0.00     0.198 A 
ATOM     74  C   UNL     1      -9.675  18.558   4.379  1.00  0.00     0.198 A 
ATOM     75  F   UNL     1      -9.643  16.465   5.450  1.00  0.00    -0.203 F 
ATOM     76  F   UNL     1     -12.055  19.989   2.053  1.00  0.00    -0.200 F 
ATOM     77  C   UNL     1     -10.278  19.459   3.514  1.00  0.00     0.200 A 
ATOM     78  F   UNL     1      -8.512  18.873   4.967  1.00  0.00    -0.200 F 
ATOM     79  F   UNL     1      -9.690  20.633   3.249  1.00  0.00    -0.200 F 
ENDBRANCH  55  69
BRANCH  56  80
ATOM     80  C   UNL     1     -15.387   7.852   5.566  1.00  0.00     0.064 A 
ATOM     81  C   UNL     1     -16.733   7.670   5.918  1.00  0.00     0.173 A 
ATOM     82  C   UNL     1     -14.586   6.707   5.450  1.00  0.00     0.173 A 
ATOM     83  F   UNL     1     -17.538   8.734   6.057  1.00  0.00    -0.203 F 
ATOM     84  C   UNL     1     -17.248   6.400   6.171  1.00  0.00     0.198 A 
ATOM     85  C   UNL     1     -15.110   5.434   5.671  1.00  0.00     0.198 A 
ATOM     86  F   UNL     1     -13.295   6.822   5.107  1.00  0.00    -0.203 F 
ATOM     87  F   UNL     1     -18.524   6.262   6.556  1.00  0.00    -0.200 F 
ATOM     88  C   UNL     1     -16.438   5.283   6.042  1.00  0.00     0.200 A 
ATOM     89  F   UNL     1     -14.328   4.356   5.529  1.00  0.00    -0.200 F 
ATOM     90  F   UNL     1     -16.934   4.061   6.282  1.00  0.00    -0.200 F 
ENDBRANCH  56  80
BRANCH  68  91
ATOM     91  C   UNL     1     -14.367  13.431   9.629  1.00  0.00     0.064 A 
ATOM     92  C   UNL     1     -13.641  12.815  10.658  1.00  0.00     0.173 A 
ATOM     93  C   UNL     1     -15.357  14.360   9.984  1.00  0.00     0.173 A 
ATOM     94  F   UNL     1     -12.693  11.911  10.369  1.00  0.00    -0.203 F 
ATOM     95  C   UNL     1     -13.914  13.101  11.992  1.00  0.00     0.198 A 
ATOM     96  C   UNL     1     -15.601  14.670  11.318  1.00  0.00     0.198 A 
ATOM     97  F   UNL     1     -16.072  14.984   9.035  1.00  0.00    -0.203 F 
ATOM     98  F   UNL     1     -13.242  12.464  12.962  1.00  0.00    -0.200 F 
ATOM     99  C   UNL     1     -14.886  14.035  12.321  1.00  0.00     0.200 A 
ATOM    100  F   UNL     1     -16.526  15.588  11.632  1.00  0.00    -0.200 F 
ATOM    101  F   UNL     1     -15.136  14.319  13.606  1.00  0.00    -0.200 F 
ENDBRANCH  68  91
ENDBRANCH  42  43
ENDBRANCH  34  37
ENDBRANCH  32  33
ENDBRANCH  31  32
ENDBRANCH  30  31
ENDBRANCH   1  30
TORSDOF 18
