REMARK SMILES C[C@H](c1cccc(-c2cc(C(=O)NCCCCCCNC(=O)c3ccc(-c4c5nc(c(-c6c(F)c(F)c(F)c(F)c6F)c6ccc([nH]6)c(-c6c(F)c(F)c(F)c(F)c6F)c6nc(c(-c7c(F)c(F)c(F)c(F)c7F)c7ccc4[nH]7)C=C6)C=C5)cc3)cc(S(=O)(=O)N3CCOCC3)c2)c1)[NH+](C)C
REMARK SMILES IDX 16 1 15 2 14 3 13 4 11 5 12 6 10 8 8 9 9 10 97 11 87 12
REMARK SMILES IDX 86 13 7 14 3 15 4 16 98 17 5 18 6 19 2 20 1 21 99 22 100 23
REMARK SMILES IDX 101 24 88 26 89 27 90 28 91 29 92 30 96 31 93 32 95 33 94 34
REMARK SMILES IDX 17 35 18 36 19 37 20 38 21 39 22 41 23 42 24 43 85 44 25 45
REMARK SMILES IDX 84 46 26 47 27 48 28 49 78 50 29 51 83 52 77 53 79 54 30 55
REMARK SMILES IDX 82 56 76 57 75 58 31 60 63 61 43 62 62 63 44 64 47 65 61 66
REMARK SMILES IDX 80 67 45 68 46 69 60 71 81 72 48 73 32 74 33 75 41 76 34 77
REMARK SMILES IDX 35 78 39 79 42 80 36 81 37 82 40 83 38 84 64 85 65 86 73 87
REMARK SMILES IDX 66 88 67 89 71 90 74 91 68 92 69 93 72 94 70 95 49 96 50 97
REMARK SMILES IDX 58 98 51 99 52 100 56 101 59 102 53 103 54 104 57 105 55 106
REMARK H PARENT 13 7 99 25 20 40 79 59 47 70
REMARK Flexibility Score: inf
ROOT
ATOM      1  C   UNL     1      -2.465   8.879   6.546  1.00  0.00     0.002 C 
ENDROOT
BRANCH   1   2
ATOM      2  C   UNL     1      -2.527   7.380   6.253  1.00  0.00     0.021 C 
BRANCH   2   3
ATOM      3  C   UNL     1      -2.344   6.957   4.801  1.00  0.00     0.116 C 
BRANCH   3   4
ATOM      4  N   UNL     1      -1.094   7.380   4.192  1.00  0.00    -0.352 N 
ATOM      5  C   UNL     1      -0.386   6.805   3.159  1.00  0.00     0.251 C 
ATOM      6  O   UNL     1       0.678   7.303   2.801  1.00  0.00    -0.269 OA
ATOM      7  H   UNL     1      -0.695   8.195   4.573  1.00  0.00     0.163 HD
BRANCH   5   8
ATOM      8  C   UNL     1      -0.863   5.558   2.505  1.00  0.00     0.041 A 
ATOM      9  C   UNL     1      -0.325   3.321   1.666  1.00  0.00    -0.016 A 
ATOM     10  C   UNL     1       0.081   4.564   2.179  1.00  0.00     0.022 A 
ATOM     11  C   UNL     1      -1.705   3.106   1.505  1.00  0.00     0.030 A 
ATOM     12  C   UNL     1      -2.638   4.085   1.827  1.00  0.00     0.084 A 
ATOM     13  C   UNL     1      -2.217   5.337   2.257  1.00  0.00     0.035 A 
BRANCH   9  14
ATOM     14  C   UNL     1       0.604   2.205   1.393  1.00  0.00    -0.018 A 
ATOM     15  C   UNL     1       1.121   0.167   0.085  1.00  0.00     0.010 A 
ATOM     16  C   UNL     1       2.130  -0.141   1.005  1.00  0.00     0.010 A 
ATOM     17  C   UNL     1       0.399   1.361   0.282  1.00  0.00     0.018 A 
ATOM     18  C   UNL     1       2.392   0.709   2.083  1.00  0.00     0.001 A 
ATOM     19  C   UNL     1       1.633   1.866   2.279  1.00  0.00     0.009 A 
BRANCH  15  20
ATOM     20  C   UNL     1       0.749  -0.718  -1.111  1.00  0.00     0.211 C 
ATOM     21  C   UNL     1       1.658  -1.942  -1.315  1.00  0.00     0.081 C 
BRANCH  20  22
ATOM     22  N   UNL     1      -0.703  -1.040  -1.092  1.00  0.00    -0.334 N 
ATOM     23  C   UNL     1      -1.209  -1.428  -2.407  1.00  0.00     0.333 C 
ATOM     24  C   UNL     1      -1.074  -2.035  -0.085  1.00  0.00     0.333 C 
ATOM     25  H   UNL     1      -1.154  -0.166  -0.823  1.00  0.00     0.348 HD
ENDBRANCH  20  22
ENDBRANCH  15  20
ENDBRANCH   9  14
BRANCH  12  26
ATOM     26  S   UNL     1      -4.372   3.705   1.931  1.00  0.00     0.243 S 
ATOM     27  O   UNL     1      -4.808   4.216   3.218  1.00  0.00    -0.207 OA
ATOM     28  O   UNL     1      -4.964   4.149   0.694  1.00  0.00    -0.207 OA
BRANCH  26  29
ATOM     29  N   UNL     1      -4.423   2.038   2.012  1.00  0.00    -0.193 NA
ATOM     30  C   UNL     1      -4.135   1.296   3.255  1.00  0.00     0.131 C 
ATOM     31  C   UNL     1      -4.879   1.218   0.875  1.00  0.00     0.131 C 
ATOM     32  C   UNL     1      -3.264   0.067   2.953  1.00  0.00     0.177 C 
ATOM     33  C   UNL     1      -3.967   0.001   0.699  1.00  0.00     0.177 C 
ATOM     34  O   UNL     1      -3.838  -0.745   1.918  1.00  0.00    -0.379 OA
ENDBRANCH  26  29
ENDBRANCH  12  26
ENDBRANCH   5   8
ENDBRANCH   3   4
ENDBRANCH   2   3
ENDBRANCH   1   2
BRANCH   1  35
ATOM     35  C   UNL     1      -3.289   9.805   5.649  1.00  0.00     0.002 C 
BRANCH  35  36
ATOM     36  C   UNL     1      -4.782   9.501   5.509  1.00  0.00     0.021 C 
BRANCH  36  37
ATOM     37  C   UNL     1      -5.566   9.293   6.801  1.00  0.00     0.116 C 
BRANCH  37  38
ATOM     38  N   UNL     1      -5.470  10.407   7.726  1.00  0.00    -0.352 N 
ATOM     39  C   UNL     1      -6.442  11.014   8.482  1.00  0.00     0.251 C 
ATOM     40  H   UNL     1      -4.568  10.787   7.826  1.00  0.00     0.163 HD
ATOM     41  O   UNL     1      -6.157  11.997   9.161  1.00  0.00    -0.269 OA
BRANCH  39  42
ATOM     42  C   UNL     1      -7.841  10.525   8.465  1.00  0.00     0.039 A 
ATOM     43  C   UNL     1      -8.870  11.472   8.412  1.00  0.00     0.014 A 
ATOM     44  C   UNL     1      -8.155   9.164   8.534  1.00  0.00     0.014 A 
ATOM     45  C   UNL     1     -10.204  11.057   8.368  1.00  0.00     0.010 A 
ATOM     46  C   UNL     1      -9.483   8.748   8.434  1.00  0.00     0.010 A 
ATOM     47  C   UNL     1     -10.520   9.691   8.351  1.00  0.00    -0.014 A 
BRANCH  47  48
ATOM     48  C   UNL     1     -11.928   9.237   8.242  1.00  0.00     0.031 A 
ATOM     49  C   UNL     1     -12.596   8.543   9.394  1.00  0.00     0.074 A 
ATOM     50  C   UNL     1     -12.587   9.389   7.078  1.00  0.00     0.049 A 
ATOM     51  N   UNL     1     -13.801   8.036   9.469  1.00  0.00    -0.248 NA
ATOM     52  C   UNL     1     -11.795   8.372  10.615  1.00  0.00     0.031 C 
ATOM     53  C   UNL     1     -12.029   9.986   5.864  1.00  0.00     0.029 A 
ATOM     54  N   UNL     1     -13.865   9.038   6.721  1.00  0.00    -0.354 N 
ATOM     55  C   UNL     1     -13.893   7.463  10.730  1.00  0.00     0.074 A 
ATOM     56  C   UNL     1     -12.612   7.659  11.377  1.00  0.00     0.031 C 
ATOM     57  C   UNL     1     -12.960   9.964   4.897  1.00  0.00     0.029 A 
ATOM     58  C   UNL     1     -14.173   9.338   5.417  1.00  0.00     0.049 A 
ATOM     59  H   UNL     1     -14.500   8.611   7.340  1.00  0.00     0.167 HD
ATOM     60  C   UNL     1     -14.953   6.843  11.301  1.00  0.00     0.037 A 
ATOM     61  C   UNL     1     -15.305   9.130   4.718  1.00  0.00     0.037 A 
ATOM     62  C   UNL     1     -16.240   6.690  10.678  1.00  0.00     0.049 A 
ATOM     63  C   UNL     1     -16.488   8.498   5.395  1.00  0.00     0.074 A 
ATOM     64  C   UNL     1     -17.405   6.171  11.217  1.00  0.00     0.029 A 
ATOM     65  N   UNL     1     -16.532   7.057   9.373  1.00  0.00    -0.354 N 
ATOM     66  N   UNL     1     -16.592   8.041   6.618  1.00  0.00    -0.248 NA
ATOM     67  C   UNL     1     -17.715   8.364   4.597  1.00  0.00     0.031 C 
ATOM     68  C   UNL     1     -18.395   6.196  10.228  1.00  0.00     0.029 A 
ATOM     69  C   UNL     1     -17.854   6.758   9.083  1.00  0.00     0.049 A 
ATOM     70  H   UNL     1     -15.895   7.469   8.746  1.00  0.00     0.167 HD
ATOM     71  C   UNL     1     -17.894   7.579   6.744  1.00  0.00     0.074 A 
ATOM     72  C   UNL     1     -18.549   7.823   5.475  1.00  0.00     0.031 C 
ATOM     73  C   UNL     1     -18.491   7.005   7.816  1.00  0.00     0.037 A 
BRANCH  60  74
ATOM     74  C   UNL     1     -14.762   6.283  12.678  1.00  0.00     0.064 A 
ATOM     75  C   UNL     1     -14.685   7.114  13.805  1.00  0.00     0.173 A 
ATOM     76  C   UNL     1     -14.680   4.896  12.874  1.00  0.00     0.173 A 
ATOM     77  F   UNL     1     -14.747   8.447  13.666  1.00  0.00    -0.203 F 
ATOM     78  C   UNL     1     -14.505   6.578  15.078  1.00  0.00     0.198 A 
ATOM     79  C   UNL     1     -14.522   4.363  14.151  1.00  0.00     0.198 A 
ATOM     80  F   UNL     1     -14.753   4.060  11.829  1.00  0.00    -0.203 F 
ATOM     81  F   UNL     1     -14.390   7.392  16.136  1.00  0.00    -0.200 F 
ATOM     82  C   UNL     1     -14.428   5.204  15.250  1.00  0.00     0.200 A 
ATOM     83  F   UNL     1     -14.456   3.035  14.317  1.00  0.00    -0.200 F 
ATOM     84  F   UNL     1     -14.254   4.689  16.475  1.00  0.00    -0.200 F 
ENDBRANCH  60  74
BRANCH  61  85
ATOM     85  C   UNL     1     -15.375   9.558   3.300  1.00  0.00     0.064 A 
ATOM     86  C   UNL     1     -16.082  10.711   2.933  1.00  0.00     0.173 A 
ATOM     87  C   UNL     1     -14.718   8.841   2.292  1.00  0.00     0.173 A 
ATOM     88  F   UNL     1     -16.742  11.415   3.864  1.00  0.00    -0.203 F 
ATOM     89  C   UNL     1     -16.135  11.127   1.605  1.00  0.00     0.198 A 
ATOM     90  C   UNL     1     -14.756   9.268   0.967  1.00  0.00     0.198 A 
ATOM     91  F   UNL     1     -14.026   7.733   2.598  1.00  0.00    -0.203 F 
ATOM     92  F   UNL     1     -16.840  12.218   1.275  1.00  0.00    -0.200 F 
ATOM     93  C   UNL     1     -15.467  10.409   0.624  1.00  0.00     0.200 A 
ATOM     94  F   UNL     1     -14.103   8.578   0.022  1.00  0.00    -0.200 F 
ATOM     95  F   UNL     1     -15.513  10.814  -0.652  1.00  0.00    -0.200 F 
ENDBRANCH  61  85
BRANCH  73  96
ATOM     96  C   UNL     1     -19.928   6.609   7.668  1.00  0.00     0.064 A 
ATOM     97  C   UNL     1     -20.299   5.463   6.951  1.00  0.00     0.173 A 
ATOM     98  C   UNL     1     -20.941   7.360   8.284  1.00  0.00     0.173 A 
ATOM     99  F   UNL     1     -19.366   4.723   6.332  1.00  0.00    -0.203 F 
ATOM    100  C   UNL     1     -21.635   5.089   6.843  1.00  0.00     0.198 A 
ATOM    101  C   UNL     1     -22.274   6.973   8.190  1.00  0.00     0.198 A 
ATOM    102  F   UNL     1     -20.634   8.463   8.982  1.00  0.00    -0.203 F 
ATOM    103  F   UNL     1     -21.971   4.008   6.127  1.00  0.00    -0.200 F 
ATOM    104  C   UNL     1     -22.621   5.840   7.468  1.00  0.00     0.200 A 
ATOM    105  F   UNL     1     -23.225   7.695   8.799  1.00  0.00    -0.200 F 
ATOM    106  F   UNL     1     -23.907   5.476   7.367  1.00  0.00    -0.200 F 
ENDBRANCH  73  96
ENDBRANCH  47  48
ENDBRANCH  39  42
ENDBRANCH  37  38
ENDBRANCH  36  37
ENDBRANCH  35  36
ENDBRANCH   1  35
TORSDOF 18
