REMARK SMILES O=C(NCCCCCCNC(=O)[C@H](NC(=O)[C@H]1CC[C@@H](CNC(=O)[C@@H]2Cc3ccccc3C[NH2+]2)CC1)c1ccccc1)c1ccc(-c2c3nc(c(-c4c(F)c(F)c(F)c(F)c4F)c4ccc([nH]4)c(-c4c(F)c(F)c(F)c(F)c4F)c4nc(c(-c5c(F)c(F)c(F)c(F)c5F)c5ccc2[nH]5)C=C4)C=C3)cc1
REMARK SMILES IDX 8 1 7 2 6 3 5 4 4 5 3 6 1 7 2 8 43 10 44 11 105 12 45 13
REMARK SMILES IDX 104 14 46 15 47 16 48 17 98 18 49 19 103 20 97 21 99 22
REMARK SMILES IDX 50 23 102 24 96 25 95 26 51 28 83 29 63 30 82 31 64 32 67 33
REMARK SMILES IDX 81 34 100 35 65 36 66 37 80 39 101 40 68 41 52 42 53 43
REMARK SMILES IDX 61 44 54 45 55 46 59 47 62 48 56 49 57 50 60 51 58 52 84 53
REMARK SMILES IDX 85 54 93 55 86 56 87 57 91 58 94 59 88 60 89 61 92 62 90 63
REMARK SMILES IDX 69 64 70 65 78 66 71 67 72 68 76 69 79 70 73 71 74 72 77 73
REMARK SMILES IDX 75 74 9 75 10 76 11 77 12 79 13 80 37 81 38 82 42 83 39 84
REMARK SMILES IDX 41 85 40 86 14 87 15 88 16 90 17 91 36 92 18 93 35 94 19 95
REMARK SMILES IDX 20 96 21 97 22 98 23 99 24 101 25 102 26 103 34 104 27 105
REMARK SMILES IDX 33 106 28 109 32 110 29 111 31 112 30 113
REMARK H PARENT 3 9 99 27 67 38 10 78 14 89 22 100 34 107 34 108
REMARK Flexibility Score: inf
ROOT
ATOM      1  C   UNL     1      19.451   9.068  -6.561  1.00  0.00     0.021 C 
ENDROOT
BRANCH   1   2
ATOM      2  C   UNL     1      20.272  10.092  -7.348  1.00  0.00     0.002 C 
BRANCH   2   3
ATOM      3  C   UNL     1      21.479   9.510  -8.091  1.00  0.00     0.002 C 
BRANCH   3   4
ATOM      4  C   UNL     1      21.170   8.319  -8.998  1.00  0.00     0.021 C 
BRANCH   4   5
ATOM      5  C   UNL     1      19.959   8.506  -9.900  1.00  0.00     0.116 C 
BRANCH   5   6
ATOM      6  N   UNL     1      20.091   9.645 -10.788  1.00  0.00    -0.352 N 
ATOM      7  O   UNL     1      19.946  10.709 -12.779  1.00  0.00    -0.269 OA
ATOM      8  C   UNL     1      19.684   9.734 -12.096  1.00  0.00     0.251 C 
ATOM      9  H   UNL     1      20.522  10.445 -10.410  1.00  0.00     0.163 HD
BRANCH   8  10
ATOM     10  C   UNL     1      18.932   8.598 -12.664  1.00  0.00     0.039 A 
ATOM     11  C   UNL     1      17.802   8.106 -12.005  1.00  0.00     0.014 A 
ATOM     12  C   UNL     1      19.384   8.014 -13.848  1.00  0.00     0.014 A 
ATOM     13  C   UNL     1      17.162   6.975 -12.492  1.00  0.00     0.010 A 
ATOM     14  C   UNL     1      18.695   6.924 -14.378  1.00  0.00     0.010 A 
ATOM     15  C   UNL     1      17.579   6.402 -13.705  1.00  0.00    -0.014 A 
BRANCH  15  16
ATOM     16  C   UNL     1      16.737   5.363 -14.340  1.00  0.00     0.031 A 
ATOM     17  C   UNL     1      17.227   3.960 -14.525  1.00  0.00     0.074 A 
ATOM     18  C   UNL     1      15.519   5.736 -14.780  1.00  0.00     0.049 A 
ATOM     19  N   UNL     1      16.631   2.956 -15.115  1.00  0.00    -0.248 NA
ATOM     20  C   UNL     1      18.559   3.638 -13.990  1.00  0.00     0.031 C 
ATOM     21  C   UNL     1      14.964   7.089 -14.668  1.00  0.00     0.029 A 
ATOM     22  N   UNL     1      14.532   5.026 -15.410  1.00  0.00    -0.354 N 
ATOM     23  C   UNL     1      17.517   1.891 -15.044  1.00  0.00     0.074 A 
ATOM     24  C   UNL     1      18.700   2.370 -14.360  1.00  0.00     0.031 C 
ATOM     25  C   UNL     1      13.732   7.106 -15.194  1.00  0.00     0.029 A 
ATOM     26  C   UNL     1      13.439   5.789 -15.741  1.00  0.00     0.049 A 
ATOM     27  H   UNL     1      14.599   4.063 -15.607  1.00  0.00     0.167 HD
ATOM     28  C   UNL     1      17.346   0.632 -15.511  1.00  0.00     0.037 A 
ATOM     29  C   UNL     1      12.338   5.474 -16.447  1.00  0.00     0.037 A 
ATOM     30  C   UNL     1      16.150   0.169 -16.169  1.00  0.00     0.049 A 
ATOM     31  C   UNL     1      12.198   4.076 -16.974  1.00  0.00     0.074 A 
ATOM     32  C   UNL     1      15.844  -1.110 -16.599  1.00  0.00     0.029 A 
ATOM     33  N   UNL     1      15.070   0.973 -16.505  1.00  0.00    -0.354 N 
ATOM     34  N   UNL     1      13.011   3.057 -16.834  1.00  0.00    -0.248 NA
ATOM     35  C   UNL     1      10.996   3.786 -17.764  1.00  0.00     0.031 C 
ATOM     36  C   UNL     1      14.605  -1.069 -17.248  1.00  0.00     0.029 A 
ATOM     37  C   UNL     1      14.116   0.226 -17.178  1.00  0.00     0.049 A 
ATOM     38  H   UNL     1      14.993   1.932 -16.296  1.00  0.00     0.167 HD
ATOM     39  C   UNL     1      12.418   2.005 -17.514  1.00  0.00     0.074 A 
ATOM     40  C   UNL     1      11.161   2.500 -18.036  1.00  0.00     0.031 C 
ATOM     41  C   UNL     1      12.878   0.744 -17.698  1.00  0.00     0.037 A 
BRANCH  28  42
ATOM     42  C   UNL     1      18.471  -0.348 -15.352  1.00  0.00     0.064 A 
ATOM     43  C   UNL     1      18.773  -0.930 -14.114  1.00  0.00     0.173 A 
ATOM     44  C   UNL     1      19.183  -0.790 -16.478  1.00  0.00     0.173 A 
ATOM     45  F   UNL     1      18.126  -0.538 -13.006  1.00  0.00    -0.203 F 
ATOM     46  C   UNL     1      19.750  -1.919 -14.008  1.00  0.00     0.198 A 
ATOM     47  C   UNL     1      20.143  -1.793 -16.372  1.00  0.00     0.198 A 
ATOM     48  F   UNL     1      18.927  -0.269 -17.687  1.00  0.00    -0.203 F 
ATOM     49  F   UNL     1      20.034  -2.452 -12.811  1.00  0.00    -0.200 F 
ATOM     50  C   UNL     1      20.425  -2.357 -15.138  1.00  0.00     0.200 A 
ATOM     51  F   UNL     1      20.785  -2.224 -17.467  1.00  0.00    -0.200 F 
ATOM     52  F   UNL     1      21.348  -3.324 -15.037  1.00  0.00    -0.200 F 
ENDBRANCH  28  42
BRANCH  29  53
ATOM     53  C   UNL     1      11.316   6.513 -16.730  1.00  0.00     0.064 A 
ATOM     54  C   UNL     1      10.030   6.434 -16.180  1.00  0.00     0.173 A 
ATOM     55  C   UNL     1      11.604   7.606 -17.563  1.00  0.00     0.173 A 
ATOM     56  F   UNL     1       9.703   5.400 -15.391  1.00  0.00    -0.203 F 
ATOM     57  C   UNL     1       9.063   7.393 -16.473  1.00  0.00     0.198 A 
ATOM     58  C   UNL     1      10.647   8.582 -17.827  1.00  0.00     0.198 A 
ATOM     59  F   UNL     1      12.822   7.732 -18.109  1.00  0.00    -0.203 F 
ATOM     60  F   UNL     1       7.826   7.265 -15.976  1.00  0.00    -0.200 F 
ATOM     61  C   UNL     1       9.374   8.469 -17.291  1.00  0.00     0.200 A 
ATOM     62  F   UNL     1      10.959   9.630 -18.602  1.00  0.00    -0.200 F 
ATOM     63  F   UNL     1       8.444   9.392 -17.569  1.00  0.00    -0.200 F 
ENDBRANCH  29  53
BRANCH  41  64
ATOM     64  C   UNL     1      12.012  -0.181 -18.500  1.00  0.00     0.064 A 
ATOM     65  C   UNL     1      11.880  -0.032 -19.889  1.00  0.00     0.173 A 
ATOM     66  C   UNL     1      11.331  -1.238 -17.881  1.00  0.00     0.173 A 
ATOM     67  F   UNL     1      12.495   0.978 -20.521  1.00  0.00    -0.203 F 
ATOM     68  C   UNL     1      11.077  -0.897 -20.625  1.00  0.00     0.198 A 
ATOM     69  C   UNL     1      10.553  -2.120 -18.625  1.00  0.00     0.198 A 
ATOM     70  F   UNL     1      11.428  -1.423 -16.556  1.00  0.00    -0.203 F 
ATOM     71  F   UNL     1      10.925  -0.708 -21.943  1.00  0.00    -0.200 F 
ATOM     72  C   UNL     1      10.421  -1.944 -19.995  1.00  0.00     0.200 A 
ATOM     73  F   UNL     1       9.929  -3.138 -18.017  1.00  0.00    -0.200 F 
ATOM     74  F   UNL     1       9.654  -2.781 -20.707  1.00  0.00    -0.200 F 
ENDBRANCH  41  64
ENDBRANCH  15  16
ENDBRANCH   8  10
ENDBRANCH   5   6
ENDBRANCH   4   5
ENDBRANCH   3   4
ENDBRANCH   2   3
ENDBRANCH   1   2
BRANCH   1  75
ATOM     75  C   UNL     1      20.196   8.528  -5.357  1.00  0.00     0.116 C 
BRANCH  75  76
ATOM     76  N   UNL     1      20.196   9.514  -4.293  1.00  0.00    -0.354 N 
ATOM     77  C   UNL     1      20.309   9.285  -2.944  1.00  0.00     0.247 C 
ATOM     78  H   UNL     1      20.105  10.454  -4.569  1.00  0.00     0.163 HD
ATOM     79  O   UNL     1      20.277  10.255  -2.183  1.00  0.00    -0.272 OA
BRANCH  77  80
ATOM     80  C   UNL     1      20.310   7.830  -2.423  1.00  0.00     0.202 C 
BRANCH  80  81
ATOM     81  C   UNL     1      18.860   7.275  -2.527  1.00  0.00    -0.016 A 
ATOM     82  C   UNL     1      17.793   8.079  -3.006  1.00  0.00     0.006 A 
ATOM     83  C   UNL     1      18.541   5.961  -2.160  1.00  0.00     0.006 A 
ATOM     84  C   UNL     1      16.510   7.577  -3.215  1.00  0.00     0.000 A 
ATOM     85  C   UNL     1      17.241   5.462  -2.343  1.00  0.00     0.000 A 
ATOM     86  C   UNL     1      16.235   6.261  -2.890  1.00  0.00     0.000 A 
ENDBRANCH  80  81
BRANCH  80  87
ATOM     87  N   UNL     1      21.306   6.933  -3.092  1.00  0.00    -0.340 N 
ATOM     88  C   UNL     1      22.675   6.883  -2.991  1.00  0.00     0.224 C 
ATOM     89  H   UNL     1      20.915   6.270  -3.706  1.00  0.00     0.164 HD
ATOM     90  O   UNL     1      23.139   5.765  -2.728  1.00  0.00    -0.275 OA
BRANCH  88  91
ATOM     91  C   UNL     1      23.640   8.012  -3.459  1.00  0.00     0.078 C 
ATOM     92  C   UNL     1      23.154   9.428  -3.247  1.00  0.00     0.014 C 
ATOM     93  C   UNL     1      25.058   7.830  -2.868  1.00  0.00     0.014 C 
ATOM     94  C   UNL     1      24.127  10.545  -3.559  1.00  0.00     0.006 C 
ATOM     95  C   UNL     1      26.012   9.009  -3.133  1.00  0.00     0.006 C 
ATOM     96  C   UNL     1      25.423  10.385  -2.791  1.00  0.00     0.008 C 
BRANCH  96  97
ATOM     97  C   UNL     1      25.198  10.611  -1.285  1.00  0.00     0.119 C 
BRANCH  97  98
ATOM     98  N   UNL     1      26.368  11.216  -0.684  1.00  0.00    -0.351 N 
ATOM     99  C   UNL     1      26.432  12.074   0.373  1.00  0.00     0.278 C 
ATOM    100  H   UNL     1      27.231  10.976  -1.093  1.00  0.00     0.163 HD
ATOM    101  O   UNL     1      27.537  12.516   0.701  1.00  0.00    -0.268 OA
BRANCH  99 102
ATOM    102  C   UNL     1      25.157  12.441   1.158  1.00  0.00     0.277 C 
ATOM    103  C   UNL     1      24.573  13.770   0.628  1.00  0.00     0.111 C 
ATOM    104  N   UNL     1      25.493  12.395   2.612  1.00  0.00    -0.332 N 
ATOM    105  C   UNL     1      23.478  14.237   1.554  1.00  0.00    -0.033 A 
ATOM    106  C   UNL     1      25.064  13.578   3.358  1.00  0.00     0.298 C 
ATOM    107  H   UNL     1      26.505  12.306   2.705  1.00  0.00     0.347 HD
ATOM    108  H   UNL     1      24.991  11.599   3.006  1.00  0.00     0.347 HD
ATOM    109  C   UNL     1      22.280  14.796   1.105  1.00  0.00     0.004 A 
ATOM    110  C   UNL     1      23.712  14.086   2.932  1.00  0.00     0.010 A 
ATOM    111  C   UNL     1      21.301  15.167   2.030  1.00  0.00     0.000 A 
ATOM    112  C   UNL     1      22.729  14.462   3.851  1.00  0.00     0.010 A 
ATOM    113  C   UNL     1      21.521  14.991   3.398  1.00  0.00     0.001 A 
ENDBRANCH  99 102
ENDBRANCH  97  98
ENDBRANCH  96  97
ENDBRANCH  88  91
ENDBRANCH  80  87
ENDBRANCH  77  80
ENDBRANCH  75  76
ENDBRANCH   1  75
TORSDOF 19
