REMARK SMILES CCCN(C(=O)Cc1c(C(=O)NCCCCCCNC(=O)c2ccc(-c3c4nc(c(-c5c(F)c(F)c(F)c(F)c5F)c5ccc([nH]5)c(-c5c(F)c(F)c(F)c(F)c5F)c5nc(c(-c6c(F)c(F)c(F)c(F)c6F)c6ccc3[nH]6)C=C5)C=C4)cc2)c(C)cn1CC)c1cccc(Cl)c1
REMARK SMILES IDX 14 1 13 2 12 3 10 4 11 5 9 7 8 8 88 9 85 10 87 11 86 12 7 13
REMARK SMILES IDX 5 14 6 15 4 16 3 17 2 18 1 19 91 20 92 21 97 22 93 23 95 24
REMARK SMILES IDX 94 25 96 26 89 27 90 28 15 29 16 30 17 31 18 32 19 33 20 34
REMARK SMILES IDX 21 36 22 37 23 38 84 39 24 40 83 41 25 42 26 43 27 44 77 45
REMARK SMILES IDX 28 46 82 47 76 48 78 49 29 50 81 51 75 52 74 53 30 55 62 56
REMARK SMILES IDX 42 57 61 58 43 59 46 60 60 61 79 62 44 63 45 64 59 66 80 67
REMARK SMILES IDX 47 68 31 69 32 70 40 71 33 72 34 73 38 74 41 75 35 76 36 77
REMARK SMILES IDX 39 78 37 79 63 80 64 81 72 82 65 83 66 84 70 85 73 86 67 87
REMARK SMILES IDX 68 88 71 89 69 90 48 91 49 92 57 93 50 94 51 95 55 96 58 97
REMARK SMILES IDX 52 98 53 99 56 100 54 101
REMARK H PARENT 12 6 19 35 78 54 46 65
REMARK Flexibility Score: inf
ROOT
ATOM      1  C   UNL     1       0.639  -3.189   2.251  1.00  0.00     0.021 C 
ENDROOT
BRANCH   1   2
ATOM      2  C   UNL     1      -0.054  -2.430   3.380  1.00  0.00     0.116 C 
BRANCH   2   3
ATOM      3  N   UNL     1       0.654  -1.342   4.007  1.00  0.00    -0.352 N 
ATOM      4  C   UNL     1       0.190  -0.114   4.427  1.00  0.00     0.253 C 
ATOM      5  O   UNL     1       1.010   0.620   4.983  1.00  0.00    -0.269 OA
ATOM      6  H   UNL     1       1.614  -1.500   4.159  1.00  0.00     0.163 HD
BRANCH   4   7
ATOM      7  C   UNL     1      -1.190   0.344   4.165  1.00  0.00     0.064 A 
ATOM      8  C   UNL     1      -1.505   1.676   3.815  1.00  0.00     0.040 A 
ATOM      9  N   UNL     1      -2.878   1.805   3.878  1.00  0.00    -0.350 N 
ATOM     10  C   UNL     1      -2.456  -0.349   4.284  1.00  0.00    -0.020 A 
ATOM     11  C   UNL     1      -3.446   0.572   4.019  1.00  0.00     0.090 A 
ATOM     12  C   UNL     1      -2.768  -1.753   4.669  1.00  0.00     0.047 C 
BRANCH   8  13
ATOM     13  C   UNL     1      -0.608   2.859   3.516  1.00  0.00     0.155 C 
BRANCH  13  14
ATOM     14  C   UNL     1      -0.625   3.246   2.028  1.00  0.00     0.232 C 
ATOM     15  O   UNL     1      -1.365   4.169   1.661  1.00  0.00    -0.274 OA
BRANCH  14  16
ATOM     16  N   UNL     1       0.194   2.555   1.131  1.00  0.00    -0.312 N 
BRANCH  16  17
ATOM     17  C   UNL     1       1.219   1.566   1.505  1.00  0.00     0.125 C 
BRANCH  17  18
ATOM     18  C   UNL     1       0.935   0.152   1.004  1.00  0.00     0.019 C 
ATOM     19  C   UNL     1       1.736  -0.266  -0.223  1.00  0.00     0.006 C 
ENDBRANCH  17  18
ENDBRANCH  16  17
BRANCH  16  20
ATOM     20  C   UNL     1       0.279   2.992  -0.223  1.00  0.00     0.045 A 
ATOM     21  C   UNL     1       0.989   4.160  -0.518  1.00  0.00     0.026 A 
ATOM     22  C   UNL     1      -0.112   2.137  -1.257  1.00  0.00     0.046 A 
ATOM     23  C   UNL     1       1.383   4.422  -1.832  1.00  0.00     0.004 A 
ATOM     24  C   UNL     1       0.300   2.394  -2.562  1.00  0.00     0.043 A 
ATOM     25  C   UNL     1       1.062   3.524  -2.851  1.00  0.00     0.020 A 
ATOM     26  Cl  UNL     1      -0.057   1.258  -3.805  1.00  0.00    -0.084 Cl
ENDBRANCH  16  20
ENDBRANCH  14  16
ENDBRANCH  13  14
ENDBRANCH   8  13
BRANCH   9  27
ATOM     27  C   UNL     1      -3.667   3.030   3.909  1.00  0.00     0.118 C 
ATOM     28  C   UNL     1      -3.651   3.689   5.283  1.00  0.00     0.027 C 
ENDBRANCH   9  27
ENDBRANCH   4   7
ENDBRANCH   2   3
ENDBRANCH   1   2
BRANCH   1  29
ATOM     29  C   UNL     1       2.075  -3.663   2.446  1.00  0.00     0.002 C 
BRANCH  29  30
ATOM     30  C   UNL     1       2.402  -4.444   3.721  1.00  0.00     0.002 C 
BRANCH  30  31
ATOM     31  C   UNL     1       1.462  -5.586   4.124  1.00  0.00     0.021 C 
BRANCH  31  32
ATOM     32  C   UNL     1       1.265  -6.667   3.074  1.00  0.00     0.116 C 
BRANCH  32  33
ATOM     33  N   UNL     1       2.483  -7.414   2.771  1.00  0.00    -0.352 N 
ATOM     34  C   UNL     1       2.643  -8.432   1.853  1.00  0.00     0.251 C 
ATOM     35  H   UNL     1       3.285  -7.162   3.283  1.00  0.00     0.163 HD
ATOM     36  O   UNL     1       3.585  -9.218   1.934  1.00  0.00    -0.269 OA
BRANCH  34  37
ATOM     37  C   UNL     1       1.660  -8.570   0.766  1.00  0.00     0.039 A 
ATOM     38  C   UNL     1       1.195  -9.822   0.354  1.00  0.00     0.014 A 
ATOM     39  C   UNL     1       1.181  -7.406   0.172  1.00  0.00     0.014 A 
ATOM     40  C   UNL     1       0.188  -9.884  -0.608  1.00  0.00     0.010 A 
ATOM     41  C   UNL     1       0.079  -7.461  -0.641  1.00  0.00     0.010 A 
ATOM     42  C   UNL     1      -0.378  -8.694  -1.089  1.00  0.00    -0.014 A 
BRANCH  42  43
ATOM     43  C   UNL     1      -1.506  -8.718  -2.014  1.00  0.00     0.031 A 
ATOM     44  C   UNL     1      -2.697  -9.484  -1.553  1.00  0.00     0.074 A 
ATOM     45  C   UNL     1      -1.566  -7.920  -3.102  1.00  0.00     0.049 A 
ATOM     46  N   UNL     1      -3.236 -10.524  -2.100  1.00  0.00    -0.248 NA
ATOM     47  C   UNL     1      -3.314  -9.099  -0.274  1.00  0.00     0.031 C 
ATOM     48  C   UNL     1      -0.626  -6.872  -3.523  1.00  0.00     0.029 A 
ATOM     49  N   UNL     1      -2.564  -7.804  -4.018  1.00  0.00    -0.354 N 
ATOM     50  C   UNL     1      -4.361 -10.828  -1.336  1.00  0.00     0.074 A 
ATOM     51  C   UNL     1      -4.271 -10.021  -0.147  1.00  0.00     0.031 C 
ATOM     52  C   UNL     1      -1.210  -6.083  -4.451  1.00  0.00     0.029 A 
ATOM     53  C   UNL     1      -2.479  -6.676  -4.822  1.00  0.00     0.049 A 
ATOM     54  H   UNL     1      -3.288  -8.467  -4.104  1.00  0.00     0.167 HD
ATOM     55  C   UNL     1      -5.391 -11.555  -1.854  1.00  0.00     0.037 A 
ATOM     56  C   UNL     1      -3.402  -6.245  -5.714  1.00  0.00     0.037 A 
ATOM     57  C   UNL     1      -4.978 -12.272  -3.035  1.00  0.00     0.049 A 
ATOM     58  C   UNL     1      -4.272  -7.402  -6.038  1.00  0.00     0.074 A 
ATOM     59  C   UNL     1      -4.019 -13.230  -3.303  1.00  0.00     0.029 A 
ATOM     60  N   UNL     1      -5.341 -11.767  -4.259  1.00  0.00    -0.354 N 
ATOM     61  N   UNL     1      -3.865  -8.458  -6.686  1.00  0.00    -0.248 NA
ATOM     62  C   UNL     1      -5.478  -7.581  -5.244  1.00  0.00     0.031 C 
ATOM     63  C   UNL     1      -3.503 -12.884  -4.588  1.00  0.00     0.029 A 
ATOM     64  C   UNL     1      -4.220 -11.779  -5.049  1.00  0.00     0.049 A 
ATOM     65  H   UNL     1      -6.237 -11.456  -4.521  1.00  0.00     0.167 HD
ATOM     66  C   UNL     1      -4.492  -9.521  -6.054  1.00  0.00     0.074 A 
ATOM     67  C   UNL     1      -5.542  -8.915  -5.240  1.00  0.00     0.031 C 
ATOM     68  C   UNL     1      -3.921 -10.761  -6.028  1.00  0.00     0.037 A 
BRANCH  55  69
ATOM     69  C   UNL     1      -6.850 -11.338  -1.523  1.00  0.00     0.064 A 
ATOM     70  C   UNL     1      -7.813 -12.222  -2.055  1.00  0.00     0.173 A 
ATOM     71  C   UNL     1      -7.365 -10.143  -0.977  1.00  0.00     0.173 A 
ATOM     72  F   UNL     1      -7.441 -13.386  -2.609  1.00  0.00    -0.203 F 
ATOM     73  C   UNL     1      -9.168 -11.887  -2.124  1.00  0.00     0.198 A 
ATOM     74  C   UNL     1      -8.726  -9.837  -0.998  1.00  0.00     0.198 A 
ATOM     75  F   UNL     1      -6.575  -9.172  -0.506  1.00  0.00    -0.203 F 
ATOM     76  F   UNL     1     -10.022 -12.698  -2.764  1.00  0.00    -0.200 F 
ATOM     77  C   UNL     1      -9.622 -10.690  -1.604  1.00  0.00     0.200 A 
ATOM     78  F   UNL     1      -9.143  -8.663  -0.501  1.00  0.00    -0.200 F 
ATOM     79  F   UNL     1     -10.907 -10.335  -1.731  1.00  0.00    -0.200 F 
ENDBRANCH  55  69
BRANCH  56  80
ATOM     80  C   UNL     1      -3.751  -4.851  -6.069  1.00  0.00     0.064 A 
ATOM     81  C   UNL     1      -4.473  -4.559  -7.236  1.00  0.00     0.173 A 
ATOM     82  C   UNL     1      -3.624  -3.807  -5.130  1.00  0.00     0.173 A 
ATOM     83  F   UNL     1      -4.677  -5.511  -8.157  1.00  0.00    -0.203 F 
ATOM     84  C   UNL     1      -5.058  -3.304  -7.440  1.00  0.00     0.198 A 
ATOM     85  C   UNL     1      -4.203  -2.554  -5.338  1.00  0.00     0.198 A 
ATOM     86  F   UNL     1      -3.022  -4.013  -3.950  1.00  0.00    -0.203 F 
ATOM     87  F   UNL     1      -5.795  -3.082  -8.537  1.00  0.00    -0.200 F 
ATOM     88  C   UNL     1      -4.931  -2.307  -6.487  1.00  0.00     0.200 A 
ATOM     89  F   UNL     1      -4.107  -1.612  -4.389  1.00  0.00    -0.200 F 
ATOM     90  F   UNL     1      -5.547  -1.128  -6.652  1.00  0.00    -0.200 F 
ENDBRANCH  56  80
BRANCH  68  91
ATOM     91  C   UNL     1      -2.730 -11.007  -6.913  1.00  0.00     0.064 A 
ATOM     92  C   UNL     1      -1.496 -10.346  -6.775  1.00  0.00     0.173 A 
ATOM     93  C   UNL     1      -2.792 -12.060  -7.835  1.00  0.00     0.173 A 
ATOM     94  F   UNL     1      -1.322  -9.396  -5.849  1.00  0.00    -0.203 F 
ATOM     95  C   UNL     1      -0.393 -10.698  -7.550  1.00  0.00     0.198 A 
ATOM     96  C   UNL     1      -1.679 -12.434  -8.582  1.00  0.00     0.198 A 
ATOM     97  F   UNL     1      -3.926 -12.766  -7.971  1.00  0.00    -0.203 F 
ATOM     98  F   UNL     1       0.770 -10.044  -7.402  1.00  0.00    -0.200 F 
ATOM     99  C   UNL     1      -0.483 -11.748  -8.447  1.00  0.00     0.200 A 
ATOM    100  F   UNL     1      -1.757 -13.483  -9.413  1.00  0.00    -0.200 F 
ATOM    101  F   UNL     1       0.590 -12.117  -9.162  1.00  0.00    -0.200 F 
ENDBRANCH  68  91
ENDBRANCH  42  43
ENDBRANCH  34  37
ENDBRANCH  32  33
ENDBRANCH  31  32
ENDBRANCH  30  31
ENDBRANCH  29  30
ENDBRANCH   1  29
TORSDOF 20
