REMARK SMILES C[C@@H](C(=O)NCCCCCCNC(=O)c1ccc(-c2c3nc(c(-c4c(F)c(F)c(F)c(F)c4F)c4ccc([nH]4)c(-c4c(F)c(F)c(F)c(F)c4F)c4nc(c(-c5c(F)c(F)c(F)c(F)c5F)c5ccc2[nH]5)C=C4)C=C3)cc1)N(C)C(=O)NC[C@H]1C[N@@H+]2CCC[C@@H]2CO1
REMARK SMILES IDX 7 1 6 2 5 3 3 4 4 5 2 7 1 8 78 9 79 10 80 11 81 12 82 13
REMARK SMILES IDX 83 15 84 16 85 17 92 18 86 19 91 20 87 21 90 22 88 24 89 25
REMARK SMILES IDX 8 26 9 27 10 28 11 29 12 30 13 31 14 33 15 34 16 35 77 36
REMARK SMILES IDX 17 37 76 38 18 39 19 40 20 41 70 42 21 43 75 44 69 45 71 46
REMARK SMILES IDX 22 47 74 48 68 49 67 50 23 52 55 53 35 54 54 55 36 56 39 57
REMARK SMILES IDX 53 58 72 59 37 60 38 61 52 63 73 64 40 65 24 66 25 67 33 68
REMARK SMILES IDX 26 69 27 70 31 71 34 72 28 73 29 74 32 75 30 76 56 77 57 78
REMARK SMILES IDX 65 79 58 80 59 81 63 82 66 83 60 84 61 85 64 86 62 87 41 88
REMARK SMILES IDX 42 89 50 90 43 91 44 92 48 93 51 94 45 95 46 96 49 97 47 98
REMARK H PARENT 5 6 82 14 86 23 12 32 71 51 39 62
REMARK Flexibility Score: inf
ROOT
ATOM      1  C   UNL     1       4.302   1.559  -0.106  1.00  0.00     0.021 C 
ENDROOT
BRANCH   1   2
ATOM      2  C   UNL     1       3.483   1.494   1.181  1.00  0.00     0.116 C 
BRANCH   2   3
ATOM      3  N   UNL     1       2.380   2.426   1.141  1.00  0.00    -0.354 N 
ATOM      4  C   UNL     1       1.039   2.196   1.041  1.00  0.00     0.242 C 
ATOM      5  O   UNL     1       0.309   3.187   1.144  1.00  0.00    -0.273 OA
ATOM      6  H   UNL     1       2.636   3.375   1.193  1.00  0.00     0.163 HD
BRANCH   4   7
ATOM      7  C   UNL     1       0.502   0.742   0.928  1.00  0.00     0.172 C 
ATOM      8  C   UNL     1       0.944  -0.033  -0.317  1.00  0.00     0.042 C 
BRANCH   7   9
ATOM      9  N   UNL     1      -0.966   0.731   1.130  1.00  0.00    -0.316 N 
ATOM     10  C   UNL     1      -1.398   0.446   2.485  1.00  0.00     0.149 C 
BRANCH   9  11
ATOM     11  C   UNL     1      -1.758   1.169   0.097  1.00  0.00     0.317 C 
ATOM     12  O   UNL     1      -1.284   1.550  -0.978  1.00  0.00    -0.249 OA
ATOM     13  N   UNL     1      -3.101   1.192   0.161  1.00  0.00    -0.335 N 
ATOM     14  H   UNL     1      -3.494   1.602  -0.643  1.00  0.00     0.165 HD
BRANCH  13  15
ATOM     15  C   UNL     1      -4.123   0.773   1.099  1.00  0.00     0.155 C 
BRANCH  15  16
ATOM     16  C   UNL     1      -5.035   1.912   1.594  1.00  0.00     0.192 C 
ATOM     17  C   UNL     1      -4.357   3.306   1.771  1.00  0.00     0.296 C 
ATOM     18  O   UNL     1      -6.216   1.924   0.760  1.00  0.00    -0.364 OA
ATOM     19  N   UNL     1      -4.575   4.267   0.680  1.00  0.00    -0.328 N 
ATOM     20  C   UNL     1      -6.863   3.196   0.775  1.00  0.00     0.225 C 
ATOM     21  C   UNL     1      -4.270   5.651   1.063  1.00  0.00     0.262 C 
ATOM     22  C   UNL     1      -5.942   4.229   0.125  1.00  0.00     0.210 C 
ATOM     23  H   UNL     1      -3.920   3.965  -0.042  1.00  0.00     0.348 HD
ATOM     24  C   UNL     1      -5.223   6.496   0.234  1.00  0.00     0.068 C 
ATOM     25  C   UNL     1      -6.481   5.651   0.212  1.00  0.00     0.073 C 
ENDBRANCH  15  16
ENDBRANCH  13  15
ENDBRANCH   9  11
ENDBRANCH   7   9
ENDBRANCH   4   7
ENDBRANCH   2   3
ENDBRANCH   1   2
BRANCH   1  26
ATOM     26  C   UNL     1       5.053   2.884  -0.296  1.00  0.00     0.002 C 
BRANCH  26  27
ATOM     27  C   UNL     1       6.011   3.256   0.841  1.00  0.00     0.002 C 
BRANCH  27  28
ATOM     28  C   UNL     1       7.047   2.184   1.188  1.00  0.00     0.021 C 
BRANCH  28  29
ATOM     29  C   UNL     1       7.958   1.792   0.030  1.00  0.00     0.116 C 
BRANCH  29  30
ATOM     30  N   UNL     1       8.789   2.901  -0.410  1.00  0.00    -0.352 N 
ATOM     31  C   UNL     1      10.152   2.963  -0.547  1.00  0.00     0.251 C 
ATOM     32  H   UNL     1       8.304   3.725  -0.642  1.00  0.00     0.163 HD
ATOM     33  O   UNL     1      10.708   4.043  -0.736  1.00  0.00    -0.269 OA
BRANCH  31  34
ATOM     34  C   UNL     1      10.959   1.730  -0.446  1.00  0.00     0.039 A 
ATOM     35  C   UNL     1      12.134   1.751   0.308  1.00  0.00     0.014 A 
ATOM     36  C   UNL     1      10.560   0.558  -1.095  1.00  0.00     0.014 A 
ATOM     37  C   UNL     1      12.878   0.580   0.461  1.00  0.00     0.010 A 
ATOM     38  C   UNL     1      11.260  -0.625  -0.879  1.00  0.00     0.010 A 
ATOM     39  C   UNL     1      12.428  -0.626  -0.102  1.00  0.00    -0.014 A 
BRANCH  39  40
ATOM     40  C   UNL     1      13.164  -1.897   0.120  1.00  0.00     0.031 A 
ATOM     41  C   UNL     1      13.783  -2.626  -1.040  1.00  0.00     0.074 A 
ATOM     42  C   UNL     1      13.222  -2.423   1.358  1.00  0.00     0.049 A 
ATOM     43  N   UNL     1      14.413  -3.774  -1.055  1.00  0.00    -0.248 NA
ATOM     44  C   UNL     1      13.655  -1.995  -2.363  1.00  0.00     0.031 C 
ATOM     45  C   UNL     1      12.621  -1.834   2.556  1.00  0.00     0.029 A 
ATOM     46  N   UNL     1      13.808  -3.578   1.815  1.00  0.00    -0.354 N 
ATOM     47  C   UNL     1      14.745  -4.005  -2.383  1.00  0.00     0.074 A 
ATOM     48  C   UNL     1      14.198  -2.910  -3.153  1.00  0.00     0.031 C 
ATOM     49  C   UNL     1      12.889  -2.617   3.613  1.00  0.00     0.029 A 
ATOM     50  C   UNL     1      13.643  -3.783   3.163  1.00  0.00     0.049 A 
ATOM     51  H   UNL     1      14.299  -4.200   1.232  1.00  0.00     0.167 HD
ATOM     52  C   UNL     1      15.463  -5.027  -2.909  1.00  0.00     0.037 A 
ATOM     53  C   UNL     1      14.046  -4.801   3.947  1.00  0.00     0.037 A 
ATOM     54  C   UNL     1      16.020  -6.106  -2.136  1.00  0.00     0.049 A 
ATOM     55  C   UNL     1      14.827  -5.933   3.333  1.00  0.00     0.074 A 
ATOM     56  C   UNL     1      16.810  -7.157  -2.566  1.00  0.00     0.029 A 
ATOM     57  N   UNL     1      15.840  -6.275  -0.770  1.00  0.00    -0.354 N 
ATOM     58  N   UNL     1      15.197  -6.104   2.088  1.00  0.00    -0.248 NA
ATOM     59  C   UNL     1      15.251  -7.010   4.238  1.00  0.00     0.031 C 
ATOM     60  C   UNL     1      17.062  -7.992  -1.473  1.00  0.00     0.029 A 
ATOM     61  C   UNL     1      16.482  -7.429  -0.348  1.00  0.00     0.049 A 
ATOM     62  H   UNL     1      15.332  -5.665  -0.188  1.00  0.00     0.167 HD
ATOM     63  C   UNL     1      15.922  -7.288   2.064  1.00  0.00     0.074 A 
ATOM     64  C   UNL     1      15.953  -7.785   3.424  1.00  0.00     0.031 C 
ATOM     65  C   UNL     1      16.510  -7.907   1.011  1.00  0.00     0.037 A 
BRANCH  52  66
ATOM     66  C   UNL     1      15.687  -5.028  -4.395  1.00  0.00     0.064 A 
ATOM     67  C   UNL     1      16.512  -4.078  -5.017  1.00  0.00     0.173 A 
ATOM     68  C   UNL     1      15.103  -6.016  -5.203  1.00  0.00     0.173 A 
ATOM     69  F   UNL     1      17.087  -3.105  -4.293  1.00  0.00    -0.203 F 
ATOM     70  C   UNL     1      16.718  -4.098  -6.394  1.00  0.00     0.198 A 
ATOM     71  C   UNL     1      15.339  -6.053  -6.575  1.00  0.00     0.198 A 
ATOM     72  F   UNL     1      14.311  -6.953  -4.660  1.00  0.00    -0.203 F 
ATOM     73  F   UNL     1      17.468  -3.149  -6.971  1.00  0.00    -0.200 F 
ATOM     74  C   UNL     1      16.139  -5.090  -7.170  1.00  0.00     0.200 A 
ATOM     75  F   UNL     1      14.791  -7.022  -7.321  1.00  0.00    -0.200 F 
ATOM     76  F   UNL     1      16.347  -5.114  -8.494  1.00  0.00    -0.200 F 
ENDBRANCH  52  66
BRANCH  53  77
ATOM     77  C   UNL     1      13.736  -4.789   5.401  1.00  0.00     0.064 A 
ATOM     78  C   UNL     1      14.755  -4.643   6.354  1.00  0.00     0.173 A 
ATOM     79  C   UNL     1      12.422  -4.933   5.869  1.00  0.00     0.173 A 
ATOM     80  F   UNL     1      16.030  -4.522   5.957  1.00  0.00    -0.203 F 
ATOM     81  C   UNL     1      14.473  -4.667   7.718  1.00  0.00     0.198 A 
ATOM     82  C   UNL     1      12.138  -4.925   7.233  1.00  0.00     0.198 A 
ATOM     83  F   UNL     1      11.410  -5.070   5.000  1.00  0.00    -0.203 F 
ATOM     84  F   UNL     1      15.472  -4.578   8.607  1.00  0.00    -0.200 F 
ATOM     85  C   UNL     1      13.165  -4.802   8.157  1.00  0.00     0.200 A 
ATOM     86  F   UNL     1      10.870  -5.039   7.652  1.00  0.00    -0.200 F 
ATOM     87  F   UNL     1      12.895  -4.822   9.469  1.00  0.00    -0.200 F 
ENDBRANCH  53  77
BRANCH  65  88
ATOM     88  C   UNL     1      17.270  -9.172   1.292  1.00  0.00     0.064 A 
ATOM     89  C   UNL     1      16.619 -10.364   1.642  1.00  0.00     0.173 A 
ATOM     90  C   UNL     1      18.669  -9.199   1.172  1.00  0.00     0.173 A 
ATOM     91  F   UNL     1      15.285 -10.388   1.785  1.00  0.00    -0.203 F 
ATOM     92  C   UNL     1      17.342 -11.529   1.889  1.00  0.00     0.198 A 
ATOM     93  C   UNL     1      19.385 -10.373   1.386  1.00  0.00     0.198 A 
ATOM     94  F   UNL     1      19.340  -8.089   0.832  1.00  0.00    -0.203 F 
ATOM     95  F   UNL     1      16.703 -12.642   2.274  1.00  0.00    -0.200 F 
ATOM     96  C   UNL     1      18.722 -11.534   1.753  1.00  0.00     0.200 A 
ATOM     97  F   UNL     1      20.716 -10.381   1.238  1.00  0.00    -0.200 F 
ATOM     98  F   UNL     1      19.415 -12.658   1.983  1.00  0.00    -0.200 F 
ENDBRANCH  65  88
ENDBRANCH  39  40
ENDBRANCH  31  34
ENDBRANCH  29  30
ENDBRANCH  28  29
ENDBRANCH  27  28
ENDBRANCH  26  27
ENDBRANCH   1  26
TORSDOF 17
