REMARK SMILES Cc1c(Cl)cccc1NC(=O)C[C@](C)(C(=O)NCCCCCCNC(=O)c1ccc(-c2c3nc(c(-c4c(F)c(F)c(F)c(F)c4F)c4ccc([nH]4)c(-c4c(F)c(F)c(F)c(F)c4F)c4nc(c(-c5c(F)c(F)c(F)c(F)c5F)c5ccc2[nH]5)C=C4)C=C3)cc1)c1ccccc1
REMARK SMILES IDX 20 1 19 2 18 3 17 4 15 5 16 6 13 8 14 9 12 10 10 11 9 12
REMARK SMILES IDX 11 14 8 15 1 16 2 17 3 18 4 19 5 20 7 21 6 22 90 23 91 24
REMARK SMILES IDX 95 25 92 26 94 27 93 28 21 29 22 30 23 31 24 32 25 33 26 35
REMARK SMILES IDX 27 36 28 37 89 38 29 39 88 40 30 41 31 42 32 43 82 44 33 45
REMARK SMILES IDX 87 46 81 47 83 48 34 49 86 50 80 51 79 52 35 54 67 55 47 56
REMARK SMILES IDX 66 57 48 58 51 59 65 60 84 61 49 62 50 63 64 65 85 66 52 67
REMARK SMILES IDX 36 68 37 69 45 70 38 71 39 72 43 73 46 74 40 75 41 76 44 77
REMARK SMILES IDX 42 78 68 79 69 80 77 81 70 82 71 83 75 84 78 85 72 86 73 87
REMARK SMILES IDX 76 88 74 89 53 90 54 91 62 92 55 93 56 94 60 95 63 96 57 97
REMARK SMILES IDX 58 98 61 99 59 100
REMARK H PARENT 17 7 9 13 24 34 83 53 51 64
REMARK Flexibility Score: inf
ROOT
ATOM      1  C   UNL     1      -5.758  -3.543   3.508  1.00  0.00     0.002 C 
ENDROOT
BRANCH   1   2
ATOM      2  C   UNL     1      -5.202  -2.170   3.116  1.00  0.00     0.021 C 
BRANCH   2   3
ATOM      3  C   UNL     1      -4.522  -2.142   1.559  1.00  0.00     0.116 C 
BRANCH   3   4
ATOM      4  N   UNL     1      -5.224  -1.391  -0.260  1.00  0.00    -0.355 N 
ATOM      5  C   UNL     1      -5.188  -0.528  -1.391  1.00  0.00     0.230 C 
ATOM      6  O   UNL     1      -6.142  -0.825  -2.136  1.00  0.00    -0.274 OA
ATOM      7  H   UNL     1      -6.025  -1.938  -0.428  1.00  0.00     0.163 HD
BRANCH   5   8
ATOM      8  C   UNL     1      -4.223   0.711  -1.773  1.00  0.00     0.080 C 
ATOM      9  C   UNL     1      -4.550   1.890  -0.780  1.00  0.00     0.027 C 
BRANCH   8  10
ATOM     10  C   UNL     1      -2.685   0.403  -1.840  1.00  0.00     0.121 C 
BRANCH  10  11
ATOM     11  C   UNL     1      -2.208  -1.008  -2.123  1.00  0.00     0.225 C 
ATOM     12  N   UNL     1      -2.330  -1.988  -1.183  1.00  0.00    -0.326 N 
ATOM     13  H   UNL     1      -1.705  -2.749  -1.214  1.00  0.00     0.169 HD
ATOM     14  O   UNL     1      -1.654  -1.293  -3.187  1.00  0.00    -0.275 OA
BRANCH  12  15
ATOM     15  C   UNL     1      -3.296  -1.963  -0.181  1.00  0.00     0.045 A 
ATOM     16  C   UNL     1      -4.021  -4.700  -0.701  1.00  0.00     0.048 C 
ATOM     17  C   UNL     1      -4.484  -3.330  -0.290  1.00  0.00    -0.009 A 
ATOM     18  C   UNL     1      -6.104  -3.154   0.471  1.00  0.00     0.046 A 
ATOM     19  Cl  UNL     1      -7.257  -4.430   0.368  1.00  0.00    -0.084 Cl
ATOM     20  C   UNL     1      -6.599  -1.594   1.228  1.00  0.00     0.021 A 
ATOM     21  C   UNL     1      -3.729  -0.413   0.694  1.00  0.00     0.026 A 
ATOM     22  C   UNL     1      -5.402  -0.237   1.392  1.00  0.00     0.004 A 
ENDBRANCH  12  15
ENDBRANCH  10  11
ENDBRANCH   8  10
BRANCH   8  23
ATOM     23  C   UNL     1      -4.527   1.402  -3.165  1.00  0.00    -0.032 A 
ATOM     24  C   UNL     1      -4.051   2.727  -3.375  1.00  0.00     0.005 A 
ATOM     25  C   UNL     1      -5.258   0.828  -4.208  1.00  0.00     0.005 A 
ATOM     26  C   UNL     1      -4.417   3.485  -4.482  1.00  0.00     0.000 A 
ATOM     27  C   UNL     1      -5.618   1.587  -5.330  1.00  0.00     0.000 A 
ATOM     28  C   UNL     1      -5.224   2.918  -5.454  1.00  0.00     0.000 A 
ENDBRANCH   8  23
ENDBRANCH   5   8
ENDBRANCH   3   4
ENDBRANCH   2   3
ENDBRANCH   1   2
BRANCH   1  29
ATOM     29  C   UNL     1      -4.755  -4.696   3.322  1.00  0.00     0.002 C 
BRANCH  29  30
ATOM     30  C   UNL     1      -3.487  -4.501   4.153  1.00  0.00     0.021 C 
BRANCH  30  31
ATOM     31  C   UNL     1      -3.832  -4.266   5.612  1.00  0.00     0.116 C 
BRANCH  31  32
ATOM     32  N   UNL     1      -4.878  -5.199   6.046  1.00  0.00    -0.352 N 
ATOM     33  C   UNL     1      -4.965  -5.885   7.215  1.00  0.00     0.251 C 
ATOM     34  H   UNL     1      -5.612  -5.347   5.407  1.00  0.00     0.163 HD
ATOM     35  O   UNL     1      -5.736  -6.816   7.381  1.00  0.00    -0.269 OA
BRANCH  33  36
ATOM     36  C   UNL     1      -4.080  -5.408   8.264  1.00  0.00     0.039 A 
ATOM     37  C   UNL     1      -3.125  -6.271   8.784  1.00  0.00     0.014 A 
ATOM     38  C   UNL     1      -4.097  -4.035   8.534  1.00  0.00     0.014 A 
ATOM     39  C   UNL     1      -2.161  -5.734   9.617  1.00  0.00     0.010 A 
ATOM     40  C   UNL     1      -3.050  -3.488   9.235  1.00  0.00     0.010 A 
ATOM     41  C   UNL     1      -2.117  -4.344   9.831  1.00  0.00    -0.014 A 
BRANCH  41  42
ATOM     42  C   UNL     1      -1.150  -3.770  10.777  1.00  0.00     0.031 A 
ATOM     43  C   UNL     1      -1.670  -3.087  12.006  1.00  0.00     0.074 A 
ATOM     44  C   UNL     1       0.162  -3.873  10.513  1.00  0.00     0.049 A 
ATOM     45  N   UNL     1      -1.005  -2.531  12.981  1.00  0.00    -0.248 NA
ATOM     46  C   UNL     1      -3.135  -2.976  12.143  1.00  0.00     0.031 C 
ATOM     47  C   UNL     1       0.743  -4.476   9.311  1.00  0.00     0.029 A 
ATOM     48  N   UNL     1       1.244  -3.490  11.254  1.00  0.00    -0.354 N 
ATOM     49  C   UNL     1      -1.968  -2.005  13.830  1.00  0.00     0.074 A 
ATOM     50  C   UNL     1      -3.253  -2.210  13.212  1.00  0.00     0.031 C 
ATOM     51  C   UNL     1       2.080  -4.478   9.427  1.00  0.00     0.029 A 
ATOM     52  C   UNL     1       2.443  -3.835  10.684  1.00  0.00     0.049 A 
ATOM     53  H   UNL     1       1.171  -3.013  12.112  1.00  0.00     0.167 HD
ATOM     54  C   UNL     1      -1.792  -1.444  15.046  1.00  0.00     0.037 A 
ATOM     55  C   UNL     1       3.692  -3.652  11.146  1.00  0.00     0.037 A 
ATOM     56  C   UNL     1      -0.500  -1.272  15.648  1.00  0.00     0.049 A 
ATOM     57  C   UNL     1       3.862  -2.999  12.491  1.00  0.00     0.074 A 
ATOM     58  C   UNL     1      -0.189  -0.751  16.888  1.00  0.00     0.029 A 
ATOM     59  N   UNL     1       0.700  -1.617  15.039  1.00  0.00    -0.354 N 
ATOM     60  N   UNL     1       2.946  -2.565  13.325  1.00  0.00    -0.248 NA
ATOM     61  C   UNL     1       5.239  -2.821  12.963  1.00  0.00     0.031 C 
ATOM     62  C   UNL     1       1.204  -0.713  17.000  1.00  0.00     0.029 A 
ATOM     63  C   UNL     1       1.759  -1.290  15.867  1.00  0.00     0.049 A 
ATOM     64  H   UNL     1       0.784  -2.033  14.151  1.00  0.00     0.167 HD
ATOM     65  C   UNL     1       3.633  -2.094  14.436  1.00  0.00     0.074 A 
ATOM     66  C   UNL     1       5.041  -2.316  14.171  1.00  0.00     0.031 C 
ATOM     67  C   UNL     1       3.150  -1.531  15.572  1.00  0.00     0.037 A 
BRANCH  54  68
ATOM     68  C   UNL     1      -3.018  -0.979  15.777  1.00  0.00     0.064 A 
ATOM     69  C   UNL     1      -4.002  -1.876  16.226  1.00  0.00     0.173 A 
ATOM     70  C   UNL     1      -3.219   0.386  16.022  1.00  0.00     0.173 A 
ATOM     71  F   UNL     1      -3.873  -3.192  15.997  1.00  0.00    -0.203 F 
ATOM     72  C   UNL     1      -5.157  -1.420  16.856  1.00  0.00     0.198 A 
ATOM     73  C   UNL     1      -4.355   0.836  16.691  1.00  0.00     0.198 A 
ATOM     74  F   UNL     1      -2.317   1.289  15.609  1.00  0.00    -0.203 F 
ATOM     75  F   UNL     1      -6.114  -2.289  17.208  1.00  0.00    -0.200 F 
ATOM     76  C   UNL     1      -5.328  -0.066  17.096  1.00  0.00     0.200 A 
ATOM     77  F   UNL     1      -4.513   2.144  16.932  1.00  0.00    -0.200 F 
ATOM     78  F   UNL     1      -6.436   0.373  17.707  1.00  0.00    -0.200 F 
ENDBRANCH  54  68
BRANCH  55  79
ATOM     79  C   UNL     1       4.856  -4.118  10.351  1.00  0.00     0.064 A 
ATOM     80  C   UNL     1       5.675  -5.159  10.808  1.00  0.00     0.173 A 
ATOM     81  C   UNL     1       5.174  -3.535   9.115  1.00  0.00     0.173 A 
ATOM     82  F   UNL     1       5.418  -5.746  11.986  1.00  0.00    -0.203 F 
ATOM     83  C   UNL     1       6.787  -5.575  10.078  1.00  0.00     0.198 A 
ATOM     84  C   UNL     1       6.264  -3.975   8.369  1.00  0.00     0.198 A 
ATOM     85  F   UNL     1       4.413  -2.546   8.623  1.00  0.00    -0.203 F 
ATOM     86  F   UNL     1       7.585  -6.534  10.566  1.00  0.00    -0.200 F 
ATOM     87  C   UNL     1       7.077  -4.986   8.857  1.00  0.00     0.200 A 
ATOM     88  F   UNL     1       6.526  -3.419   7.179  1.00  0.00    -0.200 F 
ATOM     89  F   UNL     1       8.145  -5.388   8.154  1.00  0.00    -0.200 F 
ENDBRANCH  55  79
BRANCH  67  90
ATOM     90  C   UNL     1       4.150  -1.164  16.630  1.00  0.00     0.064 A 
ATOM     91  C   UNL     1       5.074  -0.125  16.450  1.00  0.00     0.173 A 
ATOM     92  C   UNL     1       4.156  -1.845  17.857  1.00  0.00     0.173 A 
ATOM     93  F   UNL     1       5.115   0.551  15.291  1.00  0.00    -0.203 F 
ATOM     94  C   UNL     1       5.997   0.189  17.442  1.00  0.00     0.198 A 
ATOM     95  C   UNL     1       5.050  -1.498  18.864  1.00  0.00     0.198 A 
ATOM     96  F   UNL     1       3.283  -2.838  18.086  1.00  0.00    -0.203 F 
ATOM     97  F   UNL     1       6.918   1.137  17.221  1.00  0.00    -0.200 F 
ATOM     98  C   UNL     1       5.979  -0.491  18.651  1.00  0.00     0.200 A 
ATOM     99  F   UNL     1       5.014  -2.140  20.040  1.00  0.00    -0.200 F 
ATOM    100  F   UNL     1       6.864  -0.182  19.608  1.00  0.00    -0.200 F 
ENDBRANCH  67  90
ENDBRANCH  41  42
ENDBRANCH  33  36
ENDBRANCH  31  32
ENDBRANCH  30  31
ENDBRANCH  29  30
ENDBRANCH   1  29
TORSDOF 17
