REMARK SMILES O=C(NCCCCCCNC(=O)C1(O)CCC(F)(F)CC1)c1ccc(-c2c3nc(c(-c4c(F)c(F)c(F)c(F)c4F)c4ccc([nH]4)c(-c4c(F)c(F)c(F)c(F)c4F)c4nc(c(-c5c(F)c(F)c(F)c(F)c5F)c5ccc2[nH]5)C=C4)C=C3)cc1
REMARK SMILES IDX 6 1 5 2 4 3 3 4 1 5 2 6 22 8 23 9 84 10 24 11 83 12 25 13
REMARK SMILES IDX 26 14 27 15 77 16 28 17 82 18 76 19 78 20 29 21 81 22 75 23
REMARK SMILES IDX 74 24 30 26 62 27 42 28 61 29 43 30 46 31 60 32 79 33 44 34
REMARK SMILES IDX 45 35 59 37 80 38 47 39 31 40 32 41 40 42 33 43 34 44 38 45
REMARK SMILES IDX 41 46 35 47 36 48 39 49 37 50 63 51 64 52 72 53 65 54 66 55
REMARK SMILES IDX 70 56 73 57 67 58 68 59 71 60 69 61 48 62 49 63 57 64 50 65
REMARK SMILES IDX 51 66 55 67 58 68 52 69 53 70 56 71 54 72 7 73 8 74 9 75
REMARK SMILES IDX 10 76 11 77 12 79 13 80 15 81 21 82 16 83 20 84 17 85 18 86
REMARK SMILES IDX 19 87 14 88
REMARK H PARENT 3 7 78 25 46 36 10 78 14 89
REMARK Flexibility Score: inf
ROOT
ATOM      1  C   UNL     1       3.931   3.937   0.205  1.00  0.00     0.002 C 
ENDROOT
BRANCH   1   2
ATOM      2  C   UNL     1       4.590   2.727  -0.459  1.00  0.00     0.021 C 
BRANCH   2   3
ATOM      3  C   UNL     1       4.392   1.411   0.281  1.00  0.00     0.116 C 
BRANCH   3   4
ATOM      4  N   UNL     1       2.987   1.067   0.419  1.00  0.00    -0.352 N 
ATOM      5  O   UNL     1       1.098  -0.096   0.000  1.00  0.00    -0.269 OA
ATOM      6  C   UNL     1       2.325  -0.049  -0.022  1.00  0.00     0.251 C 
ATOM      7  H   UNL     1       2.434   1.727   0.895  1.00  0.00     0.163 HD
BRANCH   6   8
ATOM      8  C   UNL     1       3.100  -1.198  -0.528  1.00  0.00     0.039 A 
ATOM      9  C   UNL     1       4.226  -1.645   0.168  1.00  0.00     0.014 A 
ATOM     10  C   UNL     1       2.686  -1.846  -1.694  1.00  0.00     0.014 A 
ATOM     11  C   UNL     1       5.005  -2.663  -0.363  1.00  0.00     0.010 A 
ATOM     12  C   UNL     1       3.417  -2.934  -2.176  1.00  0.00     0.010 A 
ATOM     13  C   UNL     1       4.586  -3.345  -1.516  1.00  0.00    -0.014 A 
BRANCH  13  14
ATOM     14  C   UNL     1       5.318  -4.567  -1.929  1.00  0.00     0.031 A 
ATOM     15  C   UNL     1       6.049  -4.640  -3.236  1.00  0.00     0.074 A 
ATOM     16  C   UNL     1       5.314  -5.617  -1.084  1.00  0.00     0.049 A 
ATOM     17  N   UNL     1       6.730  -5.639  -3.740  1.00  0.00    -0.248 NA
ATOM     18  C   UNL     1       6.011  -3.447  -4.096  1.00  0.00     0.031 C 
ATOM     19  C   UNL     1       4.616  -5.654   0.206  1.00  0.00     0.029 A 
ATOM     20  N   UNL     1       5.916  -6.845  -1.167  1.00  0.00    -0.354 N 
ATOM     21  C   UNL     1       7.186  -5.205  -4.977  1.00  0.00     0.074 A 
ATOM     22  C   UNL     1       6.691  -3.857  -5.160  1.00  0.00     0.031 C 
ATOM     23  C   UNL     1       4.861  -6.826   0.807  1.00  0.00     0.029 A 
ATOM     24  C   UNL     1       5.666  -7.651  -0.084  1.00  0.00     0.049 A 
ATOM     25  H   UNL     1       6.474  -7.122  -1.930  1.00  0.00     0.167 HD
ATOM     26  C   UNL     1       7.951  -5.878  -5.869  1.00  0.00     0.037 A 
ATOM     27  C   UNL     1       6.016  -8.927   0.153  1.00  0.00     0.037 A 
ATOM     28  C   UNL     1       8.448  -7.216  -5.664  1.00  0.00     0.049 A 
ATOM     29  C   UNL     1       6.834  -9.652  -0.877  1.00  0.00     0.074 A 
ATOM     30  C   UNL     1       9.277  -7.962  -6.485  1.00  0.00     0.029 A 
ATOM     31  N   UNL     1       8.153  -8.013  -4.567  1.00  0.00    -0.354 N 
ATOM     32  N   UNL     1       7.310  -9.209  -2.015  1.00  0.00    -0.248 NA
ATOM     33  C   UNL     1       7.161 -11.054  -0.592  1.00  0.00     0.031 C 
ATOM     34  C   UNL     1       9.431  -9.230  -5.917  1.00  0.00     0.029 A 
ATOM     35  C   UNL     1       8.753  -9.255  -4.710  1.00  0.00     0.049 A 
ATOM     36  H   UNL     1       7.601  -7.737  -3.801  1.00  0.00     0.167 HD
ATOM     37  C   UNL     1       8.007 -10.271  -2.573  1.00  0.00     0.074 A 
ATOM     38  C   UNL     1       7.918 -11.368  -1.632  1.00  0.00     0.031 C 
ATOM     39  C   UNL     1       8.655 -10.335  -3.761  1.00  0.00     0.037 A 
BRANCH  26  40
ATOM     40  C   UNL     1       8.295  -5.202  -7.165  1.00  0.00     0.064 A 
ATOM     41  C   UNL     1       9.220  -4.150  -7.229  1.00  0.00     0.173 A 
ATOM     42  C   UNL     1       7.766  -5.684  -8.374  1.00  0.00     0.173 A 
ATOM     43  F   UNL     1       9.749  -3.647  -6.103  1.00  0.00    -0.203 F 
ATOM     44  C   UNL     1       9.598  -3.602  -8.453  1.00  0.00     0.198 A 
ATOM     45  C   UNL     1       8.167  -5.151  -9.597  1.00  0.00     0.198 A 
ATOM     46  F   UNL     1       6.882  -6.693  -8.370  1.00  0.00    -0.203 F 
ATOM     47  F   UNL     1      10.467  -2.582  -8.488  1.00  0.00    -0.200 F 
ATOM     48  C   UNL     1       9.081  -4.110  -9.635  1.00  0.00     0.200 A 
ATOM     49  F   UNL     1       7.678  -5.655 -10.738  1.00  0.00    -0.200 F 
ATOM     50  F   UNL     1       9.465  -3.597 -10.812  1.00  0.00    -0.200 F 
ENDBRANCH  26  40
BRANCH  27  51
ATOM     51  C   UNL     1       5.564  -9.609   1.395  1.00  0.00     0.064 A 
ATOM     52  C   UNL     1       6.482 -10.041   2.361  1.00  0.00     0.173 A 
ATOM     53  C   UNL     1       4.204  -9.867   1.627  1.00  0.00     0.173 A 
ATOM     54  F   UNL     1       7.794  -9.832   2.179  1.00  0.00    -0.203 F 
ATOM     55  C   UNL     1       6.061 -10.735   3.494  1.00  0.00     0.198 A 
ATOM     56  C   UNL     1       3.780 -10.525   2.778  1.00  0.00     0.198 A 
ATOM     57  F   UNL     1       3.282  -9.468   0.738  1.00  0.00    -0.203 F 
ATOM     58  F   UNL     1       6.965 -11.194   4.369  1.00  0.00    -0.200 F 
ATOM     59  C   UNL     1       4.710 -10.972   3.703  1.00  0.00     0.200 A 
ATOM     60  F   UNL     1       2.473 -10.733   2.986  1.00  0.00    -0.200 F 
ATOM     61  F   UNL     1       4.307 -11.642   4.791  1.00  0.00    -0.200 F 
ENDBRANCH  27  51
BRANCH  39  62
ATOM     62  C   UNL     1       9.341 -11.628  -4.092  1.00  0.00     0.064 A 
ATOM     63  C   UNL     1       8.616 -12.790  -4.394  1.00  0.00     0.173 A 
ATOM     64  C   UNL     1      10.742 -11.701  -4.126  1.00  0.00     0.173 A 
ATOM     65  F   UNL     1       7.274 -12.777  -4.357  1.00  0.00    -0.203 F 
ATOM     66  C   UNL     1       9.268 -13.985  -4.685  1.00  0.00     0.198 A 
ATOM     67  C   UNL     1      11.390 -12.888  -4.453  1.00  0.00     0.198 A 
ATOM     68  F   UNL     1      11.483 -10.617  -3.850  1.00  0.00    -0.203 F 
ATOM     69  F   UNL     1       8.554 -15.097  -4.911  1.00  0.00    -0.200 F 
ATOM     70  C   UNL     1      10.653 -14.031  -4.722  1.00  0.00     0.200 A 
ATOM     71  F   UNL     1      12.729 -12.927  -4.503  1.00  0.00    -0.200 F 
ATOM     72  F   UNL     1      11.279 -15.181  -5.008  1.00  0.00    -0.200 F 
ENDBRANCH  39  62
ENDBRANCH  13  14
ENDBRANCH   6   8
ENDBRANCH   3   4
ENDBRANCH   2   3
ENDBRANCH   1   2
BRANCH   1  73
ATOM     73  C   UNL     1       4.325   4.183   1.665  1.00  0.00     0.002 C 
BRANCH  73  74
ATOM     74  C   UNL     1       5.827   4.195   1.940  1.00  0.00     0.021 C 
BRANCH  74  75
ATOM     75  C   UNL     1       6.618   5.182   1.091  1.00  0.00     0.116 C 
BRANCH  75  76
ATOM     76  N   UNL     1       6.641   6.510   1.638  1.00  0.00    -0.354 N 
ATOM     77  C   UNL     1       7.657   7.386   1.864  1.00  0.00     0.251 C 
ATOM     78  H   UNL     1       5.755   6.851   1.899  1.00  0.00     0.163 HD
ATOM     79  O   UNL     1       7.289   8.482   2.308  1.00  0.00    -0.272 OA
BRANCH  77  80
ATOM     80  C   UNL     1       9.188   7.050   1.679  1.00  0.00     0.143 C 
ATOM     81  C   UNL     1       9.728   6.305   2.910  1.00  0.00     0.051 C 
ATOM     82  C   UNL     1       9.646   6.438   0.345  1.00  0.00     0.051 C 
ATOM     83  C   UNL     1       9.571   4.797   2.836  1.00  0.00     0.080 C 
ATOM     84  C   UNL     1       9.869   4.925   0.268  1.00  0.00     0.080 C 
ATOM     85  C   UNL     1      10.205   4.228   1.579  1.00  0.00     0.248 C 
ATOM     86  F   UNL     1       9.859   2.917   1.472  1.00  0.00    -0.207 F 
ATOM     87  F   UNL     1      11.555   4.254   1.741  1.00  0.00    -0.207 F 
BRANCH  80  88
ATOM     88  O   UNL     1       9.813   8.364   1.661  1.00  0.00    -0.380 OA
ATOM     89  H   UNL     1       9.584   8.842   2.474  1.00  0.00     0.212 HD
ENDBRANCH  80  88
ENDBRANCH  77  80
ENDBRANCH  75  76
ENDBRANCH  74  75
ENDBRANCH  73  74
ENDBRANCH   1  73
TORSDOF 14
