REMARK SMILES O=C(NCCCCCCNC(=O)c1cc(Br)ccc1OCc1ccccc1F)c1ccc(-c2c3nc(c(-c4c(F)c(F)c(F)c(F)c4F)c4ccc([nH]4)c(-c4c(F)c(F)c(F)c(F)c4F)c4nc(c(-c5c(F)c(F)c(F)c(F)c5F)c5ccc2[nH]5)C=C4)C=C3)cc1
REMARK SMILES IDX 7 1 6 2 5 3 4 4 3 5 1 6 2 7 29 9 30 10 91 11 31 12 90 13
REMARK SMILES IDX 32 14 33 15 34 16 84 17 35 18 89 19 83 20 85 21 36 22 88 23
REMARK SMILES IDX 82 24 81 25 37 27 69 28 49 29 68 30 50 31 53 32 67 33 86 34
REMARK SMILES IDX 51 35 52 36 66 38 87 39 54 40 38 41 39 42 47 43 40 44 41 45
REMARK SMILES IDX 45 46 48 47 42 48 43 49 46 50 44 51 70 52 71 53 79 54 72 55
REMARK SMILES IDX 73 56 77 57 80 58 74 59 75 60 78 61 76 62 55 63 56 64 64 65
REMARK SMILES IDX 57 66 58 67 62 68 65 69 59 70 60 71 63 72 61 73 8 74 9 75
REMARK SMILES IDX 10 76 11 77 12 79 13 80 14 81 19 82 15 83 18 84 16 85 17 86
REMARK SMILES IDX 20 87 21 88 22 89 23 90 27 91 24 92 26 93 28 94 25 95
REMARK H PARENT 3 8 85 26 53 37 10 78
REMARK Flexibility Score: inf
ROOT
ATOM      1  C   UNL     1       4.887  -2.887  -2.843  1.00  0.00     0.002 C 
ENDROOT
BRANCH   1   2
ATOM      2  C   UNL     1       3.984  -3.505  -1.770  1.00  0.00     0.002 C 
BRANCH   2   3
ATOM      3  C   UNL     1       4.135  -2.966  -0.344  1.00  0.00     0.021 C 
BRANCH   3   4
ATOM      4  C   UNL     1       4.053  -1.451  -0.182  1.00  0.00     0.116 C 
BRANCH   4   5
ATOM      5  N   UNL     1       2.749  -0.896  -0.487  1.00  0.00    -0.352 N 
ATOM      6  O   UNL     1       1.028   0.554  -0.280  1.00  0.00    -0.269 OA
ATOM      7  C   UNL     1       2.186   0.264  -0.003  1.00  0.00     0.251 C 
ATOM      8  H   UNL     1       2.197  -1.412  -1.118  1.00  0.00     0.163 HD
BRANCH   7   9
ATOM      9  C   UNL     1       2.966   1.146   0.900  1.00  0.00     0.039 A 
ATOM     10  C   UNL     1       4.268   1.545   0.588  1.00  0.00     0.014 A 
ATOM     11  C   UNL     1       2.365   1.594   2.082  1.00  0.00     0.014 A 
ATOM     12  C   UNL     1       5.005   2.297   1.504  1.00  0.00     0.010 A 
ATOM     13  C   UNL     1       3.091   2.379   2.984  1.00  0.00     0.010 A 
ATOM     14  C   UNL     1       4.428   2.706   2.716  1.00  0.00    -0.014 A 
BRANCH  14  15
ATOM     15  C   UNL     1       5.246   3.459   3.697  1.00  0.00     0.031 A 
ATOM     16  C   UNL     1       5.800   2.772   4.912  1.00  0.00     0.074 A 
ATOM     17  C   UNL     1       5.544   4.750   3.463  1.00  0.00     0.049 A 
ATOM     18  N   UNL     1       6.587   3.250   5.844  1.00  0.00    -0.248 NA
ATOM     19  C   UNL     1       5.423   1.364   5.106  1.00  0.00     0.031 C 
ATOM     20  C   UNL     1       5.072   5.531   2.320  1.00  0.00     0.029 A 
ATOM     21  N   UNL     1       6.342   5.621   4.160  1.00  0.00    -0.354 N 
ATOM     22  C   UNL     1       6.782   2.213   6.743  1.00  0.00     0.074 A 
ATOM     23  C   UNL     1       6.035   1.075   6.247  1.00  0.00     0.031 C 
ATOM     24  C   UNL     1       5.631   6.752   2.366  1.00  0.00     0.029 A 
ATOM     25  C   UNL     1       6.487   6.839   3.547  1.00  0.00     0.049 A 
ATOM     26  H   UNL     1       6.770   5.393   5.018  1.00  0.00     0.167 HD
ATOM     27  C   UNL     1       7.515   2.209   7.881  1.00  0.00     0.037 A 
ATOM     28  C   UNL     1       7.242   7.899   3.887  1.00  0.00     0.037 A 
ATOM     29  C   UNL     1       8.273   3.325   8.377  1.00  0.00     0.049 A 
ATOM     30  C   UNL     1       8.090   7.851   5.123  1.00  0.00     0.074 A 
ATOM     31  C   UNL     1       9.013   3.420   9.544  1.00  0.00     0.029 A 
ATOM     32  N   UNL     1       8.400   4.539   7.723  1.00  0.00    -0.354 N 
ATOM     33  N   UNL     1       8.241   6.873   5.981  1.00  0.00    -0.248 NA
ATOM     34  C   UNL     1       8.871   9.056   5.438  1.00  0.00     0.031 C 
ATOM     35  C   UNL     1       9.591   4.694   9.594  1.00  0.00     0.029 A 
ATOM     36  C   UNL     1       9.216   5.386   8.454  1.00  0.00     0.049 A 
ATOM     37  H   UNL     1       7.974   4.766   6.865  1.00  0.00     0.167 HD
ATOM     38  C   UNL     1       9.124   7.344   6.940  1.00  0.00     0.074 A 
ATOM     39  C   UNL     1       9.494   8.689   6.550  1.00  0.00     0.031 C 
ATOM     40  C   UNL     1       9.577   6.718   8.052  1.00  0.00     0.037 A 
BRANCH  27  41
ATOM     41  C   UNL     1       7.521   0.948   8.684  1.00  0.00     0.064 A 
ATOM     42  C   UNL     1       6.661   0.798   9.780  1.00  0.00     0.173 A 
ATOM     43  C   UNL     1       8.406  -0.096   8.387  1.00  0.00     0.173 A 
ATOM     44  F   UNL     1       5.794   1.771  10.097  1.00  0.00    -0.203 F 
ATOM     45  C   UNL     1       6.690  -0.358  10.555  1.00  0.00     0.198 A 
ATOM     46  C   UNL     1       8.427  -1.254   9.159  1.00  0.00     0.198 A 
ATOM     47  F   UNL     1       9.236   0.001   7.337  1.00  0.00    -0.203 F 
ATOM     48  F   UNL     1       5.862  -0.483  11.601  1.00  0.00    -0.200 F 
ATOM     49  C   UNL     1       7.572  -1.383  10.244  1.00  0.00     0.200 A 
ATOM     50  F   UNL     1       9.268  -2.250   8.850  1.00  0.00    -0.200 F 
ATOM     51  F   UNL     1       7.593  -2.498  10.986  1.00  0.00    -0.200 F 
ENDBRANCH  27  41
BRANCH  28  52
ATOM     52  C   UNL     1       7.262   9.085   3.004  1.00  0.00     0.064 A 
ATOM     53  C   UNL     1       6.254  10.054   3.064  1.00  0.00     0.173 A 
ATOM     54  C   UNL     1       8.284   9.251   2.061  1.00  0.00     0.173 A 
ATOM     55  F   UNL     1       5.261   9.933   3.957  1.00  0.00    -0.203 F 
ATOM     56  C   UNL     1       6.263  11.147   2.202  1.00  0.00     0.198 A 
ATOM     57  C   UNL     1       8.296  10.348   1.204  1.00  0.00     0.198 A 
ATOM     58  F   UNL     1       9.275   8.351   1.984  1.00  0.00    -0.203 F 
ATOM     59  F   UNL     1       5.285  12.059   2.269  1.00  0.00    -0.200 F 
ATOM     60  C   UNL     1       7.283  11.293   1.273  1.00  0.00     0.200 A 
ATOM     61  F   UNL     1       9.289  10.492   0.317  1.00  0.00    -0.200 F 
ATOM     62  F   UNL     1       7.293  12.348   0.446  1.00  0.00    -0.200 F 
ENDBRANCH  28  52
BRANCH  40  63
ATOM     63  C   UNL     1      10.514   7.483   8.930  1.00  0.00     0.064 A 
ATOM     64  C   UNL     1      11.899   7.308   8.825  1.00  0.00     0.173 A 
ATOM     65  C   UNL     1      10.026   8.364   9.904  1.00  0.00     0.173 A 
ATOM     66  F   UNL     1      12.407   6.478   7.902  1.00  0.00    -0.203 F 
ATOM     67  C   UNL     1      12.768   7.993   9.669  1.00  0.00     0.198 A 
ATOM     68  C   UNL     1      10.899   9.051  10.743  1.00  0.00     0.198 A 
ATOM     69  F   UNL     1       8.707   8.568  10.029  1.00  0.00    -0.203 F 
ATOM     70  F   UNL     1      14.092   7.814   9.555  1.00  0.00    -0.200 F 
ATOM     71  C   UNL     1      12.268   8.863  10.627  1.00  0.00     0.200 A 
ATOM     72  F   UNL     1      10.415   9.901  11.659  1.00  0.00    -0.200 F 
ATOM     73  F   UNL     1      13.107   9.527  11.434  1.00  0.00    -0.200 F 
ENDBRANCH  40  63
ENDBRANCH  14  15
ENDBRANCH   7   9
ENDBRANCH   4   5
ENDBRANCH   3   4
ENDBRANCH   2   3
ENDBRANCH   1   2
BRANCH   1  74
ATOM     74  C   UNL     1       6.381  -2.793  -2.518  1.00  0.00     0.021 C 
BRANCH  74  75
ATOM     75  C   UNL     1       7.072  -4.109  -2.161  1.00  0.00     0.116 C 
BRANCH  75  76
ATOM     76  N   UNL     1       7.128  -5.064  -3.252  1.00  0.00    -0.352 N 
ATOM     77  C   UNL     1       8.002  -4.887  -4.304  1.00  0.00     0.255 C 
ATOM     78  H   UNL     1       6.534  -5.849  -3.240  1.00  0.00     0.163 HD
ATOM     79  O   UNL     1       7.705  -4.176  -5.255  1.00  0.00    -0.269 OA
BRANCH  77  80
ATOM     80  C   UNL     1       9.271  -5.665  -4.267  1.00  0.00     0.082 A 
ATOM     81  C   UNL     1       9.966  -5.796  -3.053  1.00  0.00     0.033 A 
ATOM     82  C   UNL     1       9.832  -6.212  -5.432  1.00  0.00     0.132 A 
ATOM     83  C   UNL     1      11.224  -6.398  -3.020  1.00  0.00     0.019 A 
ATOM     84  C   UNL     1      11.117  -6.775  -5.388  1.00  0.00     0.048 A 
ATOM     85  Br  UNL     1      12.149  -6.544  -1.377  1.00  0.00    -0.051 Br
ATOM     86  C   UNL     1      11.813  -6.872  -4.185  1.00  0.00     0.019 A 
BRANCH  82  87
ATOM     87  O   UNL     1       9.252  -6.279  -6.671  1.00  0.00    -0.488 OA
BRANCH  87  88
ATOM     88  C   UNL     1       7.948  -6.884  -6.745  1.00  0.00     0.268 C 
BRANCH  88  89
ATOM     89  C   UNL     1       7.784  -8.193  -6.008  1.00  0.00     0.025 A 
ATOM     90  C   UNL     1       8.662  -9.265  -6.225  1.00  0.00     0.010 A 
ATOM     91  C   UNL     1       6.735  -8.365  -5.101  1.00  0.00     0.129 A 
ATOM     92  C   UNL     1       8.502 -10.464  -5.526  1.00  0.00     0.001 A 
ATOM     93  C   UNL     1       6.565  -9.560  -4.407  1.00  0.00     0.039 A 
ATOM     94  F   UNL     1       5.867  -7.367  -4.878  1.00  0.00    -0.207 F 
ATOM     95  C   UNL     1       7.454 -10.612  -4.617  1.00  0.00     0.003 A 
ENDBRANCH  88  89
ENDBRANCH  87  88
ENDBRANCH  82  87
ENDBRANCH  77  80
ENDBRANCH  75  76
ENDBRANCH  74  75
ENDBRANCH   1  74
TORSDOF 16
