REMARK SMILES Cc1ccc(S(=O)(=O)/C=C/C(=O)NCCCCCCNC(=O)c2ccc(-c3c4nc(c(-c5c(F)c(F)c(F)c(F)c5F)c5ccc([nH]5)c(-c5c(F)c(F)c(F)c(F)c5F)c5nc(c(-c6c(F)c(F)c(F)c(F)c6F)c6ccc3[nH]6)C=C5)C=C4)cc2)cc1
REMARK SMILES IDX 16 1 15 2 14 3 13 4 11 5 12 6 10 8 9 9 6 10 7 11 8 12 5 13
REMARK SMILES IDX 1 14 2 15 3 16 87 17 4 18 86 19 17 20 18 21 19 22 20 23
REMARK SMILES IDX 21 24 22 26 23 27 24 28 85 29 25 30 84 31 26 32 27 33 28 34
REMARK SMILES IDX 78 35 29 36 83 37 77 38 79 39 30 40 82 41 76 42 75 43 31 45
REMARK SMILES IDX 63 46 43 47 62 48 44 49 47 50 61 51 80 52 45 53 46 54 60 56
REMARK SMILES IDX 81 57 48 58 32 59 33 60 41 61 34 62 35 63 39 64 42 65 36 66
REMARK SMILES IDX 37 67 40 68 38 69 64 70 65 71 73 72 66 73 67 74 71 75 74 76
REMARK SMILES IDX 68 77 69 78 72 79 70 80 49 81 50 82 58 83 51 84 52 85 56 86
REMARK SMILES IDX 59 87 53 88 54 89 57 90 55 91
REMARK H PARENT 13 7 20 25 79 44 47 55
REMARK Flexibility Score: inf
ROOT
ATOM      1  C   UNL     1      -7.968   5.080   0.931  1.00  0.00     0.002 C 
ENDROOT
BRANCH   1   2
ATOM      2  C   UNL     1      -7.252   3.725   0.877  1.00  0.00     0.021 C 
BRANCH   2   3
ATOM      3  C   UNL     1      -6.275   3.546  -0.284  1.00  0.00     0.116 C 
BRANCH   3   4
ATOM      4  N   UNL     1      -5.077   4.347  -0.122  1.00  0.00    -0.353 N 
ATOM      5  C   UNL     1      -3.783   3.984  -0.331  1.00  0.00     0.244 C 
ATOM      6  O   UNL     1      -2.873   4.804  -0.316  1.00  0.00    -0.270 OA
ATOM      7  H   UNL     1      -5.219   5.274   0.179  1.00  0.00     0.163 HD
BRANCH   5   8
ATOM      8  C   UNL     1      -3.487   2.571  -0.599  1.00  0.00     0.083 C 
ATOM      9  C   UNL     1      -3.624   1.686   0.398  1.00  0.00     0.117 C 
BRANCH   9  10
ATOM     10  S   UNL     1      -3.196   0.037   0.125  1.00  0.00     0.200 S 
ATOM     11  O   UNL     1      -3.598  -0.331  -1.220  1.00  0.00    -0.219 OA
ATOM     12  O   UNL     1      -3.651  -0.731   1.268  1.00  0.00    -0.219 OA
BRANCH  10  13
ATOM     13  C   UNL     1      -1.417  -0.029   0.156  1.00  0.00     0.071 A 
ATOM     14  C   UNL     1       2.866  -0.348   0.010  1.00  0.00     0.044 C 
ATOM     15  C   UNL     1       1.371  -0.235   0.064  1.00  0.00    -0.051 A 
ATOM     16  C   UNL     1       0.573  -1.367  -0.139  1.00  0.00     0.005 A 
ATOM     17  C   UNL     1       0.762   0.993   0.345  1.00  0.00     0.005 A 
ATOM     18  C   UNL     1      -0.819  -1.266  -0.101  1.00  0.00     0.021 A 
ATOM     19  C   UNL     1      -0.629   1.100   0.396  1.00  0.00     0.021 A 
ENDBRANCH  10  13
ENDBRANCH   9  10
ENDBRANCH   5   8
ENDBRANCH   3   4
ENDBRANCH   2   3
ENDBRANCH   1   2
BRANCH   1  20
ATOM     20  C   UNL     1      -8.667   5.542  -0.359  1.00  0.00     0.002 C 
BRANCH  20  21
ATOM     21  C   UNL     1      -9.522   4.498  -1.083  1.00  0.00     0.021 C 
BRANCH  21  22
ATOM     22  C   UNL     1     -10.777   4.076  -0.332  1.00  0.00     0.116 C 
BRANCH  22  23
ATOM     23  N   UNL     1     -12.003   4.666  -0.858  1.00  0.00    -0.352 N 
ATOM     24  C   UNL     1     -13.305   4.539  -0.407  1.00  0.00     0.251 C 
ATOM     25  H   UNL     1     -11.887   5.239  -1.651  1.00  0.00     0.163 HD
ATOM     26  O   UNL     1     -14.223   5.081  -1.003  1.00  0.00    -0.269 OA
BRANCH  24  27
ATOM     27  C   UNL     1     -13.555   3.868   0.891  1.00  0.00     0.039 A 
ATOM     28  C   UNL     1     -14.308   4.568   1.841  1.00  0.00     0.014 A 
ATOM     29  C   UNL     1     -12.865   2.714   1.247  1.00  0.00     0.014 A 
ATOM     30  C   UNL     1     -14.140   4.273   3.190  1.00  0.00     0.010 A 
ATOM     31  C   UNL     1     -12.620   2.481   2.586  1.00  0.00     0.010 A 
ATOM     32  C   UNL     1     -13.190   3.319   3.551  1.00  0.00    -0.014 A 
BRANCH  32  33
ATOM     33  C   UNL     1     -12.599   3.264   4.884  1.00  0.00     0.031 A 
ATOM     34  C   UNL     1     -12.893   2.150   5.805  1.00  0.00     0.074 A 
ATOM     35  C   UNL     1     -11.679   4.197   5.218  1.00  0.00     0.049 A 
ATOM     36  N   UNL     1     -12.720   2.195   7.084  1.00  0.00    -0.248 NA
ATOM     37  C   UNL     1     -13.470   0.894   5.350  1.00  0.00     0.031 C 
ATOM     38  C   UNL     1     -10.742   4.156   6.337  1.00  0.00     0.029 A 
ATOM     39  N   UNL     1     -11.542   5.495   4.694  1.00  0.00    -0.354 N 
ATOM     40  C   UNL     1     -12.871   0.917   7.576  1.00  0.00     0.074 A 
ATOM     41  C   UNL     1     -13.432   0.172   6.473  1.00  0.00     0.031 C 
ATOM     42  C   UNL     1     -10.343   5.408   6.612  1.00  0.00     0.029 A 
ATOM     43  C   UNL     1     -11.131   6.300   5.781  1.00  0.00     0.049 A 
ATOM     44  H   UNL     1     -11.699   5.782   3.766  1.00  0.00     0.167 HD
ATOM     45  C   UNL     1     -12.361   0.622   8.810  1.00  0.00     0.037 A 
ATOM     46  C   UNL     1     -11.913   7.314   6.253  1.00  0.00     0.037 A 
ATOM     47  C   UNL     1     -11.879   1.833   9.480  1.00  0.00     0.049 A 
ATOM     48  C   UNL     1     -12.298   7.174   7.707  1.00  0.00     0.074 A 
ATOM     49  C   UNL     1     -10.613   2.368   9.663  1.00  0.00     0.029 A 
ATOM     50  N   UNL     1     -12.780   2.837   9.824  1.00  0.00    -0.354 N 
ATOM     51  N   UNL     1     -12.233   6.053   8.368  1.00  0.00    -0.248 NA
ATOM     52  C   UNL     1     -12.833   8.268   8.513  1.00  0.00     0.031 C 
ATOM     53  C   UNL     1     -10.757   3.717  10.069  1.00  0.00     0.029 A 
ATOM     54  C   UNL     1     -12.109   4.000  10.150  1.00  0.00     0.049 A 
ATOM     55  H   UNL     1     -13.759   2.732   9.834  1.00  0.00     0.167 HD
ATOM     56  C   UNL     1     -12.729   6.239   9.632  1.00  0.00     0.074 A 
ATOM     57  C   UNL     1     -13.069   7.649   9.682  1.00  0.00     0.031 C 
ATOM     58  C   UNL     1     -12.834   5.207  10.518  1.00  0.00     0.037 A 
BRANCH  45  59
ATOM     59  C   UNL     1     -11.999  -0.782   9.282  1.00  0.00     0.064 A 
ATOM     60  C   UNL     1     -11.001  -0.976  10.267  1.00  0.00     0.173 A 
ATOM     61  C   UNL     1     -12.516  -1.978   8.752  1.00  0.00     0.173 A 
ATOM     62  F   UNL     1     -10.505   0.047  10.975  1.00  0.00    -0.203 F 
ATOM     63  C   UNL     1     -10.471  -2.234  10.573  1.00  0.00     0.198 A 
ATOM     64  C   UNL     1     -11.958  -3.234   9.022  1.00  0.00     0.198 A 
ATOM     65  F   UNL     1     -13.626  -1.996   8.010  1.00  0.00    -0.203 F 
ATOM     66  F   UNL     1      -9.508  -2.343  11.499  1.00  0.00    -0.200 F 
ATOM     67  C   UNL     1     -10.921  -3.360   9.919  1.00  0.00     0.200 A 
ATOM     68  F   UNL     1     -12.444  -4.321   8.405  1.00  0.00    -0.200 F 
ATOM     69  F   UNL     1     -10.386  -4.561  10.177  1.00  0.00    -0.200 F 
ENDBRANCH  45  59
BRANCH  46  70
ATOM     70  C   UNL     1     -12.763   7.943   5.210  1.00  0.00     0.064 A 
ATOM     71  C   UNL     1     -12.133   8.627   4.154  1.00  0.00     0.173 A 
ATOM     72  C   UNL     1     -14.104   7.580   5.040  1.00  0.00     0.173 A 
ATOM     73  F   UNL     1     -10.845   8.991   4.266  1.00  0.00    -0.203 F 
ATOM     74  C   UNL     1     -12.783   8.844   2.941  1.00  0.00     0.198 A 
ATOM     75  C   UNL     1     -14.755   7.808   3.825  1.00  0.00     0.198 A 
ATOM     76  F   UNL     1     -14.751   6.905   6.000  1.00  0.00    -0.203 F 
ATOM     77  F   UNL     1     -12.121   9.406   1.919  1.00  0.00    -0.200 F 
ATOM     78  C   UNL     1     -14.086   8.409   2.769  1.00  0.00     0.200 A 
ATOM     79  F   UNL     1     -16.005   7.357   3.646  1.00  0.00    -0.200 F 
ATOM     80  F   UNL     1     -14.683   8.533   1.576  1.00  0.00    -0.200 F 
ENDBRANCH  46  70
BRANCH  58  81
ATOM     81  C   UNL     1     -13.552   5.251  11.843  1.00  0.00     0.064 A 
ATOM     82  C   UNL     1     -14.682   6.045  12.095  1.00  0.00     0.173 A 
ATOM     83  C   UNL     1     -13.194   4.351  12.876  1.00  0.00     0.173 A 
ATOM     84  F   UNL     1     -15.184   6.857  11.155  1.00  0.00    -0.203 F 
ATOM     85  C   UNL     1     -15.371   5.985  13.309  1.00  0.00     0.198 A 
ATOM     86  C   UNL     1     -13.916   4.254  14.064  1.00  0.00     0.198 A 
ATOM     87  F   UNL     1     -12.146   3.523  12.750  1.00  0.00    -0.203 F 
ATOM     88  F   UNL     1     -16.423   6.790  13.516  1.00  0.00    -0.200 F 
ATOM     89  C   UNL     1     -14.997   5.081  14.287  1.00  0.00     0.200 A 
ATOM     90  F   UNL     1     -13.571   3.339  14.982  1.00  0.00    -0.200 F 
ATOM     91  F   UNL     1     -15.690   4.994  15.431  1.00  0.00    -0.200 F 
ENDBRANCH  58  81
ENDBRANCH  32  33
ENDBRANCH  24  27
ENDBRANCH  22  23
ENDBRANCH  21  22
ENDBRANCH  20  21
ENDBRANCH   1  20
TORSDOF 15
