REMARK SMILES CCc1nc(C(=O)N2CC[NH+]([C@H](C)C(=O)NCCCCCCNC(=O)c3ccc(-c4c5nc(c(-c6c(F)c(F)c(F)c(F)c6F)c6ccc([nH]6)c(-c6c(F)c(F)c(F)c(F)c6F)c6nc(c(-c7c(F)c(F)c(F)c(F)c7F)c7ccc4[nH]7)C=C6)C=C5)cc3)CC2)n[nH]1
REMARK SMILES IDX 19 1 18 2 17 3 16 4 14 5 15 6 12 8 13 9 11 10 6 11 7 12 8 13
REMARK SMILES IDX 9 14 90 15 10 16 89 17 5 19 3 20 4 21 92 22 91 23 2 25 1 26
REMARK SMILES IDX 20 27 21 28 22 29 23 30 24 31 25 33 26 34 27 35 88 36 28 37
REMARK SMILES IDX 87 38 29 39 30 40 31 41 81 42 32 43 86 44 80 45 82 46 33 47
REMARK SMILES IDX 85 48 79 49 78 50 34 52 66 53 46 54 65 55 47 56 50 57 64 58
REMARK SMILES IDX 83 59 48 60 49 61 63 63 84 64 51 65 35 66 36 67 44 68 37 69
REMARK SMILES IDX 38 70 42 71 45 72 39 73 40 74 43 75 41 76 67 77 68 78 76 79
REMARK SMILES IDX 69 80 70 81 74 82 77 83 71 84 72 85 75 86 73 87 52 88 53 89
REMARK SMILES IDX 61 90 54 91 55 92 59 93 62 94 56 95 57 96 60 97 58 98
REMARK H PARENT 16 7 11 18 92 24 23 32 82 51 50 62
REMARK Flexibility Score: inf
ROOT
ATOM      1  C   UNL     1       8.071   4.560   6.277  1.00  0.00     0.002 C 
ENDROOT
BRANCH   1   2
ATOM      2  C   UNL     1       7.153   3.808   5.312  1.00  0.00     0.021 C 
BRANCH   2   3
ATOM      3  C   UNL     1       7.370   4.124   3.840  1.00  0.00     0.116 C 
BRANCH   3   4
ATOM      4  N   UNL     1       8.626   3.642   3.312  1.00  0.00    -0.351 N 
ATOM      5  C   UNL     1       8.949   3.246   2.042  1.00  0.00     0.278 C 
ATOM      6  O   UNL     1      10.152   3.103   1.797  1.00  0.00    -0.268 OA
ATOM      7  H   UNL     1       9.361   3.590   3.965  1.00  0.00     0.163 HD
BRANCH   5   8
ATOM      8  C   UNL     1       7.876   2.959   0.958  1.00  0.00     0.271 C 
ATOM      9  C   UNL     1       6.783   1.997   1.448  1.00  0.00     0.086 C 
BRANCH   8  10
ATOM     10  N   UNL     1       7.459   4.158   0.167  1.00  0.00    -0.322 N 
ATOM     11  C   UNL     1       4.337   6.706  -0.238  1.00  0.00     0.293 C 
ATOM     12  O   UNL     1       4.270   7.813   0.304  1.00  0.00    -0.265 OA
ATOM     13  N   UNL     1       5.572   6.202  -0.658  1.00  0.00    -0.325 N 
ATOM     14  C   UNL     1       6.759   6.585   0.086  1.00  0.00     0.181 C 
ATOM     15  C   UNL     1       5.802   5.066  -1.547  1.00  0.00     0.181 C 
ATOM     16  C   UNL     1       7.189   5.378   0.947  1.00  0.00     0.284 C 
ATOM     17  C   UNL     1       6.343   3.849  -0.765  1.00  0.00     0.284 C 
ATOM     18  H   UNL     1       8.289   4.388  -0.380  1.00  0.00     0.348 HD
BRANCH  11  19
ATOM     19  C   UNL     1       3.141   5.831  -0.343  1.00  0.00     0.239 A 
ATOM     20  C   UNL     1       1.945   4.066  -0.224  1.00  0.00     0.124 A 
ATOM     21  N   UNL     1       3.200   4.444  -0.332  1.00  0.00    -0.208 NA
ATOM     22  N   UNL     1       1.155   5.177  -0.198  1.00  0.00    -0.263 N 
ATOM     23  N   UNL     1       1.879   6.300  -0.268  1.00  0.00    -0.148 NA
ATOM     24  H   UNL     1       0.173   5.155  -0.135  1.00  0.00     0.192 HD
BRANCH  20  25
ATOM     25  C   UNL     1       1.417   2.685  -0.087  1.00  0.00     0.073 C 
ATOM     26  C   UNL     1       1.840   1.806  -1.252  1.00  0.00     0.012 C 
ENDBRANCH  20  25
ENDBRANCH  11  19
ENDBRANCH   8  10
ENDBRANCH   5   8
ENDBRANCH   3   4
ENDBRANCH   2   3
ENDBRANCH   1   2
BRANCH   1  27
ATOM     27  C   UNL     1       8.145   6.080   6.095  1.00  0.00     0.002 C 
BRANCH  27  28
ATOM     28  C   UNL     1       6.808   6.825   6.058  1.00  0.00     0.021 C 
BRANCH  28  29
ATOM     29  C   UNL     1       5.871   6.552   7.228  1.00  0.00     0.116 C 
BRANCH  29  30
ATOM     30  N   UNL     1       6.470   6.864   8.513  1.00  0.00    -0.352 N 
ATOM     31  C   UNL     1       5.969   7.601   9.555  1.00  0.00     0.251 C 
ATOM     32  H   UNL     1       7.370   6.491   8.657  1.00  0.00     0.163 HD
ATOM     33  O   UNL     1       6.681   7.878  10.514  1.00  0.00    -0.269 OA
BRANCH  31  34
ATOM     34  C   UNL     1       4.573   8.087   9.513  1.00  0.00     0.039 A 
ATOM     35  C   UNL     1       4.311   9.405   9.896  1.00  0.00     0.014 A 
ATOM     36  C   UNL     1       3.527   7.252   9.110  1.00  0.00     0.014 A 
ATOM     37  C   UNL     1       3.010   9.902   9.821  1.00  0.00     0.010 A 
ATOM     38  C   UNL     1       2.244   7.771   8.960  1.00  0.00     0.010 A 
ATOM     39  C   UNL     1       1.971   9.100   9.321  1.00  0.00    -0.014 A 
BRANCH  39  40
ATOM     40  C   UNL     1       0.596   9.637   9.167  1.00  0.00     0.031 A 
ATOM     41  C   UNL     1      -0.541   9.052   9.954  1.00  0.00     0.074 A 
ATOM     42  C   UNL     1       0.360  10.605   8.262  1.00  0.00     0.049 A 
ATOM     43  N   UNL     1      -1.816   9.348   9.916  1.00  0.00    -0.248 NA
ATOM     44  C   UNL     1      -0.205   7.966  10.886  1.00  0.00     0.031 C 
ATOM     45  C   UNL     1       1.370  11.208   7.391  1.00  0.00     0.029 A 
ATOM     46  N   UNL     1      -0.805  11.240   7.912  1.00  0.00    -0.354 N 
ATOM     47  C   UNL     1      -2.433   8.476  10.803  1.00  0.00     0.074 A 
ATOM     48  C   UNL     1      -1.403   7.600  11.317  1.00  0.00     0.031 C 
ATOM     49  C   UNL     1       0.784  12.135   6.618  1.00  0.00     0.029 A 
ATOM     50  C   UNL     1      -0.646  12.165   6.910  1.00  0.00     0.049 A 
ATOM     51  H   UNL     1      -1.672  11.051   8.339  1.00  0.00     0.167 HD
ATOM     52  C   UNL     1      -3.737   8.425  11.169  1.00  0.00     0.037 A 
ATOM     53  C   UNL     1      -1.552  12.942   6.287  1.00  0.00     0.037 A 
ATOM     54  C   UNL     1      -4.753   9.310  10.661  1.00  0.00     0.049 A 
ATOM     55  C   UNL     1      -2.992  12.877   6.713  1.00  0.00     0.074 A 
ATOM     56  C   UNL     1      -6.085   9.396  11.026  1.00  0.00     0.029 A 
ATOM     57  N   UNL     1      -4.550  10.257   9.666  1.00  0.00    -0.354 N 
ATOM     58  N   UNL     1      -3.553  12.111   7.617  1.00  0.00    -0.248 NA
ATOM     59  C   UNL     1      -3.923  13.791   6.040  1.00  0.00     0.031 C 
ATOM     60  C   UNL     1      -6.702  10.347  10.206  1.00  0.00     0.029 A 
ATOM     61  C   UNL     1      -5.742  10.905   9.377  1.00  0.00     0.049 A 
ATOM     62  H   UNL     1      -3.687  10.442   9.229  1.00  0.00     0.167 HD
ATOM     63  C   UNL     1      -4.896  12.461   7.638  1.00  0.00     0.074 A 
ATOM     64  C   UNL     1      -5.062  13.522   6.665  1.00  0.00     0.031 C 
ATOM     65  C   UNL     1      -5.898  11.951   8.396  1.00  0.00     0.037 A 
BRANCH  52  66
ATOM     66  C   UNL     1      -4.134   7.360  12.154  1.00  0.00     0.064 A 
ATOM     67  C   UNL     1      -3.676   7.367  13.482  1.00  0.00     0.173 A 
ATOM     68  C   UNL     1      -4.981   6.312  11.763  1.00  0.00     0.173 A 
ATOM     69  F   UNL     1      -2.857   8.340  13.909  1.00  0.00    -0.203 F 
ATOM     70  C   UNL     1      -4.008   6.340  14.362  1.00  0.00     0.198 A 
ATOM     71  C   UNL     1      -5.342   5.307  12.657  1.00  0.00     0.198 A 
ATOM     72  F   UNL     1      -5.457   6.257  10.510  1.00  0.00    -0.203 F 
ATOM     73  F   UNL     1      -3.496   6.330  15.601  1.00  0.00    -0.200 F 
ATOM     74  C   UNL     1      -4.843   5.313  13.950  1.00  0.00     0.200 A 
ATOM     75  F   UNL     1      -6.162   4.324  12.261  1.00  0.00    -0.200 F 
ATOM     76  F   UNL     1      -5.157   4.322  14.796  1.00  0.00    -0.200 F 
ENDBRANCH  52  66
BRANCH  53  77
ATOM     77  C   UNL     1      -1.102  13.858   5.208  1.00  0.00     0.064 A 
ATOM     78  C   UNL     1      -1.057  15.244   5.408  1.00  0.00     0.173 A 
ATOM     79  C   UNL     1      -0.663  13.361   3.972  1.00  0.00     0.173 A 
ATOM     80  F   UNL     1      -1.486  15.768   6.566  1.00  0.00    -0.203 F 
ATOM     81  C   UNL     1      -0.594  16.100   4.410  1.00  0.00     0.198 A 
ATOM     82  C   UNL     1      -0.174  14.215   2.985  1.00  0.00     0.198 A 
ATOM     83  F   UNL     1      -0.682  12.041   3.735  1.00  0.00    -0.203 F 
ATOM     84  F   UNL     1      -0.589  17.424   4.615  1.00  0.00    -0.200 F 
ATOM     85  C   UNL     1      -0.143  15.584   3.204  1.00  0.00     0.200 A 
ATOM     86  F   UNL     1       0.274  13.711   1.828  1.00  0.00    -0.200 F 
ATOM     87  F   UNL     1       0.318  16.406   2.252  1.00  0.00    -0.200 F 
ENDBRANCH  53  77
BRANCH  65  88
ATOM     88  C   UNL     1      -7.266  12.546   8.219  1.00  0.00     0.064 A 
ATOM     89  C   UNL     1      -8.021  12.330   7.056  1.00  0.00     0.173 A 
ATOM     90  C   UNL     1      -7.847  13.309   9.245  1.00  0.00     0.173 A 
ATOM     91  F   UNL     1      -7.508  11.621   6.040  1.00  0.00    -0.203 F 
ATOM     92  C   UNL     1      -9.295  12.877   6.917  1.00  0.00     0.198 A 
ATOM     93  C   UNL     1      -9.134  13.825   9.116  1.00  0.00     0.198 A 
ATOM     94  F   UNL     1      -7.172  13.540  10.381  1.00  0.00    -0.203 F 
ATOM     95  F   UNL     1      -9.977  12.698   5.778  1.00  0.00    -0.200 F 
ATOM     96  C   UNL     1      -9.853  13.615   7.950  1.00  0.00     0.200 A 
ATOM     97  F   UNL     1      -9.677  14.524  10.122  1.00  0.00    -0.200 F 
ATOM     98  F   UNL     1     -11.083  14.131   7.818  1.00  0.00    -0.200 F 
ENDBRANCH  65  88
ENDBRANCH  39  40
ENDBRANCH  31  34
ENDBRANCH  29  30
ENDBRANCH  28  29
ENDBRANCH  27  28
ENDBRANCH   1  27
TORSDOF 16
