REMARK SMILES Cc1ccccc1/C=C1\SC(=S)N(CCC(=O)N[C@@H](C)C(=O)NCCCCCCNC(=O)c2ccc(-c3c4nc(c(-c5c(F)c(F)c(F)c(F)c5F)c5ccc([nH]5)c(-c5c(F)c(F)c(F)c(F)c5F)c5nc(c(-c6c(F)c(F)c(F)c(F)c6F)c6ccc3[nH]6)C=C5)C=C4)cc2)C1=O
REMARK SMILES IDX 25 1 24 2 23 3 21 4 22 5 19 7 20 8 18 9 16 10 17 11 15 13
REMARK SMILES IDX 14 14 13 15 8 16 9 17 10 18 96 19 11 20 97 21 12 22 7 23
REMARK SMILES IDX 1 24 2 25 3 26 4 27 6 28 5 29 26 30 27 31 28 32 29 33 30 34
REMARK SMILES IDX 31 35 32 37 33 38 34 39 95 40 35 41 94 42 36 43 37 44 38 45
REMARK SMILES IDX 88 46 39 47 93 48 87 49 89 50 40 51 92 52 86 53 85 54 41 56
REMARK SMILES IDX 73 57 53 58 72 59 54 60 57 61 71 62 90 63 55 64 56 65 70 67
REMARK SMILES IDX 91 68 58 69 42 70 43 71 51 72 44 73 45 74 49 75 52 76 46 77
REMARK SMILES IDX 47 78 50 79 48 80 74 81 75 82 83 83 76 84 77 85 81 86 84 87
REMARK SMILES IDX 78 88 79 89 82 90 80 91 59 92 60 93 68 94 61 95 62 96 66 97
REMARK SMILES IDX 69 98 63 99 64 100 67 101 65 102
REMARK H PARENT 23 6 18 12 30 36 89 55 57 66
REMARK Flexibility Score: inf
ROOT
ATOM      1  C   UNL     1      -2.413   6.205   1.354  1.00  0.00     0.021 C 
ENDROOT
BRANCH   1   2
ATOM      2  C   UNL     1      -1.338   5.610   0.451  1.00  0.00     0.116 C 
BRANCH   2   3
ATOM      3  N   UNL     1      -1.622   5.760  -0.962  1.00  0.00    -0.354 N 
ATOM      4  C   UNL     1      -0.803   5.660  -2.048  1.00  0.00     0.242 C 
ATOM      5  O   UNL     1      -1.337   5.714  -3.160  1.00  0.00    -0.273 OA
ATOM      6  H   UNL     1      -2.561   5.968  -1.173  1.00  0.00     0.163 HD
BRANCH   4   7
ATOM      7  C   UNL     1       0.723   5.451  -1.935  1.00  0.00     0.168 C 
ATOM      8  C   UNL     1       1.049   4.217  -1.127  1.00  0.00     0.041 C 
BRANCH   7   9
ATOM      9  N   UNL     1       1.500   6.574  -1.418  1.00  0.00    -0.345 N 
ATOM     10  C   UNL     1       2.846   6.790  -1.569  1.00  0.00     0.222 C 
ATOM     11  O   UNL     1       3.396   7.601  -0.823  1.00  0.00    -0.275 OA
ATOM     12  H   UNL     1       1.002   7.251  -0.904  1.00  0.00     0.164 HD
BRANCH  10  13
ATOM     13  C   UNL     1       3.629   6.094  -2.678  1.00  0.00     0.122 C 
BRANCH  13  14
ATOM     14  C   UNL     1       4.673   5.058  -2.217  1.00  0.00     0.137 C 
BRANCH  14  15
ATOM     15  N   UNL     1       4.183   3.664  -2.162  1.00  0.00    -0.292 N 
ATOM     16  C   UNL     1       2.544   1.345  -0.025  1.00  0.00     0.029 C 
ATOM     17  C   UNL     1       3.255   1.795  -1.071  1.00  0.00     0.081 C 
ATOM     18  S   UNL     1       3.125   1.368  -2.725  1.00  0.00    -0.054 SA
ATOM     19  C   UNL     1       4.088   3.025  -0.933  1.00  0.00     0.266 C 
ATOM     20  C   UNL     1       3.835   2.896  -3.259  1.00  0.00     0.148 C 
ATOM     21  O   UNL     1       4.512   3.438   0.136  1.00  0.00    -0.268 OA
ATOM     22  S   UNL     1       3.991   3.275  -4.875  1.00  0.00    -0.052 S 
BRANCH  16  23
ATOM     23  C   UNL     1       1.444   0.367  -0.052  1.00  0.00    -0.021 A 
ATOM     24  C   UNL     1       3.030  -1.605   0.182  1.00  0.00     0.045 C 
ATOM     25  C   UNL     1       1.653  -1.014   0.073  1.00  0.00    -0.044 A 
ATOM     26  C   UNL     1       0.542  -1.878   0.058  1.00  0.00     0.004 A 
ATOM     27  C   UNL     1      -0.758  -1.382  -0.049  1.00  0.00     0.000 A 
ATOM     28  C   UNL     1       0.126   0.851  -0.146  1.00  0.00     0.008 A 
ATOM     29  C   UNL     1      -0.968  -0.014  -0.150  1.00  0.00     0.001 A 
ENDBRANCH  16  23
ENDBRANCH  14  15
ENDBRANCH  13  14
ENDBRANCH  10  13
ENDBRANCH   7   9
ENDBRANCH   4   7
ENDBRANCH   2   3
ENDBRANCH   1   2
BRANCH   1  30
ATOM     30  C   UNL     1      -3.791   5.527   1.292  1.00  0.00     0.002 C 
BRANCH  30  31
ATOM     31  C   UNL     1      -3.862   4.008   1.526  1.00  0.00     0.002 C 
BRANCH  31  32
ATOM     32  C   UNL     1      -3.103   3.432   2.726  1.00  0.00     0.021 C 
BRANCH  32  33
ATOM     33  C   UNL     1      -3.414   4.079   4.067  1.00  0.00     0.116 C 
BRANCH  33  34
ATOM     34  N   UNL     1      -4.501   3.479   4.826  1.00  0.00    -0.352 N 
ATOM     35  C   UNL     1      -5.163   4.007   5.925  1.00  0.00     0.251 C 
ATOM     36  H   UNL     1      -4.803   2.592   4.523  1.00  0.00     0.163 HD
ATOM     37  O   UNL     1      -6.018   3.367   6.515  1.00  0.00    -0.269 OA
BRANCH  35  38
ATOM     38  C   UNL     1      -4.887   5.416   6.305  1.00  0.00     0.039 A 
ATOM     39  C   UNL     1      -5.966   6.303   6.381  1.00  0.00     0.014 A 
ATOM     40  C   UNL     1      -3.577   5.889   6.369  1.00  0.00     0.014 A 
ATOM     41  C   UNL     1      -5.727   7.674   6.289  1.00  0.00     0.010 A 
ATOM     42  C   UNL     1      -3.344   7.240   6.187  1.00  0.00     0.010 A 
ATOM     43  C   UNL     1      -4.421   8.127   6.084  1.00  0.00    -0.014 A 
BRANCH  43  44
ATOM     44  C   UNL     1      -4.118   9.484   5.640  1.00  0.00     0.031 A 
ATOM     45  C   UNL     1      -3.594  10.495   6.580  1.00  0.00     0.074 A 
ATOM     46  C   UNL     1      -4.309   9.836   4.348  1.00  0.00     0.049 A 
ATOM     47  N   UNL     1      -3.858  11.758   6.491  1.00  0.00    -0.248 NA
ATOM     48  C   UNL     1      -2.744  10.157   7.716  1.00  0.00     0.031 C 
ATOM     49  C   UNL     1      -3.873  11.072   3.701  1.00  0.00     0.029 A 
ATOM     50  N   UNL     1      -5.131   9.214   3.395  1.00  0.00    -0.354 N 
ATOM     51  C   UNL     1      -3.030  12.414   7.369  1.00  0.00     0.074 A 
ATOM     52  C   UNL     1      -2.404  11.374   8.156  1.00  0.00     0.031 C 
ATOM     53  C   UNL     1      -4.638  11.286   2.620  1.00  0.00     0.029 A 
ATOM     54  C   UNL     1      -5.663  10.260   2.606  1.00  0.00     0.049 A 
ATOM     55  H   UNL     1      -5.301   8.249   3.296  1.00  0.00     0.167 HD
ATOM     56  C   UNL     1      -2.840  13.760   7.259  1.00  0.00     0.037 A 
ATOM     57  C   UNL     1      -7.004  10.485   2.505  1.00  0.00     0.037 A 
ATOM     58  C   UNL     1      -3.574  14.329   6.139  1.00  0.00     0.049 A 
ATOM     59  C   UNL     1      -7.433  11.876   2.901  1.00  0.00     0.074 A 
ATOM     60  C   UNL     1      -3.196  14.627   4.839  1.00  0.00     0.029 A 
ATOM     61  N   UNL     1      -4.962  14.386   6.168  1.00  0.00    -0.354 N 
ATOM     62  N   UNL     1      -6.698  12.680   3.615  1.00  0.00    -0.248 NA
ATOM     63  C   UNL     1      -8.739  12.447   2.583  1.00  0.00     0.031 C 
ATOM     64  C   UNL     1      -4.364  14.846   4.077  1.00  0.00     0.029 A 
ATOM     65  C   UNL     1      -5.454  14.690   4.913  1.00  0.00     0.049 A 
ATOM     66  H   UNL     1      -5.515  14.231   6.968  1.00  0.00     0.167 HD
ATOM     67  C   UNL     1      -7.404  13.824   3.885  1.00  0.00     0.074 A 
ATOM     68  C   UNL     1      -8.667  13.641   3.197  1.00  0.00     0.031 C 
ATOM     69  C   UNL     1      -6.881  14.811   4.671  1.00  0.00     0.037 A 
BRANCH  56  70
ATOM     70  C   UNL     1      -1.735  14.473   7.992  1.00  0.00     0.064 A 
ATOM     71  C   UNL     1      -0.952  15.464   7.365  1.00  0.00     0.173 A 
ATOM     72  C   UNL     1      -1.375  14.171   9.318  1.00  0.00     0.173 A 
ATOM     73  F   UNL     1      -1.237  15.913   6.138  1.00  0.00    -0.203 F 
ATOM     74  C   UNL     1       0.175  16.019   7.975  1.00  0.00     0.198 A 
ATOM     75  C   UNL     1      -0.219  14.689   9.909  1.00  0.00     0.198 A 
ATOM     76  F   UNL     1      -2.143  13.369  10.070  1.00  0.00    -0.203 F 
ATOM     77  F   UNL     1       0.896  16.943   7.323  1.00  0.00    -0.200 F 
ATOM     78  C   UNL     1       0.564  15.603   9.231  1.00  0.00     0.200 A 
ATOM     79  F   UNL     1       0.140  14.284  11.136  1.00  0.00    -0.200 F 
ATOM     80  F   UNL     1       1.680  16.089   9.790  1.00  0.00    -0.200 F 
ENDBRANCH  56  70
BRANCH  57  81
ATOM     81  C   UNL     1      -7.818   9.259   2.703  1.00  0.00     0.064 A 
ATOM     82  C   UNL     1      -7.660   8.198   1.791  1.00  0.00     0.173 A 
ATOM     83  C   UNL     1      -8.418   8.975   3.935  1.00  0.00     0.173 A 
ATOM     84  F   UNL     1      -7.082   8.419   0.599  1.00  0.00    -0.203 F 
ATOM     85  C   UNL     1      -7.971   6.888   2.146  1.00  0.00     0.198 A 
ATOM     86  C   UNL     1      -8.745   7.662   4.279  1.00  0.00     0.198 A 
ATOM     87  F   UNL     1      -8.579   9.940   4.850  1.00  0.00    -0.203 F 
ATOM     88  F   UNL     1      -7.690   5.884   1.303  1.00  0.00    -0.200 F 
ATOM     89  C   UNL     1      -8.488   6.619   3.401  1.00  0.00     0.200 A 
ATOM     90  F   UNL     1      -9.220   7.396   5.504  1.00  0.00    -0.200 F 
ATOM     91  F   UNL     1      -8.697   5.351   3.781  1.00  0.00    -0.200 F 
ENDBRANCH  57  81
BRANCH  69  92
ATOM     92  C   UNL     1      -7.604  16.024   5.201  1.00  0.00     0.064 A 
ATOM     93  C   UNL     1      -8.980  16.062   5.477  1.00  0.00     0.173 A 
ATOM     94  C   UNL     1      -6.873  17.174   5.592  1.00  0.00     0.173 A 
ATOM     95  F   UNL     1      -9.764  14.998   5.258  1.00  0.00    -0.203 F 
ATOM     96  C   UNL     1      -9.588  17.186   6.048  1.00  0.00     0.198 A 
ATOM     97  C   UNL     1      -7.474  18.270   6.211  1.00  0.00     0.198 A 
ATOM     98  F   UNL     1      -5.548  17.259   5.408  1.00  0.00    -0.203 F 
ATOM     99  F   UNL     1     -10.912  17.187   6.258  1.00  0.00    -0.200 F 
ATOM    100  C   UNL     1      -8.835  18.282   6.426  1.00  0.00     0.200 A 
ATOM    101  F   UNL     1      -6.720  19.302   6.615  1.00  0.00    -0.200 F 
ATOM    102  F   UNL     1      -9.416  19.336   7.014  1.00  0.00    -0.200 F 
ENDBRANCH  69  92
ENDBRANCH  43  44
ENDBRANCH  35  38
ENDBRANCH  33  34
ENDBRANCH  32  33
ENDBRANCH  31  32
ENDBRANCH  30  31
ENDBRANCH   1  30
TORSDOF 18
