REMARK SMILES Cc1ccccc1[C@@H]1[NH2+][C@@H](C(=O)NCCCCCCNC(=O)c2ccc(-c3c4nc(c(-c5c(F)c(F)c(F)c(F)c5F)c5ccc([nH]5)c(-c5c(F)c(F)c(F)c(F)c5F)c5nc(c(-c6c(F)c(F)c(F)c(F)c6F)c6ccc3[nH]6)C=C5)C=C4)cc2)CC2=c3ccccc3=N[C@@H]21
REMARK SMILES IDX 17 1 16 2 15 3 14 4 13 5 11 6 12 7 10 9 8 10 9 11 95 12
REMARK SMILES IDX 87 15 94 16 86 17 88 18 93 19 89 20 92 21 90 22 91 23 7 24
REMARK SMILES IDX 1 25 2 26 3 27 4 28 6 29 5 30 18 31 19 32 20 33 21 34 22 36
REMARK SMILES IDX 23 37 24 38 85 39 25 40 84 41 26 42 27 43 28 44 78 45 29 46
REMARK SMILES IDX 83 47 77 48 79 49 30 50 82 51 76 52 75 53 31 55 63 56 43 57
REMARK SMILES IDX 62 58 44 59 47 60 61 61 80 62 45 63 46 64 60 66 81 67 48 68
REMARK SMILES IDX 32 69 33 70 41 71 34 72 35 73 39 74 42 75 36 76 37 77 40 78
REMARK SMILES IDX 38 79 64 80 65 81 73 82 66 83 67 84 71 85 74 86 68 87 69 88
REMARK SMILES IDX 72 89 70 90 49 91 50 92 58 93 51 94 52 95 56 96 59 97 53 98
REMARK SMILES IDX 54 99 57 100 55 101
REMARK H PARENT 13 8 9 13 9 14 20 35 79 54 47 65
REMARK Flexibility Score: inf
ROOT
ATOM      1  C   UNL     1       4.019   4.658  -4.292  1.00  0.00     0.002 C 
ENDROOT
BRANCH   1   2
ATOM      2  C   UNL     1       3.072   4.126  -3.210  1.00  0.00     0.002 C 
BRANCH   2   3
ATOM      3  C   UNL     1       3.309   4.625  -1.775  1.00  0.00     0.021 C 
BRANCH   3   4
ATOM      4  C   UNL     1       2.943   6.091  -1.440  1.00  0.00     0.116 C 
BRANCH   4   5
ATOM      5  N   UNL     1       1.564   6.479  -1.079  1.00  0.00    -0.351 N 
ATOM      6  C   UNL     1       0.986   6.471   0.217  1.00  0.00     0.278 C 
ATOM      7  O   UNL     1       0.164   7.311   0.561  1.00  0.00    -0.268 OA
ATOM      8  H   UNL     1       0.983   6.775  -1.817  1.00  0.00     0.163 HD
BRANCH   6   9
ATOM      9  C   UNL     1       1.290   5.175   0.974  1.00  0.00     0.277 C 
ATOM     10  C   UNL     1       0.385   2.826   0.637  1.00  0.00     0.243 C 
ATOM     11  N   UNL     1       0.513   4.219   0.196  1.00  0.00    -0.327 N 
ATOM     12  C   UNL     1       1.588   2.366   1.571  1.00  0.00     0.196 C 
ATOM     13  H   UNL     1      -0.434   4.594   0.136  1.00  0.00     0.347 HD
ATOM     14  H   UNL     1       1.050   4.137  -0.667  1.00  0.00     0.347 HD
ATOM     15  C   UNL     1       2.076   3.550   2.450  1.00  0.00    -0.024 C 
ATOM     16  N   UNL     1       2.815   1.959   0.823  1.00  0.00    -0.270 NA
ATOM     17  C   UNL     1       1.209   4.822   2.455  1.00  0.00     0.109 C 
ATOM     18  C   UNL     1       3.416   3.654   2.412  1.00  0.00     0.002 A 
ATOM     19  C   UNL     1       3.760   2.690   1.340  1.00  0.00     0.066 A 
ATOM     20  C   UNL     1       4.271   4.790   2.663  1.00  0.00     0.010 A 
ATOM     21  C   UNL     1       5.145   2.775   0.809  1.00  0.00     0.028 A 
ATOM     22  C   UNL     1       5.439   4.896   2.009  1.00  0.00     0.001 A 
ATOM     23  C   UNL     1       5.899   3.845   1.119  1.00  0.00     0.002 A 
BRANCH  10  24
ATOM     24  C   UNL     1      -0.185   2.058  -0.600  1.00  0.00     0.015 A 
ATOM     25  C   UNL     1      -1.697   0.538   0.792  1.00  0.00     0.045 C 
ATOM     26  C   UNL     1      -1.235   1.124  -0.509  1.00  0.00    -0.042 A 
ATOM     27  C   UNL     1      -2.002   0.812  -1.663  1.00  0.00     0.004 A 
ATOM     28  C   UNL     1      -1.759   1.402  -2.903  1.00  0.00     0.000 A 
ATOM     29  C   UNL     1       0.088   2.538  -1.913  1.00  0.00     0.010 A 
ATOM     30  C   UNL     1      -0.698   2.266  -3.031  1.00  0.00     0.001 A 
ENDBRANCH  10  24
ENDBRANCH   6   9
ENDBRANCH   4   5
ENDBRANCH   3   4
ENDBRANCH   2   3
ENDBRANCH   1   2
BRANCH   1  31
ATOM     31  C   UNL     1       5.511   4.638  -3.955  1.00  0.00     0.021 C 
BRANCH  31  32
ATOM     32  C   UNL     1       6.112   3.244  -3.806  1.00  0.00     0.116 C 
BRANCH  32  33
ATOM     33  N   UNL     1       6.613   2.719  -5.064  1.00  0.00    -0.352 N 
ATOM     34  C   UNL     1       7.372   1.599  -5.348  1.00  0.00     0.251 C 
ATOM     35  H   UNL     1       6.370   3.255  -5.853  1.00  0.00     0.163 HD
ATOM     36  O   UNL     1       7.906   1.509  -6.436  1.00  0.00    -0.269 OA
BRANCH  34  37
ATOM     37  C   UNL     1       7.385   0.435  -4.420  1.00  0.00     0.039 A 
ATOM     38  C   UNL     1       7.405  -0.838  -5.015  1.00  0.00     0.014 A 
ATOM     39  C   UNL     1       7.162   0.551  -3.053  1.00  0.00     0.014 A 
ATOM     40  C   UNL     1       6.964  -1.947  -4.300  1.00  0.00     0.010 A 
ATOM     41  C   UNL     1       6.650  -0.526  -2.363  1.00  0.00     0.010 A 
ATOM     42  C   UNL     1       6.485  -1.753  -3.010  1.00  0.00    -0.014 A 
BRANCH  42  43
ATOM     43  C   UNL     1       5.752  -2.753  -2.254  1.00  0.00     0.031 A 
ATOM     44  C   UNL     1       6.451  -3.555  -1.237  1.00  0.00     0.074 A 
ATOM     45  C   UNL     1       4.410  -2.816  -2.390  1.00  0.00     0.049 A 
ATOM     46  N   UNL     1       5.991  -4.642  -0.721  1.00  0.00    -0.248 NA
ATOM     47  C   UNL     1       7.770  -3.194  -0.737  1.00  0.00     0.031 C 
ATOM     48  C   UNL     1       3.460  -3.511  -1.528  1.00  0.00     0.029 A 
ATOM     49  N   UNL     1       3.642  -2.405  -3.493  1.00  0.00    -0.354 N 
ATOM     50  C   UNL     1       6.796  -4.981   0.342  1.00  0.00     0.074 A 
ATOM     51  C   UNL     1       7.924  -4.083   0.248  1.00  0.00     0.031 C 
ATOM     52  C   UNL     1       2.350  -3.769  -2.237  1.00  0.00     0.029 A 
ATOM     53  C   UNL     1       2.618  -3.380  -3.610  1.00  0.00     0.049 A 
ATOM     54  H   UNL     1       3.784  -1.613  -4.061  1.00  0.00     0.167 HD
ATOM     55  C   UNL     1       6.341  -5.909   1.235  1.00  0.00     0.037 A 
ATOM     56  C   UNL     1       2.594  -4.222  -4.685  1.00  0.00     0.037 A 
ATOM     57  C   UNL     1       5.082  -6.500   0.775  1.00  0.00     0.049 A 
ATOM     58  C   UNL     1       2.795  -5.685  -4.346  1.00  0.00     0.074 A 
ATOM     59  C   UNL     1       3.743  -6.278   1.055  1.00  0.00     0.029 A 
ATOM     60  N   UNL     1       5.106  -7.274  -0.370  1.00  0.00    -0.354 N 
ATOM     61  N   UNL     1       3.068  -6.131  -3.151  1.00  0.00    -0.248 NA
ATOM     62  C   UNL     1       2.792  -6.753  -5.347  1.00  0.00     0.031 C 
ATOM     63  C   UNL     1       2.968  -6.895   0.028  1.00  0.00     0.029 A 
ATOM     64  C   UNL     1       3.837  -7.500  -0.862  1.00  0.00     0.049 A 
ATOM     65  H   UNL     1       5.929  -7.621  -0.784  1.00  0.00     0.167 HD
ATOM     66  C   UNL     1       3.313  -7.475  -3.211  1.00  0.00     0.074 A 
ATOM     67  C   UNL     1       3.124  -7.824  -4.606  1.00  0.00     0.031 C 
ATOM     68  C   UNL     1       3.691  -8.205  -2.124  1.00  0.00     0.037 A 
BRANCH  55  69
ATOM     69  C   UNL     1       6.906  -6.139   2.620  1.00  0.00     0.064 A 
ATOM     70  C   UNL     1       6.095  -6.690   3.638  1.00  0.00     0.173 A 
ATOM     71  C   UNL     1       8.207  -5.798   3.036  1.00  0.00     0.173 A 
ATOM     72  F   UNL     1       4.869  -7.162   3.378  1.00  0.00    -0.203 F 
ATOM     73  C   UNL     1       6.513  -6.782   4.970  1.00  0.00     0.198 A 
ATOM     74  C   UNL     1       8.608  -5.839   4.376  1.00  0.00     0.198 A 
ATOM     75  F   UNL     1       9.165  -5.482   2.161  1.00  0.00    -0.203 F 
ATOM     76  F   UNL     1       5.693  -7.312   5.888  1.00  0.00    -0.200 F 
ATOM     77  C   UNL     1       7.756  -6.321   5.346  1.00  0.00     0.200 A 
ATOM     78  F   UNL     1       9.834  -5.413   4.715  1.00  0.00    -0.200 F 
ATOM     79  F   UNL     1       8.143  -6.370   6.627  1.00  0.00    -0.200 F 
ENDBRANCH  55  69
BRANCH  56  80
ATOM     80  C   UNL     1       3.063  -3.550  -5.928  1.00  0.00     0.064 A 
ATOM     81  C   UNL     1       2.325  -2.445  -6.398  1.00  0.00     0.173 A 
ATOM     82  C   UNL     1       4.380  -3.688  -6.380  1.00  0.00     0.173 A 
ATOM     83  F   UNL     1       1.053  -2.273  -6.003  1.00  0.00    -0.203 F 
ATOM     84  C   UNL     1       2.924  -1.448  -7.163  1.00  0.00     0.198 A 
ATOM     85  C   UNL     1       4.970  -2.697  -7.167  1.00  0.00     0.198 A 
ATOM     86  F   UNL     1       5.136  -4.715  -5.966  1.00  0.00    -0.203 F 
ATOM     87  F   UNL     1       2.232  -0.345  -7.486  1.00  0.00    -0.200 F 
ATOM     88  C   UNL     1       4.257  -1.560  -7.519  1.00  0.00     0.200 A 
ATOM     89  F   UNL     1       6.262  -2.803  -7.510  1.00  0.00    -0.200 F 
ATOM     90  F   UNL     1       4.862  -0.558  -8.173  1.00  0.00    -0.200 F 
ENDBRANCH  56  80
BRANCH  68  91
ATOM     91  C   UNL     1       3.949  -9.678  -2.180  1.00  0.00     0.064 A 
ATOM     92  C   UNL     1       3.015 -10.572  -2.723  1.00  0.00     0.173 A 
ATOM     93  C   UNL     1       5.081 -10.245  -1.562  1.00  0.00     0.173 A 
ATOM     94  F   UNL     1       1.894 -10.119  -3.303  1.00  0.00    -0.203 F 
ATOM     95  C   UNL     1       3.212 -11.952  -2.665  1.00  0.00     0.198 A 
ATOM     96  C   UNL     1       5.249 -11.623  -1.458  1.00  0.00     0.198 A 
ATOM     97  F   UNL     1       6.061  -9.476  -1.064  1.00  0.00    -0.203 F 
ATOM     98  F   UNL     1       2.320 -12.775  -3.232  1.00  0.00    -0.200 F 
ATOM     99  C   UNL     1       4.318 -12.477  -2.017  1.00  0.00     0.200 A 
ATOM    100  F   UNL     1       6.317 -12.117  -0.816  1.00  0.00    -0.200 F 
ATOM    101  F   UNL     1       4.489 -13.803  -1.936  1.00  0.00    -0.200 F 
ENDBRANCH  68  91
ENDBRANCH  42  43
ENDBRANCH  34  37
ENDBRANCH  32  33
ENDBRANCH  31  32
ENDBRANCH   1  31
TORSDOF 14
