REMARK SMILES [NH3+]C[C@H]1CC[C@@H](C(=O)Nc2ccc(O)c(C(=O)NCCCCCCNC(=O)c3ccc(-c4c5nc(c(-c6c(F)c(F)c(F)c(F)c6F)c6ccc([nH]6)c(-c6c(F)c(F)c(F)c(F)c6F)c6nc(c(-c7c(F)c(F)c(F)c(F)c7F)c7ccc4[nH]7)C=C6)C=C5)cc3)c2)O1
REMARK SMILES IDX 20 1 19 2 18 3 16 4 17 5 15 7 10 8 11 9 91 10 12 11 13 12
REMARK SMILES IDX 9 13 7 14 8 15 6 17 3 18 4 19 92 20 5 21 2 22 1 23 14 27
REMARK SMILES IDX 21 29 22 30 23 31 24 32 25 33 26 34 27 36 28 37 29 38 90 39
REMARK SMILES IDX 30 40 89 41 31 42 32 43 33 44 83 45 34 46 88 47 82 48 84 49
REMARK SMILES IDX 35 50 87 51 81 52 80 53 36 55 68 56 48 57 67 58 49 59 52 60
REMARK SMILES IDX 66 61 85 62 50 63 51 64 65 66 86 67 53 68 37 69 38 70 46 71
REMARK SMILES IDX 39 72 40 73 44 74 47 75 41 76 42 77 45 78 43 79 69 80 70 81
REMARK SMILES IDX 78 82 71 83 72 84 76 85 79 86 73 87 74 88 77 89 75 90 54 91
REMARK SMILES IDX 55 92 63 93 56 94 57 95 61 96 64 97 58 98 59 99 62 100
REMARK SMILES IDX 60 101
REMARK H PARENT 18 6 9 16 1 24 1 25 1 26 14 28 25 35 84 54 52 65
REMARK Flexibility Score: inf
ROOT
ATOM      1  C   UNL     1       2.109  10.184   5.550  1.00  0.00     0.021 C 
ENDROOT
BRANCH   1   2
ATOM      2  C   UNL     1       0.927   9.625   4.752  1.00  0.00     0.116 C 
BRANCH   2   3
ATOM      3  N   UNL     1       0.871  10.244   3.450  1.00  0.00    -0.352 N 
ATOM      4  C   UNL     1       1.346   9.858   2.229  1.00  0.00     0.255 C 
ATOM      5  O   UNL     1       1.159  10.646   1.296  1.00  0.00    -0.269 OA
ATOM      6  H   UNL     1       0.400  11.108   3.439  1.00  0.00     0.163 HD
BRANCH   4   7
ATOM      7  C   UNL     1       1.992   8.549   1.916  1.00  0.00     0.083 A 
ATOM      8  C   UNL     1       2.228   6.874   0.163  1.00  0.00     0.042 A 
ATOM      9  C   UNL     1       3.191   6.206   0.909  1.00  0.00     0.030 A 
ATOM     10  C   UNL     1       1.707   8.080   0.618  1.00  0.00     0.043 A 
ATOM     11  C   UNL     1       3.477   6.637   2.197  1.00  0.00     0.049 A 
ATOM     12  C   UNL     1       2.849   7.777   2.712  1.00  0.00     0.128 A 
BRANCH   8  13
ATOM     13  N   UNL     1       1.804   6.377  -1.063  1.00  0.00    -0.324 N 
ATOM     14  C   UNL     1       1.356   5.121  -1.366  1.00  0.00     0.253 C 
ATOM     15  O   UNL     1       1.472   4.758  -2.542  1.00  0.00    -0.272 OA
ATOM     16  H   UNL     1       1.829   7.013  -1.814  1.00  0.00     0.170 HD
BRANCH  14  17
ATOM     17  C   UNL     1       0.538   4.267  -0.347  1.00  0.00     0.208 C 
ATOM     18  C   UNL     1       0.904   2.092   0.485  1.00  0.00     0.174 C 
ATOM     19  C   UNL     1       0.358   2.942   1.617  1.00  0.00     0.041 C 
ATOM     20  O   UNL     1       0.641   2.867  -0.701  1.00  0.00    -0.359 OA
ATOM     21  C   UNL     1       0.754   4.324   1.156  1.00  0.00     0.045 C 
BRANCH  18  22
ATOM     22  C   UNL     1       2.425   1.797   0.614  1.00  0.00     0.291 C 
BRANCH  22  23
ATOM     23  N   UNL     1       3.231   2.193  -0.545  1.00  0.00    -0.355 N 
ATOM     24  H   UNL     1       4.210   1.963  -0.373  1.00  0.00     0.344 HD
ATOM     25  H   UNL     1       3.139   3.197  -0.696  1.00  0.00     0.344 HD
ATOM     26  H   UNL     1       2.905   1.693  -1.372  1.00  0.00     0.344 HD
ENDBRANCH  22  23
ENDBRANCH  18  22
ENDBRANCH  14  17
ENDBRANCH   8  13
BRANCH  12  27
ATOM     27  O   UNL     1       3.156   8.078   4.003  1.00  0.00    -0.507 OA
ATOM     28  H   UNL     1       3.736   7.525   4.488  1.00  0.00     0.293 HD
ENDBRANCH  12  27
ENDBRANCH   4   7
ENDBRANCH   2   3
ENDBRANCH   1   2
BRANCH   1  29
ATOM     29  C   UNL     1       1.819  11.523   6.234  1.00  0.00     0.002 C 
BRANCH  29  30
ATOM     30  C   UNL     1       0.719  11.468   7.298  1.00  0.00     0.002 C 
BRANCH  30  31
ATOM     31  C   UNL     1       0.931  10.412   8.386  1.00  0.00     0.021 C 
BRANCH  31  32
ATOM     32  C   UNL     1       2.208  10.603   9.197  1.00  0.00     0.116 C 
BRANCH  32  33
ATOM     33  N   UNL     1       2.182  11.852   9.942  1.00  0.00    -0.352 N 
ATOM     34  C   UNL     1       2.261  12.055  11.292  1.00  0.00     0.251 C 
ATOM     35  H   UNL     1       2.096  12.668   9.397  1.00  0.00     0.163 HD
ATOM     36  O   UNL     1       1.954  13.147  11.776  1.00  0.00    -0.269 OA
BRANCH  34  37
ATOM     37  C   UNL     1       2.715  10.964  12.176  1.00  0.00     0.039 A 
ATOM     38  C   UNL     1       2.059  10.754  13.391  1.00  0.00     0.014 A 
ATOM     39  C   UNL     1       3.808  10.169  11.817  1.00  0.00     0.014 A 
ATOM     40  C   UNL     1       2.475   9.719  14.229  1.00  0.00     0.010 A 
ATOM     41  C   UNL     1       4.170   9.090  12.615  1.00  0.00     0.010 A 
ATOM     42  C   UNL     1       3.519   8.865  13.837  1.00  0.00    -0.014 A 
BRANCH  42  43
ATOM     43  C   UNL     1       3.963   7.747  14.705  1.00  0.00     0.031 A 
ATOM     44  C   UNL     1       5.353   7.746  15.277  1.00  0.00     0.074 A 
ATOM     45  C   UNL     1       3.135   6.710  14.930  1.00  0.00     0.049 A 
ATOM     46  N   UNL     1       5.948   6.837  16.009  1.00  0.00    -0.248 NA
ATOM     47  C   UNL     1       6.199   8.908  14.961  1.00  0.00     0.031 C 
ATOM     48  C   UNL     1       1.780   6.577  14.391  1.00  0.00     0.029 A 
ATOM     49  N   UNL     1       3.313   5.566  15.666  1.00  0.00    -0.354 N 
ATOM     50  C   UNL     1       7.235   7.311  16.227  1.00  0.00     0.074 A 
ATOM     51  C   UNL     1       7.356   8.556  15.500  1.00  0.00     0.031 C 
ATOM     52  C   UNL     1       1.241   5.431  14.836  1.00  0.00     0.029 A 
ATOM     53  C   UNL     1       2.223   4.731  15.658  1.00  0.00     0.049 A 
ATOM     54  H   UNL     1       4.144   5.362  16.154  1.00  0.00     0.167 HD
ATOM     55  C   UNL     1       8.217   6.771  16.987  1.00  0.00     0.037 A 
ATOM     56  C   UNL     1       2.040   3.533  16.245  1.00  0.00     0.037 A 
ATOM     57  C   UNL     1       8.081   5.543  17.725  1.00  0.00     0.049 A 
ATOM     58  C   UNL     1       3.150   2.950  17.078  1.00  0.00     0.074 A 
ATOM     59  C   UNL     1       8.995   4.936  18.568  1.00  0.00     0.029 A 
ATOM     60  N   UNL     1       6.955   4.732  17.706  1.00  0.00    -0.354 N 
ATOM     61  N   UNL     1       4.340   3.439  17.332  1.00  0.00    -0.248 NA
ATOM     62  C   UNL     1       2.887   1.652  17.714  1.00  0.00     0.031 C 
ATOM     63  C   UNL     1       8.443   3.731  19.016  1.00  0.00     0.029 A 
ATOM     64  C   UNL     1       7.161   3.617  18.503  1.00  0.00     0.049 A 
ATOM     65  H   UNL     1       6.131   4.920  17.200  1.00  0.00     0.167 HD
ATOM     66  C   UNL     1       4.953   2.529  18.183  1.00  0.00     0.074 A 
ATOM     67  C   UNL     1       3.998   1.465  18.411  1.00  0.00     0.031 C 
ATOM     68  C   UNL     1       6.194   2.572  18.727  1.00  0.00     0.037 A 
BRANCH  55  69
ATOM     69  C   UNL     1       9.526   7.507  17.055  1.00  0.00     0.064 A 
ATOM     70  C   UNL     1       9.641   8.749  17.699  1.00  0.00     0.173 A 
ATOM     71  C   UNL     1      10.685   6.952  16.494  1.00  0.00     0.173 A 
ATOM     72  F   UNL     1       8.562   9.331  18.243  1.00  0.00    -0.203 F 
ATOM     73  C   UNL     1      10.859   9.424  17.745  1.00  0.00     0.198 A 
ATOM     74  C   UNL     1      11.909   7.612  16.572  1.00  0.00     0.198 A 
ATOM     75  F   UNL     1      10.635   5.764  15.871  1.00  0.00    -0.203 F 
ATOM     76  F   UNL     1      10.931  10.635  18.313  1.00  0.00    -0.200 F 
ATOM     77  C   UNL     1      11.993   8.851  17.188  1.00  0.00     0.200 A 
ATOM     78  F   UNL     1      13.007   7.051  16.047  1.00  0.00    -0.200 F 
ATOM     79  F   UNL     1      13.165   9.499  17.239  1.00  0.00    -0.200 F 
ENDBRANCH  55  69
BRANCH  56  80
ATOM     80  C   UNL     1       0.745   2.821  16.091  1.00  0.00     0.064 A 
ATOM     81  C   UNL     1      -0.124   2.663  17.180  1.00  0.00     0.173 A 
ATOM     82  C   UNL     1       0.348   2.283  14.858  1.00  0.00     0.173 A 
ATOM     83  F   UNL     1       0.219   3.144  18.384  1.00  0.00    -0.203 F 
ATOM     84  C   UNL     1      -1.329   1.976  17.047  1.00  0.00     0.198 A 
ATOM     85  C   UNL     1      -0.871   1.622  14.719  1.00  0.00     0.198 A 
ATOM     86  F   UNL     1       1.139   2.413  13.782  1.00  0.00    -0.203 F 
ATOM     87  F   UNL     1      -2.117   1.798  18.116  1.00  0.00    -0.200 F 
ATOM     88  C   UNL     1      -1.704   1.461  15.816  1.00  0.00     0.200 A 
ATOM     89  F   UNL     1      -1.237   1.141  13.523  1.00  0.00    -0.200 F 
ATOM     90  F   UNL     1      -2.864   0.803  15.687  1.00  0.00    -0.200 F 
ENDBRANCH  56  80
BRANCH  68  91
ATOM     91  C   UNL     1       6.575   1.458  19.660  1.00  0.00     0.064 A 
ATOM     92  C   UNL     1       6.812   0.154  19.199  1.00  0.00     0.173 A 
ATOM     93  C   UNL     1       6.740   1.709  21.031  1.00  0.00     0.173 A 
ATOM     94  F   UNL     1       6.654  -0.142  17.900  1.00  0.00    -0.203 F 
ATOM     95  C   UNL     1       7.169  -0.863  20.081  1.00  0.00     0.198 A 
ATOM     96  C   UNL     1       7.131   0.698  21.904  1.00  0.00     0.198 A 
ATOM     97  F   UNL     1       6.534   2.940  21.522  1.00  0.00    -0.203 F 
ATOM     98  F   UNL     1       7.336  -2.112  19.626  1.00  0.00    -0.200 F 
ATOM     99  C   UNL     1       7.335  -0.589  21.430  1.00  0.00     0.200 A 
ATOM    100  F   UNL     1       7.307   0.969  23.204  1.00  0.00    -0.200 F 
ATOM    101  F   UNL     1       7.686  -1.567  22.276  1.00  0.00    -0.200 F 
ENDBRANCH  68  91
ENDBRANCH  42  43
ENDBRANCH  34  37
ENDBRANCH  32  33
ENDBRANCH  31  32
ENDBRANCH  30  31
ENDBRANCH  29  30
ENDBRANCH   1  29
TORSDOF 18
