REMARK SMILES O=C(COc1ccc2c(c1)O/C(=C\c1cccs1)C2=O)NCCCCCCNC(=O)c1ccc(-c2c3nc(c(-c4c(F)c(F)c(F)c(F)c4F)c4ccc([nH]4)c(-c4c(F)c(F)c(F)c(F)c4F)c4nc(c(-c5c(F)c(F)c(F)c(F)c5F)c5ccc2[nH]5)C=C4)C=C3)cc1
REMARK SMILES IDX 24 1 23 2 22 3 21 4 1 5 2 6 3 8 4 9 5 10 6 11 10 12 7 13
REMARK SMILES IDX 9 14 8 15 11 16 19 17 12 18 20 19 13 20 14 21 15 22 18 23
REMARK SMILES IDX 16 24 17 25 25 26 26 27 27 28 28 29 29 30 30 32 31 33 32 34
REMARK SMILES IDX 93 35 33 36 92 37 34 38 35 39 36 40 86 41 37 42 91 43 85 44
REMARK SMILES IDX 87 45 38 46 90 47 84 48 83 49 39 51 71 52 51 53 70 54 52 55
REMARK SMILES IDX 55 56 69 57 88 58 53 59 54 60 68 62 89 63 56 64 40 65 41 66
REMARK SMILES IDX 49 67 42 68 43 69 47 70 50 71 44 72 45 73 48 74 46 75 72 76
REMARK SMILES IDX 73 77 81 78 74 79 75 80 79 81 82 82 76 83 77 84 80 85 78 86
REMARK SMILES IDX 57 87 58 88 66 89 59 90 60 91 64 92 67 93 61 94 62 95 65 96
REMARK SMILES IDX 63 97
REMARK H PARENT 21 7 28 31 87 50 55 61
REMARK Flexibility Score: inf
ROOT
ATOM      1  C   UNL     1       4.196   3.683   0.431  1.00  0.00     0.002 C 
ENDROOT
BRANCH   1   2
ATOM      2  C   UNL     1       2.697   3.411   0.607  1.00  0.00     0.021 C 
BRANCH   2   3
ATOM      3  C   UNL     1       2.126   2.396  -0.375  1.00  0.00     0.116 C 
BRANCH   3   4
ATOM      4  N   UNL     1       2.761   1.103  -0.253  1.00  0.00    -0.353 N 
ATOM      5  O   UNL     1       0.971   0.014   0.698  1.00  0.00    -0.271 OA
ATOM      6  C   UNL     1       2.095  -0.015   0.205  1.00  0.00     0.257 C 
ATOM      7  H   UNL     1       3.708   1.016  -0.508  1.00  0.00     0.163 HD
BRANCH   6   8
ATOM      8  C   UNL     1       2.883  -1.314   0.030  1.00  0.00     0.329 C 
BRANCH   8   9
ATOM      9  O   UNL     1       3.750  -1.348  -1.105  1.00  0.00    -0.484 OA
BRANCH   9  10
ATOM     10  C   UNL     1       3.118  -1.663  -2.282  1.00  0.00     0.123 A 
ATOM     11  C   UNL     1       2.127  -0.831  -2.849  1.00  0.00     0.047 A 
ATOM     12  C   UNL     1       3.599  -2.776  -2.978  1.00  0.00     0.094 A 
ATOM     13  C   UNL     1       1.598  -1.094  -4.113  1.00  0.00     0.020 A 
ATOM     14  C   UNL     1       3.059  -3.030  -4.222  1.00  0.00     0.142 A 
ATOM     15  C   UNL     1       2.092  -2.195  -4.775  1.00  0.00     0.069 A 
ATOM     16  O   UNL     1       3.409  -4.066  -5.055  1.00  0.00    -0.452 OA
ATOM     17  C   UNL     1       1.795  -2.688  -6.110  1.00  0.00     0.232 C 
ATOM     18  C   UNL     1       2.670  -3.880  -6.222  1.00  0.00     0.176 C 
ATOM     19  O   UNL     1       1.023  -2.221  -6.920  1.00  0.00    -0.285 OA
ATOM     20  C   UNL     1       2.743  -4.627  -7.330  1.00  0.00     0.070 C 
BRANCH  20  21
ATOM     21  C   UNL     1       3.575  -5.775  -7.386  1.00  0.00     0.031 A 
ATOM     22  C   UNL     1       3.617  -6.866  -6.536  1.00  0.00     0.020 A 
ATOM     23  S   UNL     1       4.722  -5.945  -8.654  1.00  0.00    -0.144 S 
ATOM     24  C   UNL     1       4.611  -7.816  -6.902  1.00  0.00     0.012 A 
ATOM     25  C   UNL     1       5.301  -7.426  -8.027  1.00  0.00     0.065 A 
ENDBRANCH  20  21
ENDBRANCH   9  10
ENDBRANCH   8   9
ENDBRANCH   6   8
ENDBRANCH   3   4
ENDBRANCH   2   3
ENDBRANCH   1   2
BRANCH   1  26
ATOM     26  C   UNL     1       4.613   4.206  -0.948  1.00  0.00     0.002 C 
BRANCH  26  27
ATOM     27  C   UNL     1       3.916   5.492  -1.395  1.00  0.00     0.021 C 
BRANCH  27  28
ATOM     28  C   UNL     1       4.068   6.670  -0.439  1.00  0.00     0.116 C 
BRANCH  28  29
ATOM     29  N   UNL     1       5.453   7.091  -0.291  1.00  0.00    -0.352 N 
ATOM     30  C   UNL     1       6.005   8.341  -0.429  1.00  0.00     0.251 C 
ATOM     31  H   UNL     1       6.087   6.375  -0.058  1.00  0.00     0.163 HD
ATOM     32  O   UNL     1       7.223   8.481  -0.438  1.00  0.00    -0.269 OA
BRANCH  30  33
ATOM     33  C   UNL     1       5.128   9.520  -0.594  1.00  0.00     0.039 A 
ATOM     34  C   UNL     1       5.454  10.472  -1.564  1.00  0.00     0.014 A 
ATOM     35  C   UNL     1       3.990   9.688   0.198  1.00  0.00     0.014 A 
ATOM     36  C   UNL     1       4.601  11.555  -1.784  1.00  0.00     0.010 A 
ATOM     37  C   UNL     1       3.099  10.722  -0.078  1.00  0.00     0.010 A 
ATOM     38  C   UNL     1       3.396  11.667  -1.071  1.00  0.00    -0.014 A 
BRANCH  38  39
ATOM     39  C   UNL     1       2.430  12.756  -1.366  1.00  0.00     0.031 A 
ATOM     40  C   UNL     1       2.082  13.773  -0.316  1.00  0.00     0.074 A 
ATOM     41  C   UNL     1       1.814  12.791  -2.563  1.00  0.00     0.049 A 
ATOM     42  N   UNL     1       1.226  14.762  -0.370  1.00  0.00    -0.248 NA
ATOM     43  C   UNL     1       2.767  13.643   0.979  1.00  0.00     0.031 C 
ATOM     44  C   UNL     1       2.025  11.831  -3.647  1.00  0.00     0.029 A 
ATOM     45  N   UNL     1       0.877  13.660  -3.066  1.00  0.00    -0.354 N 
ATOM     46  C   UNL     1       1.264  15.364   0.880  1.00  0.00     0.074 A 
ATOM     47  C   UNL     1       2.177  14.589   1.693  1.00  0.00     0.031 C 
ATOM     48  C   UNL     1       1.259  12.175  -4.694  1.00  0.00     0.029 A 
ATOM     49  C   UNL     1       0.471  13.352  -4.341  1.00  0.00     0.049 A 
ATOM     50  H   UNL     1       0.530  14.430  -2.561  1.00  0.00     0.167 HD
ATOM     51  C   UNL     1       0.616  16.477   1.305  1.00  0.00     0.037 A 
ATOM     52  C   UNL     1      -0.444  13.943  -5.133  1.00  0.00     0.037 A 
ATOM     53  C   UNL     1      -0.291  17.244   0.491  1.00  0.00     0.049 A 
ATOM     54  C   UNL     1      -1.170  15.161  -4.634  1.00  0.00     0.074 A 
ATOM     55  C   UNL     1      -0.955  18.416   0.807  1.00  0.00     0.029 A 
ATOM     56  N   UNL     1      -0.675  16.904  -0.800  1.00  0.00    -0.354 N 
ATOM     57  N   UNL     1      -1.068  15.770  -3.478  1.00  0.00    -0.248 NA
ATOM     58  C   UNL     1      -2.135  15.779  -5.554  1.00  0.00     0.031 C 
ATOM     59  C   UNL     1      -1.791  18.748  -0.264  1.00  0.00     0.029 A 
ATOM     60  C   UNL     1      -1.595  17.825  -1.279  1.00  0.00     0.049 A 
ATOM     61  H   UNL     1      -0.344  16.125  -1.301  1.00  0.00     0.167 HD
ATOM     62  C   UNL     1      -1.933  16.854  -3.538  1.00  0.00     0.074 A 
ATOM     63  C   UNL     1      -2.540  16.829  -4.853  1.00  0.00     0.031 C 
ATOM     64  C   UNL     1      -2.200  17.786  -2.588  1.00  0.00     0.037 A 
BRANCH  51  65
ATOM     65  C   UNL     1       0.859  16.917   2.723  1.00  0.00     0.064 A 
ATOM     66  C   UNL     1       2.114  17.381   3.150  1.00  0.00     0.173 A 
ATOM     67  C   UNL     1      -0.177  16.880   3.668  1.00  0.00     0.173 A 
ATOM     68  F   UNL     1       3.144  17.431   2.292  1.00  0.00    -0.203 F 
ATOM     69  C   UNL     1       2.334  17.741   4.478  1.00  0.00     0.198 A 
ATOM     70  C   UNL     1       0.036  17.280   4.986  1.00  0.00     0.198 A 
ATOM     71  F   UNL     1      -1.401  16.456   3.317  1.00  0.00    -0.203 F 
ATOM     72  F   UNL     1       3.560  18.110   4.875  1.00  0.00    -0.200 F 
ATOM     73  C   UNL     1       1.294  17.695   5.393  1.00  0.00     0.200 A 
ATOM     74  F   UNL     1      -0.975  17.252   5.865  1.00  0.00    -0.200 F 
ATOM     75  F   UNL     1       1.507  18.041   6.670  1.00  0.00    -0.200 F 
ENDBRANCH  51  65
BRANCH  52  76
ATOM     76  C   UNL     1      -0.704  13.392  -6.489  1.00  0.00     0.064 A 
ATOM     77  C   UNL     1      -0.314  14.089  -7.641  1.00  0.00     0.173 A 
ATOM     78  C   UNL     1      -1.323  12.144  -6.660  1.00  0.00     0.173 A 
ATOM     79  F   UNL     1       0.264  15.294  -7.530  1.00  0.00    -0.203 F 
ATOM     80  C   UNL     1      -0.545  13.566  -8.912  1.00  0.00     0.198 A 
ATOM     81  C   UNL     1      -1.525  11.608  -7.930  1.00  0.00     0.198 A 
ATOM     82  F   UNL     1      -1.710  11.434  -5.591  1.00  0.00    -0.203 F 
ATOM     83  F   UNL     1      -0.196  14.271  -9.997  1.00  0.00    -0.200 F 
ATOM     84  C   UNL     1      -1.141  12.322  -9.055  1.00  0.00     0.200 A 
ATOM     85  F   UNL     1      -2.084  10.398  -8.063  1.00  0.00    -0.200 F 
ATOM     86  F   UNL     1      -1.349  11.813 -10.277  1.00  0.00    -0.200 F 
ENDBRANCH  52  76
BRANCH  64  87
ATOM     87  C   UNL     1      -3.172  18.876  -2.946  1.00  0.00     0.064 A 
ATOM     88  C   UNL     1      -4.541  18.621  -3.115  1.00  0.00     0.173 A 
ATOM     89  C   UNL     1      -2.731  20.202  -3.083  1.00  0.00     0.173 A 
ATOM     90  F   UNL     1      -5.013  17.370  -3.009  1.00  0.00    -0.203 F 
ATOM     91  C   UNL     1      -5.427  19.647  -3.438  1.00  0.00     0.198 A 
ATOM     92  C   UNL     1      -3.625  21.230  -3.370  1.00  0.00     0.198 A 
ATOM     93  F   UNL     1      -1.434  20.505  -2.925  1.00  0.00    -0.203 F 
ATOM     94  F   UNL     1      -6.721  19.370  -3.649  1.00  0.00    -0.200 F 
ATOM     95  C   UNL     1      -4.970  20.951  -3.557  1.00  0.00     0.200 A 
ATOM     96  F   UNL     1      -3.184  22.492  -3.466  1.00  0.00    -0.200 F 
ATOM     97  F   UNL     1      -5.825  21.938  -3.858  1.00  0.00    -0.200 F 
ENDBRANCH  64  87
ENDBRANCH  38  39
ENDBRANCH  30  33
ENDBRANCH  28  29
ENDBRANCH  27  28
ENDBRANCH  26  27
ENDBRANCH   1  26
TORSDOF 16
