REMARK SMILES O=C(N[C@@H]1C=C[C@@H](C(=O)NCCCCCCNC(=O)c2ccc(-c3c4nc(c(-c5c(F)c(F)c(F)c(F)c5F)c5ccc([nH]5)c(-c5c(F)c(F)c(F)c(F)c5F)c5nc(c(-c6c(F)c(F)c(F)c(F)c6F)c6ccc3[nH]6)C=C5)C=C4)cc2)C1)N[C@H]1CCCc2sccc21
REMARK SMILES IDX 13 1 12 2 11 3 10 4 8 5 9 6 7 8 4 9 5 10 83 11 6 12 3 13
REMARK SMILES IDX 1 14 2 15 84 16 85 19 86 20 93 21 87 22 89 23 92 24 88 25
REMARK SMILES IDX 90 26 91 27 14 28 15 29 16 30 17 31 18 32 19 34 20 35 21 36
REMARK SMILES IDX 82 37 22 38 81 39 23 40 24 41 25 42 75 43 26 44 80 45 74 46
REMARK SMILES IDX 76 47 27 48 79 49 73 50 72 51 28 53 60 54 40 55 59 56 41 57
REMARK SMILES IDX 44 58 58 59 77 60 42 61 43 62 57 64 78 65 45 66 29 67 30 68
REMARK SMILES IDX 38 69 31 70 32 71 36 72 39 73 33 74 34 75 37 76 35 77 61 78
REMARK SMILES IDX 62 79 70 80 63 81 64 82 68 83 71 84 65 85 66 86 69 87 67 88
REMARK SMILES IDX 46 89 47 90 55 91 48 92 49 93 53 94 56 95 50 96 51 97 54 98
REMARK SMILES IDX 52 99
REMARK H PARENT 10 7 3 17 84 18 17 33 76 52 44 63
REMARK Flexibility Score: inf
ROOT
ATOM      1  C   UNL     1      -2.438   6.621   3.729  1.00  0.00     0.002 C 
ENDROOT
BRANCH   1   2
ATOM      2  C   UNL     1      -2.256   5.276   3.023  1.00  0.00     0.021 C 
BRANCH   2   3
ATOM      3  C   UNL     1      -1.953   4.119   3.970  1.00  0.00     0.116 C 
BRANCH   3   4
ATOM      4  N   UNL     1      -3.106   3.792   4.784  1.00  0.00    -0.356 N 
ATOM      5  C   UNL     1      -3.854   2.656   4.849  1.00  0.00     0.227 C 
ATOM      6  O   UNL     1      -4.823   2.655   5.613  1.00  0.00    -0.274 OA
ATOM      7  H   UNL     1      -3.398   4.510   5.390  1.00  0.00     0.163 HD
BRANCH   5   8
ATOM      8  C   UNL     1      -3.526   1.422   4.013  1.00  0.00     0.103 C 
ATOM      9  C   UNL     1      -2.390   0.913   1.916  1.00  0.00     0.107 C 
ATOM     10  C   UNL     1      -1.500   0.671   3.094  1.00  0.00    -0.006 C 
ATOM     11  C   UNL     1      -3.592   1.659   2.499  1.00  0.00     0.047 C 
ATOM     12  C   UNL     1      -2.129   0.923   4.247  1.00  0.00    -0.016 C 
BRANCH   9  13
ATOM     13  N   UNL     1      -2.665  -0.363   1.304  1.00  0.00    -0.332 N 
ATOM     14  O   UNL     1      -2.797  -2.282   2.456  1.00  0.00    -0.249 OA
ATOM     15  C   UNL     1      -3.388  -1.356   1.903  1.00  0.00     0.315 C 
ATOM     16  N   UNL     1      -4.696  -1.341   1.529  1.00  0.00    -0.331 N 
ATOM     17  H   UNL     1      -2.311  -0.528   0.400  1.00  0.00     0.165 HD
ATOM     18  H   UNL     1      -5.225  -0.535   1.731  1.00  0.00     0.166 HD
BRANCH  16  19
ATOM     19  C   UNL     1      -5.362  -2.441   0.850  1.00  0.00     0.115 C 
ATOM     20  C   UNL     1      -4.864  -2.559  -0.606  1.00  0.00     0.030 C 
ATOM     21  C   UNL     1      -5.226  -3.760   1.535  1.00  0.00    -0.012 A 
ATOM     22  C   UNL     1      -3.470  -3.200  -0.760  1.00  0.00     0.008 C 
ATOM     23  C   UNL     1      -4.203  -4.628   1.200  1.00  0.00     0.010 A 
ATOM     24  C   UNL     1      -6.104  -4.339   2.501  1.00  0.00     0.018 A 
ATOM     25  C   UNL     1      -3.109  -4.332   0.222  1.00  0.00     0.047 C 
ATOM     26  S   UNL     1      -4.276  -6.094   2.059  1.00  0.00    -0.149 S 
ATOM     27  C   UNL     1      -5.703  -5.606   2.868  1.00  0.00     0.065 A 
ENDBRANCH  16  19
ENDBRANCH   9  13
ENDBRANCH   5   8
ENDBRANCH   3   4
ENDBRANCH   2   3
ENDBRANCH   1   2
BRANCH   1  28
ATOM     28  C   UNL     1      -1.271   7.034   4.631  1.00  0.00     0.002 C 
BRANCH  28  29
ATOM     29  C   UNL     1       0.108   6.997   3.965  1.00  0.00     0.021 C 
BRANCH  29  30
ATOM     30  C   UNL     1       0.215   7.816   2.684  1.00  0.00     0.116 C 
BRANCH  30  31
ATOM     31  N   UNL     1      -0.072   9.222   2.914  1.00  0.00    -0.352 N 
ATOM     32  C   UNL     1       0.684  10.316   2.596  1.00  0.00     0.251 C 
ATOM     33  H   UNL     1      -0.929   9.412   3.359  1.00  0.00     0.163 HD
ATOM     34  O   UNL     1       0.391  11.427   3.039  1.00  0.00    -0.269 OA
BRANCH  32  35
ATOM     35  C   UNL     1       1.865  10.160   1.727  1.00  0.00     0.039 A 
ATOM     36  C   UNL     1       3.067  10.763   2.104  1.00  0.00     0.014 A 
ATOM     37  C   UNL     1       1.779   9.432   0.535  1.00  0.00     0.014 A 
ATOM     38  C   UNL     1       4.199  10.602   1.306  1.00  0.00     0.010 A 
ATOM     39  C   UNL     1       2.923   9.223  -0.229  1.00  0.00     0.010 A 
ATOM     40  C   UNL     1       4.139   9.814   0.144  1.00  0.00    -0.014 A 
BRANCH  40  41
ATOM     41  C   UNL     1       5.337   9.615  -0.706  1.00  0.00     0.031 A 
ATOM     42  C   UNL     1       5.371  10.183  -2.096  1.00  0.00     0.074 A 
ATOM     43  C   UNL     1       6.362   8.871  -0.248  1.00  0.00     0.049 A 
ATOM     44  N   UNL     1       6.289  10.055  -3.020  1.00  0.00    -0.248 NA
ATOM     45  C   UNL     1       4.206  10.979  -2.514  1.00  0.00     0.031 C 
ATOM     46  C   UNL     1       6.419   8.226   1.065  1.00  0.00     0.029 A 
ATOM     47  N   UNL     1       7.546   8.517  -0.844  1.00  0.00    -0.354 N 
ATOM     48  C   UNL     1       5.803  10.732  -4.131  1.00  0.00     0.074 A 
ATOM     49  C   UNL     1       4.494  11.237  -3.782  1.00  0.00     0.031 C 
ATOM     50  C   UNL     1       7.582   7.565   1.179  1.00  0.00     0.029 A 
ATOM     51  C   UNL     1       8.338   7.714  -0.061  1.00  0.00     0.049 A 
ATOM     52  H   UNL     1       7.803   8.812  -1.747  1.00  0.00     0.167 HD
ATOM     53  C   UNL     1       6.407  10.931  -5.326  1.00  0.00     0.037 A 
ATOM     54  C   UNL     1       9.535   7.155  -0.320  1.00  0.00     0.037 A 
ATOM     55  C   UNL     1       7.729  10.465  -5.652  1.00  0.00     0.049 A 
ATOM     56  C   UNL     1      10.195   7.419  -1.646  1.00  0.00     0.074 A 
ATOM     57  C   UNL     1       8.459  10.681  -6.807  1.00  0.00     0.029 A 
ATOM     58  N   UNL     1       8.520   9.692  -4.815  1.00  0.00    -0.354 N 
ATOM     59  N   UNL     1       9.757   8.122  -2.662  1.00  0.00    -0.248 NA
ATOM     60  C   UNL     1      11.520   6.820  -1.858  1.00  0.00     0.031 C 
ATOM     61  C   UNL     1       9.679  10.008  -6.685  1.00  0.00     0.029 A 
ATOM     62  C   UNL     1       9.725   9.408  -5.437  1.00  0.00     0.049 A 
ATOM     63  H   UNL     1       8.263   9.390  -3.914  1.00  0.00     0.167 HD
ATOM     64  C   UNL     1      10.760   8.074  -3.620  1.00  0.00     0.074 A 
ATOM     65  C   UNL     1      11.836   7.284  -3.059  1.00  0.00     0.031 C 
ATOM     66  C   UNL     1      10.788   8.631  -4.854  1.00  0.00     0.037 A 
BRANCH  53  67
ATOM     67  C   UNL     1       5.651  11.694  -6.372  1.00  0.00     0.064 A 
ATOM     68  C   UNL     1       5.448  13.078  -6.269  1.00  0.00     0.173 A 
ATOM     69  C   UNL     1       5.175  11.043  -7.521  1.00  0.00     0.173 A 
ATOM     70  F   UNL     1       5.874  13.743  -5.184  1.00  0.00    -0.203 F 
ATOM     71  C   UNL     1       4.780  13.780  -7.269  1.00  0.00     0.198 A 
ATOM     72  C   UNL     1       4.530  11.753  -8.530  1.00  0.00     0.198 A 
ATOM     73  F   UNL     1       5.346   9.721  -7.669  1.00  0.00    -0.203 F 
ATOM     74  F   UNL     1       4.566  15.096  -7.132  1.00  0.00    -0.200 F 
ATOM     75  C   UNL     1       4.330  13.119  -8.402  1.00  0.00     0.200 A 
ATOM     76  F   UNL     1       4.105  11.115  -9.629  1.00  0.00    -0.200 F 
ATOM     77  F   UNL     1       3.698  13.799  -9.368  1.00  0.00    -0.200 F 
ENDBRANCH  53  67
BRANCH  54  78
ATOM     78  C   UNL     1      10.197   6.306   0.703  1.00  0.00     0.064 A 
ATOM     79  C   UNL     1      11.351   6.747   1.367  1.00  0.00     0.173 A 
ATOM     80  C   UNL     1       9.702   5.035   1.028  1.00  0.00     0.173 A 
ATOM     81  F   UNL     1      11.873   7.948   1.076  1.00  0.00    -0.203 F 
ATOM     82  C   UNL     1      11.999   5.938   2.298  1.00  0.00     0.198 A 
ATOM     83  C   UNL     1      10.335   4.238   1.978  1.00  0.00     0.198 A 
ATOM     84  F   UNL     1       8.598   4.571   0.425  1.00  0.00    -0.203 F 
ATOM     85  F   UNL     1      13.127   6.364   2.881  1.00  0.00    -0.200 F 
ATOM     86  C   UNL     1      11.488   4.686   2.606  1.00  0.00     0.200 A 
ATOM     87  F   UNL     1       9.832   3.034   2.283  1.00  0.00    -0.200 F 
ATOM     88  F   UNL     1      12.112   3.907   3.500  1.00  0.00    -0.200 F 
ENDBRANCH  54  78
BRANCH  66  89
ATOM     89  C   UNL     1      12.032   8.437  -5.668  1.00  0.00     0.064 A 
ATOM     90  C   UNL     1      12.336   7.204  -6.261  1.00  0.00     0.173 A 
ATOM     91  C   UNL     1      12.908   9.511  -5.891  1.00  0.00     0.173 A 
ATOM     92  F   UNL     1      11.537   6.145  -6.063  1.00  0.00    -0.203 F 
ATOM     93  C   UNL     1      13.484   7.046  -7.032  1.00  0.00     0.198 A 
ATOM     94  C   UNL     1      14.040   9.357  -6.684  1.00  0.00     0.198 A 
ATOM     95  F   UNL     1      12.656  10.712  -5.350  1.00  0.00    -0.203 F 
ATOM     96  F   UNL     1      13.777   5.848  -7.556  1.00  0.00    -0.200 F 
ATOM     97  C   UNL     1      14.331   8.124  -7.249  1.00  0.00     0.200 A 
ATOM     98  F   UNL     1      14.851  10.401  -6.903  1.00  0.00    -0.200 F 
ATOM     99  F   UNL     1      15.431   7.971  -7.998  1.00  0.00    -0.200 F 
ENDBRANCH  66  89
ENDBRANCH  40  41
ENDBRANCH  32  35
ENDBRANCH  30  31
ENDBRANCH  29  30
ENDBRANCH  28  29
ENDBRANCH   1  28
TORSDOF 15
