REMARK SMILES Cc1cccc2c1[C@H]1c3c(C)cccc3[C@H](CC(=O)NCCCCCCNC(=O)c3ccc(-c4c5nc(c(-c6c(F)c(F)c(F)c(F)c6F)c6ccc([nH]6)c(-c6c(F)c(F)c(F)c(F)c6F)c6nc(c(-c7c(F)c(F)c(F)c(F)c7F)c7ccc4[nH]7)C=C6)C=C5)cc3)C[C@H]1CC2
REMARK SMILES IDX 24 1 23 2 22 3 21 4 20 5 18 6 19 7 17 9 16 10 1 11 2 12 3 13
REMARK SMILES IDX 7 14 4 15 6 16 8 17 5 18 96 19 9 20 94 21 95 22 10 23 15 24
REMARK SMILES IDX 93 25 12 26 11 27 14 28 13 29 25 30 26 31 27 32 28 33 29 35
REMARK SMILES IDX 30 36 31 37 92 38 32 39 91 40 33 41 34 42 35 43 85 44 36 45
REMARK SMILES IDX 90 46 84 47 86 48 37 49 89 50 83 51 82 52 38 54 70 55 50 56
REMARK SMILES IDX 69 57 51 58 54 59 68 60 87 61 52 62 53 63 67 65 88 66 55 67
REMARK SMILES IDX 39 68 40 69 48 70 41 71 42 72 46 73 49 74 43 75 44 76 47 77
REMARK SMILES IDX 45 78 71 79 72 80 80 81 73 82 74 83 78 84 81 85 75 86 76 87
REMARK SMILES IDX 79 88 77 89 56 90 57 91 65 92 58 93 59 94 63 95 66 96 60 97
REMARK SMILES IDX 61 98 64 99 62 100
REMARK H PARENT 20 8 27 34 86 53 54 64
REMARK Flexibility Score: inf
ROOT
ATOM      1  C   UNL     1      -3.712  -8.921   5.791  1.00  0.00     0.002 C 
ENDROOT
BRANCH   1   2
ATOM      2  C   UNL     1      -3.963  -7.891   4.684  1.00  0.00     0.002 C 
BRANCH   2   3
ATOM      3  C   UNL     1      -2.854  -6.838   4.529  1.00  0.00     0.021 C 
BRANCH   3   4
ATOM      4  C   UNL     1      -1.532  -7.436   4.033  1.00  0.00     0.116 C 
BRANCH   4   5
ATOM      5  N   UNL     1      -1.687  -7.843   2.650  1.00  0.00    -0.356 N 
ATOM      6  C   UNL     1      -1.487  -7.151   1.496  1.00  0.00     0.220 C 
ATOM      7  O   UNL     1      -2.051  -7.570   0.482  1.00  0.00    -0.275 OA
ATOM      8  H   UNL     1      -1.984  -8.773   2.526  1.00  0.00     0.163 HD
BRANCH   6   9
ATOM      9  C   UNL     1      -0.473  -6.029   1.405  1.00  0.00     0.108 C 
BRANCH   9  10
ATOM     10  C   UNL     1      -0.666  -4.765   2.269  1.00  0.00     0.029 C 
ATOM     11  C   UNL     1       0.739   0.354  -0.238  1.00  0.00     0.044 C 
ATOM     12  C   UNL     1       0.283   0.636   1.172  1.00  0.00    -0.047 A 
ATOM     13  C   UNL     1       0.357   1.978   1.591  1.00  0.00     0.004 A 
ATOM     14  C   UNL     1      -0.233  -0.344   2.060  1.00  0.00    -0.034 A 
ATOM     15  C   UNL     1      -0.089   2.365   2.849  1.00  0.00     0.001 A 
ATOM     16  C   UNL     1      -0.798   0.085   3.286  1.00  0.00    -0.044 A 
ATOM     17  C   UNL     1      -0.208  -1.841   1.743  1.00  0.00     0.053 C 
ATOM     18  C   UNL     1      -0.687   1.429   3.680  1.00  0.00     0.004 A 
ATOM     19  C   UNL     1      -1.644  -0.818   4.153  1.00  0.00     0.036 C 
ATOM     20  C   UNL     1       0.941  -2.704   2.334  1.00  0.00    -0.034 A 
ATOM     21  C   UNL     1      -1.592  -2.400   2.159  1.00  0.00     0.002 C 
ATOM     22  C   UNL     1      -1.796  -2.261   3.677  1.00  0.00     0.009 C 
ATOM     23  C   UNL     1       2.255  -2.233   2.627  1.00  0.00    -0.047 A 
ATOM     24  C   UNL     1       0.681  -4.090   2.562  1.00  0.00    -0.040 A 
ATOM     25  C   UNL     1      -1.716  -3.837   1.651  1.00  0.00     0.013 C 
ATOM     26  C   UNL     1       3.219  -3.105   3.182  1.00  0.00     0.004 A 
ATOM     27  C   UNL     1       2.751  -0.831   2.402  1.00  0.00     0.044 C 
ATOM     28  C   UNL     1       1.665  -4.904   3.171  1.00  0.00     0.004 A 
ATOM     29  C   UNL     1       2.926  -4.424   3.466  1.00  0.00     0.001 A 
ENDBRANCH   9  10
ENDBRANCH   6   9
ENDBRANCH   4   5
ENDBRANCH   3   4
ENDBRANCH   2   3
ENDBRANCH   1   2
BRANCH   1  30
ATOM     30  C   UNL     1      -3.595  -8.325   7.196  1.00  0.00     0.021 C 
BRANCH  30  31
ATOM     31  C   UNL     1      -4.858  -7.618   7.675  1.00  0.00     0.116 C 
BRANCH  31  32
ATOM     32  N   UNL     1      -5.950  -8.557   7.882  1.00  0.00    -0.352 N 
ATOM     33  C   UNL     1      -6.710  -8.741   9.011  1.00  0.00     0.251 C 
ATOM     34  H   UNL     1      -6.173  -9.133   7.115  1.00  0.00     0.163 HD
ATOM     35  O   UNL     1      -7.459  -9.700   9.123  1.00  0.00    -0.269 OA
BRANCH  33  36
ATOM     36  C   UNL     1      -6.597  -7.755  10.101  1.00  0.00     0.039 A 
ATOM     37  C   UNL     1      -6.288  -8.194  11.390  1.00  0.00     0.014 A 
ATOM     38  C   UNL     1      -6.778  -6.395   9.829  1.00  0.00     0.014 A 
ATOM     39  C   UNL     1      -6.113  -7.257  12.408  1.00  0.00     0.010 A 
ATOM     40  C   UNL     1      -6.562  -5.461  10.835  1.00  0.00     0.010 A 
ATOM     41  C   UNL     1      -6.232  -5.886  12.131  1.00  0.00    -0.014 A 
BRANCH  41  42
ATOM     42  C   UNL     1      -6.050  -4.870  13.192  1.00  0.00     0.031 A 
ATOM     43  C   UNL     1      -7.241  -4.114  13.701  1.00  0.00     0.074 A 
ATOM     44  C   UNL     1      -4.815  -4.592  13.648  1.00  0.00     0.049 A 
ATOM     45  N   UNL     1      -7.289  -3.122  14.552  1.00  0.00    -0.248 NA
ATOM     46  C   UNL     1      -8.553  -4.517  13.168  1.00  0.00     0.031 C 
ATOM     47  C   UNL     1      -3.584  -5.254  13.216  1.00  0.00     0.029 A 
ATOM     48  N   UNL     1      -4.391  -3.667  14.569  1.00  0.00    -0.354 N 
ATOM     49  C   UNL     1      -8.631  -2.783  14.656  1.00  0.00     0.074 A 
ATOM     50  C   UNL     1      -9.360  -3.641  13.748  1.00  0.00     0.031 C 
ATOM     51  C   UNL     1      -2.544  -4.721  13.878  1.00  0.00     0.029 A 
ATOM     52  C   UNL     1      -3.031  -3.660  14.756  1.00  0.00     0.049 A 
ATOM     53  H   UNL     1      -5.005  -3.066  15.051  1.00  0.00     0.167 HD
ATOM     54  C   UNL     1      -9.203  -1.853  15.454  1.00  0.00     0.037 A 
ATOM     55  C   UNL     1      -2.268  -2.879  15.543  1.00  0.00     0.037 A 
ATOM     56  C   UNL     1      -8.474  -1.008  16.362  1.00  0.00     0.049 A 
ATOM     57  C   UNL     1      -2.927  -1.828  16.396  1.00  0.00     0.074 A 
ATOM     58  C   UNL     1      -8.963  -0.040  17.221  1.00  0.00     0.029 A 
ATOM     59  N   UNL     1      -7.097  -1.035  16.529  1.00  0.00    -0.354 N 
ATOM     60  N   UNL     1      -4.199  -1.531  16.505  1.00  0.00    -0.248 NA
ATOM     61  C   UNL     1      -2.045  -1.008  17.238  1.00  0.00     0.031 C 
ATOM     62  C   UNL     1      -7.880   0.540  17.888  1.00  0.00     0.029 A 
ATOM     63  C   UNL     1      -6.720  -0.096  17.474  1.00  0.00     0.049 A 
ATOM     64  H   UNL     1      -6.481  -1.633  16.048  1.00  0.00     0.167 HD
ATOM     65  C   UNL     1      -4.274  -0.515  17.448  1.00  0.00     0.074 A 
ATOM     66  C   UNL     1      -2.919  -0.251  17.886  1.00  0.00     0.031 C 
ATOM     67  C   UNL     1      -5.367   0.138  17.910  1.00  0.00     0.037 A 
BRANCH  54  68
ATOM     68  C   UNL     1     -10.693  -1.708  15.395  1.00  0.00     0.064 A 
ATOM     69  C   UNL     1     -11.540  -2.675  15.956  1.00  0.00     0.173 A 
ATOM     70  C   UNL     1     -11.280  -0.569  14.825  1.00  0.00     0.173 A 
ATOM     71  F   UNL     1     -11.026  -3.789  16.499  1.00  0.00    -0.203 F 
ATOM     72  C   UNL     1     -12.922  -2.512  15.939  1.00  0.00     0.198 A 
ATOM     73  C   UNL     1     -12.661  -0.397  14.832  1.00  0.00     0.198 A 
ATOM     74  F   UNL     1     -10.512   0.385  14.277  1.00  0.00    -0.203 F 
ATOM     75  F   UNL     1     -13.714  -3.463  16.454  1.00  0.00    -0.200 F 
ATOM     76  C   UNL     1     -13.481  -1.369  15.386  1.00  0.00     0.200 A 
ATOM     77  F   UNL     1     -13.200   0.712  14.306  1.00  0.00    -0.200 F 
ATOM     78  F   UNL     1     -14.811  -1.207  15.383  1.00  0.00    -0.200 F 
ENDBRANCH  54  68
BRANCH  55  79
ATOM     79  C   UNL     1      -0.798  -3.081  15.586  1.00  0.00     0.064 A 
ATOM     80  C   UNL     1      -0.185  -3.631  16.721  1.00  0.00     0.173 A 
ATOM     81  C   UNL     1       0.023  -2.735  14.503  1.00  0.00     0.173 A 
ATOM     82  F   UNL     1      -0.927  -3.958  17.789  1.00  0.00    -0.203 F 
ATOM     83  C   UNL     1       1.195  -3.814  16.776  1.00  0.00     0.198 A 
ATOM     84  C   UNL     1       1.400  -2.941  14.551  1.00  0.00     0.198 A 
ATOM     85  F   UNL     1      -0.516  -2.208  13.394  1.00  0.00    -0.203 F 
ATOM     86  F   UNL     1       1.758  -4.307  17.887  1.00  0.00    -0.200 F 
ATOM     87  C   UNL     1       1.986  -3.474  15.689  1.00  0.00     0.200 A 
ATOM     88  F   UNL     1       2.160  -2.622  13.494  1.00  0.00    -0.200 F 
ATOM     89  F   UNL     1       3.312  -3.654  15.741  1.00  0.00    -0.200 F 
ENDBRANCH  55  79
BRANCH  67  90
ATOM     90  C   UNL     1      -5.156   1.174  18.974  1.00  0.00     0.064 A 
ATOM     91  C   UNL     1      -4.603   2.428  18.678  1.00  0.00     0.173 A 
ATOM     92  C   UNL     1      -5.576   0.931  20.291  1.00  0.00     0.173 A 
ATOM     93  F   UNL     1      -4.176   2.701  17.436  1.00  0.00    -0.203 F 
ATOM     94  C   UNL     1      -4.463   3.397  19.668  1.00  0.00     0.198 A 
ATOM     95  C   UNL     1      -5.458   1.911  21.271  1.00  0.00     0.198 A 
ATOM     96  F   UNL     1      -6.119  -0.251  20.620  1.00  0.00    -0.203 F 
ATOM     97  F   UNL     1      -3.901   4.577  19.372  1.00  0.00    -0.200 F 
ATOM     98  C   UNL     1      -4.899   3.141  20.960  1.00  0.00     0.200 A 
ATOM     99  F   UNL     1      -5.892   1.668  22.516  1.00  0.00    -0.200 F 
ATOM    100  F   UNL     1      -4.775   4.080  21.908  1.00  0.00    -0.200 F 
ENDBRANCH  67  90
ENDBRANCH  41  42
ENDBRANCH  33  36
ENDBRANCH  31  32
ENDBRANCH  30  31
ENDBRANCH   1  30
TORSDOF 14
