REMARK SMILES O=C(C[C@@H]([NH2+]Cc1cccnc1)C(=O)NCCCCCCNC(=O)c1ccc(-c2c3nc(c(-c4c(F)c(F)c(F)c(F)c4F)c4ccc([nH]4)c(-c4c(F)c(F)c(F)c(F)c4F)c4nc(c(-c5c(F)c(F)c(F)c(F)c5F)c5ccc2[nH]5)C=C4)C=C3)cc1)Nc1ccc2ccccc2c1
REMARK SMILES IDX 18 1 17 2 16 3 15 4 13 5 14 6 4 8 3 9 2 10 1 11 88 12 89 14
REMARK SMILES IDX 90 15 98 16 91 17 97 18 92 19 96 20 93 21 95 22 94 23 5 24
REMARK SMILES IDX 6 27 7 28 8 29 12 30 9 31 11 32 10 33 19 34 20 35 21 36
REMARK SMILES IDX 22 37 23 38 24 40 25 41 26 42 87 43 27 44 86 45 28 46 29 47
REMARK SMILES IDX 30 48 80 49 31 50 85 51 79 52 81 53 32 54 84 55 78 56 77 57
REMARK SMILES IDX 33 59 65 60 45 61 64 62 46 63 49 64 63 65 82 66 47 67 48 68
REMARK SMILES IDX 62 70 83 71 50 72 34 73 35 74 43 75 36 76 37 77 41 78 44 79
REMARK SMILES IDX 38 80 39 81 42 82 40 83 66 84 67 85 75 86 68 87 69 88 73 89
REMARK SMILES IDX 76 90 70 91 71 92 74 93 72 94 51 95 52 96 60 97 53 98 54 99
REMARK SMILES IDX 58 100 61 101 55 102 56 103 59 104 57 105
REMARK H PARENT 15 7 88 13 5 25 5 26 22 39 81 58 49 69
REMARK Flexibility Score: inf
ROOT
ATOM      1  C   UNL     1       6.389   1.047  -4.593  1.00  0.00     0.002 C 
ENDROOT
BRANCH   1   2
ATOM      2  C   UNL     1       5.538   0.379  -3.505  1.00  0.00     0.021 C 
BRANCH   2   3
ATOM      3  C   UNL     1       5.916   0.813  -2.089  1.00  0.00     0.116 C 
BRANCH   3   4
ATOM      4  N   UNL     1       5.506   2.184  -1.865  1.00  0.00    -0.351 N 
ATOM      5  C   UNL     1       4.536   2.689  -1.054  1.00  0.00     0.278 C 
ATOM      6  O   UNL     1       4.343   3.907  -1.084  1.00  0.00    -0.268 OA
ATOM      7  H   UNL     1       6.007   2.856  -2.381  1.00  0.00     0.163 HD
BRANCH   5   8
ATOM      8  C   UNL     1       3.754   1.788  -0.077  1.00  0.00     0.282 C 
BRANCH   8   9
ATOM      9  C   UNL     1       2.854   0.806  -0.861  1.00  0.00     0.175 C 
BRANCH   9  10
ATOM     10  C   UNL     1       2.048  -0.147   0.003  1.00  0.00     0.230 C 
ATOM     11  O   UNL     1       0.822  -0.148  -0.010  1.00  0.00    -0.274 OA
ATOM     12  N   UNL     1       2.846  -0.966   0.783  1.00  0.00    -0.326 N 
ATOM     13  H   UNL     1       3.812  -0.991   0.595  1.00  0.00     0.169 HD
BRANCH  12  14
ATOM     14  C   UNL     1       2.353  -1.762   1.826  1.00  0.00     0.041 A 
ATOM     15  C   UNL     1       2.905  -1.586   3.094  1.00  0.00     0.027 A 
ATOM     16  C   UNL     1       1.378  -2.737   1.616  1.00  0.00     0.034 A 
ATOM     17  C   UNL     1       2.404  -2.301   4.179  1.00  0.00     0.011 A 
ATOM     18  C   UNL     1       0.978  -3.572   2.676  1.00  0.00    -0.016 A 
ATOM     19  C   UNL     1       1.452  -3.307   3.983  1.00  0.00    -0.018 A 
ATOM     20  C   UNL     1       0.149  -4.687   2.473  1.00  0.00     0.009 A 
ATOM     21  C   UNL     1       0.998  -4.083   5.059  1.00  0.00     0.009 A 
ATOM     22  C   UNL     1      -0.221  -5.507   3.542  1.00  0.00     0.001 A 
ATOM     23  C   UNL     1       0.176  -5.187   4.837  1.00  0.00     0.001 A 
ENDBRANCH  12  14
ENDBRANCH   9  10
ENDBRANCH   8   9
BRANCH   8  24
ATOM     24  N   UNL     1       4.678   1.129   0.904  1.00  0.00    -0.332 N 
ATOM     25  H   UNL     1       5.239   0.438   0.406  1.00  0.00     0.347 HD
ATOM     26  H   UNL     1       4.095   0.708   1.627  1.00  0.00     0.347 HD
BRANCH  24  27
ATOM     27  C   UNL     1       5.595   2.074   1.583  1.00  0.00     0.299 C 
BRANCH  27  28
ATOM     28  C   UNL     1       4.894   3.018   2.521  1.00  0.00     0.024 A 
ATOM     29  C   UNL     1       4.042   2.562   3.534  1.00  0.00     0.013 A 
ATOM     30  C   UNL     1       5.072   4.394   2.414  1.00  0.00     0.120 A 
ATOM     31  C   UNL     1       3.375   3.473   4.345  1.00  0.00     0.021 A 
ATOM     32  N   UNL     1       4.459   5.300   3.209  1.00  0.00    -0.264 NA
ATOM     33  C   UNL     1       3.613   4.820   4.145  1.00  0.00     0.111 A 
ENDBRANCH  27  28
ENDBRANCH  24  27
ENDBRANCH   8  24
ENDBRANCH   5   8
ENDBRANCH   3   4
ENDBRANCH   2   3
ENDBRANCH   1   2
BRANCH   1  34
ATOM     34  C   UNL     1       7.893   0.776  -4.481  1.00  0.00     0.002 C 
BRANCH  34  35
ATOM     35  C   UNL     1       8.272  -0.705  -4.429  1.00  0.00     0.021 C 
BRANCH  35  36
ATOM     36  C   UNL     1       7.810  -1.508  -5.639  1.00  0.00     0.116 C 
BRANCH  36  37
ATOM     37  N   UNL     1       8.441  -1.049  -6.866  1.00  0.00    -0.352 N 
ATOM     38  C   UNL     1       9.167  -1.760  -7.788  1.00  0.00     0.251 C 
ATOM     39  H   UNL     1       8.331  -0.090  -7.063  1.00  0.00     0.163 HD
ATOM     40  O   UNL     1       9.812  -1.178  -8.651  1.00  0.00    -0.269 OA
BRANCH  38  41
ATOM     41  C   UNL     1       9.181  -3.236  -7.722  1.00  0.00     0.039 A 
ATOM     42  C   UNL     1      10.396  -3.906  -7.875  1.00  0.00     0.014 A 
ATOM     43  C   UNL     1       8.001  -3.954  -7.512  1.00  0.00     0.014 A 
ATOM     44  C   UNL     1      10.435  -5.297  -7.760  1.00  0.00     0.010 A 
ATOM     45  C   UNL     1       8.054  -5.330  -7.318  1.00  0.00     0.010 A 
ATOM     46  C   UNL     1       9.271  -6.017  -7.445  1.00  0.00    -0.014 A 
BRANCH  46  47
ATOM     47  C   UNL     1       9.309  -7.487  -7.245  1.00  0.00     0.031 A 
ATOM     48  C   UNL     1       8.541  -8.396  -8.164  1.00  0.00     0.074 A 
ATOM     49  C   UNL     1       9.989  -7.998  -6.201  1.00  0.00     0.049 A 
ATOM     50  N   UNL     1       8.404  -9.698  -8.117  1.00  0.00    -0.248 NA
ATOM     51  C   UNL     1       7.807  -7.757  -9.267  1.00  0.00     0.031 C 
ATOM     52  C   UNL     1      10.736  -7.216  -5.215  1.00  0.00     0.029 A 
ATOM     53  N   UNL     1      10.157  -9.297  -5.789  1.00  0.00    -0.354 N 
ATOM     54  C   UNL     1       7.565 -10.028  -9.173  1.00  0.00     0.074 A 
ATOM     55  C   UNL     1       7.175  -8.788  -9.807  1.00  0.00     0.031 C 
ATOM     56  C   UNL     1      11.302  -8.050  -4.328  1.00  0.00     0.029 A 
ATOM     57  C   UNL     1      10.923  -9.421  -4.656  1.00  0.00     0.049 A 
ATOM     58  H   UNL     1       9.765 -10.067  -6.262  1.00  0.00     0.167 HD
ATOM     59  C   UNL     1       7.176 -11.256  -9.590  1.00  0.00     0.037 A 
ATOM     60  C   UNL     1      11.271 -10.517  -3.954  1.00  0.00     0.037 A 
ATOM     61  C   UNL     1       7.580 -12.488  -8.965  1.00  0.00     0.049 A 
ATOM     62  C   UNL     1      10.805 -11.868  -4.427  1.00  0.00     0.074 A 
ATOM     63  C   UNL     1       7.285 -13.786  -9.344  1.00  0.00     0.029 A 
ATOM     64  N   UNL     1       8.363 -12.575  -7.822  1.00  0.00    -0.354 N 
ATOM     65  N   UNL     1      10.072 -12.173  -5.469  1.00  0.00    -0.248 NA
ATOM     66  C   UNL     1      11.223 -13.028  -3.628  1.00  0.00     0.031 C 
ATOM     67  C   UNL     1       7.838 -14.655  -8.398  1.00  0.00     0.029 A 
ATOM     68  C   UNL     1       8.535 -13.903  -7.466  1.00  0.00     0.049 A 
ATOM     69  H   UNL     1       8.740 -11.806  -7.336  1.00  0.00     0.167 HD
ATOM     70  C   UNL     1       9.967 -13.558  -5.471  1.00  0.00     0.074 A 
ATOM     71  C   UNL     1      10.726 -14.034  -4.334  1.00  0.00     0.031 C 
ATOM     72  C   UNL     1       9.302 -14.363  -6.336  1.00  0.00     0.037 A 
BRANCH  59  73
ATOM     73  C   UNL     1       6.262 -11.331 -10.781  1.00  0.00     0.064 A 
ATOM     74  C   UNL     1       6.699 -10.983 -12.069  1.00  0.00     0.173 A 
ATOM     75  C   UNL     1       4.946 -11.796 -10.640  1.00  0.00     0.173 A 
ATOM     76  F   UNL     1       7.944 -10.523 -12.259  1.00  0.00    -0.203 F 
ATOM     77  C   UNL     1       5.843 -11.069 -13.165  1.00  0.00     0.198 A 
ATOM     78  C   UNL     1       4.104 -11.914 -11.743  1.00  0.00     0.198 A 
ATOM     79  F   UNL     1       4.478 -12.148  -9.434  1.00  0.00    -0.203 F 
ATOM     80  F   UNL     1       6.267 -10.682 -14.376  1.00  0.00    -0.200 F 
ATOM     81  C   UNL     1       4.550 -11.543 -13.003  1.00  0.00     0.200 A 
ATOM     82  F   UNL     1       2.860 -12.387 -11.587  1.00  0.00    -0.200 F 
ATOM     83  F   UNL     1       3.731 -11.635 -14.059  1.00  0.00    -0.200 F 
ENDBRANCH  59  73
BRANCH  60  84
ATOM     84  C   UNL     1      12.117 -10.385  -2.738  1.00  0.00     0.064 A 
ATOM     85  C   UNL     1      13.425 -10.889  -2.711  1.00  0.00     0.173 A 
ATOM     86  C   UNL     1      11.634  -9.767  -1.575  1.00  0.00     0.173 A 
ATOM     87  F   UNL     1      13.928 -11.505  -3.791  1.00  0.00    -0.203 F 
ATOM     88  C   UNL     1      14.207 -10.805  -1.560  1.00  0.00     0.198 A 
ATOM     89  C   UNL     1      12.428  -9.654  -0.436  1.00  0.00     0.198 A 
ATOM     90  F   UNL     1      10.392  -9.262  -1.548  1.00  0.00    -0.203 F 
ATOM     91  F   UNL     1      15.433 -11.344  -1.545  1.00  0.00    -0.200 F 
ATOM     92  C   UNL     1      13.710 -10.183  -0.425  1.00  0.00     0.200 A 
ATOM     93  F   UNL     1      11.949  -9.036   0.653  1.00  0.00    -0.200 F 
ATOM     94  F   UNL     1      14.462 -10.100   0.680  1.00  0.00    -0.200 F 
ENDBRANCH  60  84
BRANCH  72  95
ATOM     95  C   UNL     1       9.399 -15.846  -6.113  1.00  0.00     0.064 A 
ATOM     96  C   UNL     1       8.777 -16.474  -5.025  1.00  0.00     0.173 A 
ATOM     97  C   UNL     1      10.095 -16.654  -7.027  1.00  0.00     0.173 A 
ATOM     98  F   UNL     1       8.112 -15.746  -4.114  1.00  0.00    -0.203 F 
ATOM     99  C   UNL     1       8.873 -17.851  -4.843  1.00  0.00     0.198 A 
ATOM    100  C   UNL     1      10.157 -18.034  -6.861  1.00  0.00     0.198 A 
ATOM    101  F   UNL     1      10.702 -16.105  -8.090  1.00  0.00    -0.203 F 
ATOM    102  F   UNL     1       8.316 -18.423  -3.765  1.00  0.00    -0.200 F 
ATOM    103  C   UNL     1       9.555 -18.631  -5.765  1.00  0.00     0.200 A 
ATOM    104  F   UNL     1      10.802 -18.787  -7.763  1.00  0.00    -0.200 F 
ATOM    105  F   UNL     1       9.637 -19.957  -5.593  1.00  0.00    -0.200 F 
ENDBRANCH  72  95
ENDBRANCH  46  47
ENDBRANCH  38  41
ENDBRANCH  36  37
ENDBRANCH  35  36
ENDBRANCH  34  35
ENDBRANCH   1  34
TORSDOF 19
