REMARK SMILES CN(C(=O)C[C@@H]1SC(=O)N(c2ccccc2)C1=O)c1ccccc1C(=O)NCCCCCCNC(=O)c1ccc(-c2c3nc(c(-c4c(F)c(F)c(F)c(F)c4F)c4ccc([nH]4)c(-c4c(F)c(F)c(F)c(F)c4F)c4nc(c(-c5c(F)c(F)c(F)c(F)c5F)c5ccc2[nH]5)C=C4)C=C3)cc1
REMARK SMILES IDX 29 1 28 2 27 3 25 4 26 5 24 7 19 8 20 9 21 10 23 11 22 12
REMARK SMILES IDX 2 13 1 14 3 15 4 16 5 17 6 18 7 19 17 20 8 21 10 22 18 23
REMARK SMILES IDX 9 24 11 25 12 26 16 27 13 28 15 29 14 30 30 31 31 32 32 33
REMARK SMILES IDX 33 34 34 35 35 36 36 38 37 39 38 40 99 41 39 42 98 43 40 44
REMARK SMILES IDX 41 45 42 46 92 47 43 48 97 49 91 50 93 51 44 52 96 53 90 54
REMARK SMILES IDX 89 55 45 57 77 58 57 59 76 60 58 61 61 62 75 63 94 64 59 65
REMARK SMILES IDX 60 66 74 68 95 69 62 70 46 71 47 72 55 73 48 74 49 75 53 76
REMARK SMILES IDX 56 77 50 78 51 79 54 80 52 81 78 82 79 83 87 84 80 85 81 86
REMARK SMILES IDX 85 87 88 88 82 89 83 90 86 91 84 92 63 93 64 94 72 95 65 96
REMARK SMILES IDX 66 97 70 98 73 99 67 100 68 101 71 102 69 103
REMARK H PARENT 27 6 34 37 93 56 61 67
REMARK Flexibility Score: inf
ROOT
ATOM      1  C   UNL     1       1.748  -0.102  -1.283  1.00  0.00     0.021 C 
ENDROOT
BRANCH   1   2
ATOM      2  C   UNL     1       2.392  -1.112  -0.334  1.00  0.00     0.116 C 
BRANCH   2   3
ATOM      3  N   UNL     1       3.371  -0.457   0.507  1.00  0.00    -0.352 N 
ATOM      4  C   UNL     1       3.359  -0.020   1.806  1.00  0.00     0.253 C 
ATOM      5  O   UNL     1       4.425   0.437   2.232  1.00  0.00    -0.269 OA
ATOM      6  H   UNL     1       4.226  -0.289   0.049  1.00  0.00     0.163 HD
BRANCH   4   7
ATOM      7  C   UNL     1       2.232  -0.171   2.776  1.00  0.00     0.063 A 
ATOM      8  C   UNL     1       0.866   0.135   2.615  1.00  0.00     0.056 A 
ATOM      9  C   UNL     1      -0.000   0.023   3.730  1.00  0.00     0.027 A 
ATOM     10  C   UNL     1       0.461  -0.365   4.985  1.00  0.00     0.002 A 
ATOM     11  C   UNL     1       2.667  -0.588   4.059  1.00  0.00     0.016 A 
ATOM     12  C   UNL     1       1.798  -0.678   5.149  1.00  0.00     0.001 A 
BRANCH   8  13
ATOM     13  N   UNL     1       0.271   0.710   1.448  1.00  0.00    -0.315 N 
ATOM     14  C   UNL     1      -0.861  -0.044   0.892  1.00  0.00     0.153 C 
BRANCH  13  15
ATOM     15  C   UNL     1       0.564   2.047   1.175  1.00  0.00     0.228 C 
ATOM     16  O   UNL     1       1.371   2.700   1.835  1.00  0.00    -0.274 OA
BRANCH  15  17
ATOM     17  C   UNL     1      -0.212   2.730   0.057  1.00  0.00     0.125 C 
BRANCH  17  18
ATOM     18  C   UNL     1       0.465   3.965  -0.537  1.00  0.00     0.156 C 
ATOM     19  S   UNL     1       1.909   3.534  -1.525  1.00  0.00    -0.050 SA
ATOM     20  C   UNL     1       0.965   5.024   0.434  1.00  0.00     0.248 C 
ATOM     21  C   UNL     1       2.984   4.114  -0.281  1.00  0.00     0.293 C 
ATOM     22  N   UNL     1       2.353   5.129   0.402  1.00  0.00    -0.240 N 
ATOM     23  O   UNL     1       0.153   5.699   1.063  1.00  0.00    -0.273 OA
ATOM     24  O   UNL     1       4.090   3.633  -0.152  1.00  0.00    -0.261 OA
BRANCH  22  25
ATOM     25  C   UNL     1       3.103   6.222   0.941  1.00  0.00     0.053 A 
ATOM     26  C   UNL     1       2.524   7.210   1.748  1.00  0.00     0.027 A 
ATOM     27  C   UNL     1       4.436   6.428   0.531  1.00  0.00     0.027 A 
ATOM     28  C   UNL     1       3.222   8.380   2.069  1.00  0.00     0.002 A 
ATOM     29  C   UNL     1       5.132   7.595   0.846  1.00  0.00     0.002 A 
ATOM     30  C   UNL     1       4.517   8.582   1.601  1.00  0.00     0.000 A 
ENDBRANCH  22  25
ENDBRANCH  17  18
ENDBRANCH  15  17
ENDBRANCH  13  15
ENDBRANCH   8  13
ENDBRANCH   4   7
ENDBRANCH   2   3
ENDBRANCH   1   2
BRANCH   1  31
ATOM     31  C   UNL     1       2.327  -0.019  -2.701  1.00  0.00     0.002 C 
BRANCH  31  32
ATOM     32  C   UNL     1       1.387  -0.561  -3.788  1.00  0.00     0.002 C 
BRANCH  32  33
ATOM     33  C   UNL     1      -0.001   0.093  -3.907  1.00  0.00     0.021 C 
BRANCH  33  34
ATOM     34  C   UNL     1      -0.032   1.594  -4.181  1.00  0.00     0.116 C 
BRANCH  34  35
ATOM     35  N   UNL     1       0.575   1.963  -5.445  1.00  0.00    -0.352 N 
ATOM     36  C   UNL     1       0.013   2.513  -6.570  1.00  0.00     0.251 C 
ATOM     37  H   UNL     1       1.542   1.792  -5.505  1.00  0.00     0.163 HD
ATOM     38  O   UNL     1       0.670   2.612  -7.601  1.00  0.00    -0.269 OA
BRANCH  36  39
ATOM     39  C   UNL     1      -1.395   2.968  -6.564  1.00  0.00     0.039 A 
ATOM     40  C   UNL     1      -2.229   2.570  -7.613  1.00  0.00     0.014 A 
ATOM     41  C   UNL     1      -1.886   3.816  -5.566  1.00  0.00     0.014 A 
ATOM     42  C   UNL     1      -3.568   2.967  -7.630  1.00  0.00     0.010 A 
ATOM     43  C   UNL     1      -3.238   4.167  -5.554  1.00  0.00     0.010 A 
ATOM     44  C   UNL     1      -4.094   3.744  -6.584  1.00  0.00    -0.014 A 
BRANCH  44  45
ATOM     45  C   UNL     1      -5.538   4.101  -6.554  1.00  0.00     0.031 A 
ATOM     46  C   UNL     1      -5.977   5.532  -6.696  1.00  0.00     0.074 A 
ATOM     47  C   UNL     1      -6.457   3.136  -6.352  1.00  0.00     0.049 A 
ATOM     48  N   UNL     1      -7.187   6.034  -6.656  1.00  0.00    -0.248 NA
ATOM     49  C   UNL     1      -4.918   6.533  -6.887  1.00  0.00     0.031 C 
ATOM     50  C   UNL     1      -6.160   1.716  -6.160  1.00  0.00     0.029 A 
ATOM     51  N   UNL     1      -7.826   3.203  -6.267  1.00  0.00    -0.354 N 
ATOM     52  C   UNL     1      -7.032   7.407  -6.804  1.00  0.00     0.074 A 
ATOM     53  C   UNL     1      -5.610   7.663  -6.888  1.00  0.00     0.031 C 
ATOM     54  C   UNL     1      -7.311   1.044  -5.998  1.00  0.00     0.029 A 
ATOM     55  C   UNL     1      -8.425   1.987  -6.042  1.00  0.00     0.049 A 
ATOM     56  H   UNL     1      -8.331   4.043  -6.359  1.00  0.00     0.167 HD
ATOM     57  C   UNL     1      -7.990   8.363  -6.883  1.00  0.00     0.037 A 
ATOM     58  C   UNL     1      -9.723   1.668  -5.882  1.00  0.00     0.037 A 
ATOM     59  C   UNL     1      -9.405   8.105  -6.825  1.00  0.00     0.049 A 
ATOM     60  C   UNL     1     -10.766   2.749  -5.971  1.00  0.00     0.074 A 
ATOM     61  C   UNL     1     -10.453   9.000  -6.961  1.00  0.00     0.029 A 
ATOM     62  N   UNL     1      -9.973   6.858  -6.609  1.00  0.00    -0.354 N 
ATOM     63  N   UNL     1     -10.610   4.033  -6.184  1.00  0.00    -0.248 NA
ATOM     64  C   UNL     1     -12.167   2.335  -5.805  1.00  0.00     0.031 C 
ATOM     65  C   UNL     1     -11.652   8.304  -6.781  1.00  0.00     0.029 A 
ATOM     66  C   UNL     1     -11.355   6.965  -6.583  1.00  0.00     0.049 A 
ATOM     67  H   UNL     1      -9.470   6.020  -6.491  1.00  0.00     0.167 HD
ATOM     68  C   UNL     1     -11.888   4.574  -6.207  1.00  0.00     0.074 A 
ATOM     69  C   UNL     1     -12.810   3.478  -6.000  1.00  0.00     0.031 C 
ATOM     70  C   UNL     1     -12.263   5.865  -6.383  1.00  0.00     0.037 A 
BRANCH  57  71
ATOM     71  C   UNL     1      -7.539   9.786  -7.044  1.00  0.00     0.064 A 
ATOM     72  C   UNL     1      -6.966  10.247  -8.239  1.00  0.00     0.173 A 
ATOM     73  C   UNL     1      -7.724  10.713  -6.006  1.00  0.00     0.173 A 
ATOM     74  F   UNL     1      -6.760   9.399  -9.259  1.00  0.00    -0.203 F 
ATOM     75  C   UNL     1      -6.569  11.574  -8.379  1.00  0.00     0.198 A 
ATOM     76  C   UNL     1      -7.353  12.046  -6.161  1.00  0.00     0.198 A 
ATOM     77  F   UNL     1      -8.275  10.328  -4.846  1.00  0.00    -0.203 F 
ATOM     78  F   UNL     1      -5.982  11.979  -9.514  1.00  0.00    -0.200 F 
ATOM     79  C   UNL     1      -6.769  12.474  -7.343  1.00  0.00     0.200 A 
ATOM     80  F   UNL     1      -7.560  12.918  -5.164  1.00  0.00    -0.200 F 
ATOM     81  F   UNL     1      -6.394  13.753  -7.483  1.00  0.00    -0.200 F 
ENDBRANCH  57  71
BRANCH  58  82
ATOM     82  C   UNL     1     -10.116   0.254  -5.643  1.00  0.00     0.064 A 
ATOM     83  C   UNL     1     -10.807  -0.477  -6.619  1.00  0.00     0.173 A 
ATOM     84  C   UNL     1      -9.816  -0.391  -4.434  1.00  0.00     0.173 A 
ATOM     85  F   UNL     1     -11.135   0.104  -7.783  1.00  0.00    -0.203 F 
ATOM     86  C   UNL     1     -11.203  -1.793  -6.388  1.00  0.00     0.198 A 
ATOM     87  C   UNL     1     -10.187  -1.716  -4.215  1.00  0.00     0.198 A 
ATOM     88  F   UNL     1      -9.152   0.262  -3.470  1.00  0.00    -0.203 F 
ATOM     89  F   UNL     1     -11.902  -2.454  -7.320  1.00  0.00    -0.200 F 
ATOM     90  C   UNL     1     -10.887  -2.413  -5.189  1.00  0.00     0.200 A 
ATOM     91  F   UNL     1      -9.867  -2.317  -3.061  1.00  0.00    -0.200 F 
ATOM     92  F   UNL     1     -11.263  -3.680  -4.968  1.00  0.00    -0.200 F 
ENDBRANCH  58  82
BRANCH  70  93
ATOM     93  C   UNL     1     -13.735   6.160  -6.394  1.00  0.00     0.064 A 
ATOM     94  C   UNL     1     -14.505   6.113  -5.223  1.00  0.00     0.173 A 
ATOM     95  C   UNL     1     -14.376   6.532  -7.587  1.00  0.00     0.173 A 
ATOM     96  F   UNL     1     -13.943   5.747  -4.061  1.00  0.00    -0.203 F 
ATOM     97  C   UNL     1     -15.866   6.405  -5.248  1.00  0.00     0.198 A 
ATOM     98  C   UNL     1     -15.730   6.851  -7.603  1.00  0.00     0.198 A 
ATOM     99  F   UNL     1     -13.684   6.597  -8.734  1.00  0.00    -0.203 F 
ATOM    100  F   UNL     1     -16.591   6.308  -4.125  1.00  0.00    -0.200 F 
ATOM    101  C   UNL     1     -16.476   6.781  -6.436  1.00  0.00     0.200 A 
ATOM    102  F   UNL     1     -16.315   7.226  -8.749  1.00  0.00    -0.200 F 
ATOM    103  F   UNL     1     -17.785   7.068  -6.457  1.00  0.00    -0.200 F 
ENDBRANCH  70  93
ENDBRANCH  44  45
ENDBRANCH  36  39
ENDBRANCH  34  35
ENDBRANCH  33  34
ENDBRANCH  32  33
ENDBRANCH  31  32
ENDBRANCH   1  31
TORSDOF 18
