REMARK SMILES COc1ccc(/C=C2/C(=O)N(c3ccccc3)C(=O)[NH+]=C2NCCCCCCNC(=O)c2ccc(-c3c4nc(c(-c5c(F)c(F)c(F)c(F)c5F)c5ccc([nH]5)c(-c5c(F)c(F)c(F)c(F)c5F)c5nc(c(-c6c(F)c(F)c(F)c(F)c6F)c6ccc3[nH]6)C=C5)C=C4)cc2)cc1C(=O)[O-]
REMARK SMILES IDX 26 1 25 2 24 3 23 4 22 5 7 6 8 7 9 8 21 9 10 10 11 11 20 12
REMARK SMILES IDX 18 13 19 16 6 17 3 18 4 19 96 20 5 21 95 22 2 23 1 24 97 25
REMARK SMILES IDX 98 26 99 27 12 28 13 29 17 30 14 31 16 32 15 33 27 34 28 35
REMARK SMILES IDX 29 36 30 37 31 39 32 40 33 41 94 42 34 43 93 44 35 45 36 46
REMARK SMILES IDX 37 47 87 48 38 49 92 50 86 51 88 52 39 53 91 54 85 55 84 56
REMARK SMILES IDX 40 58 72 59 52 60 71 61 53 62 56 63 70 64 89 65 54 66 55 67
REMARK SMILES IDX 69 69 90 70 57 71 41 72 42 73 50 74 43 75 44 76 48 77 51 78
REMARK SMILES IDX 45 79 46 80 49 81 47 82 73 83 74 84 82 85 75 86 76 87 80 88
REMARK SMILES IDX 83 89 77 90 78 91 81 92 79 93 58 94 59 95 67 96 60 97 61 98
REMARK SMILES IDX 65 99 68 100 62 101 63 102 66 103 64 104
REMARK H PARENT 20 14 22 15 29 38 88 57 56 68
REMARK Flexibility Score: inf
ROOT
ATOM      1  C   UNL     1      -2.176   1.247   1.768  1.00  0.00     0.002 C 
ENDROOT
BRANCH   1   2
ATOM      2  C   UNL     1      -1.195   0.508   2.724  1.00  0.00     0.003 C 
BRANCH   2   3
ATOM      3  C   UNL     1       0.479   0.878   3.192  1.00  0.00     0.037 C 
BRANCH   3   4
ATOM      4  C   UNL     1       1.581   2.647   3.865  1.00  0.00     0.194 C 
BRANCH   4   5
ATOM      5  N   UNL     1       1.111   3.867   4.854  1.00  0.00    -0.305 N 
ATOM      6  C   UNL     1       0.902   1.461   6.672  1.00  0.00     0.030 C 
ATOM      7  C   UNL     1       1.119   2.708   7.105  1.00  0.00     0.129 C 
ATOM      8  C   UNL     1       1.488   3.013   8.499  1.00  0.00     0.328 C 
ATOM      9  C   UNL     1       0.885   3.871   6.219  1.00  0.00     0.236 C 
ATOM     10  O   UNL     1       2.174   2.235   9.155  1.00  0.00    -0.249 OA
ATOM     11  N   UNL     1       0.953   4.215   8.924  1.00  0.00    -0.155 N 
ATOM     12  N   UNL     1       0.373   4.944   6.754  1.00  0.00    -0.209 N 
ATOM     13  C   UNL     1       0.069   4.912   8.105  1.00  0.00     0.448 C 
ATOM     14  H   UNL     1       0.207   5.750   6.215  1.00  0.00     0.270 HD
ATOM     15  H   UNL     1       0.967   4.732   4.406  1.00  0.00     0.256 HD
ATOM     16  O   UNL     1      -0.948   5.452   8.535  1.00  0.00    -0.212 OA
BRANCH   6  17
ATOM     17  C   UNL     1       0.730   1.315   5.234  1.00  0.00    -0.024 A 
ATOM     18  C   UNL     1       1.471   2.092   1.788  1.00  0.00     0.127 A 
ATOM     19  C   UNL     1      -0.013   2.777   2.558  1.00  0.00     0.048 A 
ATOM     20  C   UNL     1       2.599   1.094   2.756  1.00  0.00     0.040 A 
ATOM     21  C   UNL     1      -0.439   2.330   4.276  1.00  0.00     0.012 A 
ATOM     22  C   UNL     1       2.217   0.675   4.447  1.00  0.00     0.022 A 
BRANCH  18  23
ATOM     23  O   UNL     1       1.628   2.274   0.440  1.00  0.00    -0.496 OA
ATOM     24  C   UNL     1       1.802   1.016  -0.222  1.00  0.00     0.278 C 
ENDBRANCH  18  23
BRANCH  20  25
ATOM     25  C   UNL     1       3.919   0.664   2.285  1.00  0.00     0.075 C 
ATOM     26  O   UNL     1       4.542  -0.282   2.723  1.00  0.00    -0.545 OA
ATOM     27  O   UNL     1       4.417   1.505   1.371  1.00  0.00    -0.545 OA
ENDBRANCH  20  25
ENDBRANCH   6  17
BRANCH  11  28
ATOM     28  C   UNL     1       1.074   4.555  10.290  1.00  0.00     0.111 A 
ATOM     29  C   UNL     1       0.119   4.154  11.229  1.00  0.00     0.044 A 
ATOM     30  C   UNL     1       2.209   5.264  10.701  1.00  0.00     0.044 A 
ATOM     31  C   UNL     1       0.308   4.459  12.579  1.00  0.00     0.004 A 
ATOM     32  C   UNL     1       2.386   5.577  12.048  1.00  0.00     0.004 A 
ATOM     33  C   UNL     1       1.438   5.170  12.987  1.00  0.00     0.000 A 
ENDBRANCH  11  28
ENDBRANCH   4   5
ENDBRANCH   3   4
ENDBRANCH   2   3
ENDBRANCH   1   2
BRANCH   1  34
ATOM     34  C   UNL     1      -1.813   1.496   0.296  1.00  0.00     0.021 C 
BRANCH  34  35
ATOM     35  C   UNL     1      -1.558   0.246  -0.535  1.00  0.00     0.116 C 
BRANCH  35  36
ATOM     36  N   UNL     1      -2.624  -0.058  -1.468  1.00  0.00    -0.352 N 
ATOM     37  C   UNL     1      -2.499  -0.560  -2.744  1.00  0.00     0.251 C 
ATOM     38  H   UNL     1      -3.542   0.114  -1.155  1.00  0.00     0.163 HD
ATOM     39  O   UNL     1      -3.472  -0.605  -3.491  1.00  0.00    -0.269 OA
BRANCH  37  40
ATOM     40  C   UNL     1      -1.177  -1.030  -3.235  1.00  0.00     0.039 A 
ATOM     41  C   UNL     1      -0.762  -0.660  -4.517  1.00  0.00     0.014 A 
ATOM     42  C   UNL     1      -0.367  -1.868  -2.461  1.00  0.00     0.014 A 
ATOM     43  C   UNL     1       0.463  -1.117  -5.016  1.00  0.00     0.010 A 
ATOM     44  C   UNL     1       0.882  -2.277  -2.937  1.00  0.00     0.010 A 
ATOM     45  C   UNL     1       1.300  -1.927  -4.231  1.00  0.00    -0.014 A 
BRANCH  45  46
ATOM     46  C   UNL     1       2.577  -2.457  -4.784  1.00  0.00     0.031 A 
ATOM     47  C   UNL     1       2.740  -3.932  -5.043  1.00  0.00     0.074 A 
ATOM     48  C   UNL     1       3.596  -1.619  -5.060  1.00  0.00     0.049 A 
ATOM     49  N   UNL     1       3.764  -4.579  -5.545  1.00  0.00    -0.248 NA
ATOM     50  C   UNL     1       1.610  -4.798  -4.675  1.00  0.00     0.031 C 
ATOM     51  C   UNL     1       3.587  -0.175  -4.830  1.00  0.00     0.029 A 
ATOM     52  N   UNL     1       4.837  -1.863  -5.599  1.00  0.00    -0.354 N 
ATOM     53  C   UNL     1       3.402  -5.920  -5.548  1.00  0.00     0.074 A 
ATOM     54  C   UNL     1       2.089  -6.003  -4.945  1.00  0.00     0.031 C 
ATOM     55  C   UNL     1       4.751   0.344  -5.255  1.00  0.00     0.029 A 
ATOM     56  C   UNL     1       5.601  -0.733  -5.760  1.00  0.00     0.049 A 
ATOM     57  H   UNL     1       5.148  -2.763  -5.848  1.00  0.00     0.167 HD
ATOM     58  C   UNL     1       4.085  -6.985  -6.035  1.00  0.00     0.037 A 
ATOM     59  C   UNL     1       6.843  -0.579  -6.261  1.00  0.00     0.037 A 
ATOM     60  C   UNL     1       5.380  -6.907  -6.659  1.00  0.00     0.049 A 
ATOM     61  C   UNL     1       7.591  -1.782  -6.775  1.00  0.00     0.074 A 
ATOM     62  C   UNL     1       6.125  -7.924  -7.232  1.00  0.00     0.029 A 
ATOM     63  N   UNL     1       6.127  -5.745  -6.787  1.00  0.00    -0.354 N 
ATOM     64  N   UNL     1       7.206  -3.033  -6.837  1.00  0.00    -0.248 NA
ATOM     65  C   UNL     1       8.946  -1.547  -7.296  1.00  0.00     0.031 C 
ATOM     66  C   UNL     1       7.343  -7.388  -7.662  1.00  0.00     0.029 A 
ATOM     67  C   UNL     1       7.335  -6.026  -7.405  1.00  0.00     0.049 A 
ATOM     68  H   UNL     1       5.840  -4.853  -6.485  1.00  0.00     0.167 HD
ATOM     69  C   UNL     1       8.256  -3.727  -7.425  1.00  0.00     0.074 A 
ATOM     70  C   UNL     1       9.288  -2.756  -7.718  1.00  0.00     0.031 C 
ATOM     71  C   UNL     1       8.355  -5.052  -7.697  1.00  0.00     0.037 A 
BRANCH  58  72
ATOM     72  C   UNL     1       3.440  -8.337  -5.920  1.00  0.00     0.064 A 
ATOM     73  C   UNL     1       2.317  -8.684  -6.688  1.00  0.00     0.173 A 
ATOM     74  C   UNL     1       3.976  -9.312  -5.065  1.00  0.00     0.173 A 
ATOM     75  F   UNL     1       1.761  -7.785  -7.514  1.00  0.00    -0.203 F 
ATOM     76  C   UNL     1       1.739  -9.946  -6.582  1.00  0.00     0.198 A 
ATOM     77  C   UNL     1       3.413 -10.583  -4.986  1.00  0.00     0.198 A 
ATOM     78  F   UNL     1       5.053  -9.036  -4.315  1.00  0.00    -0.203 F 
ATOM     79  F   UNL     1       0.638 -10.238  -7.290  1.00  0.00    -0.200 F 
ATOM     80  C   UNL     1       2.291 -10.897  -5.738  1.00  0.00     0.200 A 
ATOM     81  F   UNL     1       3.957 -11.506  -4.180  1.00  0.00    -0.200 F 
ATOM     82  F   UNL     1       1.738 -12.114  -5.643  1.00  0.00    -0.200 F 
ENDBRANCH  58  72
BRANCH  59  83
ATOM     83  C   UNL     1       7.457   0.774  -6.324  1.00  0.00     0.064 A 
ATOM     84  C   UNL     1       7.688   1.405  -7.554  1.00  0.00     0.173 A 
ATOM     85  C   UNL     1       7.839   1.455  -5.159  1.00  0.00     0.173 A 
ATOM     86  F   UNL     1       7.362   0.783  -8.697  1.00  0.00    -0.203 F 
ATOM     87  C   UNL     1       8.298   2.656  -7.618  1.00  0.00     0.198 A 
ATOM     88  C   UNL     1       8.422   2.719  -5.223  1.00  0.00     0.198 A 
ATOM     89  F   UNL     1       7.638   0.896  -3.957  1.00  0.00    -0.203 F 
ATOM     90  F   UNL     1       8.552   3.215  -8.809  1.00  0.00    -0.200 F 
ATOM     91  C   UNL     1       8.659   3.315  -6.452  1.00  0.00     0.200 A 
ATOM     92  F   UNL     1       8.757   3.357  -4.093  1.00  0.00    -0.200 F 
ATOM     93  F   UNL     1       9.243   4.519  -6.514  1.00  0.00    -0.200 F 
ENDBRANCH  59  83
BRANCH  71  94
ATOM     94  C   UNL     1       9.611  -5.530  -8.367  1.00  0.00     0.064 A 
ATOM     95  C   UNL     1      10.834  -5.587  -7.684  1.00  0.00     0.173 A 
ATOM     96  C   UNL     1       9.581  -5.979  -9.697  1.00  0.00     0.173 A 
ATOM     97  F   UNL     1      10.920  -5.156  -6.416  1.00  0.00    -0.203 F 
ATOM     98  C   UNL     1      11.986  -6.053  -8.313  1.00  0.00     0.198 A 
ATOM     99  C   UNL     1      10.728  -6.473 -10.313  1.00  0.00     0.198 A 
ATOM    100  F   UNL     1       8.436  -5.953 -10.394  1.00  0.00    -0.203 F 
ATOM    101  F   UNL     1      13.153  -6.055  -7.654  1.00  0.00    -0.200 F 
ATOM    102  C   UNL     1      11.930  -6.503  -9.624  1.00  0.00     0.200 A 
ATOM    103  F   UNL     1      10.669  -6.921 -11.575  1.00  0.00    -0.200 F 
ATOM    104  F   UNL     1      13.038  -6.960 -10.224  1.00  0.00    -0.200 F 
ENDBRANCH  71  94
ENDBRANCH  45  46
ENDBRANCH  37  40
ENDBRANCH  35  36
ENDBRANCH  34  35
ENDBRANCH   1  34
TORSDOF 16
