REMARK SMILES C[N@@H+]([C@@H]1CCOC2(CCCC2)C1)C(C)(C)C(=O)NCCCCCCNC(=O)c1ccc(-c2c3nc(c(-c4c(F)c(F)c(F)c(F)c4F)c4ccc([nH]4)c(-c4c(F)c(F)c(F)c(F)c4F)c4nc(c(-c5c(F)c(F)c(F)c(F)c5F)c5ccc2[nH]5)C=C4)C=C3)cc1
REMARK SMILES IDX 21 1 20 2 19 3 18 4 16 5 17 6 13 8 14 9 15 10 2 11 1 12 3 14
REMARK SMILES IDX 4 15 12 16 5 17 7 18 6 19 8 20 11 21 9 22 10 23 22 24 23 25
REMARK SMILES IDX 24 26 25 27 26 28 27 30 28 31 29 32 90 33 30 34 89 35 31 36
REMARK SMILES IDX 32 37 33 38 83 39 34 40 88 41 82 42 84 43 35 44 87 45 81 46
REMARK SMILES IDX 80 47 36 49 68 50 48 51 67 52 49 53 52 54 66 55 85 56 50 57
REMARK SMILES IDX 51 58 65 60 86 61 53 62 37 63 38 64 46 65 39 66 40 67 44 68
REMARK SMILES IDX 47 69 41 70 42 71 45 72 43 73 69 74 70 75 78 76 71 77 72 78
REMARK SMILES IDX 76 79 79 80 73 81 74 82 77 83 75 84 54 85 55 86 63 87 56 88
REMARK SMILES IDX 57 89 61 90 64 91 58 92 59 93 62 94 60 95
REMARK H PARENT 18 7 2 13 25 29 84 48 52 59
REMARK Flexibility Score: inf
ROOT
ATOM      1  C   UNL     1       2.591  -7.307   0.449  1.00  0.00     0.002 C 
ENDROOT
BRANCH   1   2
ATOM      2  C   UNL     1       3.108  -6.083  -0.323  1.00  0.00     0.021 C 
BRANCH   2   3
ATOM      3  C   UNL     1       2.076  -5.380  -1.221  1.00  0.00     0.116 C 
BRANCH   3   4
ATOM      4  N   UNL     1       0.908  -4.981  -0.468  1.00  0.00    -0.351 N 
ATOM      5  C   UNL     1       0.784  -3.875   0.324  1.00  0.00     0.280 C 
ATOM      6  O   UNL     1       0.477  -4.175   1.476  1.00  0.00    -0.268 OA
ATOM      7  H   UNL     1       0.119  -5.567  -0.533  1.00  0.00     0.163 HD
BRANCH   5   8
ATOM      8  C   UNL     1       1.098  -2.425  -0.205  1.00  0.00     0.171 C 
ATOM      9  C   UNL     1       0.622  -2.326  -1.673  1.00  0.00     0.090 C 
ATOM     10  C   UNL     1       2.644  -2.305  -0.103  1.00  0.00     0.090 C 
BRANCH   8  11
ATOM     11  N   UNL     1       0.521  -1.264   0.629  1.00  0.00    -0.323 N 
ATOM     12  C   UNL     1       0.991   0.038   0.107  1.00  0.00     0.333 C 
ATOM     13  H   UNL     1       0.893  -1.474   1.555  1.00  0.00     0.349 HD
BRANCH  11  14
ATOM     14  C   UNL     1      -0.956  -1.207   0.876  1.00  0.00     0.189 C 
ATOM     15  C   UNL     1      -1.480   0.100   1.557  1.00  0.00     0.093 C 
ATOM     16  C   UNL     1      -1.526  -2.305   1.787  1.00  0.00     0.100 C 
ATOM     17  C   UNL     1      -1.111   0.181   3.037  1.00  0.00     0.167 C 
ATOM     18  C   UNL     1      -1.045  -2.211   3.257  1.00  0.00     0.074 C 
ATOM     19  O   UNL     1      -1.566  -0.963   3.769  1.00  0.00    -0.375 OA
ATOM     20  C   UNL     1      -1.679  -3.367   4.069  1.00  0.00     0.036 C 
ATOM     21  C   UNL     1       0.467  -2.284   3.598  1.00  0.00     0.036 C 
ATOM     22  C   UNL     1      -0.541  -4.317   4.418  1.00  0.00     0.003 C 
ATOM     23  C   UNL     1       0.645  -3.401   4.620  1.00  0.00     0.003 C 
ENDBRANCH  11  14
ENDBRANCH   8  11
ENDBRANCH   5   8
ENDBRANCH   3   4
ENDBRANCH   2   3
ENDBRANCH   1   2
BRANCH   1  24
ATOM     24  C   UNL     1       1.808  -8.333  -0.374  1.00  0.00     0.002 C 
BRANCH  24  25
ATOM     25  C   UNL     1       2.492  -8.793  -1.659  1.00  0.00     0.021 C 
BRANCH  25  26
ATOM     26  C   UNL     1       3.882  -9.373  -1.457  1.00  0.00     0.116 C 
BRANCH  26  27
ATOM     27  N   UNL     1       3.845 -10.648  -0.764  1.00  0.00    -0.352 N 
ATOM     28  C   UNL     1       4.373 -11.848  -1.166  1.00  0.00     0.251 C 
ATOM     29  H   UNL     1       3.383 -10.651   0.105  1.00  0.00     0.163 HD
ATOM     30  O   UNL     1       4.088 -12.887  -0.576  1.00  0.00    -0.269 OA
BRANCH  28  31
ATOM     31  C   UNL     1       5.270 -11.886  -2.339  1.00  0.00     0.039 A 
ATOM     32  C   UNL     1       5.064 -12.859  -3.318  1.00  0.00     0.014 A 
ATOM     33  C   UNL     1       6.293 -10.943  -2.483  1.00  0.00     0.014 A 
ATOM     34  C   UNL     1       5.853 -12.854  -4.469  1.00  0.00     0.010 A 
ATOM     35  C   UNL     1       7.018 -10.886  -3.668  1.00  0.00     0.010 A 
ATOM     36  C   UNL     1       6.814 -11.848  -4.669  1.00  0.00    -0.014 A 
BRANCH  36  37
ATOM     37  C   UNL     1       7.625 -11.797  -5.911  1.00  0.00     0.031 A 
ATOM     38  C   UNL     1       9.117 -11.965  -5.842  1.00  0.00     0.074 A 
ATOM     39  C   UNL     1       7.025 -11.550  -7.091  1.00  0.00     0.049 A 
ATOM     40  N   UNL     1      10.004 -11.903  -6.804  1.00  0.00    -0.248 NA
ATOM     41  C   UNL     1       9.695 -12.206  -4.510  1.00  0.00     0.031 C 
ATOM     42  C   UNL     1       5.591 -11.325  -7.280  1.00  0.00     0.029 A 
ATOM     43  N   UNL     1       7.547 -11.440  -8.356  1.00  0.00    -0.354 N 
ATOM     44  C   UNL     1      11.237 -12.087  -6.193  1.00  0.00     0.074 A 
ATOM     45  C   UNL     1      10.993 -12.198  -4.772  1.00  0.00     0.031 C 
ATOM     46  C   UNL     1       5.344 -11.132  -8.585  1.00  0.00     0.029 A 
ATOM     47  C   UNL     1       6.605 -11.176  -9.320  1.00  0.00     0.049 A 
ATOM     48  H   UNL     1       8.506 -11.540  -8.553  1.00  0.00     0.167 HD
ATOM     49  C   UNL     1      12.459 -12.181  -6.768  1.00  0.00     0.037 A 
ATOM     50  C   UNL     1       6.744 -10.985 -10.645  1.00  0.00     0.037 A 
ATOM     51  C   UNL     1      12.693 -12.088  -8.185  1.00  0.00     0.049 A 
ATOM     52  C   UNL     1       8.117 -11.074 -11.257  1.00  0.00     0.074 A 
ATOM     53  C   UNL     1      13.885 -12.226  -8.874  1.00  0.00     0.029 A 
ATOM     54  N   UNL     1      11.713 -11.826  -9.132  1.00  0.00    -0.354 N 
ATOM     55  N   UNL     1       9.268 -11.320 -10.679  1.00  0.00    -0.248 NA
ATOM     56  C   UNL     1       8.208 -10.866 -12.709  1.00  0.00     0.031 C 
ATOM     57  C   UNL     1      13.637 -11.988 -10.229  1.00  0.00     0.029 A 
ATOM     58  C   UNL     1      12.279 -11.769 -10.396  1.00  0.00     0.049 A 
ATOM     59  H   UNL     1      10.756 -11.700  -8.935  1.00  0.00     0.167 HD
ATOM     60  C   UNL     1      10.213 -11.328 -11.697  1.00  0.00     0.074 A 
ATOM     61  C   UNL     1       9.498 -11.078 -12.931  1.00  0.00     0.031 C 
ATOM     62  C   UNL     1      11.552 -11.525 -11.616  1.00  0.00     0.037 A 
BRANCH  49  63
ATOM     63  C   UNL     1      13.639 -12.396  -5.862  1.00  0.00     0.064 A 
ATOM     64  C   UNL     1      13.822 -13.596  -5.158  1.00  0.00     0.173 A 
ATOM     65  C   UNL     1      14.618 -11.400  -5.721  1.00  0.00     0.173 A 
ATOM     66  F   UNL     1      12.911 -14.578  -5.248  1.00  0.00    -0.203 F 
ATOM     67  C   UNL     1      14.919 -13.778  -4.321  1.00  0.00     0.198 A 
ATOM     68  C   UNL     1      15.733 -11.599  -4.910  1.00  0.00     0.198 A 
ATOM     69  F   UNL     1      14.498 -10.235  -6.374  1.00  0.00    -0.203 F 
ATOM     70  F   UNL     1      15.041 -14.911  -3.616  1.00  0.00    -0.200 F 
ATOM     71  C   UNL     1      15.878 -12.784  -4.204  1.00  0.00     0.200 A 
ATOM     72  F   UNL     1      16.666 -10.642  -4.811  1.00  0.00    -0.200 F 
ATOM     73  F   UNL     1      16.938 -12.963  -3.405  1.00  0.00    -0.200 F 
ENDBRANCH  49  63
BRANCH  50  74
ATOM     74  C   UNL     1       5.550 -10.709 -11.487  1.00  0.00     0.064 A 
ATOM     75  C   UNL     1       5.103 -11.643 -12.433  1.00  0.00     0.173 A 
ATOM     76  C   UNL     1       4.836  -9.508 -11.372  1.00  0.00     0.173 A 
ATOM     77  F   UNL     1       5.763 -12.799 -12.596  1.00  0.00    -0.203 F 
ATOM     78  C   UNL     1       4.004 -11.376 -13.247  1.00  0.00     0.198 A 
ATOM     79  C   UNL     1       3.717  -9.255 -12.163  1.00  0.00     0.198 A 
ATOM     80  F   UNL     1       5.217  -8.583 -10.479  1.00  0.00    -0.203 F 
ATOM     81  F   UNL     1       3.631 -12.264 -14.178  1.00  0.00    -0.200 F 
ATOM     82  C   UNL     1       3.308 -10.184 -13.107  1.00  0.00     0.200 A 
ATOM     83  F   UNL     1       3.038  -8.110 -12.013  1.00  0.00    -0.200 F 
ATOM     84  F   UNL     1       2.249  -9.929 -13.887  1.00  0.00    -0.200 F 
ENDBRANCH  50  74
BRANCH  62  85
ATOM     85  C   UNL     1      12.329 -11.519 -12.902  1.00  0.00     0.064 A 
ATOM     86  C   UNL     1      12.533 -10.342 -13.637  1.00  0.00     0.173 A 
ATOM     87  C   UNL     1      12.911 -12.702 -13.383  1.00  0.00     0.173 A 
ATOM     88  F   UNL     1      11.987  -9.187 -13.229  1.00  0.00    -0.203 F 
ATOM     89  C   UNL     1      13.266 -10.356 -14.821  1.00  0.00     0.198 A 
ATOM     90  C   UNL     1      13.673 -12.705 -14.548  1.00  0.00     0.198 A 
ATOM     91  F   UNL     1      12.753 -13.854 -12.714  1.00  0.00    -0.203 F 
ATOM     92  F   UNL     1      13.403  -9.230 -15.535  1.00  0.00    -0.200 F 
ATOM     93  C   UNL     1      13.842 -11.535 -15.271  1.00  0.00     0.200 A 
ATOM     94  F   UNL     1      14.243 -13.842 -14.970  1.00  0.00    -0.200 F 
ATOM     95  F   UNL     1      14.555 -11.544 -16.405  1.00  0.00    -0.200 F 
ENDBRANCH  62  85
ENDBRANCH  36  37
ENDBRANCH  28  31
ENDBRANCH  26  27
ENDBRANCH  25  26
ENDBRANCH  24  25
ENDBRANCH   1  24
TORSDOF 15
