REMARK SMILES N#Cc1cc2c(nc1N1CC[NH+]([C@H](C(=O)NCCCCCCNC(=O)c3ccc(-c4c5nc(c(-c6c(F)c(F)c(F)c(F)c6F)c6ccc([nH]6)c(-c6c(F)c(F)c(F)c(F)c6F)c6nc(c(-c7c(F)c(F)c(F)c(F)c7F)c7ccc4[nH]7)C=C6)C=C5)cc3)c3c[nH]c4cc(Cl)ccc34)CC1)CCCC2
REMARK SMILES IDX 19 1 18 2 17 3 16 4 14 5 15 6 13 8 12 9 9 10 10 11 100 12
REMARK SMILES IDX 11 13 99 14 8 16 3 17 4 18 5 19 7 20 6 21 104 22 101 23
REMARK SMILES IDX 103 24 102 25 2 26 1 27 89 28 90 29 98 30 91 31 92 32 97 33
REMARK SMILES IDX 93 35 96 36 94 37 95 38 20 39 21 40 22 41 23 42 24 43 25 45
REMARK SMILES IDX 26 46 27 47 88 48 28 49 87 50 29 51 30 52 31 53 81 54 32 55
REMARK SMILES IDX 86 56 80 57 82 58 33 59 85 60 79 61 78 62 34 64 66 65 46 66
REMARK SMILES IDX 65 67 47 68 50 69 64 70 83 71 48 72 49 73 63 75 84 76 51 77
REMARK SMILES IDX 35 78 36 79 44 80 37 81 38 82 42 83 45 84 39 85 40 86 43 87
REMARK SMILES IDX 41 88 67 89 68 90 76 91 69 92 70 93 74 94 77 95 71 96 72 97
REMARK SMILES IDX 75 98 73 99 52 100 53 101 61 102 54 103 55 104 59 105 62 106
REMARK SMILES IDX 56 107 57 108 60 109 58 110
REMARK H PARENT 16 7 12 15 91 34 23 44 82 63 50 74
REMARK Flexibility Score: inf
ROOT
ATOM      1  C   UNL     1      -0.356  -5.363   4.022  1.00  0.00     0.002 C 
ENDROOT
BRANCH   1   2
ATOM      2  C   UNL     1       0.135  -6.530   3.156  1.00  0.00     0.021 C 
BRANCH   2   3
ATOM      3  C   UNL     1       0.275  -6.287   1.640  1.00  0.00     0.116 C 
BRANCH   3   4
ATOM      4  N   UNL     1       0.885  -5.030   1.225  1.00  0.00    -0.351 N 
ATOM      5  C   UNL     1       2.086  -4.712   0.623  1.00  0.00     0.283 C 
ATOM      6  O   UNL     1       2.165  -3.527   0.267  1.00  0.00    -0.268 OA
ATOM      7  H   UNL     1       0.324  -4.244   1.414  1.00  0.00     0.163 HD
BRANCH   5   8
ATOM      8  C   UNL     1       3.268  -5.761   0.401  1.00  0.00     0.307 C 
BRANCH   8   9
ATOM      9  N   UNL     1       4.213  -5.233  -0.617  1.00  0.00    -0.318 N 
ATOM     10  N   UNL     1       6.908  -5.227  -1.506  1.00  0.00    -0.344 N 
ATOM     11  C   UNL     1       5.962  -5.885  -2.378  1.00  0.00     0.179 C 
ATOM     12  C   UNL     1       6.453  -3.973  -0.934  1.00  0.00     0.179 C 
ATOM     13  C   UNL     1       4.705  -6.250  -1.558  1.00  0.00     0.284 C 
ATOM     14  C   UNL     1       5.154  -4.209  -0.138  1.00  0.00     0.284 C 
ATOM     15  H   UNL     1       3.650  -4.649  -1.235  1.00  0.00     0.349 HD
BRANCH  10  16
ATOM     16  C   UNL     1       8.121  -5.752  -1.179  1.00  0.00     0.147 A 
ATOM     17  C   UNL     1       8.351  -6.546  -0.056  1.00  0.00     0.095 A 
ATOM     18  C   UNL     1       9.662  -6.801   0.352  1.00  0.00     0.029 A 
ATOM     19  C   UNL     1      10.711  -6.461  -0.490  1.00  0.00    -0.025 A 
ATOM     20  N   UNL     1       9.137  -5.424  -2.001  1.00  0.00    -0.234 NA
ATOM     21  C   UNL     1      10.391  -5.827  -1.690  1.00  0.00     0.046 A 
ATOM     22  C   UNL     1      12.124  -6.805  -0.120  1.00  0.00     0.037 C 
ATOM     23  C   UNL     1      11.401  -5.710  -2.797  1.00  0.00     0.056 C 
ATOM     24  C   UNL     1      13.010  -6.977  -1.350  1.00  0.00     0.005 C 
ATOM     25  C   UNL     1      12.839  -5.795  -2.300  1.00  0.00     0.007 C 
BRANCH  17  26
ATOM     26  C   UNL     1       7.326  -7.326   0.541  1.00  0.00     0.103 C 
ATOM     27  N   UNL     1       6.596  -8.133   0.975  1.00  0.00    -0.192 NA
ENDBRANCH  17  26
ENDBRANCH  10  16
ENDBRANCH   8   9
BRANCH   8  28
ATOM     28  C   UNL     1       3.955  -6.312   1.732  1.00  0.00     0.044 A 
ATOM     29  C   UNL     1       3.090  -6.644   2.765  1.00  0.00     0.094 A 
ATOM     30  C   UNL     1       4.928  -5.760   2.676  1.00  0.00     0.009 A 
ATOM     31  N   UNL     1       2.907  -5.287   3.186  1.00  0.00    -0.361 N 
ATOM     32  C   UNL     1       4.182  -4.794   3.352  1.00  0.00     0.047 A 
ATOM     33  C   UNL     1       6.014  -6.249   3.452  1.00  0.00     0.012 A 
ATOM     34  H   UNL     1       2.056  -4.811   3.325  1.00  0.00     0.166 HD
ATOM     35  C   UNL     1       4.643  -3.910   4.316  1.00  0.00     0.047 A 
ATOM     36  C   UNL     1       6.437  -5.530   4.587  1.00  0.00     0.021 A 
ATOM     37  C   UNL     1       5.797  -4.346   4.961  1.00  0.00     0.043 A 
ATOM     38  Cl  UNL     1       6.290  -3.525   6.394  1.00  0.00    -0.084 Cl
ENDBRANCH   8  28
ENDBRANCH   5   8
ENDBRANCH   3   4
ENDBRANCH   2   3
ENDBRANCH   1   2
BRANCH   1  39
ATOM     39  C   UNL     1      -1.824  -5.486   4.412  1.00  0.00     0.002 C 
BRANCH  39  40
ATOM     40  C   UNL     1      -2.216  -6.862   4.960  1.00  0.00     0.021 C 
BRANCH  40  41
ATOM     41  C   UNL     1      -1.277  -7.399   6.037  1.00  0.00     0.116 C 
BRANCH  41  42
ATOM     42  N   UNL     1      -1.454  -6.680   7.285  1.00  0.00    -0.352 N 
ATOM     43  C   UNL     1      -2.070  -7.131   8.425  1.00  0.00     0.251 C 
ATOM     44  H   UNL     1      -1.090  -5.766   7.317  1.00  0.00     0.163 HD
ATOM     45  O   UNL     1      -2.441  -6.353   9.295  1.00  0.00    -0.269 OA
BRANCH  43  46
ATOM     46  C   UNL     1      -2.294  -8.583   8.573  1.00  0.00     0.039 A 
ATOM     47  C   UNL     1      -3.568  -9.044   8.901  1.00  0.00     0.014 A 
ATOM     48  C   UNL     1      -1.245  -9.481   8.344  1.00  0.00     0.014 A 
ATOM     49  C   UNL     1      -3.800 -10.417   8.964  1.00  0.00     0.010 A 
ATOM     50  C   UNL     1      -1.500 -10.847   8.326  1.00  0.00     0.010 A 
ATOM     51  C   UNL     1      -2.776 -11.329   8.652  1.00  0.00    -0.014 A 
BRANCH  51  52
ATOM     52  C   UNL     1      -3.021 -12.792   8.699  1.00  0.00     0.031 A 
ATOM     53  C   UNL     1      -2.297 -13.637   9.711  1.00  0.00     0.074 A 
ATOM     54  C   UNL     1      -3.884 -13.357   7.831  1.00  0.00     0.049 A 
ATOM     55  N   UNL     1      -2.357 -14.931   9.900  1.00  0.00    -0.248 NA
ATOM     56  C   UNL     1      -1.373 -12.942  10.624  1.00  0.00     0.031 C 
ATOM     57  C   UNL     1      -4.630 -12.641   6.795  1.00  0.00     0.029 A 
ATOM     58  N   UNL     1      -4.286 -14.661   7.686  1.00  0.00    -0.354 N 
ATOM     59  C   UNL     1      -1.494 -15.197  10.954  1.00  0.00     0.074 A 
ATOM     60  C   UNL     1      -0.866 -13.949  11.321  1.00  0.00     0.031 C 
ATOM     61  C   UNL     1      -5.428 -13.507   6.150  1.00  0.00     0.029 A 
ATOM     62  C   UNL     1      -5.217 -14.846   6.692  1.00  0.00     0.049 A 
ATOM     63  H   UNL     1      -3.940 -15.396   8.243  1.00  0.00     0.167 HD
ATOM     64  C   UNL     1      -1.277 -16.373  11.586  1.00  0.00     0.037 A 
ATOM     65  C   UNL     1      -5.827 -15.970   6.267  1.00  0.00     0.037 A 
ATOM     66  C   UNL     1      -1.918 -17.611  11.232  1.00  0.00     0.049 A 
ATOM     67  C   UNL     1      -5.504 -17.276   6.946  1.00  0.00     0.074 A 
ATOM     68  C   UNL     1      -1.773 -18.853  11.825  1.00  0.00     0.029 A 
ATOM     69  N   UNL     1      -2.830 -17.763  10.199  1.00  0.00    -0.354 N 
ATOM     70  N   UNL     1      -4.725 -17.506   7.975  1.00  0.00    -0.248 NA
ATOM     71  C   UNL     1      -6.149 -18.482   6.405  1.00  0.00     0.031 C 
ATOM     72  C   UNL     1      -2.555 -19.767  11.118  1.00  0.00     0.029 A 
ATOM     73  C   UNL     1      -3.237 -19.084  10.124  1.00  0.00     0.049 A 
ATOM     74  H   UNL     1      -3.140 -17.040   9.607  1.00  0.00     0.167 HD
ATOM     75  C   UNL     1      -4.817 -18.868   8.227  1.00  0.00     0.074 A 
ATOM     76  C   UNL     1      -5.743 -19.412   7.258  1.00  0.00     0.031 C 
ATOM     77  C   UNL     1      -4.184 -19.605   9.172  1.00  0.00     0.037 A 
BRANCH  64  78
ATOM     78  C   UNL     1      -0.338 -16.389  12.755  1.00  0.00     0.064 A 
ATOM     79  C   UNL     1      -0.699 -15.814  13.983  1.00  0.00     0.173 A 
ATOM     80  C   UNL     1       0.875 -17.091  12.689  1.00  0.00     0.173 A 
ATOM     81  F   UNL     1      -1.843 -15.121  14.093  1.00  0.00    -0.203 F 
ATOM     82  C   UNL     1       0.116 -15.947  15.103  1.00  0.00     0.198 A 
ATOM     83  C   UNL     1       1.673 -17.247  13.819  1.00  0.00     0.198 A 
ATOM     84  F   UNL     1       1.264 -17.663  11.540  1.00  0.00    -0.203 F 
ATOM     85  F   UNL     1      -0.243 -15.377  16.262  1.00  0.00    -0.200 F 
ATOM     86  C   UNL     1       1.292 -16.677  15.024  1.00  0.00     0.200 A 
ATOM     87  F   UNL     1       2.800 -17.969  13.747  1.00  0.00    -0.200 F 
ATOM     88  F   UNL     1       2.057 -16.836  16.113  1.00  0.00    -0.200 F 
ENDBRANCH  64  78
BRANCH  65  89
ATOM     89  C   UNL     1      -6.820 -15.920   5.158  1.00  0.00     0.064 A 
ATOM     90  C   UNL     1      -8.163 -16.259   5.379  1.00  0.00     0.173 A 
ATOM     91  C   UNL     1      -6.446 -15.575   3.850  1.00  0.00     0.173 A 
ATOM     92  F   UNL     1      -8.570 -16.615   6.606  1.00  0.00    -0.203 F 
ATOM     93  C   UNL     1      -9.083 -16.290   4.332  1.00  0.00     0.198 A 
ATOM     94  C   UNL     1      -7.375 -15.568   2.812  1.00  0.00     0.198 A 
ATOM     95  F   UNL     1      -5.176 -15.239   3.580  1.00  0.00    -0.203 F 
ATOM     96  F   UNL     1     -10.343 -16.683   4.562  1.00  0.00    -0.200 F 
ATOM     97  C   UNL     1      -8.689 -15.940   3.050  1.00  0.00     0.200 A 
ATOM     98  F   UNL     1      -6.994 -15.211   1.577  1.00  0.00    -0.200 F 
ATOM     99  F   UNL     1      -9.573 -15.971   2.043  1.00  0.00    -0.200 F 
ENDBRANCH  65  89
BRANCH  77 100
ATOM    100  C   UNL     1      -4.492 -21.073   9.241  1.00  0.00     0.064 A 
ATOM    101  C   UNL     1      -4.058 -21.963   8.248  1.00  0.00     0.173 A 
ATOM    102  C   UNL     1      -5.154 -21.608  10.359  1.00  0.00     0.173 A 
ATOM    103  F   UNL     1      -3.430 -21.502   7.156  1.00  0.00    -0.203 F 
ATOM    104  C   UNL     1      -4.292 -23.331   8.362  1.00  0.00     0.198 A 
ATOM    105  C   UNL     1      -5.351 -22.979  10.487  1.00  0.00     0.198 A 
ATOM    106  F   UNL     1      -5.578 -20.802  11.344  1.00  0.00    -0.203 F 
ATOM    107  F   UNL     1      -3.905 -24.157   7.381  1.00  0.00    -0.200 F 
ATOM    108  C   UNL     1      -4.926 -23.839   9.486  1.00  0.00     0.200 A 
ATOM    109  F   UNL     1      -5.942 -23.470  11.585  1.00  0.00    -0.200 F 
ATOM    110  F   UNL     1      -5.128 -25.158   9.604  1.00  0.00    -0.200 F 
ENDBRANCH  77 100
ENDBRANCH  51  52
ENDBRANCH  43  46
ENDBRANCH  41  42
ENDBRANCH  40  41
ENDBRANCH  39  40
ENDBRANCH   1  39
TORSDOF 17
