REMARK SMILES Cc1cccc(O[C@H]2CC[C@@]([NH2+]C(C)C)(C(=O)NCCCCCCNC(=O)c3ccc(-c4c5nc(c(-c6c(F)c(F)c(F)c(F)c6F)c6ccc([nH]6)c(-c6c(F)c(F)c(F)c(F)c6F)c6nc(c(-c7c(F)c(F)c(F)c(F)c7F)c7ccc4[nH]7)C=C6)C=C5)cc3)C2)c1
REMARK SMILES IDX 21 1 20 2 19 3 18 4 16 5 17 6 11 8 8 9 9 10 91 11 10 12 7 13
REMARK SMILES IDX 6 14 1 15 2 16 3 17 92 18 4 19 5 20 12 21 13 24 14 25 15 26
REMARK SMILES IDX 22 27 23 28 24 29 25 30 26 31 27 33 28 34 29 35 90 36 30 37
REMARK SMILES IDX 89 38 31 39 32 40 33 41 83 42 34 43 88 44 82 45 84 46 35 47
REMARK SMILES IDX 87 48 81 49 80 50 36 52 68 53 48 54 67 55 49 56 52 57 66 58
REMARK SMILES IDX 85 59 50 60 51 61 65 63 86 64 53 65 37 66 38 67 46 68 39 69
REMARK SMILES IDX 40 70 44 71 47 72 41 73 42 74 45 75 43 76 69 77 70 78 78 79
REMARK SMILES IDX 71 80 72 81 76 82 79 83 73 84 74 85 77 86 75 87 54 88 55 89
REMARK SMILES IDX 63 90 56 91 57 92 61 93 64 94 58 95 59 96 62 97 60 98
REMARK H PARENT 18 7 12 22 12 23 25 32 84 51 52 62
REMARK Flexibility Score: inf
ROOT
ATOM      1  C   UNL     1       1.636  10.027   0.472  1.00  0.00     0.002 C 
ENDROOT
BRANCH   1   2
ATOM      2  C   UNL     1       2.001   8.633  -0.059  1.00  0.00     0.021 C 
BRANCH   2   3
ATOM      3  C   UNL     1       2.021   7.513   0.983  1.00  0.00     0.116 C 
BRANCH   3   4
ATOM      4  N   UNL     1       0.700   7.240   1.511  1.00  0.00    -0.351 N 
ATOM      5  C   UNL     1       0.025   6.055   1.627  1.00  0.00     0.281 C 
ATOM      6  O   UNL     1      -1.027   6.085   2.274  1.00  0.00    -0.268 OA
ATOM      7  H   UNL     1       0.212   8.030   1.838  1.00  0.00     0.163 HD
BRANCH   5   8
ATOM      8  C   UNL     1       0.602   4.727   1.030  1.00  0.00     0.179 C 
ATOM      9  C   UNL     1      -1.096   3.531  -0.289  1.00  0.00     0.180 C 
ATOM     10  C   UNL     1       0.099   3.781  -1.197  1.00  0.00     0.052 C 
ATOM     11  C   UNL     1      -0.436   3.573   1.093  1.00  0.00     0.124 C 
ATOM     12  C   UNL     1       0.865   4.893  -0.493  1.00  0.00     0.083 C 
BRANCH   9  13
ATOM     13  O   UNL     1      -2.053   4.585  -0.367  1.00  0.00    -0.490 OA
BRANCH  13  14
ATOM     14  C   UNL     1      -2.950   4.583  -1.398  1.00  0.00     0.119 A 
ATOM     15  C   UNL     1      -5.941   6.796  -2.242  1.00  0.00     0.044 C 
ATOM     16  C   UNL     1      -4.895   5.725  -2.324  1.00  0.00    -0.047 A 
ATOM     17  C   UNL     1      -4.864   4.861  -3.424  1.00  0.00     0.003 A 
ATOM     18  C   UNL     1      -3.925   5.583  -1.322  1.00  0.00     0.049 A 
ATOM     19  C   UNL     1      -3.899   3.858  -3.502  1.00  0.00     0.004 A 
ATOM     20  C   UNL     1      -2.950   3.713  -2.488  1.00  0.00     0.046 A 
ENDBRANCH  13  14
ENDBRANCH   9  13
BRANCH   8  21
ATOM     21  N   UNL     1       1.881   4.360   1.700  1.00  0.00    -0.332 N 
ATOM     22  H   UNL     1       2.592   5.020   1.383  1.00  0.00     0.347 HD
ATOM     23  H   UNL     1       2.041   3.387   1.438  1.00  0.00     0.347 HD
BRANCH  21  24
ATOM     24  C   UNL     1       1.905   4.361   3.169  1.00  0.00     0.176 C 
ATOM     25  C   UNL     1       1.248   3.132   3.799  1.00  0.00     0.075 C 
ATOM     26  C   UNL     1       3.380   4.407   3.584  1.00  0.00     0.075 C 
ENDBRANCH  21  24
ENDBRANCH   8  21
ENDBRANCH   5   8
ENDBRANCH   3   4
ENDBRANCH   2   3
ENDBRANCH   1   2
BRANCH   1  27
ATOM     27  C   UNL     1       2.442  10.541   1.676  1.00  0.00     0.002 C 
BRANCH  27  28
ATOM     28  C   UNL     1       3.965  10.421   1.575  1.00  0.00     0.021 C 
BRANCH  28  29
ATOM     29  C   UNL     1       4.594  11.280   0.484  1.00  0.00     0.116 C 
BRANCH  29  30
ATOM     30  N   UNL     1       5.203  12.514   0.967  1.00  0.00    -0.352 N 
ATOM     31  C   UNL     1       5.734  13.556   0.225  1.00  0.00     0.251 C 
ATOM     32  H   UNL     1       5.243  12.619   1.945  1.00  0.00     0.163 HD
ATOM     33  O   UNL     1       6.228  14.531   0.769  1.00  0.00    -0.269 OA
BRANCH  31  34
ATOM     34  C   UNL     1       5.586  13.517  -1.248  1.00  0.00     0.039 A 
ATOM     35  C   UNL     1       4.944  14.592  -1.872  1.00  0.00     0.014 A 
ATOM     36  C   UNL     1       5.872  12.352  -1.957  1.00  0.00     0.014 A 
ATOM     37  C   UNL     1       4.379  14.405  -3.131  1.00  0.00     0.010 A 
ATOM     38  C   UNL     1       5.245  12.138  -3.171  1.00  0.00     0.010 A 
ATOM     39  C   UNL     1       4.443  13.140  -3.724  1.00  0.00    -0.014 A 
BRANCH  39  40
ATOM     40  C   UNL     1       3.580  12.759  -4.836  1.00  0.00     0.031 A 
ATOM     41  C   UNL     1       4.091  12.713  -6.219  1.00  0.00     0.074 A 
ATOM     42  C   UNL     1       2.283  12.454  -4.605  1.00  0.00     0.049 A 
ATOM     43  N   UNL     1       3.381  13.018  -7.254  1.00  0.00    -0.248 NA
ATOM     44  C   UNL     1       5.461  12.337  -6.545  1.00  0.00     0.031 C 
ATOM     45  C   UNL     1       1.323  11.907  -5.561  1.00  0.00     0.029 A 
ATOM     46  N   UNL     1       1.507  12.787  -3.481  1.00  0.00    -0.354 N 
ATOM     47  C   UNL     1       4.090  12.642  -8.369  1.00  0.00     0.074 A 
ATOM     48  C   UNL     1       5.404  12.284  -7.880  1.00  0.00     0.031 C 
ATOM     49  C   UNL     1       0.084  12.212  -5.149  1.00  0.00     0.029 A 
ATOM     50  C   UNL     1       0.212  13.059  -3.977  1.00  0.00     0.049 A 
ATOM     51  H   UNL     1       1.805  12.824  -2.544  1.00  0.00     0.167 HD
ATOM     52  C   UNL     1       3.459  12.536  -9.574  1.00  0.00     0.037 A 
ATOM     53  C   UNL     1      -0.386  14.272  -3.810  1.00  0.00     0.037 A 
ATOM     54  C   UNL     1       2.037  12.841  -9.470  1.00  0.00     0.049 A 
ATOM     55  C   UNL     1      -0.788  14.943  -5.099  1.00  0.00     0.074 A 
ATOM     56  C   UNL     1       0.925  12.027  -9.328  1.00  0.00     0.029 A 
ATOM     57  N   UNL     1       1.618  14.135  -9.187  1.00  0.00    -0.354 N 
ATOM     58  N   UNL     1      -0.299  14.623  -6.264  1.00  0.00    -0.248 NA
ATOM     59  C   UNL     1      -1.731  16.055  -5.175  1.00  0.00     0.031 C 
ATOM     60  C   UNL     1      -0.169  12.834  -8.942  1.00  0.00     0.029 A 
ATOM     61  C   UNL     1       0.276  14.141  -8.855  1.00  0.00     0.049 A 
ATOM     62  H   UNL     1       2.193  14.933  -9.217  1.00  0.00     0.167 HD
ATOM     63  C   UNL     1      -0.809  15.465  -7.220  1.00  0.00     0.074 A 
ATOM     64  C   UNL     1      -1.718  16.328  -6.492  1.00  0.00     0.031 C 
ATOM     65  C   UNL     1      -0.418  15.375  -8.527  1.00  0.00     0.037 A 
BRANCH  52  66
ATOM     66  C   UNL     1       4.083  11.853 -10.766  1.00  0.00     0.064 A 
ATOM     67  C   UNL     1       3.322  11.040 -11.632  1.00  0.00     0.173 A 
ATOM     68  C   UNL     1       5.453  11.935 -11.075  1.00  0.00     0.173 A 
ATOM     69  F   UNL     1       1.991  10.950 -11.524  1.00  0.00    -0.203 F 
ATOM     70  C   UNL     1       3.905  10.270 -12.641  1.00  0.00     0.198 A 
ATOM     71  C   UNL     1       6.045  11.127 -12.052  1.00  0.00     0.198 A 
ATOM     72  F   UNL     1       6.247  12.817 -10.451  1.00  0.00    -0.203 F 
ATOM     73  F   UNL     1       3.133   9.499 -13.420  1.00  0.00    -0.200 F 
ATOM     74  C   UNL     1       5.272  10.283 -12.825  1.00  0.00     0.200 A 
ATOM     75  F   UNL     1       7.373  11.165 -12.230  1.00  0.00    -0.200 F 
ATOM     76  F   UNL     1       5.839   9.500 -13.752  1.00  0.00    -0.200 F 
ENDBRANCH  52  66
BRANCH  53  77
ATOM     77  C   UNL     1       0.045  14.980  -2.579  1.00  0.00     0.064 A 
ATOM     78  C   UNL     1      -0.252  14.396  -1.333  1.00  0.00     0.173 A 
ATOM     79  C   UNL     1       1.020  15.983  -2.608  1.00  0.00     0.173 A 
ATOM     80  F   UNL     1      -1.179  13.427  -1.252  1.00  0.00    -0.203 F 
ATOM     81  C   UNL     1       0.473  14.719  -0.189  1.00  0.00     0.198 A 
ATOM     82  C   UNL     1       1.734  16.317  -1.456  1.00  0.00     0.198 A 
ATOM     83  F   UNL     1       1.360  16.564  -3.768  1.00  0.00    -0.203 F 
ATOM     84  F   UNL     1       0.239  14.064   0.958  1.00  0.00    -0.200 F 
ATOM     85  C   UNL     1       1.484  15.662  -0.258  1.00  0.00     0.200 A 
ATOM     86  F   UNL     1       2.727  17.215  -1.525  1.00  0.00    -0.200 F 
ATOM     87  F   UNL     1       2.240  15.913   0.820  1.00  0.00    -0.200 F 
ENDBRANCH  53  77
BRANCH  65  88
ATOM     88  C   UNL     1      -0.728  16.350  -9.640  1.00  0.00     0.064 A 
ATOM     89  C   UNL     1      -1.005  17.712  -9.445  1.00  0.00     0.173 A 
ATOM     90  C   UNL     1      -0.611  15.945 -10.996  1.00  0.00     0.173 A 
ATOM     91  F   UNL     1      -1.025  18.253  -8.221  1.00  0.00    -0.203 F 
ATOM     92  C   UNL     1      -1.212  18.588 -10.517  1.00  0.00     0.198 A 
ATOM     93  C   UNL     1      -0.760  16.833 -12.061  1.00  0.00     0.198 A 
ATOM     94  F   UNL     1      -0.322  14.679 -11.330  1.00  0.00    -0.203 F 
ATOM     95  F   UNL     1      -1.515  19.871 -10.275  1.00  0.00    -0.200 F 
ATOM     96  C   UNL     1      -1.077  18.152 -11.822  1.00  0.00     0.200 A 
ATOM     97  F   UNL     1      -0.573  16.403 -13.317  1.00  0.00    -0.200 F 
ATOM     98  F   UNL     1      -1.229  19.005 -12.843  1.00  0.00    -0.200 F 
ENDBRANCH  65  88
ENDBRANCH  39  40
ENDBRANCH  31  34
ENDBRANCH  29  30
ENDBRANCH  28  29
ENDBRANCH  27  28
ENDBRANCH   1  27
TORSDOF 17
