REMARK SMILES COc1cccc(N2/C(=[NH+]/C(=O)CCC(=O)NCCCCCCNC(=O)c3ccc(-c4c5nc(c(-c6c(F)c(F)c(F)c(F)c6F)c6ccc([nH]6)c(-c6c(F)c(F)c(F)c(F)c6F)c6nc(c(-c7c(F)c(F)c(F)c(F)c7F)c7ccc4[nH]7)C=C6)C=C5)cc3)S[C@@H]3CS(=O)(=O)C[C@H]32)c1
REMARK SMILES IDX 19 1 18 2 17 3 15 4 16 5 14 7 13 8 11 9 8 10 9 11 97 12
REMARK SMILES IDX 10 13 90 14 91 15 96 16 92 18 93 19 12 20 94 21 95 22 7 23
REMARK SMILES IDX 3 24 4 25 98 26 5 27 6 28 2 29 1 30 20 31 21 32 22 33 23 34
REMARK SMILES IDX 24 35 25 36 26 38 27 39 28 40 89 41 29 42 88 43 30 44 31 45
REMARK SMILES IDX 32 46 82 47 33 48 87 49 81 50 83 51 34 52 86 53 80 54 79 55
REMARK SMILES IDX 35 57 67 58 47 59 66 60 48 61 51 62 65 63 84 64 49 65 50 66
REMARK SMILES IDX 64 68 85 69 52 70 36 71 37 72 45 73 38 74 39 75 43 76 46 77
REMARK SMILES IDX 40 78 41 79 44 80 42 81 68 82 69 83 77 84 70 85 71 86 75 87
REMARK SMILES IDX 78 88 72 89 73 90 76 91 74 92 53 93 54 94 62 95 55 96 56 97
REMARK SMILES IDX 60 98 63 99 57 100 58 101 61 102 59 103
REMARK H PARENT 17 6 10 17 24 37 83 56 51 67
REMARK Flexibility Score: inf
ROOT
ATOM      1  C   UNL     1       5.736  -2.094   0.736  1.00  0.00     0.021 C 
ENDROOT
BRANCH   1   2
ATOM      2  C   UNL     1       5.802  -0.645   0.193  1.00  0.00     0.116 C 
BRANCH   2   3
ATOM      3  N   UNL     1       4.733   0.245   0.632  1.00  0.00    -0.356 N 
ATOM      4  C   UNL     1       4.685   1.314   1.474  1.00  0.00     0.220 C 
ATOM      5  O   UNL     1       3.615   1.922   1.563  1.00  0.00    -0.275 OA
ATOM      6  H   UNL     1       3.859   0.027   0.234  1.00  0.00     0.163 HD
BRANCH   4   7
ATOM      7  C   UNL     1       5.872   1.747   2.304  1.00  0.00     0.112 C 
BRANCH   7   8
ATOM      8  C   UNL     1       5.601   1.457   3.778  1.00  0.00     0.138 C 
BRANCH   8   9
ATOM      9  C   UNL     1       5.828  -0.012   3.964  1.00  0.00     0.308 C 
ATOM     10  N   UNL     1       3.752  -2.966   4.389  1.00  0.00    -0.216 N 
ATOM     11  C   UNL     1       4.696  -1.939   4.522  1.00  0.00     0.319 C 
ATOM     12  C   UNL     1       4.478  -4.237   4.269  1.00  0.00     0.212 C 
ATOM     13  N   UNL     1       4.676  -0.761   4.003  1.00  0.00    -0.204 N 
ATOM     14  S   UNL     1       6.078  -2.562   5.493  1.00  0.00    -0.029 SA
ATOM     15  C   UNL     1       5.458  -4.232   5.449  1.00  0.00     0.120 C 
ATOM     16  C   UNL     1       3.878  -5.619   4.306  1.00  0.00     0.188 C 
ATOM     17  H   UNL     1       3.839  -0.398   3.635  1.00  0.00     0.316 HD
ATOM     18  C   UNL     1       6.459  -5.302   5.133  1.00  0.00     0.156 C 
ATOM     19  S   UNL     1       5.389  -6.608   4.597  1.00  0.00     0.155 S 
ATOM     20  O   UNL     1       6.970  -0.453   3.833  1.00  0.00    -0.247 OA
ATOM     21  O   UNL     1       5.155  -7.516   5.695  1.00  0.00    -0.229 OA
ATOM     22  O   UNL     1       5.957  -7.035   3.338  1.00  0.00    -0.229 OA
BRANCH  10  23
ATOM     23  C   UNL     1       2.419  -2.832   3.963  1.00  0.00     0.132 A 
ATOM     24  C   UNL     1       0.646  -1.786   2.615  1.00  0.00     0.123 A 
ATOM     25  C   UNL     1      -0.316  -2.524   3.300  1.00  0.00     0.047 A 
ATOM     26  C   UNL     1       2.000  -1.925   2.966  1.00  0.00     0.098 A 
ATOM     27  C   UNL     1       0.062  -3.407   4.303  1.00  0.00     0.008 A 
ATOM     28  C   UNL     1       1.413  -3.559   4.624  1.00  0.00     0.052 A 
BRANCH  24  29
ATOM     29  O   UNL     1       0.120  -0.913   1.705  1.00  0.00    -0.497 OA
ATOM     30  C   UNL     1       0.916  -0.545   0.591  1.00  0.00     0.278 C 
ENDBRANCH  24  29
ENDBRANCH  10  23
ENDBRANCH   8   9
ENDBRANCH   7   8
ENDBRANCH   4   7
ENDBRANCH   2   3
ENDBRANCH   1   2
BRANCH   1  31
ATOM     31  C   UNL     1       4.397  -2.851   0.605  1.00  0.00     0.002 C 
BRANCH  31  32
ATOM     32  C   UNL     1       4.238  -4.036  -0.378  1.00  0.00     0.002 C 
BRANCH  32  33
ATOM     33  C   UNL     1       5.226  -5.225  -0.362  1.00  0.00     0.021 C 
BRANCH  33  34
ATOM     34  C   UNL     1       5.021  -6.365   0.664  1.00  0.00     0.116 C 
BRANCH  34  35
ATOM     35  N   UNL     1       3.835  -7.210   0.516  1.00  0.00    -0.352 N 
ATOM     36  C   UNL     1       3.578  -8.484   1.018  1.00  0.00     0.251 C 
ATOM     37  H   UNL     1       3.108  -6.818  -0.020  1.00  0.00     0.163 HD
ATOM     38  O   UNL     1       2.417  -8.885   1.070  1.00  0.00    -0.269 OA
BRANCH  36  39
ATOM     39  C   UNL     1       4.652  -9.383   1.523  1.00  0.00     0.039 A 
ATOM     40  C   UNL     1       5.370 -10.220   0.678  1.00  0.00     0.014 A 
ATOM     41  C   UNL     1       4.890  -9.495   2.887  1.00  0.00     0.014 A 
ATOM     42  C   UNL     1       6.432 -10.998   1.191  1.00  0.00     0.010 A 
ATOM     43  C   UNL     1       6.072 -10.107   3.359  1.00  0.00     0.010 A 
ATOM     44  C   UNL     1       6.912 -10.838   2.513  1.00  0.00    -0.014 A 
BRANCH  44  45
ATOM     45  C   UNL     1       8.296 -11.344   2.915  1.00  0.00     0.031 A 
ATOM     46  C   UNL     1       8.627 -11.993   4.258  1.00  0.00     0.074 A 
ATOM     47  C   UNL     1       9.345 -11.134   2.078  1.00  0.00     0.049 A 
ATOM     48  N   UNL     1       9.777 -12.487   4.680  1.00  0.00    -0.248 NA
ATOM     49  C   UNL     1       7.576 -12.048   5.281  1.00  0.00     0.031 C 
ATOM     50  C   UNL     1       9.298 -10.358   0.836  1.00  0.00     0.029 A 
ATOM     51  N   UNL     1      10.659 -11.563   2.124  1.00  0.00    -0.354 N 
ATOM     52  C   UNL     1       9.585 -12.867   6.008  1.00  0.00     0.074 A 
ATOM     53  C   UNL     1       8.237 -12.472   6.349  1.00  0.00     0.031 C 
ATOM     54  C   UNL     1      10.465 -10.466   0.187  1.00  0.00     0.029 A 
ATOM     55  C   UNL     1      11.387 -11.253   0.994  1.00  0.00     0.049 A 
ATOM     56  H   UNL     1      11.040 -12.044   2.894  1.00  0.00     0.167 HD
ATOM     57  C   UNL     1      10.417 -13.524   6.861  1.00  0.00     0.037 A 
ATOM     58  C   UNL     1      12.646 -11.563   0.621  1.00  0.00     0.037 A 
ATOM     59  C   UNL     1      11.744 -13.985   6.529  1.00  0.00     0.049 A 
ATOM     60  C   UNL     1      13.518 -12.383   1.531  1.00  0.00     0.074 A 
ATOM     61  C   UNL     1      12.606 -14.761   7.289  1.00  0.00     0.029 A 
ATOM     62  N   UNL     1      12.403 -13.713   5.342  1.00  0.00    -0.354 N 
ATOM     63  N   UNL     1      13.252 -12.859   2.721  1.00  0.00    -0.248 NA
ATOM     64  C   UNL     1      14.867 -12.714   1.043  1.00  0.00     0.031 C 
ATOM     65  C   UNL     1      13.801 -14.922   6.580  1.00  0.00     0.029 A 
ATOM     66  C   UNL     1      13.663 -14.294   5.355  1.00  0.00     0.049 A 
ATOM     67  H   UNL     1      12.032 -13.186   4.598  1.00  0.00     0.167 HD
ATOM     68  C   UNL     1      14.382 -13.567   3.109  1.00  0.00     0.074 A 
ATOM     69  C   UNL     1      15.330 -13.478   2.021  1.00  0.00     0.031 C 
ATOM     70  C   UNL     1      14.607 -14.226   4.270  1.00  0.00     0.037 A 
BRANCH  57  71
ATOM     71  C   UNL     1       9.904 -13.847   8.245  1.00  0.00     0.064 A 
ATOM     72  C   UNL     1       8.855 -14.760   8.443  1.00  0.00     0.173 A 
ATOM     73  C   UNL     1      10.510 -13.300   9.390  1.00  0.00     0.173 A 
ATOM     74  F   UNL     1       8.248 -15.328   7.391  1.00  0.00    -0.203 F 
ATOM     75  C   UNL     1       8.400 -15.072   9.723  1.00  0.00     0.198 A 
ATOM     76  C   UNL     1      10.077 -13.645  10.670  1.00  0.00     0.198 A 
ATOM     77  F   UNL     1      11.538 -12.447   9.271  1.00  0.00    -0.203 F 
ATOM     78  F   UNL     1       7.358 -15.901   9.876  1.00  0.00    -0.200 F 
ATOM     79  C   UNL     1       9.014 -14.520  10.835  1.00  0.00     0.200 A 
ATOM     80  F   UNL     1      10.691 -13.133  11.746  1.00  0.00    -0.200 F 
ATOM     81  F   UNL     1       8.581 -14.829  12.065  1.00  0.00    -0.200 F 
ENDBRANCH  57  71
BRANCH  58  82
ATOM     82  C   UNL     1      13.152 -11.145  -0.720  1.00  0.00     0.064 A 
ATOM     83  C   UNL     1      13.403 -12.098  -1.720  1.00  0.00     0.173 A 
ATOM     84  C   UNL     1      13.403  -9.801  -1.028  1.00  0.00     0.173 A 
ATOM     85  F   UNL     1      13.201 -13.400  -1.470  1.00  0.00    -0.203 F 
ATOM     86  C   UNL     1      13.910 -11.724  -2.963  1.00  0.00     0.198 A 
ATOM     87  C   UNL     1      13.875  -9.425  -2.285  1.00  0.00     0.198 A 
ATOM     88  F   UNL     1      13.171  -8.847  -0.114  1.00  0.00    -0.203 F 
ATOM     89  F   UNL     1      14.194 -12.662  -3.878  1.00  0.00    -0.200 F 
ATOM     90  C   UNL     1      14.139 -10.387  -3.248  1.00  0.00     0.200 A 
ATOM     91  F   UNL     1      14.075  -8.129  -2.563  1.00  0.00    -0.200 F 
ATOM     92  F   UNL     1      14.620 -10.027  -4.445  1.00  0.00    -0.200 F 
ENDBRANCH  58  82
BRANCH  70  93
ATOM     93  C   UNL     1      15.914 -14.951   4.420  1.00  0.00     0.064 A 
ATOM     94  C   UNL     1      17.128 -14.265   4.573  1.00  0.00     0.173 A 
ATOM     95  C   UNL     1      15.946 -16.354   4.451  1.00  0.00     0.173 A 
ATOM     96  F   UNL     1      17.156 -12.924   4.535  1.00  0.00    -0.203 F 
ATOM     97  C   UNL     1      18.327 -14.956   4.728  1.00  0.00     0.198 A 
ATOM     98  C   UNL     1      17.143 -17.041   4.637  1.00  0.00     0.198 A 
ATOM     99  F   UNL     1      14.814 -17.060   4.313  1.00  0.00    -0.203 F 
ATOM    100  F   UNL     1      19.481 -14.280   4.825  1.00  0.00    -0.200 F 
ATOM    101  C   UNL     1      18.333 -16.343   4.768  1.00  0.00     0.200 A 
ATOM    102  F   UNL     1      17.143 -18.380   4.690  1.00  0.00    -0.200 F 
ATOM    103  F   UNL     1      19.487 -17.006   4.927  1.00  0.00    -0.200 F 
ENDBRANCH  70  93
ENDBRANCH  44  45
ENDBRANCH  36  39
ENDBRANCH  34  35
ENDBRANCH  33  34
ENDBRANCH  32  33
ENDBRANCH  31  32
ENDBRANCH   1  31
TORSDOF 17
