REMARK SMILES C[C@@H](Oc1ccc(/C=C2\C(=O)[NH+]=C(NCCCCCCNC(=O)c3ccc(-c4c5nc(c(-c6c(F)c(F)c(F)c(F)c6F)c6ccc([nH]6)c(-c6c(F)c(F)c(F)c(F)c6F)c6nc(c(-c7c(F)c(F)c(F)c(F)c7F)c7ccc4[nH]7)C=C6)C=C5)cc3)N(c3ccc4c(c3)OCO4)C2=O)cc1)C(=O)[O-]
REMARK SMILES IDX 17 1 16 2 15 3 14 4 8 5 9 6 10 7 97 8 11 9 12 10 87 11 98 12
REMARK SMILES IDX 13 13 7 16 4 17 5 18 100 19 6 20 99 21 3 22 2 23 1 24 101 25
REMARK SMILES IDX 102 26 103 27 88 28 89 29 93 30 90 31 92 32 91 33 94 34
REMARK SMILES IDX 96 35 95 36 18 37 19 38 20 39 21 40 22 41 23 43 24 44 25 45
REMARK SMILES IDX 86 46 26 47 85 48 27 49 28 50 29 51 79 52 30 53 84 54 78 55
REMARK SMILES IDX 80 56 31 57 83 58 77 59 76 60 32 62 64 63 44 64 63 65 45 66
REMARK SMILES IDX 48 67 62 68 81 69 46 70 47 71 61 73 82 74 49 75 33 76 34 77
REMARK SMILES IDX 42 78 35 79 36 80 40 81 43 82 37 83 38 84 41 85 39 86 65 87
REMARK SMILES IDX 66 88 74 89 67 90 68 91 72 92 75 93 69 94 70 95 73 96 71 97
REMARK SMILES IDX 50 98 51 99 59 100 52 101 53 102 57 103 60 104 54 105 55 106
REMARK SMILES IDX 58 107 56 108
REMARK H PARENT 12 14 14 15 21 42 80 61 48 72
REMARK Flexibility Score: inf
ROOT
ATOM      1  C   UNL     1       9.918   5.794  -8.689  1.00  0.00     0.003 C 
ENDROOT
BRANCH   1   2
ATOM      2  C   UNL     1       8.451   5.699  -8.249  1.00  0.00     0.037 C 
BRANCH   2   3
ATOM      3  C   UNL     1       7.830   4.319  -8.449  1.00  0.00     0.197 C 
BRANCH   3   4
ATOM      4  N   UNL     1       8.518   3.347  -7.626  1.00  0.00    -0.277 N 
ATOM      5  C   UNL     1       6.210   0.674  -3.630  1.00  0.00     0.031 C 
ATOM      6  C   UNL     1       6.900   1.603  -4.318  1.00  0.00     0.138 C 
ATOM      7  C   UNL     1       6.388   2.899  -4.795  1.00  0.00     0.321 C 
ATOM      8  C   UNL     1       8.309   1.286  -4.617  1.00  0.00     0.328 C 
ATOM      9  O   UNL     1       5.546   3.537  -4.183  1.00  0.00    -0.250 OA
ATOM     10  N   UNL     1       6.913   3.318  -5.982  1.00  0.00    -0.210 N 
ATOM     11  N   UNL     1       8.826   1.982  -5.702  1.00  0.00    -0.162 N 
ATOM     12  O   UNL     1       8.931   0.461  -3.948  1.00  0.00    -0.249 OA
ATOM     13  C   UNL     1       8.062   2.901  -6.412  1.00  0.00     0.366 C 
ATOM     14  H   UNL     1       6.403   3.958  -6.530  1.00  0.00     0.270 HD
ATOM     15  H   UNL     1       9.369   2.982  -7.960  1.00  0.00     0.260 HD
BRANCH   5  16
ATOM     16  C   UNL     1       4.798   0.651  -3.231  1.00  0.00    -0.024 A 
ATOM     17  C   UNL     1       2.129   0.381  -2.405  1.00  0.00     0.120 A 
ATOM     18  C   UNL     1       2.423   0.976  -3.630  1.00  0.00     0.047 A 
ATOM     19  C   UNL     1       3.156  -0.125  -1.617  1.00  0.00     0.047 A 
ATOM     20  C   UNL     1       3.753   1.101  -4.046  1.00  0.00     0.012 A 
ATOM     21  C   UNL     1       4.483   0.022  -2.020  1.00  0.00     0.012 A 
BRANCH  17  22
ATOM     22  O   UNL     1       0.815   0.188  -2.087  1.00  0.00    -0.485 OA
BRANCH  22  23
ATOM     23  C   UNL     1       0.389   0.883  -0.906  1.00  0.00     0.216 C 
ATOM     24  C   UNL     1       0.583   0.046   0.355  1.00  0.00     0.059 C 
BRANCH  23  25
ATOM     25  C   UNL     1      -1.102   1.174  -1.037  1.00  0.00     0.082 C 
ATOM     26  O   UNL     1      -1.662   2.206  -0.696  1.00  0.00    -0.546 OA
ATOM     27  O   UNL     1      -1.829   0.135  -1.500  1.00  0.00    -0.546 OA
ENDBRANCH  23  25
ENDBRANCH  22  23
ENDBRANCH  17  22
ENDBRANCH   5  16
BRANCH  11  28
ATOM     28  C   UNL     1      10.153   1.655  -6.087  1.00  0.00     0.115 A 
ATOM     29  C   UNL     1      11.205   2.560  -5.828  1.00  0.00     0.048 A 
ATOM     30  C   UNL     1      10.417   0.376  -6.593  1.00  0.00     0.094 A 
ATOM     31  C   UNL     1      12.534   2.168  -6.025  1.00  0.00     0.054 A 
ATOM     32  C   UNL     1      11.733   0.022  -6.771  1.00  0.00     0.169 A 
ATOM     33  C   UNL     1      12.763   0.886  -6.479  1.00  0.00     0.166 A 
ATOM     34  O   UNL     1      12.174  -1.194  -7.187  1.00  0.00    -0.453 OA
ATOM     35  O   UNL     1      13.980   0.305  -6.657  1.00  0.00    -0.454 OA
ATOM     36  C   UNL     1      13.586  -1.058  -6.929  1.00  0.00     0.468 C 
ENDBRANCH  11  28
ENDBRANCH   3   4
ENDBRANCH   2   3
ENDBRANCH   1   2
BRANCH   1  37
ATOM     37  C   UNL     1      10.191   5.396 -10.143  1.00  0.00     0.002 C 
BRANCH  37  38
ATOM     38  C   UNL     1       9.361   6.146 -11.187  1.00  0.00     0.021 C 
BRANCH  38  39
ATOM     39  C   UNL     1       9.514   7.663 -11.151  1.00  0.00     0.116 C 
BRANCH  39  40
ATOM     40  N   UNL     1      10.870   8.088 -11.462  1.00  0.00    -0.352 N 
ATOM     41  C   UNL     1      11.311   8.967 -12.419  1.00  0.00     0.251 C 
ATOM     42  H   UNL     1      11.574   7.686 -10.904  1.00  0.00     0.163 HD
ATOM     43  O   UNL     1      12.509   9.068 -12.662  1.00  0.00    -0.269 OA
BRANCH  41  44
ATOM     44  C   UNL     1      10.336   9.776 -13.182  1.00  0.00     0.039 A 
ATOM     45  C   UNL     1      10.480   9.875 -14.568  1.00  0.00     0.014 A 
ATOM     46  C   UNL     1       9.282  10.428 -12.536  1.00  0.00     0.014 A 
ATOM     47  C   UNL     1       9.525  10.567 -15.315  1.00  0.00     0.010 A 
ATOM     48  C   UNL     1       8.292  11.055 -13.287  1.00  0.00     0.010 A 
ATOM     49  C   UNL     1       8.401  11.125 -14.685  1.00  0.00    -0.014 A 
BRANCH  49  50
ATOM     50  C   UNL     1       7.312  11.755 -15.474  1.00  0.00     0.031 A 
ATOM     51  C   UNL     1       7.000  13.215 -15.314  1.00  0.00     0.074 A 
ATOM     52  C   UNL     1       6.550  10.987 -16.276  1.00  0.00     0.049 A 
ATOM     53  N   UNL     1       6.043  13.922 -15.860  1.00  0.00    -0.248 NA
ATOM     54  C   UNL     1       7.859  13.975 -14.394  1.00  0.00     0.031 C 
ATOM     55  C   UNL     1       6.715   9.546 -16.469  1.00  0.00     0.029 A 
ATOM     56  N   UNL     1       5.471  11.307 -17.062  1.00  0.00    -0.354 N 
ATOM     57  C   UNL     1       6.178  15.203 -15.343  1.00  0.00     0.074 A 
ATOM     58  C   UNL     1       7.273  15.163 -14.398  1.00  0.00     0.031 C 
ATOM     59  C   UNL     1       5.778   9.107 -17.323  1.00  0.00     0.029 A 
ATOM     60  C   UNL     1       4.922  10.226 -17.707  1.00  0.00     0.049 A 
ATOM     61  H   UNL     1       5.124  12.223 -17.155  1.00  0.00     0.167 HD
ATOM     62  C   UNL     1       5.465  16.316 -15.645  1.00  0.00     0.037 A 
ATOM     63  C   UNL     1       3.840  10.139 -18.503  1.00  0.00     0.037 A 
ATOM     64  C   UNL     1       4.383  16.350 -16.595  1.00  0.00     0.049 A 
ATOM     65  C   UNL     1       3.059  11.384 -18.820  1.00  0.00     0.074 A 
ATOM     66  C   UNL     1       3.650  17.441 -17.029  1.00  0.00     0.029 A 
ATOM     67  N   UNL     1       3.867  15.239 -17.247  1.00  0.00    -0.354 N 
ATOM     68  N   UNL     1       3.251  12.610 -18.397  1.00  0.00    -0.248 NA
ATOM     69  C   UNL     1       1.917  11.237 -19.732  1.00  0.00     0.031 C 
ATOM     70  C   UNL     1       2.653  16.981 -17.896  1.00  0.00     0.029 A 
ATOM     71  C   UNL     1       2.801  15.612 -18.051  1.00  0.00     0.049 A 
ATOM     72  H   UNL     1       4.209  14.320 -17.152  1.00  0.00     0.167 HD
ATOM     73  C   UNL     1       2.267  13.382 -18.998  1.00  0.00     0.074 A 
ATOM     74  C   UNL     1       1.491  12.488 -19.835  1.00  0.00     0.031 C 
ATOM     75  C   UNL     1       2.028  14.710 -18.868  1.00  0.00     0.037 A 
BRANCH  62  76
ATOM     76  C   UNL     1       5.831  17.585 -14.929  1.00  0.00     0.064 A 
ATOM     77  C   UNL     1       7.055  18.235 -15.153  1.00  0.00     0.173 A 
ATOM     78  C   UNL     1       4.939  18.169 -14.015  1.00  0.00     0.173 A 
ATOM     79  F   UNL     1       7.948  17.717 -16.010  1.00  0.00    -0.203 F 
ATOM     80  C   UNL     1       7.391  19.395 -14.458  1.00  0.00     0.198 A 
ATOM     81  C   UNL     1       5.264  19.348 -13.348  1.00  0.00     0.198 A 
ATOM     82  F   UNL     1       3.752  17.596 -13.769  1.00  0.00    -0.203 F 
ATOM     83  F   UNL     1       8.592  19.960 -14.641  1.00  0.00    -0.200 F 
ATOM     84  C   UNL     1       6.493  19.952 -13.560  1.00  0.00     0.200 A 
ATOM     85  F   UNL     1       4.389  19.894 -12.493  1.00  0.00    -0.200 F 
ATOM     86  F   UNL     1       6.817  21.068 -12.892  1.00  0.00    -0.200 F 
ENDBRANCH  62  76
BRANCH  63  87
ATOM     87  C   UNL     1       3.443   8.818 -19.055  1.00  0.00     0.064 A 
ATOM     88  C   UNL     1       3.596   8.527 -20.417  1.00  0.00     0.173 A 
ATOM     89  C   UNL     1       2.932   7.809 -18.225  1.00  0.00     0.173 A 
ATOM     90  F   UNL     1       4.063   9.465 -21.254  1.00  0.00    -0.203 F 
ATOM     91  C   UNL     1       3.244   7.280 -20.930  1.00  0.00     0.198 A 
ATOM     92  C   UNL     1       2.607   6.553 -18.733  1.00  0.00     0.198 A 
ATOM     93  F   UNL     1       2.773   8.035 -16.912  1.00  0.00    -0.203 F 
ATOM     94  F   UNL     1       3.369   7.038 -22.242  1.00  0.00    -0.200 F 
ATOM     95  C   UNL     1       2.759   6.292 -20.086  1.00  0.00     0.200 A 
ATOM     96  F   UNL     1       2.157   5.596 -17.911  1.00  0.00    -0.200 F 
ATOM     97  F   UNL     1       2.435   5.088 -20.577  1.00  0.00    -0.200 F 
ENDBRANCH  63  87
BRANCH  75  98
ATOM     98  C   UNL     1       0.884  15.284 -19.656  1.00  0.00     0.064 A 
ATOM     99  C   UNL     1      -0.450  15.008 -19.322  1.00  0.00     0.173 A 
ATOM    100  C   UNL     1       1.125  16.153 -20.731  1.00  0.00     0.173 A 
ATOM    101  F   UNL     1      -0.734  14.170 -18.314  1.00  0.00    -0.203 F 
ATOM    102  C   UNL     1      -1.500  15.564 -20.049  1.00  0.00     0.198 A 
ATOM    103  C   UNL     1       0.073  16.732 -21.436  1.00  0.00     0.198 A 
ATOM    104  F   UNL     1       2.383  16.454 -21.089  1.00  0.00    -0.203 F 
ATOM    105  F   UNL     1      -2.766  15.249 -19.742  1.00  0.00    -0.200 F 
ATOM    106  C   UNL     1      -1.238  16.431 -21.099  1.00  0.00     0.200 A 
ATOM    107  F   UNL     1       0.329  17.581 -22.441  1.00  0.00    -0.200 F 
ATOM    108  F   UNL     1      -2.249  16.973 -21.791  1.00  0.00    -0.200 F 
ENDBRANCH  75  98
ENDBRANCH  49  50
ENDBRANCH  41  44
ENDBRANCH  39  40
ENDBRANCH  38  39
ENDBRANCH  37  38
ENDBRANCH   1  37
TORSDOF 17
