REMARK SMILES O=C(NCCCCCCNC(=O)c1ccccc1Nc1nc(Cl)nc(Nc2ccc(N3CCOCC3=O)cc2)n1)c1ccc(-c2c3nc(c(-c4c(F)c(F)c(F)c(F)c4F)c4ccc([nH]4)c(-c4c(F)c(F)c(F)c(F)c4F)c4nc(c(-c5c(F)c(F)c(F)c(F)c5F)c5ccc2[nH]5)C=C4)C=C3)cc1
REMARK SMILES IDX 8 1 7 2 6 3 5 4 4 5 3 6 1 7 2 8 41 10 42 11 103 12 43 13
REMARK SMILES IDX 102 14 44 15 45 16 46 17 96 18 47 19 101 20 95 21 97 22
REMARK SMILES IDX 48 23 100 24 94 25 93 26 49 28 81 29 61 30 80 31 62 32 65 33
REMARK SMILES IDX 79 34 98 35 63 36 64 37 78 39 99 40 66 41 50 42 51 43 59 44
REMARK SMILES IDX 52 45 53 46 57 47 60 48 54 49 55 50 58 51 56 52 82 53 83 54
REMARK SMILES IDX 91 55 84 56 85 57 89 58 92 59 86 60 87 61 90 62 88 63 67 64
REMARK SMILES IDX 68 65 76 66 69 67 70 68 74 69 77 70 71 71 72 72 75 73 73 74
REMARK SMILES IDX 9 75 10 76 11 77 12 79 13 80 14 81 18 82 15 83 17 84 16 85
REMARK SMILES IDX 19 86 20 88 21 89 40 90 22 91 25 92 23 93 24 94 26 95 27 97
REMARK SMILES IDX 28 98 39 99 29 100 38 101 30 102 31 103 32 104 36 105 33 106
REMARK SMILES IDX 35 107 37 108 34 109
REMARK H PARENT 3 9 97 27 65 38 10 78 19 87 26 96
REMARK Flexibility Score: inf
ROOT
ATOM      1  C   UNL     1       6.210   3.687  -2.470  1.00  0.00     0.021 C 
ENDROOT
BRANCH   1   2
ATOM      2  C   UNL     1       4.692   3.588  -2.660  1.00  0.00     0.002 C 
BRANCH   2   3
ATOM      3  C   UNL     1       4.165   2.299  -3.295  1.00  0.00     0.002 C 
BRANCH   3   4
ATOM      4  C   UNL     1       4.619   0.995  -2.641  1.00  0.00     0.021 C 
BRANCH   4   5
ATOM      5  C   UNL     1       4.366   0.890  -1.145  1.00  0.00     0.116 C 
BRANCH   5   6
ATOM      6  N   UNL     1       2.956   0.853  -0.794  1.00  0.00    -0.352 N 
ATOM      7  O   UNL     1       1.085   0.045   0.188  1.00  0.00    -0.269 OA
ATOM      8  C   UNL     1       2.308   0.010   0.079  1.00  0.00     0.251 C 
ATOM      9  H   UNL     1       2.388   1.521  -1.242  1.00  0.00     0.163 HD
BRANCH   8  10
ATOM     10  C   UNL     1       3.090  -0.967   0.870  1.00  0.00     0.039 A 
ATOM     11  C   UNL     1       4.273  -0.584   1.503  1.00  0.00     0.014 A 
ATOM     12  C   UNL     1       2.640  -2.288   0.969  1.00  0.00     0.014 A 
ATOM     13  C   UNL     1       5.081  -1.546   2.095  1.00  0.00     0.010 A 
ATOM     14  C   UNL     1       3.409  -3.238   1.651  1.00  0.00     0.010 A 
ATOM     15  C   UNL     1       4.651  -2.881   2.194  1.00  0.00    -0.014 A 
BRANCH  15  16
ATOM     16  C   UNL     1       5.498  -3.845   2.943  1.00  0.00     0.031 A 
ATOM     17  C   UNL     1       6.154  -5.014   2.265  1.00  0.00     0.074 A 
ATOM     18  C   UNL     1       5.723  -3.606   4.250  1.00  0.00     0.049 A 
ATOM     19  N   UNL     1       6.984  -5.895   2.767  1.00  0.00    -0.248 NA
ATOM     20  C   UNL     1       5.837  -5.232   0.846  1.00  0.00     0.031 C 
ATOM     21  C   UNL     1       5.117  -2.516   5.019  1.00  0.00     0.029 A 
ATOM     22  N   UNL     1       6.542  -4.232   5.154  1.00  0.00    -0.354 N 
ATOM     23  C   UNL     1       7.282  -6.773   1.733  1.00  0.00     0.074 A 
ATOM     24  C   UNL     1       6.521  -6.338   0.581  1.00  0.00     0.031 C 
ATOM     25  C   UNL     1       5.630  -2.511   6.257  1.00  0.00     0.029 A 
ATOM     26  C   UNL     1       6.553  -3.631   6.389  1.00  0.00     0.049 A 
ATOM     27  H   UNL     1       7.070  -5.035   4.939  1.00  0.00     0.167 HD
ATOM     28  C   UNL     1       8.122  -7.837   1.746  1.00  0.00     0.037 A 
ATOM     29  C   UNL     1       7.226  -3.949   7.509  1.00  0.00     0.037 A 
ATOM     30  C   UNL     1       8.883  -8.261   2.896  1.00  0.00     0.049 A 
ATOM     31  C   UNL     1       8.154  -5.128   7.488  1.00  0.00     0.074 A 
ATOM     32  C   UNL     1       9.766  -9.322   3.006  1.00  0.00     0.029 A 
ATOM     33  N   UNL     1       8.853  -7.640   4.137  1.00  0.00    -0.354 N 
ATOM     34  N   UNL     1       8.440  -5.936   6.496  1.00  0.00    -0.248 NA
ATOM     35  C   UNL     1       8.852  -5.441   8.741  1.00  0.00     0.031 C 
ATOM     36  C   UNL     1      10.242  -9.364   4.321  1.00  0.00     0.029 A 
ATOM     37  C   UNL     1       9.691  -8.303   5.020  1.00  0.00     0.049 A 
ATOM     38  H   UNL     1       8.315  -6.845   4.357  1.00  0.00     0.167 HD
ATOM     39  C   UNL     1       9.349  -6.852   7.003  1.00  0.00     0.074 A 
ATOM     40  C   UNL     1       9.598  -6.474   8.380  1.00  0.00     0.031 C 
ATOM     41  C   UNL     1       9.916  -7.919   6.390  1.00  0.00     0.037 A 
BRANCH  28  42
ATOM     42  C   UNL     1       8.269  -8.630   0.479  1.00  0.00     0.064 A 
ATOM     43  C   UNL     1       8.983  -8.131  -0.620  1.00  0.00     0.173 A 
ATOM     44  C   UNL     1       7.754  -9.933   0.388  1.00  0.00     0.173 A 
ATOM     45  F   UNL     1       9.489  -6.888  -0.588  1.00  0.00    -0.203 F 
ATOM     46  C   UNL     1       9.167  -8.901  -1.767  1.00  0.00     0.198 A 
ATOM     47  C   UNL     1       7.960 -10.709  -0.750  1.00  0.00     0.198 A 
ATOM     48  F   UNL     1       7.070 -10.462   1.414  1.00  0.00    -0.203 F 
ATOM     49  F   UNL     1       9.833  -8.393  -2.813  1.00  0.00    -0.200 F 
ATOM     50  C   UNL     1       8.664 -10.192  -1.827  1.00  0.00     0.200 A 
ATOM     51  F   UNL     1       7.486 -11.961  -0.800  1.00  0.00    -0.200 F 
ATOM     52  F   UNL     1       8.858 -10.938  -2.923  1.00  0.00    -0.200 F 
ENDBRANCH  28  42
BRANCH  29  53
ATOM     53  C   UNL     1       7.034  -3.141   8.740  1.00  0.00     0.064 A 
ATOM     54  C   UNL     1       8.066  -2.344   9.254  1.00  0.00     0.173 A 
ATOM     55  C   UNL     1       5.808  -3.143   9.423  1.00  0.00     0.173 A 
ATOM     56  F   UNL     1       9.261  -2.322   8.647  1.00  0.00    -0.203 F 
ATOM     57  C   UNL     1       7.884  -1.596  10.415  1.00  0.00     0.198 A 
ATOM     58  C   UNL     1       5.617  -2.369  10.564  1.00  0.00     0.198 A 
ATOM     59  F   UNL     1       4.787  -3.883   8.966  1.00  0.00    -0.203 F 
ATOM     60  F   UNL     1       8.901  -0.878  10.912  1.00  0.00    -0.200 F 
ATOM     61  C   UNL     1       6.658  -1.603  11.065  1.00  0.00     0.200 A 
ATOM     62  F   UNL     1       4.426  -2.364  11.176  1.00  0.00    -0.200 F 
ATOM     63  F   UNL     1       6.483  -0.876  12.177  1.00  0.00    -0.200 F 
ENDBRANCH  29  53
BRANCH  41  64
ATOM     64  C   UNL     1      10.860  -8.744   7.213  1.00  0.00     0.064 A 
ATOM     65  C   UNL     1      10.395  -9.573   8.246  1.00  0.00     0.173 A 
ATOM     66  C   UNL     1      12.241  -8.704   6.971  1.00  0.00     0.173 A 
ATOM     67  F   UNL     1       9.085  -9.630   8.527  1.00  0.00    -0.203 F 
ATOM     68  C   UNL     1      11.283 -10.303   9.030  1.00  0.00     0.198 A 
ATOM     69  C   UNL     1      13.123  -9.458   7.739  1.00  0.00     0.198 A 
ATOM     70  F   UNL     1      12.734  -7.931   5.992  1.00  0.00    -0.203 F 
ATOM     71  F   UNL     1      10.822 -11.041  10.050  1.00  0.00    -0.200 F 
ATOM     72  C   UNL     1      12.645 -10.248   8.774  1.00  0.00     0.200 A 
ATOM     73  F   UNL     1      14.438  -9.412   7.485  1.00  0.00    -0.200 F 
ATOM     74  F   UNL     1      13.499 -10.947   9.534  1.00  0.00    -0.200 F 
ENDBRANCH  41  64
ENDBRANCH  15  16
ENDBRANCH   8  10
ENDBRANCH   5   6
ENDBRANCH   4   5
ENDBRANCH   3   4
ENDBRANCH   2   3
ENDBRANCH   1   2
BRANCH   1  75
ATOM     75  C   UNL     1       7.058   3.426  -3.713  1.00  0.00     0.116 C 
BRANCH  75  76
ATOM     76  N   UNL     1       6.748   4.332  -4.805  1.00  0.00    -0.352 N 
ATOM     77  C   UNL     1       7.606   4.997  -5.643  1.00  0.00     0.253 C 
ATOM     78  H   UNL     1       5.789   4.489  -4.966  1.00  0.00     0.163 HD
ATOM     79  O   UNL     1       7.165   5.755  -6.503  1.00  0.00    -0.269 OA
BRANCH  77  80
ATOM     80  C   UNL     1       9.068   4.833  -5.500  1.00  0.00     0.063 A 
ATOM     81  C   UNL     1       9.801   5.993  -5.208  1.00  0.00     0.016 A 
ATOM     82  C   UNL     1       9.709   3.592  -5.676  1.00  0.00     0.054 A 
ATOM     83  C   UNL     1      11.181   5.921  -5.035  1.00  0.00     0.001 A 
ATOM     84  C   UNL     1      11.094   3.541  -5.447  1.00  0.00     0.027 A 
ATOM     85  C   UNL     1      11.825   4.693  -5.141  1.00  0.00     0.002 A 
BRANCH  82  86
ATOM     86  N   UNL     1       8.998   2.442  -6.060  1.00  0.00    -0.323 N 
ATOM     87  H   UNL     1       8.161   2.615  -6.547  1.00  0.00     0.170 HD
BRANCH  86  88
ATOM     88  C   UNL     1       9.294   1.099  -5.858  1.00  0.00     0.233 A 
ATOM     89  N   UNL     1       9.921   0.723  -4.756  1.00  0.00    -0.182 NA
ATOM     90  N   UNL     1       8.902   0.261  -6.812  1.00  0.00    -0.176 NA
ATOM     91  C   UNL     1      10.121  -0.581  -4.677  1.00  0.00     0.228 A 
ATOM     92  C   UNL     1       9.226  -1.020  -6.655  1.00  0.00     0.233 A 
ATOM     93  Cl  UNL     1      10.906  -1.135  -3.265  1.00  0.00    -0.041 Cl
ATOM     94  N   UNL     1       9.810  -1.500  -5.570  1.00  0.00    -0.182 NA
BRANCH  92  95
ATOM     95  N   UNL     1       9.026  -1.833  -7.768  1.00  0.00    -0.324 N 
ATOM     96  H   UNL     1       8.560  -1.414  -8.527  1.00  0.00     0.170 HD
BRANCH  95  97
ATOM     97  C   UNL     1       9.400  -3.167  -7.947  1.00  0.00     0.041 A 
ATOM     98  C   UNL     1      10.230  -3.515  -9.018  1.00  0.00     0.028 A 
ATOM     99  C   UNL     1       9.065  -4.156  -7.019  1.00  0.00     0.028 A 
ATOM    100  C   UNL     1      10.732  -4.816  -9.144  1.00  0.00     0.028 A 
ATOM    101  C   UNL     1       9.517  -5.469  -7.174  1.00  0.00     0.028 A 
ATOM    102  C   UNL     1      10.375  -5.808  -8.225  1.00  0.00     0.044 A 
BRANCH 102 103
ATOM    103  N   UNL     1      10.923  -7.122  -8.322  1.00  0.00    -0.308 N 
ATOM    104  C   UNL     1      12.386  -7.224  -8.403  1.00  0.00     0.154 C 
ATOM    105  C   UNL     1      10.150  -8.250  -8.017  1.00  0.00     0.253 C 
ATOM    106  C   UNL     1      12.874  -8.615  -8.783  1.00  0.00     0.183 C 
ATOM    107  C   UNL     1      10.900  -9.593  -8.037  1.00  0.00     0.260 C 
ATOM    108  O   UNL     1       8.929  -8.236  -7.844  1.00  0.00    -0.272 OA
ATOM    109  O   UNL     1      12.311  -9.573  -7.893  1.00  0.00    -0.370 OA
ENDBRANCH 102 103
ENDBRANCH  95  97
ENDBRANCH  92  95
ENDBRANCH  86  88
ENDBRANCH  82  86
ENDBRANCH  77  80
ENDBRANCH  75  76
ENDBRANCH   1  75
TORSDOF 18
