REMARK SMILES CC(C)[C@H]([NH2+]Cc1ccncc1)C(=O)NCCCCCCNC(=O)c1ccc(-c2c3nc(c(-c4c(F)c(F)c(F)c(F)c4F)c4ccc([nH]4)c(-c4c(F)c(F)c(F)c(F)c4F)c4nc(c(-c5c(F)c(F)c(F)c(F)c5F)c5ccc2[nH]5)C=C4)C=C3)cc1
REMARK SMILES IDX 18 1 17 2 16 3 15 4 13 5 14 6 4 8 2 9 1 10 3 11 5 12 6 15
REMARK SMILES IDX 7 16 8 17 12 18 9 19 11 20 10 21 19 22 20 23 21 24 22 25
REMARK SMILES IDX 23 26 24 28 25 29 26 30 87 31 27 32 86 33 28 34 29 35 30 36
REMARK SMILES IDX 80 37 31 38 85 39 79 40 81 41 32 42 84 43 78 44 77 45 33 47
REMARK SMILES IDX 65 48 45 49 64 50 46 51 49 52 63 53 82 54 47 55 48 56 62 58
REMARK SMILES IDX 83 59 50 60 34 61 35 62 43 63 36 64 37 65 41 66 44 67 38 68
REMARK SMILES IDX 39 69 42 70 40 71 66 72 67 73 75 74 68 75 69 76 73 77 76 78
REMARK SMILES IDX 70 79 71 80 74 81 72 82 51 83 52 84 60 85 53 86 54 87 58 88
REMARK SMILES IDX 61 89 55 90 56 91 59 92 57 93
REMARK H PARENT 15 7 5 13 5 14 22 27 81 46 49 57
REMARK Flexibility Score: inf
ROOT
ATOM      1  C   UNL     1       0.486   6.426   0.819  1.00  0.00     0.002 C 
ENDROOT
BRANCH   1   2
ATOM      2  C   UNL     1       0.985   4.977   0.853  1.00  0.00     0.021 C 
BRANCH   2   3
ATOM      3  C   UNL     1      -0.100   3.942   1.133  1.00  0.00     0.116 C 
BRANCH   3   4
ATOM      4  N   UNL     1      -0.991   3.744   0.006  1.00  0.00    -0.351 N 
ATOM      5  C   UNL     1      -1.527   2.614  -0.551  1.00  0.00     0.278 C 
ATOM      6  O   UNL     1      -2.431   2.778  -1.377  1.00  0.00    -0.268 OA
ATOM      7  H   UNL     1      -1.262   4.578  -0.442  1.00  0.00     0.163 HD
BRANCH   5   8
ATOM      8  C   UNL     1      -1.059   1.182  -0.163  1.00  0.00     0.275 C 
BRANCH   8   9
ATOM      9  C   UNL     1      -1.764   0.632   1.119  1.00  0.00     0.051 C 
ATOM     10  C   UNL     1      -1.812   1.554   2.336  1.00  0.00     0.014 C 
ATOM     11  C   UNL     1      -3.199   0.191   0.787  1.00  0.00     0.014 C 
ENDBRANCH   8   9
BRANCH   8  12
ATOM     12  N   UNL     1       0.406   1.105  -0.294  1.00  0.00    -0.332 N 
ATOM     13  H   UNL     1       0.804   1.863   0.261  1.00  0.00     0.347 HD
ATOM     14  H   UNL     1       0.583   1.163  -1.296  1.00  0.00     0.347 HD
BRANCH  12  15
ATOM     15  C   UNL     1       1.046  -0.124   0.127  1.00  0.00     0.298 C 
BRANCH  15  16
ATOM     16  C   UNL     1       2.547   0.021   0.037  1.00  0.00     0.009 A 
ATOM     17  C   UNL     1       3.270  -0.520  -1.028  1.00  0.00     0.029 A 
ATOM     18  C   UNL     1       3.243   0.743   1.014  1.00  0.00     0.029 A 
ATOM     19  C   UNL     1       4.644  -0.332  -1.060  1.00  0.00     0.111 A 
ATOM     20  C   UNL     1       4.616   0.881   0.891  1.00  0.00     0.111 A 
ATOM     21  N   UNL     1       5.333   0.356  -0.123  1.00  0.00    -0.265 NA
ENDBRANCH  15  16
ENDBRANCH  12  15
ENDBRANCH   8  12
ENDBRANCH   5   8
ENDBRANCH   3   4
ENDBRANCH   2   3
ENDBRANCH   1   2
BRANCH   1  22
ATOM     22  C   UNL     1      -0.298   6.886   2.054  1.00  0.00     0.002 C 
BRANCH  22  23
ATOM     23  C   UNL     1       0.383   6.649   3.405  1.00  0.00     0.021 C 
BRANCH  23  24
ATOM     24  C   UNL     1       1.771   7.265   3.553  1.00  0.00     0.116 C 
BRANCH  24  25
ATOM     25  N   UNL     1       1.761   8.707   3.388  1.00  0.00    -0.352 N 
ATOM     26  C   UNL     1       2.329   9.684   4.164  1.00  0.00     0.251 C 
ATOM     27  H   UNL     1       1.271   9.033   2.598  1.00  0.00     0.163 HD
ATOM     28  O   UNL     1       2.081  10.864   3.940  1.00  0.00    -0.269 OA
BRANCH  26  29
ATOM     29  C   UNL     1       3.222   9.325   5.288  1.00  0.00     0.039 A 
ATOM     30  C   UNL     1       3.087  10.021   6.493  1.00  0.00     0.014 A 
ATOM     31  C   UNL     1       4.207   8.342   5.156  1.00  0.00     0.014 A 
ATOM     32  C   UNL     1       3.904   9.698   7.579  1.00  0.00     0.010 A 
ATOM     33  C   UNL     1       4.976   7.975   6.259  1.00  0.00     0.010 A 
ATOM     34  C   UNL     1       4.837   8.654   7.479  1.00  0.00    -0.014 A 
BRANCH  34  35
ATOM     35  C   UNL     1       5.673   8.268   8.644  1.00  0.00     0.031 A 
ATOM     36  C   UNL     1       7.163   8.460   8.608  1.00  0.00     0.074 A 
ATOM     37  C   UNL     1       5.091   7.701   9.719  1.00  0.00     0.049 A 
ATOM     38  N   UNL     1       8.060   8.152   9.511  1.00  0.00    -0.248 NA
ATOM     39  C   UNL     1       7.725   9.052   7.384  1.00  0.00     0.031 C 
ATOM     40  C   UNL     1       3.662   7.416   9.853  1.00  0.00     0.029 A 
ATOM     41  N   UNL     1       5.631   7.255  10.899  1.00  0.00    -0.354 N 
ATOM     42  C   UNL     1       9.286   8.500   8.962  1.00  0.00     0.074 A 
ATOM     43  C   UNL     1       9.026   8.996   7.628  1.00  0.00     0.031 C 
ATOM     44  C   UNL     1       3.435   6.864  11.056  1.00  0.00     0.029 A 
ATOM     45  C   UNL     1       4.704   6.727  11.764  1.00  0.00     0.049 A 
ATOM     46  H   UNL     1       6.592   7.308  11.106  1.00  0.00     0.167 HD
ATOM     47  C   UNL     1      10.515   8.433   9.528  1.00  0.00     0.037 A 
ATOM     48  C   UNL     1       4.861   6.191  12.989  1.00  0.00     0.037 A 
ATOM     49  C   UNL     1      10.768   7.967  10.866  1.00  0.00     0.049 A 
ATOM     50  C   UNL     1       6.236   6.141  13.599  1.00  0.00     0.074 A 
ATOM     51  C   UNL     1      11.969   7.923  11.553  1.00  0.00     0.029 A 
ATOM     52  N   UNL     1       9.800   7.462  11.722  1.00  0.00    -0.354 N 
ATOM     53  N   UNL     1       7.378   6.542  13.097  1.00  0.00    -0.248 NA
ATOM     54  C   UNL     1       6.340   5.573  14.950  1.00  0.00     0.031 C 
ATOM     55  C   UNL     1      11.735   7.351  12.808  1.00  0.00     0.029 A 
ATOM     56  C   UNL     1      10.380   7.085  12.922  1.00  0.00     0.049 A 
ATOM     57  H   UNL     1       8.842   7.383  11.508  1.00  0.00     0.167 HD
ATOM     58  C   UNL     1       8.331   6.301  14.078  1.00  0.00     0.074 A 
ATOM     59  C   UNL     1       7.629   5.734  15.211  1.00  0.00     0.031 C 
ATOM     60  C   UNL     1       9.667   6.527  14.042  1.00  0.00     0.037 A 
BRANCH  47  61
ATOM     61  C   UNL     1      11.687   8.882   8.702  1.00  0.00     0.064 A 
ATOM     62  C   UNL     1      11.892  10.235   8.393  1.00  0.00     0.173 A 
ATOM     63  C   UNL     1      12.639   7.955   8.254  1.00  0.00     0.173 A 
ATOM     64  F   UNL     1      11.005  11.161   8.788  1.00  0.00    -0.203 F 
ATOM     65  C   UNL     1      12.993  10.640   7.643  1.00  0.00     0.198 A 
ATOM     66  C   UNL     1      13.755   8.367   7.529  1.00  0.00     0.198 A 
ATOM     67  F   UNL     1      12.494   6.650   8.528  1.00  0.00    -0.203 F 
ATOM     68  F   UNL     1      13.145  11.932   7.321  1.00  0.00    -0.200 F 
ATOM     69  C   UNL     1      13.928   9.707   7.218  1.00  0.00     0.200 A 
ATOM     70  F   UNL     1      14.664   7.465   7.131  1.00  0.00    -0.200 F 
ATOM     71  F   UNL     1      14.992  10.099   6.505  1.00  0.00    -0.200 F 
ENDBRANCH  47  61
BRANCH  48  72
ATOM     72  C   UNL     1       3.679   5.683  13.733  1.00  0.00     0.064 A 
ATOM     73  C   UNL     1       3.206   6.348  14.873  1.00  0.00     0.173 A 
ATOM     74  C   UNL     1       3.005   4.523  13.327  1.00  0.00     0.173 A 
ATOM     75  F   UNL     1       3.831   7.450  15.312  1.00  0.00    -0.203 F 
ATOM     76  C   UNL     1       2.117   5.859  15.591  1.00  0.00     0.198 A 
ATOM     77  C   UNL     1       1.898   4.051  14.029  1.00  0.00     0.198 A 
ATOM     78  F   UNL     1       3.414   3.853  12.239  1.00  0.00    -0.203 F 
ATOM     79  F   UNL     1       1.714   6.489  16.703  1.00  0.00    -0.200 F 
ATOM     80  C   UNL     1       1.460   4.715  15.166  1.00  0.00     0.200 A 
ATOM     81  F   UNL     1       1.257   2.953  13.607  1.00  0.00    -0.200 F 
ATOM     82  F   UNL     1       0.410   4.247  15.854  1.00  0.00    -0.200 F 
ENDBRANCH  48  72
BRANCH  60  83
ATOM     83  C   UNL     1      10.452   6.190  15.276  1.00  0.00     0.064 A 
ATOM     84  C   UNL     1      10.697   4.861  15.652  1.00  0.00     0.173 A 
ATOM     85  C   UNL     1      10.993   7.209  16.074  1.00  0.00     0.173 A 
ATOM     86  F   UNL     1      10.188   3.851  14.930  1.00  0.00    -0.203 F 
ATOM     87  C   UNL     1      11.430   4.565  16.798  1.00  0.00     0.198 A 
ATOM     88  C   UNL     1      11.751   6.910  17.202  1.00  0.00     0.198 A 
ATOM     89  F   UNL     1      10.793   8.497  15.754  1.00  0.00    -0.203 F 
ATOM     90  F   UNL     1      11.609   3.289  17.166  1.00  0.00    -0.200 F 
ATOM     91  C   UNL     1      11.962   5.589  17.568  1.00  0.00     0.200 A 
ATOM     92  F   UNL     1      12.274   7.900  17.938  1.00  0.00    -0.200 F 
ATOM     93  F   UNL     1      12.671   5.303  18.668  1.00  0.00    -0.200 F 
ENDBRANCH  60  83
ENDBRANCH  34  35
ENDBRANCH  26  29
ENDBRANCH  24  25
ENDBRANCH  23  24
ENDBRANCH  22  23
ENDBRANCH   1  22
TORSDOF 17
