REMARK SMILES Cc1ccccc1N[C@H](C(=O)NCCCCCCNC(=O)c1ccc(-c2c3nc(c(-c4c(F)c(F)c(F)c(F)c4F)c4ccc([nH]4)c(-c4c(F)c(F)c(F)c(F)c4F)c4nc(c(-c5c(F)c(F)c(F)c(F)c5F)c5ccc2[nH]5)C=C4)C=C3)cc1)c1ccccc1
REMARK SMILES IDX 15 1 14 2 13 3 12 4 10 5 11 6 9 8 8 9 7 11 1 12 2 13 3 14
REMARK SMILES IDX 4 15 6 16 5 17 85 18 86 19 90 20 87 21 89 22 88 23 16 24
REMARK SMILES IDX 17 25 18 26 19 27 20 28 21 30 22 31 23 32 84 33 24 34 83 35
REMARK SMILES IDX 25 36 26 37 27 38 77 39 28 40 82 41 76 42 78 43 29 44 81 45
REMARK SMILES IDX 75 46 74 47 30 49 62 50 42 51 61 52 43 53 46 54 60 55 79 56
REMARK SMILES IDX 44 57 45 58 59 60 80 61 47 62 31 63 32 64 40 65 33 66 34 67
REMARK SMILES IDX 38 68 41 69 35 70 36 71 39 72 37 73 63 74 64 75 72 76 65 77
REMARK SMILES IDX 66 78 70 79 73 80 67 81 68 82 71 83 69 84 48 85 49 86 57 87
REMARK SMILES IDX 50 88 51 89 55 90 58 91 52 92 53 93 56 94 54 95
REMARK H PARENT 12 7 8 10 19 29 78 48 46 59
REMARK Flexibility Score: inf
ROOT
ATOM      1  C   UNL     1       4.287   3.006   3.296  1.00  0.00     0.002 C 
ENDROOT
BRANCH   1   2
ATOM      2  C   UNL     1       2.834   3.379   3.609  1.00  0.00     0.021 C 
BRANCH   2   3
ATOM      3  C   UNL     1       1.899   3.695   2.447  1.00  0.00     0.116 C 
BRANCH   3   4
ATOM      4  N   UNL     1       1.768   2.641   1.466  1.00  0.00    -0.354 N 
ATOM      5  C   UNL     1       1.076   2.716   0.278  1.00  0.00     0.247 C 
ATOM      6  O   UNL     1       1.020   1.697  -0.419  1.00  0.00    -0.272 OA
ATOM      7  H   UNL     1       2.217   1.788   1.666  1.00  0.00     0.163 HD
BRANCH   5   8
ATOM      8  C   UNL     1       0.375   4.047  -0.167  1.00  0.00     0.200 C 
BRANCH   8   9
ATOM      9  N   UNL     1      -0.683   4.361   0.825  1.00  0.00    -0.370 N 
ATOM     10  H   UNL     1      -1.339   3.629   0.873  1.00  0.00     0.161 HD
BRANCH   9  11
ATOM     11  C   UNL     1      -1.021   5.368   1.696  1.00  0.00     0.038 A 
ATOM     12  C   UNL     1      -2.587   3.787   3.012  1.00  0.00     0.046 C 
ATOM     13  C   UNL     1      -2.021   5.148   2.679  1.00  0.00    -0.028 A 
ATOM     14  C   UNL     1      -2.508   6.215   3.467  1.00  0.00     0.005 A 
ATOM     15  C   UNL     1      -1.972   7.489   3.353  1.00  0.00     0.000 A 
ATOM     16  C   UNL     1      -0.414   6.625   1.725  1.00  0.00     0.026 A 
ATOM     17  C   UNL     1      -0.897   7.685   2.506  1.00  0.00     0.002 A 
ENDBRANCH   9  11
ENDBRANCH   8   9
BRANCH   8  18
ATOM     18  C   UNL     1       1.321   5.139  -0.651  1.00  0.00    -0.016 A 
ATOM     19  C   UNL     1       0.821   6.345  -1.173  1.00  0.00     0.006 A 
ATOM     20  C   UNL     1       2.717   4.966  -0.668  1.00  0.00     0.006 A 
ATOM     21  C   UNL     1       1.680   7.401  -1.496  1.00  0.00     0.000 A 
ATOM     22  C   UNL     1       3.579   6.010  -1.011  1.00  0.00     0.000 A 
ATOM     23  C   UNL     1       3.058   7.241  -1.387  1.00  0.00     0.000 A 
ENDBRANCH   8  18
ENDBRANCH   5   8
ENDBRANCH   3   4
ENDBRANCH   2   3
ENDBRANCH   1   2
BRANCH   1  24
ATOM     24  C   UNL     1       5.109   3.904   2.361  1.00  0.00     0.002 C 
BRANCH  24  25
ATOM     25  C   UNL     1       5.026   5.418   2.550  1.00  0.00     0.021 C 
BRANCH  25  26
ATOM     26  C   UNL     1       5.387   5.931   3.935  1.00  0.00     0.116 C 
BRANCH  26  27
ATOM     27  N   UNL     1       6.780   6.314   4.120  1.00  0.00    -0.352 N 
ATOM     28  C   UNL     1       7.410   6.709   5.297  1.00  0.00     0.251 C 
ATOM     29  H   UNL     1       7.346   6.290   3.314  1.00  0.00     0.163 HD
ATOM     30  O   UNL     1       8.576   7.034   5.313  1.00  0.00    -0.269 OA
BRANCH  28  31
ATOM     31  C   UNL     1       6.637   6.604   6.562  1.00  0.00     0.039 A 
ATOM     32  C   UNL     1       7.155   5.794   7.575  1.00  0.00     0.014 A 
ATOM     33  C   UNL     1       5.329   7.079   6.631  1.00  0.00     0.014 A 
ATOM     34  C   UNL     1       6.286   5.255   8.521  1.00  0.00     0.010 A 
ATOM     35  C   UNL     1       4.449   6.479   7.512  1.00  0.00     0.010 A 
ATOM     36  C   UNL     1       4.917   5.514   8.409  1.00  0.00    -0.014 A 
BRANCH  36  37
ATOM     37  C   UNL     1       3.914   4.723   9.112  1.00  0.00     0.031 A 
ATOM     38  C   UNL     1       3.261   5.245  10.327  1.00  0.00     0.074 A 
ATOM     39  C   UNL     1       3.593   3.484   8.677  1.00  0.00     0.049 A 
ATOM     40  N   UNL     1       2.946   4.504  11.339  1.00  0.00    -0.248 NA
ATOM     41  C   UNL     1       2.930   6.654  10.508  1.00  0.00     0.031 C 
ATOM     42  C   UNL     1       2.520   2.630   9.182  1.00  0.00     0.029 A 
ATOM     43  N   UNL     1       4.320   2.655   7.806  1.00  0.00    -0.354 N 
ATOM     44  C   UNL     1       2.165   5.265  12.172  1.00  0.00     0.074 A 
ATOM     45  C   UNL     1       2.243   6.614  11.655  1.00  0.00     0.031 C 
ATOM     46  C   UNL     1       2.808   1.355   8.884  1.00  0.00     0.029 A 
ATOM     47  C   UNL     1       4.123   1.335   8.271  1.00  0.00     0.049 A 
ATOM     48  H   UNL     1       4.857   2.936   7.030  1.00  0.00     0.167 HD
ATOM     49  C   UNL     1       1.407   4.672  13.135  1.00  0.00     0.037 A 
ATOM     50  C   UNL     1       5.161   0.542   8.659  1.00  0.00     0.037 A 
ATOM     51  C   UNL     1       1.518   3.222  13.109  1.00  0.00     0.049 A 
ATOM     52  C   UNL     1       5.073   0.065  10.087  1.00  0.00     0.074 A 
ATOM     53  C   UNL     1       0.735   2.246  12.515  1.00  0.00     0.029 A 
ATOM     54  N   UNL     1       2.715   2.607  13.460  1.00  0.00    -0.354 N 
ATOM     55  N   UNL     1       4.299   0.610  10.983  1.00  0.00    -0.248 NA
ATOM     56  C   UNL     1       5.874  -1.027  10.633  1.00  0.00     0.031 C 
ATOM     57  C   UNL     1       1.477   1.044  12.477  1.00  0.00     0.029 A 
ATOM     58  C   UNL     1       2.706   1.283  13.064  1.00  0.00     0.049 A 
ATOM     59  H   UNL     1       3.461   3.052  13.924  1.00  0.00     0.167 HD
ATOM     60  C   UNL     1       4.498  -0.003  12.193  1.00  0.00     0.074 A 
ATOM     61  C   UNL     1       5.479  -1.035  11.918  1.00  0.00     0.031 C 
ATOM     62  C   UNL     1       3.838   0.407  13.317  1.00  0.00     0.037 A 
BRANCH  49  63
ATOM     63  C   UNL     1       0.340   5.437  13.866  1.00  0.00     0.064 A 
ATOM     64  C   UNL     1      -0.955   4.913  14.046  1.00  0.00     0.173 A 
ATOM     65  C   UNL     1       0.547   6.736  14.363  1.00  0.00     0.173 A 
ATOM     66  F   UNL     1      -1.266   3.668  13.668  1.00  0.00    -0.203 F 
ATOM     67  C   UNL     1      -1.992   5.671  14.594  1.00  0.00     0.198 A 
ATOM     68  C   UNL     1      -0.500   7.510  14.870  1.00  0.00     0.198 A 
ATOM     69  F   UNL     1       1.772   7.285  14.351  1.00  0.00    -0.203 F 
ATOM     70  F   UNL     1      -3.213   5.132  14.722  1.00  0.00    -0.200 F 
ATOM     71  C   UNL     1      -1.773   6.979  14.975  1.00  0.00     0.200 A 
ATOM     72  F   UNL     1      -0.275   8.780  15.234  1.00  0.00    -0.200 F 
ATOM     73  F   UNL     1      -2.783   7.725  15.444  1.00  0.00    -0.200 F 
ENDBRANCH  49  63
BRANCH  50  74
ATOM     74  C   UNL     1       6.415   0.814   7.917  1.00  0.00     0.064 A 
ATOM     75  C   UNL     1       6.444   0.521   6.540  1.00  0.00     0.173 A 
ATOM     76  C   UNL     1       7.395   1.679   8.417  1.00  0.00     0.173 A 
ATOM     77  F   UNL     1       5.524  -0.303   6.012  1.00  0.00    -0.203 F 
ATOM     78  C   UNL     1       7.336   1.159   5.682  1.00  0.00     0.198 A 
ATOM     79  C   UNL     1       8.298   2.306   7.555  1.00  0.00     0.198 A 
ATOM     80  F   UNL     1       7.408   2.007   9.717  1.00  0.00    -0.203 F 
ATOM     81  F   UNL     1       7.261   0.945   4.361  1.00  0.00    -0.200 F 
ATOM     82  C   UNL     1       8.243   2.074   6.188  1.00  0.00     0.200 A 
ATOM     83  F   UNL     1       9.171   3.199   8.042  1.00  0.00    -0.200 F 
ATOM     84  F   UNL     1       9.038   2.759   5.353  1.00  0.00    -0.200 F 
ENDBRANCH  50  74
BRANCH  62  85
ATOM     85  C   UNL     1       4.099  -0.044  14.733  1.00  0.00     0.064 A 
ATOM     86  C   UNL     1       5.351  -0.468  15.206  1.00  0.00     0.173 A 
ATOM     87  C   UNL     1       3.088   0.084  15.719  1.00  0.00     0.173 A 
ATOM     88  F   UNL     1       6.417  -0.526  14.397  1.00  0.00    -0.203 F 
ATOM     89  C   UNL     1       5.561  -0.793  16.550  1.00  0.00     0.198 A 
ATOM     90  C   UNL     1       3.317  -0.187  17.067  1.00  0.00     0.198 A 
ATOM     91  F   UNL     1       1.851   0.499  15.407  1.00  0.00    -0.203 F 
ATOM     92  F   UNL     1       6.766  -1.230  16.945  1.00  0.00    -0.200 F 
ATOM     93  C   UNL     1       4.551  -0.640  17.481  1.00  0.00     0.200 A 
ATOM     94  F   UNL     1       2.339   0.014  17.962  1.00  0.00    -0.200 F 
ATOM     95  F   UNL     1       4.771  -0.907  18.775  1.00  0.00    -0.200 F 
ENDBRANCH  62  85
ENDBRANCH  36  37
ENDBRANCH  28  31
ENDBRANCH  26  27
ENDBRANCH  25  26
ENDBRANCH  24  25
ENDBRANCH   1  24
TORSDOF 16
