REMARK SMILES C[C@H]1CCC[C@H](C)N1C(=O)[C@H]1[C@@H](C(=O)NCCCCCCNC(=O)c2ccc(-c3c4nc(c(-c5c(F)c(F)c(F)c(F)c5F)c5ccc([nH]5)c(-c5c(F)c(F)c(F)c(F)c5F)c5nc(c(-c6c(F)c(F)c(F)c(F)c6F)c6ccc3[nH]6)C=C5)C=C4)cc2)[C@H]2CC[C@@H]1O2
REMARK SMILES IDX 19 1 18 2 17 3 16 4 15 5 13 6 14 7 12 9 11 10 91 11 88 12
REMARK SMILES IDX 90 13 92 14 89 15 9 16 1 17 2 18 3 19 8 20 4 21 6 22 5 23
REMARK SMILES IDX 7 24 10 25 20 26 21 27 22 28 23 29 24 31 25 32 26 33 87 34
REMARK SMILES IDX 27 35 86 36 28 37 29 38 30 39 80 40 31 41 85 42 79 43 81 44
REMARK SMILES IDX 32 45 84 46 78 47 77 48 33 50 65 51 45 52 64 53 46 54 49 55
REMARK SMILES IDX 63 56 82 57 47 58 48 59 62 61 83 62 50 63 34 64 35 65 43 66
REMARK SMILES IDX 36 67 37 68 41 69 44 70 38 71 39 72 42 73 40 74 66 75 67 76
REMARK SMILES IDX 75 77 68 78 69 79 73 80 76 81 70 82 71 83 74 84 72 85 51 86
REMARK SMILES IDX 52 87 60 88 53 89 54 90 58 91 61 92 55 93 56 94 59 95 57 96
REMARK H PARENT 15 8 22 30 81 49 49 60
REMARK Flexibility Score: inf
ROOT
ATOM      1  C   UNL     1      -3.708  -5.774  -4.782  1.00  0.00     0.002 C 
ENDROOT
BRANCH   1   2
ATOM      2  C   UNL     1      -2.359  -5.248  -5.281  1.00  0.00     0.002 C 
BRANCH   2   3
ATOM      3  C   UNL     1      -2.317  -3.748  -5.574  1.00  0.00     0.021 C 
BRANCH   3   4
ATOM      4  C   UNL     1      -2.505  -2.858  -4.350  1.00  0.00     0.116 C 
BRANCH   4   5
ATOM      5  N   UNL     1      -1.277  -2.800  -3.570  1.00  0.00    -0.356 N 
ATOM      6  C   UNL     1      -0.672  -1.896  -2.771  1.00  0.00     0.226 C 
ATOM      7  O   UNL     1       0.335  -2.322  -2.184  1.00  0.00    -0.275 OA
ATOM      8  H   UNL     1      -0.756  -3.632  -3.644  1.00  0.00     0.163 HD
BRANCH   6   9
ATOM      9  C   UNL     1      -1.117  -0.457  -2.488  1.00  0.00     0.122 C 
ATOM     10  C   UNL     1      -2.001  -0.233  -1.244  1.00  0.00     0.122 C 
ATOM     11  C   UNL     1      -2.758   1.040  -1.658  1.00  0.00     0.132 C 
ATOM     12  C   UNL     1      -1.797   0.422  -3.603  1.00  0.00     0.132 C 
ATOM     13  C   UNL     1      -3.951   1.011  -2.594  1.00  0.00     0.035 C 
ATOM     14  O   UNL     1      -1.795   1.537  -2.629  1.00  0.00    -0.373 OA
ATOM     15  C   UNL     1      -3.271   0.864  -3.952  1.00  0.00     0.035 C 
BRANCH  10  16
ATOM     16  C   UNL     1      -2.793  -1.457  -0.809  1.00  0.00     0.229 C 
ATOM     17  C   UNL     1      -0.234  -1.184   1.093  1.00  0.00     0.031 C 
ATOM     18  C   UNL     1      -0.983  -2.489   0.820  1.00  0.00     0.082 C 
ATOM     19  C   UNL     1      -1.295  -3.083   2.220  1.00  0.00     0.025 C 
ATOM     20  N   UNL     1      -2.222  -2.477  -0.034  1.00  0.00    -0.337 N 
ATOM     21  C   UNL     1      -2.035  -4.411   2.181  1.00  0.00     0.004 C 
ATOM     22  C   UNL     1      -2.933  -3.788  -0.082  1.00  0.00     0.082 C 
ATOM     23  C   UNL     1      -3.280  -4.284   1.322  1.00  0.00     0.025 C 
ATOM     24  C   UNL     1      -2.153  -4.854  -0.867  1.00  0.00     0.031 C 
ATOM     25  O   UNL     1      -3.945  -1.582  -1.242  1.00  0.00    -0.274 OA
ENDBRANCH  10  16
ENDBRANCH   6   9
ENDBRANCH   4   5
ENDBRANCH   3   4
ENDBRANCH   2   3
ENDBRANCH   1   2
BRANCH   1  26
ATOM     26  C   UNL     1      -4.919  -5.389  -5.635  1.00  0.00     0.021 C 
BRANCH  26  27
ATOM     27  C   UNL     1      -4.772  -5.667  -7.126  1.00  0.00     0.116 C 
BRANCH  27  28
ATOM     28  N   UNL     1      -4.530  -7.069  -7.412  1.00  0.00    -0.352 N 
ATOM     29  C   UNL     1      -5.090  -7.852  -8.386  1.00  0.00     0.251 C 
ATOM     30  H   UNL     1      -3.876  -7.517  -6.828  1.00  0.00     0.163 HD
ATOM     31  O   UNL     1      -4.893  -9.065  -8.400  1.00  0.00    -0.269 OA
BRANCH  29  32
ATOM     32  C   UNL     1      -5.958  -7.234  -9.408  1.00  0.00     0.039 A 
ATOM     33  C   UNL     1      -7.169  -7.852  -9.721  1.00  0.00     0.014 A 
ATOM     34  C   UNL     1      -5.578  -6.053 -10.054  1.00  0.00     0.014 A 
ATOM     35  C   UNL     1      -8.016  -7.268 -10.663  1.00  0.00     0.010 A 
ATOM     36  C   UNL     1      -6.460  -5.429 -10.930  1.00  0.00     0.010 A 
ATOM     37  C   UNL     1      -7.678  -6.042 -11.261  1.00  0.00    -0.014 A 
BRANCH  37  38
ATOM     38  C   UNL     1      -8.578  -5.417 -12.261  1.00  0.00     0.031 A 
ATOM     39  C   UNL     1      -8.123  -5.251 -13.685  1.00  0.00     0.074 A 
ATOM     40  C   UNL     1      -9.794  -4.981 -11.882  1.00  0.00     0.049 A 
ATOM     41  N   UNL     1      -8.763  -4.737 -14.705  1.00  0.00    -0.248 NA
ATOM     42  C   UNL     1      -6.756  -5.697 -14.001  1.00  0.00     0.031 C 
ATOM     43  C   UNL     1     -10.325  -5.039 -10.519  1.00  0.00     0.029 A 
ATOM     44  N   UNL     1     -10.805  -4.406 -12.609  1.00  0.00    -0.354 N 
ATOM     45  C   UNL     1      -7.878  -4.794 -15.774  1.00  0.00     0.074 A 
ATOM     46  C   UNL     1      -6.633  -5.326 -15.266  1.00  0.00     0.031 C 
ATOM     47  C   UNL     1     -11.578  -4.555 -10.515  1.00  0.00     0.029 A 
ATOM     48  C   UNL     1     -11.924  -4.120 -11.865  1.00  0.00     0.049 A 
ATOM     49  H   UNL     1     -10.736  -4.217 -13.573  1.00  0.00     0.167 HD
ATOM     50  C   UNL     1      -8.093  -4.461 -17.069  1.00  0.00     0.037 A 
ATOM     51  C   UNL     1     -13.096  -3.571 -12.234  1.00  0.00     0.037 A 
ATOM     52  C   UNL     1      -9.341  -3.949 -17.572  1.00  0.00     0.049 A 
ATOM     53  C   UNL     1     -13.307  -3.204 -13.679  1.00  0.00     0.074 A 
ATOM     54  C   UNL     1      -9.681  -3.630 -18.875  1.00  0.00     0.029 A 
ATOM     55  N   UNL     1     -10.454  -3.675 -16.790  1.00  0.00    -0.354 N 
ATOM     56  N   UNL     1     -12.490  -3.334 -14.696  1.00  0.00    -0.248 NA
ATOM     57  C   UNL     1     -14.612  -2.627 -14.027  1.00  0.00     0.031 C 
ATOM     58  C   UNL     1     -10.980  -3.110 -18.872  1.00  0.00     0.029 A 
ATOM     59  C   UNL     1     -11.474  -3.167 -17.578  1.00  0.00     0.049 A 
ATOM     60  H   UNL     1     -10.511  -3.822 -15.818  1.00  0.00     0.167 HD
ATOM     61  C   UNL     1     -13.189  -2.882 -15.808  1.00  0.00     0.074 A 
ATOM     62  C   UNL     1     -14.506  -2.500 -15.342  1.00  0.00     0.031 C 
ATOM     63  C   UNL     1     -12.780  -2.790 -17.097  1.00  0.00     0.037 A 
BRANCH  50  64
ATOM     64  C   UNL     1      -6.953  -4.642 -18.031  1.00  0.00     0.064 A 
ATOM     65  C   UNL     1      -6.476  -5.916 -18.380  1.00  0.00     0.173 A 
ATOM     66  C   UNL     1      -6.345  -3.530 -18.634  1.00  0.00     0.173 A 
ATOM     67  F   UNL     1      -7.012  -7.014 -17.825  1.00  0.00    -0.203 F 
ATOM     68  C   UNL     1      -5.413  -6.067 -19.267  1.00  0.00     0.198 A 
ATOM     69  C   UNL     1      -5.306  -3.687 -19.548  1.00  0.00     0.198 A 
ATOM     70  F   UNL     1      -6.762  -2.289 -18.341  1.00  0.00    -0.203 F 
ATOM     71  F   UNL     1      -4.939  -7.291 -19.539  1.00  0.00    -0.200 F 
ATOM     72  C   UNL     1      -4.835  -4.954 -19.856  1.00  0.00     0.200 A 
ATOM     73  F   UNL     1      -4.757  -2.610 -20.127  1.00  0.00    -0.200 F 
ATOM     74  F   UNL     1      -3.817  -5.101 -20.716  1.00  0.00    -0.200 F 
ENDBRANCH  50  64
BRANCH  51  75
ATOM     75  C   UNL     1     -14.170  -3.360 -11.227  1.00  0.00     0.064 A 
ATOM     76  C   UNL     1     -15.366  -4.091 -11.282  1.00  0.00     0.173 A 
ATOM     77  C   UNL     1     -14.033  -2.414 -10.201  1.00  0.00     0.173 A 
ATOM     78  F   UNL     1     -15.554  -4.994 -12.256  1.00  0.00    -0.203 F 
ATOM     79  C   UNL     1     -16.392  -3.865 -10.368  1.00  0.00     0.198 A 
ATOM     80  C   UNL     1     -15.046  -2.212  -9.266  1.00  0.00     0.198 A 
ATOM     81  F   UNL     1     -12.907  -1.693 -10.098  1.00  0.00    -0.203 F 
ATOM     82  F   UNL     1     -17.545  -4.538 -10.478  1.00  0.00    -0.200 F 
ATOM     83  C   UNL     1     -16.230  -2.929  -9.357  1.00  0.00     0.200 A 
ATOM     84  F   UNL     1     -14.878  -1.320  -8.281  1.00  0.00    -0.200 F 
ATOM     85  F   UNL     1     -17.216  -2.713  -8.477  1.00  0.00    -0.200 F 
ENDBRANCH  51  75
BRANCH  63  86
ATOM     86  C   UNL     1     -13.781  -2.285 -18.098  1.00  0.00     0.064 A 
ATOM     87  C   UNL     1     -14.224  -0.954 -18.096  1.00  0.00     0.173 A 
ATOM     88  C   UNL     1     -14.295  -3.144 -19.082  1.00  0.00     0.173 A 
ATOM     89  F   UNL     1     -13.773  -0.094 -17.169  1.00  0.00    -0.203 F 
ATOM     90  C   UNL     1     -15.176  -0.514 -19.011  1.00  0.00     0.198 A 
ATOM     91  C   UNL     1     -15.218  -2.691 -20.020  1.00  0.00     0.198 A 
ATOM     92  F   UNL     1     -13.899  -4.425 -19.138  1.00  0.00    -0.203 F 
ATOM     93  F   UNL     1     -15.635   0.744 -18.944  1.00  0.00    -0.200 F 
ATOM     94  C   UNL     1     -15.668  -1.380 -19.975  1.00  0.00     0.200 A 
ATOM     95  F   UNL     1     -15.678  -3.525 -20.962  1.00  0.00    -0.200 F 
ATOM     96  F   UNL     1     -16.584  -0.955 -20.856  1.00  0.00    -0.200 F 
ENDBRANCH  63  86
ENDBRANCH  37  38
ENDBRANCH  29  32
ENDBRANCH  27  28
ENDBRANCH  26  27
ENDBRANCH   1  26
TORSDOF 14
