REMARK SMILES O=C(CN(CC(=O)NCc1ccccc1)c1ccccc1)NCCCCCCNC(=O)c1ccc(-c2c3nc(c(-c4c(F)c(F)c(F)c(F)c4F)c4ccc([nH]4)c(-c4c(F)c(F)c(F)c(F)c4F)c4nc(c(-c5c(F)c(F)c(F)c(F)c5F)c5ccc2[nH]5)C=C4)C=C3)cc1
REMARK SMILES IDX 24 1 23 2 22 3 1 4 2 5 3 7 4 8 5 9 6 10 7 11 8 12 9 14 10 15
REMARK SMILES IDX 11 16 15 17 12 18 14 19 13 20 16 21 17 22 21 23 18 24 20 25
REMARK SMILES IDX 19 26 25 27 26 28 27 29 28 30 29 31 30 32 31 34 32 35 33 36
REMARK SMILES IDX 94 37 34 38 93 39 35 40 36 41 37 42 87 43 38 44 92 45 86 46
REMARK SMILES IDX 88 47 39 48 91 49 85 50 84 51 40 53 72 54 52 55 71 56 53 57
REMARK SMILES IDX 56 58 70 59 89 60 54 61 55 62 69 64 90 65 57 66 41 67 42 68
REMARK SMILES IDX 50 69 43 70 44 71 48 72 51 73 45 74 46 75 49 76 47 77 73 78
REMARK SMILES IDX 74 79 82 80 75 81 76 82 80 83 83 84 77 85 78 86 81 87 79 88
REMARK SMILES IDX 58 89 59 90 67 91 60 92 61 93 65 94 68 95 62 96 63 97 66 98
REMARK SMILES IDX 64 99
REMARK H PARENT 22 6 8 13 29 33 88 52 56 63
REMARK Flexibility Score: inf
ROOT
ATOM      1  C   UNL     1       2.639   3.397   0.974  1.00  0.00     0.021 C 
ENDROOT
BRANCH   1   2
ATOM      2  C   UNL     1       2.084   2.563  -0.176  1.00  0.00     0.116 C 
BRANCH   2   3
ATOM      3  N   UNL     1       2.733   1.276  -0.238  1.00  0.00    -0.355 N 
ATOM      4  O   UNL     1       1.048   0.158   0.831  1.00  0.00    -0.273 OA
ATOM      5  C   UNL     1       2.149   0.150   0.284  1.00  0.00     0.239 C 
ATOM      6  H   UNL     1       3.618   1.205  -0.665  1.00  0.00     0.163 HD
BRANCH   5   7
ATOM      7  C   UNL     1       3.004  -1.102   0.232  1.00  0.00     0.217 C 
BRANCH   7   8
ATOM      8  N   UNL     1       3.745  -1.422  -1.022  1.00  0.00    -0.353 N 
BRANCH   8   9
ATOM      9  C   UNL     1       5.197  -1.712  -0.843  1.00  0.00     0.217 C 
BRANCH   9  10
ATOM     10  C   UNL     1       5.703  -3.130  -1.155  1.00  0.00     0.239 C 
ATOM     11  O   UNL     1       6.683  -3.290  -1.893  1.00  0.00    -0.273 OA
ATOM     12  N   UNL     1       5.143  -4.252  -0.628  1.00  0.00    -0.350 N 
ATOM     13  H   UNL     1       5.452  -5.098  -1.028  1.00  0.00     0.163 HD
BRANCH  12  14
ATOM     14  C   UNL     1       4.168  -4.397   0.421  1.00  0.00     0.151 C 
BRANCH  14  15
ATOM     15  C   UNL     1       2.947  -5.172  -0.003  1.00  0.00    -0.029 A 
ATOM     16  C   UNL     1       1.790  -4.524  -0.455  1.00  0.00     0.005 A 
ATOM     17  C   UNL     1       2.925  -6.571   0.078  1.00  0.00     0.005 A 
ATOM     18  C   UNL     1       0.618  -5.230  -0.728  1.00  0.00     0.000 A 
ATOM     19  C   UNL     1       1.760  -7.285  -0.220  1.00  0.00     0.000 A 
ATOM     20  C   UNL     1       0.600  -6.612  -0.601  1.00  0.00     0.000 A 
ENDBRANCH  14  15
ENDBRANCH  12  14
ENDBRANCH   9  10
ENDBRANCH   8   9
BRANCH   8  21
ATOM     21  C   UNL     1       3.156  -1.524  -2.283  1.00  0.00     0.038 A 
ATOM     22  C   UNL     1       3.605  -2.433  -3.261  1.00  0.00     0.026 A 
ATOM     23  C   UNL     1       2.086  -0.717  -2.701  1.00  0.00     0.026 A 
ATOM     24  C   UNL     1       3.062  -2.514  -4.553  1.00  0.00     0.002 A 
ATOM     25  C   UNL     1       1.550  -0.764  -4.001  1.00  0.00     0.002 A 
ATOM     26  C   UNL     1       2.041  -1.664  -4.932  1.00  0.00     0.000 A 
ENDBRANCH   8  21
ENDBRANCH   7   8
ENDBRANCH   5   7
ENDBRANCH   2   3
ENDBRANCH   1   2
BRANCH   1  27
ATOM     27  C   UNL     1       4.151   3.638   0.883  1.00  0.00     0.002 C 
BRANCH  27  28
ATOM     28  C   UNL     1       4.627   4.260  -0.433  1.00  0.00     0.002 C 
BRANCH  28  29
ATOM     29  C   UNL     1       3.941   5.575  -0.806  1.00  0.00     0.021 C 
BRANCH  29  30
ATOM     30  C   UNL     1       4.059   6.668   0.248  1.00  0.00     0.116 C 
BRANCH  30  31
ATOM     31  N   UNL     1       5.438   7.072   0.470  1.00  0.00    -0.352 N 
ATOM     32  C   UNL     1       5.982   8.331   0.464  1.00  0.00     0.251 C 
ATOM     33  H   UNL     1       6.070   6.339   0.650  1.00  0.00     0.163 HD
ATOM     34  O   UNL     1       7.201   8.481   0.490  1.00  0.00    -0.269 OA
BRANCH  32  35
ATOM     35  C   UNL     1       5.095   9.510   0.399  1.00  0.00     0.039 A 
ATOM     36  C   UNL     1       5.412  10.546  -0.483  1.00  0.00     0.014 A 
ATOM     37  C   UNL     1       3.950   9.590   1.197  1.00  0.00     0.014 A 
ATOM     38  C   UNL     1       4.548  11.634  -0.609  1.00  0.00     0.010 A 
ATOM     39  C   UNL     1       3.050  10.633   1.011  1.00  0.00     0.010 A 
ATOM     40  C   UNL     1       3.341  11.669   0.110  1.00  0.00    -0.014 A 
BRANCH  40  41
ATOM     41  C   UNL     1       2.371  12.778  -0.072  1.00  0.00     0.031 A 
ATOM     42  C   UNL     1       2.034  13.686   1.076  1.00  0.00     0.074 A 
ATOM     43  C   UNL     1       1.744  12.925  -1.255  1.00  0.00     0.049 A 
ATOM     44  N   UNL     1       1.173  14.672   1.128  1.00  0.00    -0.248 NA
ATOM     45  C   UNL     1       2.736  13.435   2.343  1.00  0.00     0.031 C 
ATOM     46  C   UNL     1       1.946  12.075  -2.429  1.00  0.00     0.029 A 
ATOM     47  N   UNL     1       0.802  13.836  -1.662  1.00  0.00    -0.354 N 
ATOM     48  C   UNL     1       1.223  15.148   2.431  1.00  0.00     0.074 A 
ATOM     49  C   UNL     1       2.150  14.304   3.153  1.00  0.00     0.031 C 
ATOM     50  C   UNL     1       1.170  12.517  -3.430  1.00  0.00     0.029 A 
ATOM     51  C   UNL     1       0.385  13.654  -2.958  1.00  0.00     0.049 A 
ATOM     52  H   UNL     1       0.457  14.551  -1.081  1.00  0.00     0.167 HD
ATOM     53  C   UNL     1       0.574  16.208   2.970  1.00  0.00     0.037 A 
ATOM     54  C   UNL     1      -0.533  14.321  -3.682  1.00  0.00     0.037 A 
ATOM     55  C   UNL     1      -0.340  17.050   2.243  1.00  0.00     0.049 A 
ATOM     56  C   UNL     1      -1.254  15.485  -3.059  1.00  0.00     0.074 A 
ATOM     57  C   UNL     1      -1.003  18.184   2.679  1.00  0.00     0.029 A 
ATOM     58  N   UNL     1      -0.730  16.841   0.927  1.00  0.00    -0.354 N 
ATOM     59  N   UNL     1      -1.142  15.976  -1.848  1.00  0.00    -0.248 NA
ATOM     60  C   UNL     1      -2.223  16.193  -3.906  1.00  0.00     0.031 C 
ATOM     61  C   UNL     1      -1.841  18.625   1.649  1.00  0.00     0.029 A 
ATOM     62  C   UNL     1      -1.650  17.807   0.546  1.00  0.00     0.049 A 
ATOM     63  H   UNL     1      -0.402  16.115   0.349  1.00  0.00     0.167 HD
ATOM     64  C   UNL     1      -2.004  17.064  -1.795  1.00  0.00     0.074 A 
ATOM     65  C   UNL     1      -2.620  17.169  -3.102  1.00  0.00     0.031 C 
ATOM     66  C   UNL     1      -2.259  17.900  -0.758  1.00  0.00     0.037 A 
BRANCH  53  67
ATOM     67  C   UNL     1       0.826  16.506   4.423  1.00  0.00     0.064 A 
ATOM     68  C   UNL     1       2.078  16.947   4.881  1.00  0.00     0.173 A 
ATOM     69  C   UNL     1      -0.200  16.359   5.368  1.00  0.00     0.173 A 
ATOM     70  F   UNL     1       3.098  17.096   4.022  1.00  0.00    -0.203 F 
ATOM     71  C   UNL     1       2.305  17.183   6.235  1.00  0.00     0.198 A 
ATOM     72  C   UNL     1       0.020  16.633   6.716  1.00  0.00     0.198 A 
ATOM     73  F   UNL     1      -1.419  15.950   4.987  1.00  0.00    -0.203 F 
ATOM     74  F   UNL     1       3.527  17.537   6.656  1.00  0.00    -0.200 F 
ATOM     75  C   UNL     1       1.274  17.032   7.150  1.00  0.00     0.200 A 
ATOM     76  F   UNL     1      -0.982  16.502   7.597  1.00  0.00    -0.200 F 
ATOM     77  F   UNL     1       1.494  17.261   8.452  1.00  0.00    -0.200 F 
ENDBRANCH  53  67
BRANCH  54  78
ATOM     78  C   UNL     1      -0.800  13.913  -5.086  1.00  0.00     0.064 A 
ATOM     79  C   UNL     1      -0.409  14.725  -6.159  1.00  0.00     0.173 A 
ATOM     80  C   UNL     1      -1.431  12.696  -5.383  1.00  0.00     0.173 A 
ATOM     81  F   UNL     1       0.179  15.907  -5.925  1.00  0.00    -0.203 F 
ATOM     82  C   UNL     1      -0.650  14.341  -7.477  1.00  0.00     0.198 A 
ATOM     83  C   UNL     1      -1.644  12.299  -6.702  1.00  0.00     0.198 A 
ATOM     84  F   UNL     1      -1.818  11.880  -4.392  1.00  0.00    -0.203 F 
ATOM     85  F   UNL     1      -0.301  15.153  -8.484  1.00  0.00    -0.200 F 
ATOM     86  C   UNL     1      -1.260  13.125  -7.747  1.00  0.00     0.200 A 
ATOM     87  F   UNL     1      -2.217  11.115  -6.958  1.00  0.00    -0.200 F 
ATOM     88  F   UNL     1      -1.480  12.750  -9.015  1.00  0.00    -0.200 F 
ENDBRANCH  54  78
BRANCH  66  89
ATOM     89  C   UNL     1      -3.225  19.025  -1.000  1.00  0.00     0.064 A 
ATOM     90  C   UNL     1      -4.599  18.797  -1.171  1.00  0.00     0.173 A 
ATOM     91  C   UNL     1      -2.774  20.354  -1.022  1.00  0.00     0.173 A 
ATOM     92  F   UNL     1      -5.080  17.545  -1.174  1.00  0.00    -0.203 F 
ATOM     93  C   UNL     1      -5.480  19.855  -1.382  1.00  0.00     0.198 A 
ATOM     94  C   UNL     1      -3.662  21.411  -1.198  1.00  0.00     0.198 A 
ATOM     95  F   UNL     1      -1.471  20.629  -0.857  1.00  0.00    -0.203 F 
ATOM     96  F   UNL     1      -6.780  19.609  -1.595  1.00  0.00    -0.200 F 
ATOM     97  C   UNL     1      -5.012  21.161  -1.387  1.00  0.00     0.200 A 
ATOM     98  F   UNL     1      -3.211  22.673  -1.185  1.00  0.00    -0.200 F 
ATOM     99  F   UNL     1      -5.863  22.178  -1.581  1.00  0.00    -0.200 F 
ENDBRANCH  66  89
ENDBRANCH  40  41
ENDBRANCH  32  35
ENDBRANCH  30  31
ENDBRANCH  29  30
ENDBRANCH  28  29
ENDBRANCH  27  28
ENDBRANCH   1  27
TORSDOF 19
