REMARK SMILES COCC[C@]1(C(=O)NCCCCCCNC(=O)c2ccc(-c3c4nc(c(-c5c(F)c(F)c(F)c(F)c5F)c5ccc([nH]5)c(-c5c(F)c(F)c(F)c(F)c5F)c5nc(c(-c6c(F)c(F)c(F)c(F)c6F)c6ccc3[nH]6)C=C5)C=C4)cc2)CCCN(C(=O)c2ccc(=O)[nH]c2)C1
REMARK SMILES IDX 11 1 10 2 9 3 8 4 6 5 7 6 5 8 81 9 94 10 82 11 84 12 83 13
REMARK SMILES IDX 4 14 3 15 2 16 1 17 85 18 86 19 87 20 88 21 93 22 89 23
REMARK SMILES IDX 92 24 90 25 91 27 12 28 13 29 14 30 15 31 16 32 17 34 18 35
REMARK SMILES IDX 19 36 80 37 20 38 79 39 21 40 22 41 23 42 73 43 24 44 78 45
REMARK SMILES IDX 72 46 74 47 25 48 77 49 71 50 70 51 26 53 58 54 38 55 57 56
REMARK SMILES IDX 39 57 42 58 56 59 75 60 40 61 41 62 55 64 76 65 43 66 27 67
REMARK SMILES IDX 28 68 36 69 29 70 30 71 34 72 37 73 31 74 32 75 35 76 33 77
REMARK SMILES IDX 59 78 60 79 68 80 61 81 62 82 66 83 69 84 63 85 64 86 67 87
REMARK SMILES IDX 65 88 44 89 45 90 53 91 46 92 47 93 51 94 54 95 48 96 49 97
REMARK SMILES IDX 52 98 50 99
REMARK H PARENT 8 7 92 26 15 33 74 52 42 63
REMARK Flexibility Score: inf
ROOT
ATOM      1  C   UNL     1       1.233   5.319  -0.984  1.00  0.00     0.002 C 
ENDROOT
BRANCH   1   2
ATOM      2  C   UNL     1       1.454   4.470  -2.239  1.00  0.00     0.021 C 
BRANCH   2   3
ATOM      3  C   UNL     1       2.343   3.229  -2.071  1.00  0.00     0.116 C 
BRANCH   3   4
ATOM      4  N   UNL     1       1.744   2.251  -1.193  1.00  0.00    -0.356 N 
ATOM      5  C   UNL     1       0.823   1.286  -1.436  1.00  0.00     0.228 C 
ATOM      6  O   UNL     1      -0.006   1.175  -0.526  1.00  0.00    -0.274 OA
ATOM      7  H   UNL     1       2.057   2.292  -0.260  1.00  0.00     0.163 HD
BRANCH   5   8
ATOM      8  C   UNL     1       0.668   0.508  -2.774  1.00  0.00     0.069 C 
ATOM      9  C   UNL     1      -0.172   1.492  -3.670  1.00  0.00     0.021 C 
ATOM     10  C   UNL     1       1.978   0.044  -3.482  1.00  0.00     0.136 C 
ATOM     11  C   UNL     1       0.060   1.547  -5.183  1.00  0.00     0.023 C 
ATOM     12  N   UNL     1       1.769  -0.085  -4.937  1.00  0.00    -0.338 N 
ATOM     13  C   UNL     1       1.477   1.184  -5.570  1.00  0.00     0.120 C 
BRANCH   8  14
ATOM     14  C   UNL     1      -0.181  -0.783  -2.454  1.00  0.00     0.047 C 
BRANCH  14  15
ATOM     15  C   UNL     1       0.459  -1.841  -1.514  1.00  0.00     0.161 C 
BRANCH  15  16
ATOM     16  O   UNL     1       0.350  -1.479  -0.141  1.00  0.00    -0.385 OA
ATOM     17  C   UNL     1       1.579  -1.141   0.487  1.00  0.00     0.194 C 
ENDBRANCH  15  16
ENDBRANCH  14  15
ENDBRANCH   8  14
BRANCH  12  18
ATOM     18  C   UNL     1       1.435  -1.319  -5.509  1.00  0.00     0.255 C 
ATOM     19  O   UNL     1       1.485  -2.383  -4.898  1.00  0.00    -0.269 OA
BRANCH  18  20
ATOM     20  C   UNL     1       0.880  -1.286  -6.906  1.00  0.00     0.056 A 
ATOM     21  C   UNL     1       1.706  -0.994  -8.063  1.00  0.00     0.021 A 
ATOM     22  C   UNL     1      -0.446  -1.440  -7.071  1.00  0.00     0.099 A 
ATOM     23  C   UNL     1       1.151  -0.771  -9.265  1.00  0.00     0.072 A 
ATOM     24  N   UNL     1      -1.025  -1.232  -8.304  1.00  0.00    -0.328 N 
ATOM     25  C   UNL     1      -0.326  -0.860  -9.429  1.00  0.00     0.247 A 
ATOM     26  H   UNL     1      -1.998  -1.359  -8.385  1.00  0.00     0.169 HD
ATOM     27  O   UNL     1      -0.864  -0.607 -10.497  1.00  0.00    -0.270 OA
ENDBRANCH  18  20
ENDBRANCH  12  18
ENDBRANCH   5   8
ENDBRANCH   3   4
ENDBRANCH   2   3
ENDBRANCH   1   2
BRANCH   1  28
ATOM     28  C   UNL     1       2.493   5.923  -0.369  1.00  0.00     0.002 C 
BRANCH  28  29
ATOM     29  C   UNL     1       3.415   6.634  -1.361  1.00  0.00     0.021 C 
BRANCH  29  30
ATOM     30  C   UNL     1       2.750   7.752  -2.157  1.00  0.00     0.116 C 
BRANCH  30  31
ATOM     31  N   UNL     1       2.380   8.876  -1.315  1.00  0.00    -0.352 N 
ATOM     32  C   UNL     1       2.804  10.181  -1.383  1.00  0.00     0.251 C 
ATOM     33  H   UNL     1       1.736   8.676  -0.598  1.00  0.00     0.163 HD
ATOM     34  O   UNL     1       2.572  10.962  -0.468  1.00  0.00    -0.269 OA
BRANCH  32  35
ATOM     35  C   UNL     1       3.564  10.634  -2.567  1.00  0.00     0.039 A 
ATOM     36  C   UNL     1       4.734  11.374  -2.382  1.00  0.00     0.014 A 
ATOM     37  C   UNL     1       3.123  10.320  -3.856  1.00  0.00     0.014 A 
ATOM     38  C   UNL     1       5.497  11.746  -3.490  1.00  0.00     0.010 A 
ATOM     39  C   UNL     1       3.923  10.624  -4.952  1.00  0.00     0.010 A 
ATOM     40  C   UNL     1       5.116  11.343  -4.781  1.00  0.00    -0.014 A 
BRANCH  40  41
ATOM     41  C   UNL     1       5.946  11.667  -5.970  1.00  0.00     0.031 A 
ATOM     42  C   UNL     1       5.392  12.549  -7.054  1.00  0.00     0.074 A 
ATOM     43  C   UNL     1       7.166  11.113  -6.105  1.00  0.00     0.049 A 
ATOM     44  N   UNL     1       5.917  12.872  -8.209  1.00  0.00    -0.248 NA
ATOM     45  C   UNL     1       4.058  13.124  -6.819  1.00  0.00     0.031 C 
ATOM     46  C   UNL     1       7.799  10.214  -5.138  1.00  0.00     0.029 A 
ATOM     47  N   UNL     1       8.089  11.214  -7.116  1.00  0.00    -0.354 N 
ATOM     48  C   UNL     1       4.976  13.676  -8.839  1.00  0.00     0.074 A 
ATOM     49  C   UNL     1       3.824  13.743  -7.967  1.00  0.00     0.031 C 
ATOM     50  C   UNL     1       9.013   9.864  -5.592  1.00  0.00     0.029 A 
ATOM     51  C   UNL     1       9.227  10.475  -6.901  1.00  0.00     0.049 A 
ATOM     52  H   UNL     1       7.949  11.765  -7.920  1.00  0.00     0.167 HD
ATOM     53  C   UNL     1       5.075  14.322 -10.025  1.00  0.00     0.037 A 
ATOM     54  C   UNL     1      10.313  10.299  -7.678  1.00  0.00     0.037 A 
ATOM     55  C   UNL     1       6.230  14.265 -10.882  1.00  0.00     0.049 A 
ATOM     56  C   UNL     1      10.380  10.998  -9.011  1.00  0.00     0.074 A 
ATOM     57  C   UNL     1       6.446  14.916 -12.084  1.00  0.00     0.029 A 
ATOM     58  N   UNL     1       7.366  13.510 -10.626  1.00  0.00    -0.354 N 
ATOM     59  N   UNL     1       9.509  11.803  -9.569  1.00  0.00    -0.248 NA
ATOM     60  C   UNL     1      11.586  10.767  -9.819  1.00  0.00     0.031 C 
ATOM     61  C   UNL     1       7.689  14.513 -12.582  1.00  0.00     0.029 A 
ATOM     62  C   UNL     1       8.275  13.660 -11.661  1.00  0.00     0.049 A 
ATOM     63  H   UNL     1       7.505  12.950  -9.828  1.00  0.00     0.167 HD
ATOM     64  C   UNL     1      10.075  12.202 -10.773  1.00  0.00     0.074 A 
ATOM     65  C   UNL     1      11.370  11.559 -10.859  1.00  0.00     0.031 C 
ATOM     66  C   UNL     1       9.568  13.027 -11.722  1.00  0.00     0.037 A 
BRANCH  53  67
ATOM     67  C   UNL     1       3.902  15.150 -10.467  1.00  0.00     0.064 A 
ATOM     68  C   UNL     1       3.547  16.335  -9.805  1.00  0.00     0.173 A 
ATOM     69  C   UNL     1       3.147  14.777 -11.589  1.00  0.00     0.173 A 
ATOM     70  F   UNL     1       4.229  16.733  -8.720  1.00  0.00    -0.203 F 
ATOM     71  C   UNL     1       2.463  17.099 -10.230  1.00  0.00     0.198 A 
ATOM     72  C   UNL     1       2.084  15.560 -12.033  1.00  0.00     0.198 A 
ATOM     73  F   UNL     1       3.445  13.656 -12.264  1.00  0.00    -0.203 F 
ATOM     74  F   UNL     1       2.112  18.198  -9.549  1.00  0.00    -0.200 F 
ATOM     75  C   UNL     1       1.738  16.715 -11.348  1.00  0.00     0.200 A 
ATOM     76  F   UNL     1       1.394  15.196 -13.122  1.00  0.00    -0.200 F 
ATOM     77  F   UNL     1       0.701  17.456 -11.762  1.00  0.00    -0.200 F 
ENDBRANCH  53  67
BRANCH  54  78
ATOM     78  C   UNL     1      11.434   9.438  -7.215  1.00  0.00     0.064 A 
ATOM     79  C   UNL     1      12.687   9.989  -6.913  1.00  0.00     0.173 A 
ATOM     80  C   UNL     1      11.286   8.049  -7.086  1.00  0.00     0.173 A 
ATOM     81  F   UNL     1      12.885  11.310  -7.040  1.00  0.00    -0.203 F 
ATOM     82  C   UNL     1      13.756   9.183  -6.527  1.00  0.00     0.198 A 
ATOM     83  C   UNL     1      12.346   7.247  -6.669  1.00  0.00     0.198 A 
ATOM     84  F   UNL     1      10.107   7.470  -7.357  1.00  0.00    -0.203 F 
ATOM     85  F   UNL     1      14.957   9.731  -6.299  1.00  0.00    -0.200 F 
ATOM     86  C   UNL     1      13.583   7.813  -6.401  1.00  0.00     0.200 A 
ATOM     87  F   UNL     1      12.170   5.926  -6.532  1.00  0.00    -0.200 F 
ATOM     88  F   UNL     1      14.611   7.037  -6.030  1.00  0.00    -0.200 F 
ENDBRANCH  54  78
BRANCH  66  89
ATOM     89  C   UNL     1      10.433  13.325 -12.914  1.00  0.00     0.064 A 
ATOM     90  C   UNL     1      10.694  12.361 -13.898  1.00  0.00     0.173 A 
ATOM     91  C   UNL     1      10.965  14.611 -13.096  1.00  0.00     0.173 A 
ATOM     92  F   UNL     1      10.221  11.113 -13.764  1.00  0.00    -0.203 F 
ATOM     93  C   UNL     1      11.475  12.667 -15.009  1.00  0.00     0.198 A 
ATOM     94  C   UNL     1      11.717  14.923 -14.225  1.00  0.00     0.198 A 
ATOM     95  F   UNL     1      10.739  15.572 -12.187  1.00  0.00    -0.203 F 
ATOM     96  F   UNL     1      11.752  11.717 -15.914  1.00  0.00    -0.200 F 
ATOM     97  C   UNL     1      11.978  13.949 -15.176  1.00  0.00     0.200 A 
ATOM     98  F   UNL     1      12.188  16.166 -14.392  1.00  0.00    -0.200 F 
ATOM     99  F   UNL     1      12.719  14.245 -16.253  1.00  0.00    -0.200 F 
ENDBRANCH  66  89
ENDBRANCH  40  41
ENDBRANCH  32  35
ENDBRANCH  30  31
ENDBRANCH  29  30
ENDBRANCH  28  29
ENDBRANCH   1  28
TORSDOF 18
