REMARK SMILES CC1CC[NH+]([C@H](c2ccc(F)cc2)c2ccc([C@@H](C)C(=O)NCCCCCCNC(=O)c3ccc(-c4c5nc(c(-c6c(F)c(F)c(F)c(F)c6F)c6ccc([nH]6)c(-c6c(F)c(F)c(F)c(F)c6F)c6nc(c(-c7c(F)c(F)c(F)c(F)c7F)c7ccc4[nH]7)C=C6)C=C5)cc3)cc2-c2ccc(C(F)(F)F)cc2)CC1
REMARK SMILES IDX 25 1 24 2 23 3 22 4 20 5 21 6 18 8 19 9 17 10 14 11 15 12
REMARK SMILES IDX 96 13 16 14 95 15 6 16 5 17 1 18 2 19 3 20 108 21 4 22
REMARK SMILES IDX 107 23 7 25 8 26 13 27 9 28 12 29 10 30 11 31 97 32 98 33
REMARK SMILES IDX 106 34 99 35 105 36 100 37 101 38 102 39 103 40 104 41 26 42
REMARK SMILES IDX 27 43 28 44 29 45 30 46 31 48 32 49 33 50 94 51 34 52 93 53
REMARK SMILES IDX 35 54 36 55 37 56 87 57 38 58 92 59 86 60 88 61 39 62 91 63
REMARK SMILES IDX 85 64 84 65 40 67 72 68 52 69 71 70 53 71 56 72 70 73 89 74
REMARK SMILES IDX 54 75 55 76 69 78 90 79 57 80 41 81 42 82 50 83 43 84 44 85
REMARK SMILES IDX 48 86 51 87 45 88 46 89 49 90 47 91 73 92 74 93 82 94 75 95
REMARK SMILES IDX 76 96 80 97 83 98 77 99 78 100 81 101 79 102 58 103 59 104
REMARK SMILES IDX 67 105 60 106 61 107 65 108 68 109 62 110 63 111 66 112
REMARK SMILES IDX 64 113
REMARK H PARENT 22 7 5 24 29 47 88 66 56 77
REMARK Flexibility Score: inf
ROOT
ATOM      1  C   UNL     1      -0.059   6.441  -3.436  1.00  0.00     0.002 C 
ENDROOT
BRANCH   1   2
ATOM      2  C   UNL     1       1.002   5.397  -3.789  1.00  0.00     0.021 C 
BRANCH   2   3
ATOM      3  C   UNL     1       2.228   5.973  -4.510  1.00  0.00     0.116 C 
BRANCH   3   4
ATOM      4  N   UNL     1       3.278   6.333  -3.578  1.00  0.00    -0.356 N 
ATOM      5  C   UNL     1       4.436   5.723  -3.205  1.00  0.00     0.227 C 
ATOM      6  O   UNL     1       5.077   6.287  -2.309  1.00  0.00    -0.274 OA
ATOM      7  H   UNL     1       3.122   7.192  -3.123  1.00  0.00     0.163 HD
BRANCH   5   8
ATOM      8  C   UNL     1       4.979   4.419  -3.823  1.00  0.00     0.105 C 
ATOM      9  C   UNL     1       5.247   4.508  -5.324  1.00  0.00     0.023 C 
BRANCH   8  10
ATOM     10  C   UNL     1       4.223   3.183  -3.370  1.00  0.00    -0.035 A 
ATOM     11  C   UNL     1       2.623   1.100  -2.220  1.00  0.00     0.022 A 
ATOM     12  C   UNL     1       2.175   1.913  -3.272  1.00  0.00     0.011 A 
ATOM     13  C   UNL     1       3.986   1.255  -1.842  1.00  0.00    -0.009 A 
ATOM     14  C   UNL     1       2.988   2.851  -3.895  1.00  0.00     0.005 A 
ATOM     15  C   UNL     1       4.728   2.347  -2.366  1.00  0.00     0.013 A 
BRANCH  11  16
ATOM     16  C   UNL     1       1.679   0.044  -1.574  1.00  0.00     0.247 C 
BRANCH  16  17
ATOM     17  N   UNL     1       0.247   0.006  -2.026  1.00  0.00    -0.325 N 
ATOM     18  C   UNL     1      -3.307   1.266  -4.256  1.00  0.00     0.008 C 
ATOM     19  C   UNL     1      -1.917   1.106  -3.663  1.00  0.00    -0.003 C 
ATOM     20  C   UNL     1      -1.308  -0.242  -4.039  1.00  0.00     0.065 C 
ATOM     21  C   UNL     1      -1.978   1.184  -2.146  1.00  0.00     0.065 C 
ATOM     22  C   UNL     1       0.067  -0.477  -3.399  1.00  0.00     0.263 C 
ATOM     23  C   UNL     1      -0.573   1.126  -1.565  1.00  0.00     0.263 C 
ATOM     24  H   UNL     1      -0.196  -0.749  -1.502  1.00  0.00     0.348 HD
ENDBRANCH  16  17
BRANCH  16  25
ATOM     25  C   UNL     1       1.751   0.017  -0.033  1.00  0.00     0.014 A 
ATOM     26  C   UNL     1       1.589   1.183   0.743  1.00  0.00     0.013 A 
ATOM     27  C   UNL     1       1.983  -1.201   0.633  1.00  0.00     0.013 A 
ATOM     28  C   UNL     1       1.635   1.127   2.137  1.00  0.00     0.040 A 
ATOM     29  C   UNL     1       2.070  -1.248   2.026  1.00  0.00     0.040 A 
ATOM     30  C   UNL     1       1.885  -0.087   2.764  1.00  0.00     0.123 A 
ATOM     31  F   UNL     1       1.948  -0.137   4.101  1.00  0.00    -0.207 F 
ENDBRANCH  16  25
ENDBRANCH  11  16
BRANCH  13  32
ATOM     32  C   UNL     1       4.707   0.300  -0.976  1.00  0.00    -0.018 A 
ATOM     33  C   UNL     1       5.298   0.703   0.230  1.00  0.00     0.009 A 
ATOM     34  C   UNL     1       4.862  -1.039  -1.373  1.00  0.00     0.009 A 
ATOM     35  C   UNL     1       5.990  -0.212   1.031  1.00  0.00     0.014 A 
ATOM     36  C   UNL     1       5.540  -1.959  -0.569  1.00  0.00     0.014 A 
ATOM     37  C   UNL     1       6.104  -1.556   0.647  1.00  0.00     0.056 A 
BRANCH  37  38
ATOM     38  C   UNL     1       6.842  -2.537   1.524  1.00  0.00     0.416 C 
ATOM     39  F   UNL     1       8.186  -2.318   1.533  1.00  0.00    -0.166 F 
ATOM     40  F   UNL     1       6.444  -2.482   2.825  1.00  0.00    -0.166 F 
ATOM     41  F   UNL     1       6.678  -3.835   1.141  1.00  0.00    -0.166 F 
ENDBRANCH  37  38
ENDBRANCH  13  32
ENDBRANCH   8  10
ENDBRANCH   5   8
ENDBRANCH   3   4
ENDBRANCH   2   3
ENDBRANCH   1   2
BRANCH   1  42
ATOM     42  C   UNL     1      -0.692   7.144  -4.644  1.00  0.00     0.002 C 
BRANCH  42  43
ATOM     43  C   UNL     1      -1.362   6.213  -5.660  1.00  0.00     0.021 C 
BRANCH  43  44
ATOM     44  C   UNL     1      -2.560   5.448  -5.108  1.00  0.00     0.116 C 
BRANCH  44  45
ATOM     45  N   UNL     1      -3.640   6.352  -4.729  1.00  0.00    -0.352 N 
ATOM     46  C   UNL     1      -4.907   6.457  -5.253  1.00  0.00     0.251 C 
ATOM     47  H   UNL     1      -3.433   6.974  -3.996  1.00  0.00     0.163 HD
ATOM     48  O   UNL     1      -5.607   7.432  -5.019  1.00  0.00    -0.269 OA
BRANCH  46  49
ATOM     49  C   UNL     1      -5.419   5.361  -6.098  1.00  0.00     0.039 A 
ATOM     50  C   UNL     1      -6.029   5.634  -7.323  1.00  0.00     0.014 A 
ATOM     51  C   UNL     1      -5.273   4.047  -5.661  1.00  0.00     0.014 A 
ATOM     52  C   UNL     1      -6.414   4.573  -8.150  1.00  0.00     0.010 A 
ATOM     53  C   UNL     1      -5.577   2.998  -6.517  1.00  0.00     0.010 A 
ATOM     54  C   UNL     1      -6.147   3.246  -7.773  1.00  0.00    -0.014 A 
BRANCH  54  55
ATOM     55  C   UNL     1      -6.435   2.084  -8.653  1.00  0.00     0.031 A 
ATOM     56  C   UNL     1      -7.352   0.993  -8.173  1.00  0.00     0.074 A 
ATOM     57  C   UNL     1      -5.772   1.943  -9.818  1.00  0.00     0.049 A 
ATOM     58  N   UNL     1      -7.590  -0.182  -8.699  1.00  0.00    -0.248 NA
ATOM     59  C   UNL     1      -8.066   1.238  -6.909  1.00  0.00     0.031 C 
ATOM     60  C   UNL     1      -4.819   2.905 -10.369  1.00  0.00     0.029 A 
ATOM     61  N   UNL     1      -5.781   0.921 -10.736  1.00  0.00    -0.354 N 
ATOM     62  C   UNL     1      -8.454  -0.820  -7.820  1.00  0.00     0.074 A 
ATOM     63  C   UNL     1      -8.654   0.070  -6.698  1.00  0.00     0.031 C 
ATOM     64  C   UNL     1      -4.350   2.440 -11.537  1.00  0.00     0.029 A 
ATOM     65  C   UNL     1      -4.927   1.123 -11.793  1.00  0.00     0.049 A 
ATOM     66  H   UNL     1      -6.346   0.120 -10.645  1.00  0.00     0.167 HD
ATOM     67  C   UNL     1      -9.049  -2.028  -7.952  1.00  0.00     0.037 A 
ATOM     68  C   UNL     1      -4.626   0.331 -12.841  1.00  0.00     0.037 A 
ATOM     69  C   UNL     1      -8.877  -2.890  -9.090  1.00  0.00     0.049 A 
ATOM     70  C   UNL     1      -5.289  -1.014 -12.963  1.00  0.00     0.074 A 
ATOM     71  C   UNL     1      -9.498  -4.097  -9.354  1.00  0.00     0.029 A 
ATOM     72  N   UNL     1      -8.021  -2.636 -10.152  1.00  0.00    -0.354 N 
ATOM     73  N   UNL     1      -6.154  -1.581 -12.158  1.00  0.00    -0.248 NA
ATOM     74  C   UNL     1      -4.937  -1.831 -14.134  1.00  0.00     0.031 C 
ATOM     75  C   UNL     1      -8.973  -4.604 -10.544  1.00  0.00     0.029 A 
ATOM     76  C   UNL     1      -8.075  -3.682 -11.058  1.00  0.00     0.049 A 
ATOM     77  H   UNL     1      -7.460  -1.833 -10.248  1.00  0.00     0.167 HD
ATOM     78  C   UNL     1      -6.470  -2.804 -12.734  1.00  0.00     0.074 A 
ATOM     79  C   UNL     1      -5.706  -2.899 -13.960  1.00  0.00     0.031 C 
ATOM     80  C   UNL     1      -7.320  -3.758 -12.284  1.00  0.00     0.037 A 
BRANCH  67  81
ATOM     81  C   UNL     1      -9.955  -2.493  -6.847  1.00  0.00     0.064 A 
ATOM     82  C   UNL     1      -9.618  -3.616  -6.076  1.00  0.00     0.173 A 
ATOM     83  C   UNL     1     -11.188  -1.872  -6.596  1.00  0.00     0.173 A 
ATOM     84  F   UNL     1      -8.455  -4.253  -6.279  1.00  0.00    -0.203 F 
ATOM     85  C   UNL     1     -10.487  -4.106  -5.104  1.00  0.00     0.198 A 
ATOM     86  C   UNL     1     -12.038  -2.343  -5.599  1.00  0.00     0.198 A 
ATOM     87  F   UNL     1     -11.555  -0.790  -7.299  1.00  0.00    -0.203 F 
ATOM     88  F   UNL     1     -10.159  -5.202  -4.406  1.00  0.00    -0.200 F 
ATOM     89  C   UNL     1     -11.693  -3.465  -4.862  1.00  0.00     0.200 A 
ATOM     90  F   UNL     1     -13.190  -1.706  -5.349  1.00  0.00    -0.200 F 
ATOM     91  F   UNL     1     -12.521  -3.929  -3.916  1.00  0.00    -0.200 F 
ENDBRANCH  67  81
BRANCH  68  92
ATOM     92  C   UNL     1      -3.669   0.817 -13.869  1.00  0.00     0.064 A 
ATOM     93  C   UNL     1      -2.304   0.978 -13.585  1.00  0.00     0.173 A 
ATOM     94  C   UNL     1      -4.117   1.188 -15.145  1.00  0.00     0.173 A 
ATOM     95  F   UNL     1      -1.826   0.645 -12.377  1.00  0.00    -0.203 F 
ATOM     96  C   UNL     1      -1.431   1.519 -14.527  1.00  0.00     0.198 A 
ATOM     97  C   UNL     1      -3.237   1.704 -16.095  1.00  0.00     0.198 A 
ATOM     98  F   UNL     1      -5.408   1.036 -15.470  1.00  0.00    -0.203 F 
ATOM     99  F   UNL     1      -0.142   1.706 -14.213  1.00  0.00    -0.200 F 
ATOM    100  C   UNL     1      -1.898   1.879 -15.782  1.00  0.00     0.200 A 
ATOM    101  F   UNL     1      -3.688   2.031 -17.313  1.00  0.00    -0.200 F 
ATOM    102  F   UNL     1      -1.058   2.398 -16.688  1.00  0.00    -0.200 F 
ENDBRANCH  68  92
BRANCH  80 103
ATOM    103  C   UNL     1      -7.513  -4.990 -13.119  1.00  0.00     0.064 A 
ATOM    104  C   UNL     1      -8.744  -5.226 -13.753  1.00  0.00     0.173 A 
ATOM    105  C   UNL     1      -6.542  -5.999 -13.171  1.00  0.00     0.173 A 
ATOM    106  F   UNL     1      -9.709  -4.294 -13.722  1.00  0.00    -0.203 F 
ATOM    107  C   UNL     1      -9.008  -6.442 -14.374  1.00  0.00     0.198 A 
ATOM    108  C   UNL     1      -6.800  -7.204 -13.819  1.00  0.00     0.198 A 
ATOM    109  F   UNL     1      -5.347  -5.816 -12.590  1.00  0.00    -0.203 F 
ATOM    110  F   UNL     1     -10.211  -6.667 -14.921  1.00  0.00    -0.200 F 
ATOM    111  C   UNL     1      -8.037  -7.431 -14.405  1.00  0.00     0.200 A 
ATOM    112  F   UNL     1      -5.854  -8.153 -13.864  1.00  0.00    -0.200 F 
ATOM    113  F   UNL     1      -8.295  -8.607 -14.994  1.00  0.00    -0.200 F 
ENDBRANCH  80 103
ENDBRANCH  54  55
ENDBRANCH  46  49
ENDBRANCH  44  45
ENDBRANCH  43  44
ENDBRANCH  42  43
ENDBRANCH   1  42
TORSDOF 19
