REMARK SMILES Cc1c(C#N)c2ccccc2n1CC(=O)N1CC[C@H](O)C[C@@H]1C(=O)NCCCCCCNC(=O)c1ccc(-c2c3nc(c(-c4c(F)c(F)c(F)c(F)c4F)c4ccc([nH]4)c(-c4c(F)c(F)c(F)c(F)c4F)c4nc(c(-c5c(F)c(F)c(F)c(F)c5F)c5ccc2[nH]5)C=C4)C=C3)cc1
REMARK SMILES IDX 27 1 26 2 25 3 23 4 24 5 22 7 16 8 17 9 18 10 21 11 19 12
REMARK SMILES IDX 14 13 15 14 13 15 12 16 1 17 2 18 3 19 6 20 11 21 7 22 10 23
REMARK SMILES IDX 8 24 9 25 4 26 5 27 20 28 28 30 29 31 30 32 31 33 32 34
REMARK SMILES IDX 33 35 34 37 35 38 36 39 97 40 37 41 96 42 38 43 39 44 40 45
REMARK SMILES IDX 90 46 41 47 95 48 89 49 91 50 42 51 94 52 88 53 87 54 43 56
REMARK SMILES IDX 75 57 55 58 74 59 56 60 59 61 73 62 92 63 57 64 58 65 72 67
REMARK SMILES IDX 93 68 60 69 44 70 45 71 53 72 46 73 47 74 51 75 54 76 48 77
REMARK SMILES IDX 49 78 52 79 50 80 76 81 77 82 85 83 78 84 79 85 83 86 86 87
REMARK SMILES IDX 80 88 81 89 84 90 82 91 61 92 62 93 70 94 63 95 64 96 68 97
REMARK SMILES IDX 71 98 65 99 66 100 69 101 67 102
REMARK H PARENT 25 6 20 29 32 36 91 55 59 66
REMARK Flexibility Score: inf
ROOT
ATOM      1  C   UNL     1       4.039   4.968   5.097  1.00  0.00     0.021 C 
ENDROOT
BRANCH   1   2
ATOM      2  C   UNL     1       3.840   4.708   3.610  1.00  0.00     0.116 C 
BRANCH   2   3
ATOM      3  N   UNL     1       5.057   4.776   2.836  1.00  0.00    -0.354 N 
ATOM      4  C   UNL     1       5.610   3.970   1.894  1.00  0.00     0.242 C 
ATOM      5  O   UNL     1       6.670   4.404   1.417  1.00  0.00    -0.273 OA
ATOM      6  H   UNL     1       5.599   5.574   3.033  1.00  0.00     0.163 HD
BRANCH   4   7
ATOM      7  C   UNL     1       5.154   2.524   1.515  1.00  0.00     0.177 C 
ATOM      8  N   UNL     1       3.753   2.257   1.157  1.00  0.00    -0.329 N 
ATOM      9  C   UNL     1       2.816   1.900   2.210  1.00  0.00     0.123 C 
ATOM     10  C   UNL     1       3.373   1.225   3.470  1.00  0.00     0.053 C 
ATOM     11  C   UNL     1       5.704   1.438   2.434  1.00  0.00     0.067 C 
ATOM     12  C   UNL     1       4.882   1.255   3.693  1.00  0.00     0.118 C 
BRANCH   8  13
ATOM     13  C   UNL     1       3.464   2.009  -0.187  1.00  0.00     0.243 C 
ATOM     14  O   UNL     1       4.321   1.518  -0.933  1.00  0.00    -0.273 OA
BRANCH  13  15
ATOM     15  C   UNL     1       2.178   2.515  -0.826  1.00  0.00     0.222 C 
BRANCH  15  16
ATOM     16  N   UNL     1       0.940   2.437  -0.063  1.00  0.00    -0.334 N 
ATOM     17  C   UNL     1       0.726  -0.090  -0.164  1.00  0.00     0.066 C 
ATOM     18  C   UNL     1       0.256   1.271   0.240  1.00  0.00     0.034 A 
ATOM     19  C   UNL     1      -0.820   1.634   1.034  1.00  0.00     0.080 A 
ATOM     20  C   UNL     1      -0.826   3.050   1.170  1.00  0.00     0.018 A 
ATOM     21  C   UNL     1       0.272   3.537   0.455  1.00  0.00     0.050 A 
ATOM     22  C   UNL     1      -1.657   3.966   1.850  1.00  0.00     0.012 A 
ATOM     23  C   UNL     1       0.552   4.914   0.383  1.00  0.00     0.027 A 
ATOM     24  C   UNL     1      -1.381   5.335   1.785  1.00  0.00     0.001 A 
ATOM     25  C   UNL     1      -0.293   5.800   1.056  1.00  0.00     0.002 A 
BRANCH  19  26
ATOM     26  C   UNL     1      -1.739   0.725   1.658  1.00  0.00     0.102 C 
ATOM     27  N   UNL     1      -2.455  -0.012   2.186  1.00  0.00    -0.192 NA
ENDBRANCH  19  26
ENDBRANCH  15  16
ENDBRANCH  13  15
ENDBRANCH   8  13
BRANCH  12  28
ATOM     28  O   UNL     1       5.200   2.233   4.673  1.00  0.00    -0.393 OA
ATOM     29  H   UNL     1       4.951   3.111   4.347  1.00  0.00     0.210 HD
ENDBRANCH  12  28
ENDBRANCH   4   7
ENDBRANCH   2   3
ENDBRANCH   1   2
BRANCH   1  30
ATOM     30  C   UNL     1       4.246   6.428   5.474  1.00  0.00     0.002 C 
BRANCH  30  31
ATOM     31  C   UNL     1       3.035   7.325   5.216  1.00  0.00     0.002 C 
BRANCH  31  32
ATOM     32  C   UNL     1       1.715   6.831   5.826  1.00  0.00     0.021 C 
BRANCH  32  33
ATOM     33  C   UNL     1       1.824   6.381   7.284  1.00  0.00     0.116 C 
BRANCH  33  34
ATOM     34  N   UNL     1       2.357   7.396   8.164  1.00  0.00    -0.352 N 
ATOM     35  C   UNL     1       1.819   8.408   8.897  1.00  0.00     0.251 C 
ATOM     36  H   UNL     1       3.337   7.343   8.252  1.00  0.00     0.163 HD
ATOM     37  O   UNL     1       2.599   9.052   9.602  1.00  0.00    -0.269 OA
BRANCH  35  38
ATOM     38  C   UNL     1       0.407   8.845   8.807  1.00  0.00     0.039 A 
ATOM     39  C   UNL     1      -0.623   8.161   8.160  1.00  0.00     0.014 A 
ATOM     40  C   UNL     1       0.144  10.109   9.359  1.00  0.00     0.014 A 
ATOM     41  C   UNL     1      -1.797   8.823   7.846  1.00  0.00     0.010 A 
ATOM     42  C   UNL     1      -1.057  10.743   9.123  1.00  0.00     0.010 A 
ATOM     43  C   UNL     1      -1.966  10.143   8.264  1.00  0.00    -0.014 A 
BRANCH  43  44
ATOM     44  C   UNL     1      -3.197  10.837   7.939  1.00  0.00     0.031 A 
ATOM     45  C   UNL     1      -4.389  10.166   8.521  1.00  0.00     0.074 A 
ATOM     46  C   UNL     1      -3.202  12.013   7.274  1.00  0.00     0.049 A 
ATOM     47  N   UNL     1      -5.370   9.626   7.878  1.00  0.00    -0.248 NA
ATOM     48  C   UNL     1      -4.391   9.869   9.965  1.00  0.00     0.031 C 
ATOM     49  C   UNL     1      -2.066  12.818   6.815  1.00  0.00     0.029 A 
ATOM     50  N   UNL     1      -4.273  12.790   6.935  1.00  0.00    -0.354 N 
ATOM     51  C   UNL     1      -6.223   9.111   8.849  1.00  0.00     0.074 A 
ATOM     52  C   UNL     1      -5.489   9.122  10.085  1.00  0.00     0.031 C 
ATOM     53  C   UNL     1      -2.489  14.064   6.498  1.00  0.00     0.029 A 
ATOM     54  C   UNL     1      -3.933  14.109   6.601  1.00  0.00     0.049 A 
ATOM     55  H   UNL     1      -5.198  12.456   6.926  1.00  0.00     0.167 HD
ATOM     56  C   UNL     1      -7.550   8.963   8.590  1.00  0.00     0.037 A 
ATOM     57  C   UNL     1      -4.816  15.142   6.516  1.00  0.00     0.037 A 
ATOM     58  C   UNL     1      -7.791   8.935   7.170  1.00  0.00     0.049 A 
ATOM     59  C   UNL     1      -6.151  14.522   6.265  1.00  0.00     0.074 A 
ATOM     60  C   UNL     1      -7.397   8.090   6.151  1.00  0.00     0.029 A 
ATOM     61  N   UNL     1      -8.171  10.108   6.564  1.00  0.00    -0.354 N 
ATOM     62  N   UNL     1      -6.421  13.860   5.168  1.00  0.00    -0.248 NA
ATOM     63  C   UNL     1      -6.929  14.148   7.441  1.00  0.00     0.031 C 
ATOM     64  C   UNL     1      -7.073   8.956   5.066  1.00  0.00     0.029 A 
ATOM     65  C   UNL     1      -7.396  10.260   5.441  1.00  0.00     0.049 A 
ATOM     66  H   UNL     1      -8.871  10.725   6.877  1.00  0.00     0.167 HD
ATOM     67  C   UNL     1      -7.074  12.716   5.605  1.00  0.00     0.074 A 
ATOM     68  C   UNL     1      -7.362  12.955   7.022  1.00  0.00     0.031 C 
ATOM     69  C   UNL     1      -7.040  11.549   4.897  1.00  0.00     0.037 A 
BRANCH  56  70
ATOM     70  C   UNL     1      -8.639   9.252   9.590  1.00  0.00     0.064 A 
ATOM     71  C   UNL     1      -9.977   8.988   9.238  1.00  0.00     0.173 A 
ATOM     72  C   UNL     1      -8.459  10.056  10.737  1.00  0.00     0.173 A 
ATOM     73  F   UNL     1     -10.266   8.253   8.153  1.00  0.00    -0.203 F 
ATOM     74  C   UNL     1     -11.048   9.550   9.936  1.00  0.00     0.198 A 
ATOM     75  C   UNL     1      -9.530  10.575  11.460  1.00  0.00     0.198 A 
ATOM     76  F   UNL     1      -7.253  10.469  11.141  1.00  0.00    -0.203 F 
ATOM     77  F   UNL     1     -12.299   9.373   9.490  1.00  0.00    -0.200 F 
ATOM     78  C   UNL     1     -10.824  10.348  11.043  1.00  0.00     0.200 A 
ATOM     79  F   UNL     1      -9.289  11.366  12.515  1.00  0.00    -0.200 F 
ATOM     80  F   UNL     1     -11.845  10.938  11.678  1.00  0.00    -0.200 F 
ENDBRANCH  56  70
BRANCH  57  81
ATOM     81  C   UNL     1      -4.651  16.514   7.082  1.00  0.00     0.064 A 
ATOM     82  C   UNL     1      -5.569  17.548   6.812  1.00  0.00     0.173 A 
ATOM     83  C   UNL     1      -3.733  16.769   8.121  1.00  0.00     0.173 A 
ATOM     84  F   UNL     1      -6.514  17.383   5.875  1.00  0.00    -0.203 F 
ATOM     85  C   UNL     1      -5.575  18.745   7.547  1.00  0.00     0.198 A 
ATOM     86  C   UNL     1      -3.740  17.960   8.851  1.00  0.00     0.198 A 
ATOM     87  F   UNL     1      -2.864  15.830   8.518  1.00  0.00    -0.203 F 
ATOM     88  F   UNL     1      -6.497  19.685   7.294  1.00  0.00    -0.200 F 
ATOM     89  C   UNL     1      -4.667  18.944   8.573  1.00  0.00     0.200 A 
ATOM     90  F   UNL     1      -2.877  18.119   9.866  1.00  0.00    -0.200 F 
ATOM     91  F   UNL     1      -4.709  20.059   9.316  1.00  0.00    -0.200 F 
ENDBRANCH  57  81
BRANCH  69  92
ATOM     92  C   UNL     1      -6.400  11.534   3.535  1.00  0.00     0.064 A 
ATOM     93  C   UNL     1      -5.024  11.721   3.313  1.00  0.00     0.173 A 
ATOM     94  C   UNL     1      -7.163  11.061   2.460  1.00  0.00     0.173 A 
ATOM     95  F   UNL     1      -4.207  12.076   4.311  1.00  0.00    -0.203 F 
ATOM     96  C   UNL     1      -4.445  11.453   2.070  1.00  0.00     0.198 A 
ATOM     97  C   UNL     1      -6.579  10.762   1.232  1.00  0.00     0.198 A 
ATOM     98  F   UNL     1      -8.469  10.803   2.630  1.00  0.00    -0.203 F 
ATOM     99  F   UNL     1      -3.125  11.613   1.892  1.00  0.00    -0.200 F 
ATOM    100  C   UNL     1      -5.222  10.960   1.036  1.00  0.00     0.200 A 
ATOM    101  F   UNL     1      -7.325  10.228   0.255  1.00  0.00    -0.200 F 
ATOM    102  F   UNL     1      -4.658  10.638  -0.137  1.00  0.00    -0.200 F 
ENDBRANCH  69  92
ENDBRANCH  43  44
ENDBRANCH  35  38
ENDBRANCH  33  34
ENDBRANCH  32  33
ENDBRANCH  31  32
ENDBRANCH  30  31
ENDBRANCH   1  30
TORSDOF 18
