REMARK SMILES C#CCN(CC(=O)NCCCCCCNC(=O)c1ccc(-c2c3nc(c(-c4c(F)c(F)c(F)c(F)c4F)c4ccc([nH]4)c(-c4c(F)c(F)c(F)c(F)c4F)c4nc(c(-c5c(F)c(F)c(F)c(F)c5F)c5ccc2[nH]5)C=C4)C=C3)cc1)C(=O)Nc1cc(Br)ccc1C
REMARK SMILES IDX 11 1 10 2 9 3 8 4 6 5 7 6 5 8 4 9 3 10 2 11 1 12 81 13 82 14
REMARK SMILES IDX 83 15 84 17 85 18 90 19 86 20 89 21 91 22 87 23 88 24 12 25
REMARK SMILES IDX 13 26 14 27 15 28 16 29 17 31 18 32 19 33 80 34 20 35 79 36
REMARK SMILES IDX 21 37 22 38 23 39 73 40 24 41 78 42 72 43 74 44 25 45 77 46
REMARK SMILES IDX 71 47 70 48 26 50 58 51 38 52 57 53 39 54 42 55 56 56 75 57
REMARK SMILES IDX 40 58 41 59 55 61 76 62 43 63 27 64 28 65 36 66 29 67 30 68
REMARK SMILES IDX 34 69 37 70 31 71 32 72 35 73 33 74 59 75 60 76 68 77 61 78
REMARK SMILES IDX 62 79 66 80 69 81 63 82 64 83 67 84 65 85 44 86 45 87 53 88
REMARK SMILES IDX 46 89 47 90 51 91 54 92 48 93 49 94 52 95 50 96
REMARK H PARENT 8 7 83 16 15 30 74 49 42 60
REMARK Flexibility Score: inf
ROOT
ATOM      1  C   UNL     1      -6.321   0.753  -2.019  1.00  0.00     0.002 C 
ENDROOT
BRANCH   1   2
ATOM      2  C   UNL     1      -4.967   0.974  -1.333  1.00  0.00     0.021 C 
BRANCH   2   3
ATOM      3  C   UNL     1      -4.972   0.799   0.187  1.00  0.00     0.116 C 
BRANCH   3   4
ATOM      4  N   UNL     1      -5.361  -0.514   0.651  1.00  0.00    -0.355 N 
ATOM      5  C   UNL     1      -4.667  -1.577   1.141  1.00  0.00     0.239 C 
ATOM      6  O   UNL     1      -5.339  -2.373   1.812  1.00  0.00    -0.273 OA
ATOM      7  H   UNL     1      -6.331  -0.673   0.601  1.00  0.00     0.163 HD
BRANCH   5   8
ATOM      8  C   UNL     1      -3.134  -1.758   1.062  1.00  0.00     0.222 C 
BRANCH   8   9
ATOM      9  N   UNL     1      -2.398  -1.252  -0.100  1.00  0.00    -0.304 N 
BRANCH   9  10
ATOM     10  C   UNL     1      -1.836   0.081   0.057  1.00  0.00     0.211 C 
BRANCH  10  11
ATOM     11  C   UNL     1      -0.316   0.081   0.057  1.00  0.00    -0.085 C 
ATOM     12  C   UNL     1       0.988   0.081   0.057  1.00  0.00     0.006 C 
ENDBRANCH  10  11
ENDBRANCH   9  10
BRANCH   9  13
ATOM     13  C   UNL     1      -2.048  -1.934  -1.255  1.00  0.00     0.323 C 
ATOM     14  O   UNL     1      -1.436  -1.379  -2.172  1.00  0.00    -0.248 OA
ATOM     15  N   UNL     1      -2.174  -3.287  -1.342  1.00  0.00    -0.307 N 
ATOM     16  H   UNL     1      -1.384  -3.732  -1.726  1.00  0.00     0.171 HD
BRANCH  15  17
ATOM     17  C   UNL     1      -3.203  -4.171  -0.995  1.00  0.00     0.046 A 
ATOM     18  C   UNL     1      -2.831  -5.462  -0.603  1.00  0.00     0.042 A 
ATOM     19  C   UNL     1      -4.562  -3.850  -1.093  1.00  0.00    -0.027 A 
ATOM     20  C   UNL     1      -3.795  -6.348  -0.124  1.00  0.00     0.020 A 
ATOM     21  C   UNL     1      -5.512  -4.721  -0.537  1.00  0.00     0.007 A 
ATOM     22  C   UNL     1      -5.041  -2.704  -1.933  1.00  0.00     0.046 C 
ATOM     23  Br  UNL     1      -3.292  -8.092   0.403  1.00  0.00    -0.051 Br
ATOM     24  C   UNL     1      -5.126  -5.959  -0.030  1.00  0.00     0.016 A 
ENDBRANCH  15  17
ENDBRANCH   9  13
ENDBRANCH   8   9
ENDBRANCH   5   8
ENDBRANCH   3   4
ENDBRANCH   2   3
ENDBRANCH   1   2
BRANCH   1  25
ATOM     25  C   UNL     1      -7.495   1.541  -1.435  1.00  0.00     0.002 C 
BRANCH  25  26
ATOM     26  C   UNL     1      -7.248   3.038  -1.261  1.00  0.00     0.021 C 
BRANCH  26  27
ATOM     27  C   UNL     1      -6.898   3.768  -2.549  1.00  0.00     0.116 C 
BRANCH  27  28
ATOM     28  N   UNL     1      -8.042   3.874  -3.437  1.00  0.00    -0.352 N 
ATOM     29  C   UNL     1      -8.666   5.006  -3.903  1.00  0.00     0.251 C 
ATOM     30  H   UNL     1      -8.422   3.020  -3.747  1.00  0.00     0.163 HD
ATOM     31  O   UNL     1      -9.755   4.932  -4.458  1.00  0.00    -0.269 OA
BRANCH  29  32
ATOM     32  C   UNL     1      -8.020   6.323  -3.712  1.00  0.00     0.039 A 
ATOM     33  C   UNL     1      -8.794   7.401  -3.278  1.00  0.00     0.014 A 
ATOM     34  C   UNL     1      -6.654   6.490  -3.958  1.00  0.00     0.014 A 
ATOM     35  C   UNL     1      -8.185   8.636  -3.042  1.00  0.00     0.010 A 
ATOM     36  C   UNL     1      -6.035   7.693  -3.635  1.00  0.00     0.010 A 
ATOM     37  C   UNL     1      -6.796   8.784  -3.190  1.00  0.00    -0.014 A 
BRANCH  37  38
ATOM     38  C   UNL     1      -6.126  10.081  -2.916  1.00  0.00     0.031 A 
ATOM     39  C   UNL     1      -5.417  10.809  -4.026  1.00  0.00     0.074 A 
ATOM     40  C   UNL     1      -6.108  10.576  -1.663  1.00  0.00     0.049 A 
ATOM     41  N   UNL     1      -4.722  11.917  -3.979  1.00  0.00    -0.248 NA
ATOM     42  C   UNL     1      -5.473  10.193  -5.362  1.00  0.00     0.031 C 
ATOM     43  C   UNL     1      -6.720   9.943  -0.494  1.00  0.00     0.029 A 
ATOM     44  N   UNL     1      -5.545  11.723  -1.162  1.00  0.00    -0.354 N 
ATOM     45  C   UNL     1      -4.250  12.120  -5.270  1.00  0.00     0.074 A 
ATOM     46  C   UNL     1      -4.682  10.991  -6.062  1.00  0.00     0.031 C 
ATOM     47  C   UNL     1      -6.523  10.722   0.582  1.00  0.00     0.029 A 
ATOM     48  C   UNL     1      -5.735  11.886   0.189  1.00  0.00     0.049 A 
ATOM     49  H   UNL     1      -5.052  12.369  -1.718  1.00  0.00     0.167 HD
ATOM     50  C   UNL     1      -3.544  13.168  -5.757  1.00  0.00     0.037 A 
ATOM     51  C   UNL     1      -5.314  12.861   1.017  1.00  0.00     0.037 A 
ATOM     52  C   UNL     1      -3.135  14.302  -4.969  1.00  0.00     0.049 A 
ATOM     53  C   UNL     1      -4.514  14.006   0.454  1.00  0.00     0.074 A 
ATOM     54  C   UNL     1      -2.465  15.441  -5.379  1.00  0.00     0.029 A 
ATOM     55  N   UNL     1      -3.356  14.436  -3.606  1.00  0.00    -0.354 N 
ATOM     56  N   UNL     1      -4.134  14.223  -0.782  1.00  0.00    -0.248 NA
ATOM     57  C   UNL     1      -4.092  15.047   1.401  1.00  0.00     0.031 C 
ATOM     58  C   UNL     1      -2.230  16.237  -4.254  1.00  0.00     0.029 A 
ATOM     59  C   UNL     1      -2.811  15.627  -3.154  1.00  0.00     0.049 A 
ATOM     60  H   UNL     1      -3.830  13.782  -3.043  1.00  0.00     0.167 HD
ATOM     61  C   UNL     1      -3.460  15.437  -0.768  1.00  0.00     0.074 A 
ATOM     62  C   UNL     1      -3.496  15.917   0.598  1.00  0.00     0.031 C 
ATOM     63  C   UNL     1      -2.865  16.096  -1.793  1.00  0.00     0.037 A 
BRANCH  50  64
ATOM     64  C   UNL     1      -3.168  13.139  -7.212  1.00  0.00     0.064 A 
ATOM     65  C   UNL     1      -4.131  13.254  -8.226  1.00  0.00     0.173 A 
ATOM     66  C   UNL     1      -1.823  13.028  -7.597  1.00  0.00     0.173 A 
ATOM     67  F   UNL     1      -5.432  13.351  -7.914  1.00  0.00    -0.203 F 
ATOM     68  C   UNL     1      -3.765  13.227  -9.570  1.00  0.00     0.198 A 
ATOM     69  C   UNL     1      -1.458  13.037  -8.941  1.00  0.00     0.198 A 
ATOM     70  F   UNL     1      -0.860  12.921  -6.669  1.00  0.00    -0.203 F 
ATOM     71  F   UNL     1      -4.709  13.283 -10.520  1.00  0.00    -0.200 F 
ATOM     72  C   UNL     1      -2.429  13.127  -9.925  1.00  0.00     0.200 A 
ATOM     73  F   UNL     1      -0.164  12.956  -9.282  1.00  0.00    -0.200 F 
ATOM     74  F   UNL     1      -2.078  13.110 -11.219  1.00  0.00    -0.200 F 
ENDBRANCH  50  64
BRANCH  51  75
ATOM     75  C   UNL     1      -5.654  12.810   2.464  1.00  0.00     0.064 A 
ATOM     76  C   UNL     1      -6.526  13.748   3.034  1.00  0.00     0.173 A 
ATOM     77  C   UNL     1      -5.106  11.833   3.309  1.00  0.00     0.173 A 
ATOM     78  F   UNL     1      -7.061  14.714   2.272  1.00  0.00    -0.203 F 
ATOM     79  C   UNL     1      -6.815  13.729   4.397  1.00  0.00     0.198 A 
ATOM     80  C   UNL     1      -5.422  11.795   4.666  1.00  0.00     0.198 A 
ATOM     81  F   UNL     1      -4.272  10.908   2.815  1.00  0.00    -0.203 F 
ATOM     82  F   UNL     1      -7.609  14.672   4.924  1.00  0.00    -0.200 F 
ATOM     83  C   UNL     1      -6.268  12.750   5.211  1.00  0.00     0.200 A 
ATOM     84  F   UNL     1      -4.904  10.836   5.445  1.00  0.00    -0.200 F 
ATOM     85  F   UNL     1      -6.548  12.730   6.521  1.00  0.00    -0.200 F 
ENDBRANCH  51  75
BRANCH  63  86
ATOM     86  C   UNL     1      -2.244  17.430  -1.490  1.00  0.00     0.064 A 
ATOM     87  C   UNL     1      -1.075  17.546  -0.723  1.00  0.00     0.173 A 
ATOM     88  C   UNL     1      -2.805  18.606  -2.011  1.00  0.00     0.173 A 
ATOM     89  F   UNL     1      -0.506  16.454  -0.189  1.00  0.00    -0.203 F 
ATOM     90  C   UNL     1      -0.508  18.791  -0.465  1.00  0.00     0.198 A 
ATOM     91  C   UNL     1      -2.216  19.846  -1.782  1.00  0.00     0.198 A 
ATOM     92  F   UNL     1      -3.917  18.551  -2.759  1.00  0.00    -0.203 F 
ATOM     93  F   UNL     1       0.577  18.882   0.316  1.00  0.00    -0.200 F 
ATOM     94  C   UNL     1      -1.074  19.939  -1.001  1.00  0.00     0.200 A 
ATOM     95  F   UNL     1      -2.753  20.951  -2.316  1.00  0.00    -0.200 F 
ATOM     96  F   UNL     1      -0.521  21.135  -0.760  1.00  0.00    -0.200 F 
ENDBRANCH  63  86
ENDBRANCH  37  38
ENDBRANCH  29  32
ENDBRANCH  27  28
ENDBRANCH  26  27
ENDBRANCH  25  26
ENDBRANCH   1  25
TORSDOF 18
