REMARK SMILES Cc1occc1C(=O)N[C@@H]1CCCCC[C@@H]1C(=O)NCCCCCCNC(=O)c1ccc(-c2c3nc(c(-c4c(F)c(F)c(F)c(F)c4F)c4ccc([nH]4)c(-c4c(F)c(F)c(F)c(F)c4F)c4nc(c(-c5c(F)c(F)c(F)c(F)c5F)c5ccc2[nH]5)C=C4)C=C3)cc1
REMARK SMILES IDX 22 1 21 2 20 3 19 4 17 5 18 6 16 8 10 9 9 10 7 11 8 12 6 14
REMARK SMILES IDX 1 15 2 16 3 17 4 18 5 19 11 20 12 21 15 23 14 24 13 25 23 27
REMARK SMILES IDX 24 28 25 29 26 30 27 31 28 33 29 34 30 35 91 36 31 37 90 38
REMARK SMILES IDX 32 39 33 40 34 41 84 42 35 43 89 44 83 45 85 46 36 47 88 48
REMARK SMILES IDX 82 49 81 50 37 52 69 53 49 54 68 55 50 56 53 57 67 58 86 59
REMARK SMILES IDX 51 60 52 61 66 63 87 64 54 65 38 66 39 67 47 68 40 69 41 70
REMARK SMILES IDX 45 71 48 72 42 73 43 74 46 75 44 76 70 77 71 78 79 79 72 80
REMARK SMILES IDX 73 81 77 82 80 83 74 84 75 85 78 86 76 87 55 88 56 89 64 90
REMARK SMILES IDX 57 91 58 92 62 93 65 94 59 95 60 96 63 97 61 98
REMARK H PARENT 19 7 9 13 26 32 85 51 53 62
REMARK Flexibility Score: 100.00
ROOT
ATOM      1  C   UNL     1      -3.297  -1.596  -1.370  1.00  0.00     0.002 C 
ENDROOT
BRANCH   1   2
ATOM      2  C   UNL     1      -1.912  -1.565  -0.719  1.00  0.00     0.021 C 
BRANCH   2   3
ATOM      3  C   UNL     1      -0.786  -2.425  -1.348  1.00  0.00     0.116 C 
BRANCH   3   4
ATOM      4  N   UNL     1       0.168  -1.716  -2.246  1.00  0.00    -0.356 N 
ATOM      5  C   UNL     1       1.452  -1.282  -2.378  1.00  0.00     0.225 C 
ATOM      6  O   UNL     1       1.690  -0.972  -3.565  1.00  0.00    -0.275 OA
ATOM      7  H   UNL     1      -0.320  -1.462  -3.062  1.00  0.00     0.163 HD
BRANCH   5   8
ATOM      8  C   UNL     1       2.644  -1.006  -1.364  1.00  0.00     0.101 C 
BRANCH   8   9
ATOM      9  C   UNL     1       2.817  -1.930  -0.151  1.00  0.00     0.094 C 
BRANCH   9  10
ATOM     10  N   UNL     1       1.613  -2.325   0.549  1.00  0.00    -0.348 N 
ATOM     11  C   UNL     1       0.741  -1.617   1.327  1.00  0.00     0.255 C 
ATOM     12  O   UNL     1       0.036  -2.262   2.100  1.00  0.00    -0.269 OA
ATOM     13  H   UNL     1       1.380  -3.276   0.446  1.00  0.00     0.164 HD
BRANCH  11  14
ATOM     14  C   UNL     1       0.614  -0.178   1.221  1.00  0.00     0.080 A 
ATOM     15  C   UNL     1       1.332   0.486   3.635  1.00  0.00     0.088 C 
ATOM     16  C   UNL     1       0.795   0.687   2.281  1.00  0.00     0.113 A 
ATOM     17  O   UNL     1       0.416   1.954   1.959  1.00  0.00    -0.469 OA
ATOM     18  C   UNL     1       0.001   1.925   0.673  1.00  0.00     0.196 A 
ATOM     19  C   UNL     1       0.163   0.662   0.167  1.00  0.00     0.056 A 
ENDBRANCH  11  14
ENDBRANCH   9  10
BRANCH   9  20
ATOM     20  C   UNL     1       3.895  -1.738   0.941  1.00  0.00     0.026 C 
BRANCH  20  21
ATOM     21  C   UNL     1       5.052  -0.786   0.749  1.00  0.00     0.002 CG0
ATOM     22  G   UNL     1       4.590   0.655   0.735  1.00  0.00     0.000 G0
ENDBRANCH  20  21
ENDBRANCH   9  20
ENDBRANCH   8   9
BRANCH   8  23
ATOM     23  C   UNL     1       2.938   0.522  -1.280  1.00  0.00     0.015 C 
BRANCH  23  24
ATOM     24  C   UNL     1       4.214   1.101  -0.662  1.00  0.00     0.001 C 
BRANCH  24  25
ATOM     25  C   UNL     1       4.590   0.655   0.735  1.00  0.00     0.000 CG0
ATOM     26  G   UNL     1       5.052  -0.786   0.749  1.00  0.00     0.000 G0
ENDBRANCH  24  25
ENDBRANCH  23  24
ENDBRANCH   8  23
ENDBRANCH   5   8
ENDBRANCH   3   4
ENDBRANCH   2   3
ENDBRANCH   1   2
BRANCH   1  27
ATOM     27  C   UNL     1      -4.179  -2.785  -0.994  1.00  0.00     0.002 C 
BRANCH  27  28
ATOM     28  C   UNL     1      -4.493  -2.945   0.500  1.00  0.00     0.021 C 
BRANCH  28  29
ATOM     29  C   UNL     1      -5.095  -1.715   1.181  1.00  0.00     0.116 C 
BRANCH  29  30
ATOM     30  N   UNL     1      -6.366  -1.343   0.574  1.00  0.00    -0.352 N 
ATOM     31  C   UNL     1      -7.618  -1.407   1.127  1.00  0.00     0.251 C 
ATOM     32  H   UNL     1      -6.319  -1.004  -0.349  1.00  0.00     0.163 HD
ATOM     33  O   UNL     1      -8.626  -1.393   0.425  1.00  0.00    -0.269 OA
BRANCH  31  34
ATOM     34  C   UNL     1      -7.742  -1.467   2.594  1.00  0.00     0.039 A 
ATOM     35  C   UNL     1      -8.563  -2.428   3.186  1.00  0.00     0.014 A 
ATOM     36  C   UNL     1      -7.037  -0.547   3.377  1.00  0.00     0.014 A 
ATOM     37  C   UNL     1      -8.655  -2.484   4.577  1.00  0.00     0.010 A 
ATOM     38  C   UNL     1      -7.079  -0.647   4.761  1.00  0.00     0.010 A 
ATOM     39  C   UNL     1      -7.904  -1.602   5.373  1.00  0.00    -0.014 A 
BRANCH  39  40
ATOM     40  C   UNL     1      -7.999  -1.639   6.851  1.00  0.00     0.031 A 
ATOM     41  C   UNL     1      -8.589  -0.469   7.588  1.00  0.00     0.074 A 
ATOM     42  C   UNL     1      -7.512  -2.698   7.524  1.00  0.00     0.049 A 
ATOM     43  N   UNL     1      -8.732  -0.287   8.877  1.00  0.00    -0.248 NA
ATOM     44  C   UNL     1      -9.055   0.662   6.769  1.00  0.00     0.031 C 
ATOM     45  C   UNL     1      -6.870  -3.862   6.912  1.00  0.00     0.029 A 
ATOM     46  N   UNL     1      -7.473  -2.964   8.868  1.00  0.00    -0.354 N 
ATOM     47  C   UNL     1      -9.291   0.977   9.018  1.00  0.00     0.074 A 
ATOM     48  C   UNL     1      -9.402   1.544   7.693  1.00  0.00     0.031 C 
ATOM     49  C   UNL     1      -6.526  -4.731   7.876  1.00  0.00     0.029 A 
ATOM     50  C   UNL     1      -6.890  -4.170   9.173  1.00  0.00     0.049 A 
ATOM     51  H   UNL     1      -7.830  -2.350   9.550  1.00  0.00     0.167 HD
ATOM     52  C   UNL     1      -9.702   1.594  10.151  1.00  0.00     0.037 A 
ATOM     53  C   UNL     1      -6.674  -4.751  10.368  1.00  0.00     0.037 A 
ATOM     54  C   UNL     1      -9.602   1.010  11.462  1.00  0.00     0.049 A 
ATOM     55  C   UNL     1      -7.135  -4.040  11.613  1.00  0.00     0.074 A 
ATOM     56  C   UNL     1     -10.037   1.521  12.671  1.00  0.00     0.029 A 
ATOM     57  N   UNL     1      -9.020  -0.221  11.732  1.00  0.00    -0.354 N 
ATOM     58  N   UNL     1      -7.735  -2.880  11.731  1.00  0.00    -0.248 NA
ATOM     59  C   UNL     1      -6.898  -4.725  12.891  1.00  0.00     0.031 C 
ATOM     60  C   UNL     1      -9.668   0.625  13.680  1.00  0.00     0.029 A 
ATOM     61  C   UNL     1      -9.060  -0.474  13.094  1.00  0.00     0.049 A 
ATOM     62  H   UNL     1      -8.634  -0.825  11.057  1.00  0.00     0.167 HD
ATOM     63  C   UNL     1      -7.974  -2.709  13.088  1.00  0.00     0.074 A 
ATOM     64  C   UNL     1      -7.470  -3.894  13.751  1.00  0.00     0.031 C 
ATOM     65  C   UNL     1      -8.557  -1.666  13.729  1.00  0.00     0.037 A 
BRANCH  52  66
ATOM     66  C   UNL     1     -10.295   2.969  10.019  1.00  0.00     0.064 A 
ATOM     67  C   UNL     1     -11.531   3.182   9.389  1.00  0.00     0.173 A 
ATOM     68  C   UNL     1      -9.633   4.085  10.552  1.00  0.00     0.173 A 
ATOM     69  F   UNL     1     -12.202   2.152   8.851  1.00  0.00    -0.203 F 
ATOM     70  C   UNL     1     -12.065   4.463   9.268  1.00  0.00     0.198 A 
ATOM     71  C   UNL     1     -10.186   5.360  10.460  1.00  0.00     0.198 A 
ATOM     72  F   UNL     1      -8.451   3.940  11.169  1.00  0.00    -0.203 F 
ATOM     73  F   UNL     1     -13.220   4.647   8.613  1.00  0.00    -0.200 F 
ATOM     74  C   UNL     1     -11.396   5.549   9.810  1.00  0.00     0.200 A 
ATOM     75  F   UNL     1      -9.546   6.407  10.998  1.00  0.00    -0.200 F 
ATOM     76  F   UNL     1     -11.915   6.780   9.701  1.00  0.00    -0.200 F 
ENDBRANCH  52  66
BRANCH  53  77
ATOM     77  C   UNL     1      -6.019  -6.083  10.441  1.00  0.00     0.064 A 
ATOM     78  C   UNL     1      -6.732  -7.216  10.861  1.00  0.00     0.173 A 
ATOM     79  C   UNL     1      -4.670  -6.255  10.097  1.00  0.00     0.173 A 
ATOM     80  F   UNL     1      -8.020  -7.102  11.218  1.00  0.00    -0.203 F 
ATOM     81  C   UNL     1      -6.115  -8.462  10.958  1.00  0.00     0.198 A 
ATOM     82  C   UNL     1      -4.062  -7.507  10.164  1.00  0.00     0.198 A 
ATOM     83  F   UNL     1      -3.944  -5.206   9.682  1.00  0.00    -0.203 F 
ATOM     84  F   UNL     1      -6.806  -9.516  11.411  1.00  0.00    -0.200 F 
ATOM     85  C   UNL     1      -4.782  -8.607  10.604  1.00  0.00     0.200 A 
ATOM     86  F   UNL     1      -2.779  -7.647   9.804  1.00  0.00    -0.200 F 
ATOM     87  F   UNL     1      -4.190  -9.806  10.693  1.00  0.00    -0.200 F 
ENDBRANCH  53  77
BRANCH  65  88
ATOM     88  C   UNL     1      -8.715  -1.777  15.219  1.00  0.00     0.064 A 
ATOM     89  C   UNL     1      -7.614  -1.711  16.085  1.00  0.00     0.173 A 
ATOM     90  C   UNL     1      -9.992  -1.911  15.787  1.00  0.00     0.173 A 
ATOM     91  F   UNL     1      -6.372  -1.598  15.592  1.00  0.00    -0.203 F 
ATOM     92  C   UNL     1      -7.783  -1.806  17.464  1.00  0.00     0.198 A 
ATOM     93  C   UNL     1     -10.160  -1.968  17.166  1.00  0.00     0.198 A 
ATOM     94  F   UNL     1     -11.079  -1.970  15.002  1.00  0.00    -0.203 F 
ATOM     95  F   UNL     1      -6.713  -1.795  18.270  1.00  0.00    -0.200 F 
ATOM     96  C   UNL     1      -9.055  -1.925  18.003  1.00  0.00     0.200 A 
ATOM     97  F   UNL     1     -11.391  -2.066  17.686  1.00  0.00    -0.200 F 
ATOM     98  F   UNL     1      -9.216  -2.006  19.331  1.00  0.00    -0.200 F 
ENDBRANCH  65  88
ENDBRANCH  39  40
ENDBRANCH  31  34
ENDBRANCH  29  30
ENDBRANCH  28  29
ENDBRANCH  27  28
ENDBRANCH   1  27
TORSDOF 15
