REMARK SMILES O=C(NCCCCCCNC(=O)c1ccc(-c2c3nc(c(-c4c(F)c(F)c(F)c(F)c4F)c4ccc([nH]4)c(-c4c(F)c(F)c(F)c(F)c4F)c4nc(c(-c5c(F)c(F)c(F)c(F)c5F)c5ccc2[nH]5)C=C4)C=C3)cc1)c1ccc(/[NH+]=C2\S[C@@H](Cc3ccc(F)cc3)C(=O)N2Cc2ccccc2)cc1
REMARK SMILES IDX 6 1 5 2 4 3 3 4 1 5 2 6 76 8 77 9 103 10 78 11 102 12 79 13
REMARK SMILES IDX 80 14 81 15 82 17 94 18 83 19 92 20 93 21 95 22 96 23 97 24
REMARK SMILES IDX 101 25 98 26 100 27 99 28 84 29 85 30 86 31 91 32 87 33
REMARK SMILES IDX 90 34 88 35 89 36 7 37 8 38 9 39 10 40 11 41 12 43 13 44
REMARK SMILES IDX 14 45 75 46 15 47 74 48 16 49 17 50 18 51 68 52 19 53 73 54
REMARK SMILES IDX 67 55 69 56 20 57 72 58 66 59 65 60 21 62 53 63 33 64 52 65
REMARK SMILES IDX 34 66 37 67 51 68 70 69 35 70 36 71 50 73 71 74 38 75 22 76
REMARK SMILES IDX 23 77 31 78 24 79 25 80 29 81 32 82 26 83 27 84 30 85 28 86
REMARK SMILES IDX 54 87 55 88 63 89 56 90 57 91 61 92 64 93 58 94 59 95 62 96
REMARK SMILES IDX 60 97 39 98 40 99 48 100 41 101 42 102 46 103 49 104 43 105
REMARK SMILES IDX 44 106 47 107 45 108
REMARK H PARENT 3 7 80 16 10 42 69 61 37 72
REMARK Flexibility Score: inf
ROOT
ATOM      1  C   UNL     1       4.305  -2.828   2.454  1.00  0.00     0.002 C 
ENDROOT
BRANCH   1   2
ATOM      2  C   UNL     1       4.790  -1.429   2.066  1.00  0.00     0.021 C 
BRANCH   2   3
ATOM      3  C   UNL     1       4.519  -1.036   0.617  1.00  0.00     0.116 C 
BRANCH   3   4
ATOM      4  N   UNL     1       3.098  -1.031   0.309  1.00  0.00    -0.352 N 
ATOM      5  O   UNL     1       1.071  -0.123  -0.092  1.00  0.00    -0.269 OA
ATOM      6  C   UNL     1       2.293   0.013  -0.063  1.00  0.00     0.251 C 
ATOM      7  H   UNL     1       2.650  -1.905   0.378  1.00  0.00     0.163 HD
BRANCH   6   8
ATOM      8  C   UNL     1       2.894   1.312  -0.421  1.00  0.00     0.040 A 
ATOM      9  C   UNL     1       3.950   1.376  -1.333  1.00  0.00     0.018 A 
ATOM     10  C   UNL     1       2.371   2.482   0.137  1.00  0.00     0.018 A 
ATOM     11  C   UNL     1       4.546   2.603  -1.604  1.00  0.00     0.052 A 
ATOM     12  C   UNL     1       2.952   3.715  -0.169  1.00  0.00     0.052 A 
ATOM     13  C   UNL     1       4.065   3.776  -1.011  1.00  0.00     0.125 A 
BRANCH  13  14
ATOM     14  N   UNL     1       4.663   4.981  -1.378  1.00  0.00    -0.235 N 
ATOM     15  C   UNL     1       5.417   5.653  -0.577  1.00  0.00     0.320 C 
ATOM     16  H   UNL     1       4.503   5.333  -2.284  1.00  0.00     0.313 HD
ATOM     17  S   UNL     1       5.734   5.332   1.105  1.00  0.00    -0.022 SA
ATOM     18  N   UNL     1       6.115   6.749  -1.004  1.00  0.00    -0.186 N 
ATOM     19  C   UNL     1       6.492   6.969   1.358  1.00  0.00     0.178 C 
ATOM     20  C   UNL     1       6.801   7.468  -0.048  1.00  0.00     0.324 C 
ATOM     21  O   UNL     1       7.505   8.442  -0.290  1.00  0.00    -0.245 OA
BRANCH  18  22
ATOM     22  C   UNL     1       6.150   7.146  -2.408  1.00  0.00     0.283 C 
BRANCH  22  23
ATOM     23  C   UNL     1       7.109   6.321  -3.246  1.00  0.00    -0.006 A 
ATOM     24  C   UNL     1       8.395   6.788  -3.546  1.00  0.00     0.008 A 
ATOM     25  C   UNL     1       6.721   5.072  -3.758  1.00  0.00     0.008 A 
ATOM     26  C   UNL     1       9.263   6.024  -4.333  1.00  0.00     0.000 A 
ATOM     27  C   UNL     1       7.597   4.294  -4.515  1.00  0.00     0.000 A 
ATOM     28  C   UNL     1       8.868   4.774  -4.808  1.00  0.00     0.000 A 
ENDBRANCH  22  23
ENDBRANCH  18  22
BRANCH  19  29
ATOM     29  C   UNL     1       7.708   6.863   2.277  1.00  0.00     0.063 C 
BRANCH  29  30
ATOM     30  C   UNL     1       8.296   8.198   2.683  1.00  0.00    -0.046 A 
ATOM     31  C   UNL     1       9.621   8.509   2.340  1.00  0.00     0.007 A 
ATOM     32  C   UNL     1       7.538   9.138   3.400  1.00  0.00     0.007 A 
ATOM     33  C   UNL     1      10.168   9.747   2.680  1.00  0.00     0.039 A 
ATOM     34  C   UNL     1       8.087  10.378   3.734  1.00  0.00     0.039 A 
ATOM     35  C   UNL     1       9.395  10.672   3.367  1.00  0.00     0.123 A 
ATOM     36  F   UNL     1       9.917  11.864   3.683  1.00  0.00    -0.207 F 
ENDBRANCH  29  30
ENDBRANCH  19  29
ENDBRANCH  13  14
ENDBRANCH   6   8
ENDBRANCH   3   4
ENDBRANCH   2   3
ENDBRANCH   1   2
BRANCH   1  37
ATOM     37  C   UNL     1       4.812  -3.968   1.566  1.00  0.00     0.002 C 
BRANCH  37  38
ATOM     38  C   UNL     1       6.332  -4.057   1.422  1.00  0.00     0.021 C 
BRANCH  38  39
ATOM     39  C   UNL     1       7.095  -4.177   2.736  1.00  0.00     0.116 C 
BRANCH  39  40
ATOM     40  N   UNL     1       6.756  -5.388   3.467  1.00  0.00    -0.352 N 
ATOM     41  C   UNL     1       7.581  -6.359   3.974  1.00  0.00     0.251 C 
ATOM     42  H   UNL     1       5.795  -5.531   3.619  1.00  0.00     0.163 HD
ATOM     43  O   UNL     1       7.108  -7.405   4.413  1.00  0.00    -0.269 OA
BRANCH  41  44
ATOM     44  C   UNL     1       9.046  -6.162   3.970  1.00  0.00     0.039 A 
ATOM     45  C   UNL     1       9.868  -7.219   3.571  1.00  0.00     0.014 A 
ATOM     46  C   UNL     1       9.609  -4.944   4.362  1.00  0.00     0.014 A 
ATOM     47  C   UNL     1      11.250  -7.034   3.506  1.00  0.00     0.010 A 
ATOM     48  C   UNL     1      10.979  -4.737   4.222  1.00  0.00     0.010 A 
ATOM     49  C   UNL     1      11.814  -5.781   3.796  1.00  0.00    -0.014 A 
BRANCH  49  50
ATOM     50  C   UNL     1      13.274  -5.544   3.655  1.00  0.00     0.031 A 
ATOM     51  C   UNL     1      14.104  -5.192   4.857  1.00  0.00     0.074 A 
ATOM     52  C   UNL     1      13.839  -5.585   2.433  1.00  0.00     0.049 A 
ATOM     53  N   UNL     1      15.377  -4.890   4.926  1.00  0.00    -0.248 NA
ATOM     54  C   UNL     1      13.407  -5.147   6.151  1.00  0.00     0.031 C 
ATOM     55  C   UNL     1      13.132  -5.868   1.184  1.00  0.00     0.029 A 
ATOM     56  N   UNL     1      15.138  -5.376   2.039  1.00  0.00    -0.354 N 
ATOM     57  C   UNL     1      15.627  -4.610   6.262  1.00  0.00     0.074 A 
ATOM     58  C   UNL     1      14.364  -4.718   6.960  1.00  0.00     0.031 C 
ATOM     59  C   UNL     1      14.007  -5.839   0.167  1.00  0.00     0.029 A 
ATOM     60  C   UNL     1      15.327  -5.493   0.684  1.00  0.00     0.049 A 
ATOM     61  H   UNL     1      15.864  -5.163   2.669  1.00  0.00     0.167 HD
ATOM     62  C   UNL     1      16.807  -4.314   6.858  1.00  0.00     0.037 A 
ATOM     63  C   UNL     1      16.438  -5.331  -0.059  1.00  0.00     0.037 A 
ATOM     64  C   UNL     1      18.064  -4.221   6.162  1.00  0.00     0.049 A 
ATOM     65  C   UNL     1      17.734  -4.984   0.623  1.00  0.00     0.074 A 
ATOM     66  C   UNL     1      19.324  -3.982   6.682  1.00  0.00     0.029 A 
ATOM     67  N   UNL     1      18.219  -4.356   4.789  1.00  0.00    -0.354 N 
ATOM     68  N   UNL     1      17.973  -4.790   1.897  1.00  0.00    -0.248 NA
ATOM     69  C   UNL     1      18.916  -4.839  -0.237  1.00  0.00     0.031 C 
ATOM     70  C   UNL     1      20.231  -3.914   5.619  1.00  0.00     0.029 A 
ATOM     71  C   UNL     1      19.549  -4.175   4.442  1.00  0.00     0.049 A 
ATOM     72  H   UNL     1      17.491  -4.551   4.155  1.00  0.00     0.167 HD
ATOM     73  C   UNL     1      19.333  -4.531   1.996  1.00  0.00     0.074 A 
ATOM     74  C   UNL     1      19.870  -4.606   0.653  1.00  0.00     0.031 C 
ATOM     75  C   UNL     1      20.071  -4.255   3.100  1.00  0.00     0.037 A 
BRANCH  62  76
ATOM     76  C   UNL     1      16.791  -4.063   8.340  1.00  0.00     0.064 A 
ATOM     77  C   UNL     1      16.520  -5.089   9.260  1.00  0.00     0.173 A 
ATOM     78  C   UNL     1      17.075  -2.787   8.851  1.00  0.00     0.173 A 
ATOM     79  F   UNL     1      16.233  -6.326   8.827  1.00  0.00    -0.203 F 
ATOM     80  C   UNL     1      16.495  -4.838  10.629  1.00  0.00     0.198 A 
ATOM     81  C   UNL     1      17.084  -2.548  10.222  1.00  0.00     0.198 A 
ATOM     82  F   UNL     1      17.348  -1.771   8.019  1.00  0.00    -0.203 F 
ATOM     83  F   UNL     1      16.173  -5.820  11.483  1.00  0.00    -0.200 F 
ATOM     84  C   UNL     1      16.783  -3.570  11.110  1.00  0.00     0.200 A 
ATOM     85  F   UNL     1      17.378  -1.325  10.686  1.00  0.00    -0.200 F 
ATOM     86  F   UNL     1      16.763  -3.330  12.428  1.00  0.00    -0.200 F 
ENDBRANCH  62  76
BRANCH  63  87
ATOM     87  C   UNL     1      16.375  -5.516  -1.533  1.00  0.00     0.064 A 
ATOM     88  C   UNL     1      17.006  -6.604  -2.151  1.00  0.00     0.173 A 
ATOM     89  C   UNL     1      15.680  -4.614  -2.353  1.00  0.00     0.173 A 
ATOM     90  F   UNL     1      17.700  -7.483  -1.412  1.00  0.00    -0.203 F 
ATOM     91  C   UNL     1      16.960  -6.774  -3.533  1.00  0.00     0.198 A 
ATOM     92  C   UNL     1      15.609  -4.802  -3.732  1.00  0.00     0.198 A 
ATOM     93  F   UNL     1      15.054  -3.559  -1.812  1.00  0.00    -0.203 F 
ATOM     94  F   UNL     1      17.610  -7.799  -4.101  1.00  0.00    -0.200 F 
ATOM     95  C   UNL     1      16.256  -5.877  -4.322  1.00  0.00     0.200 A 
ATOM     96  F   UNL     1      14.913  -3.942  -4.487  1.00  0.00    -0.200 F 
ATOM     97  F   UNL     1      16.205  -6.045  -5.650  1.00  0.00    -0.200 F 
ENDBRANCH  63  87
BRANCH  75  98
ATOM     98  C   UNL     1      21.547  -4.049   2.910  1.00  0.00     0.064 A 
ATOM     99  C   UNL     1      22.058  -2.909   2.273  1.00  0.00     0.173 A 
ATOM    100  C   UNL     1      22.463  -4.988   3.409  1.00  0.00     0.173 A 
ATOM    101  F   UNL     1      21.225  -1.988   1.765  1.00  0.00    -0.203 F 
ATOM    102  C   UNL     1      23.431  -2.731   2.117  1.00  0.00     0.198 A 
ATOM    103  C   UNL     1      23.835  -4.790   3.282  1.00  0.00     0.198 A 
ATOM    104  F   UNL     1      22.028  -6.093   4.034  1.00  0.00    -0.203 F 
ATOM    105  F   UNL     1      23.894  -1.660   1.458  1.00  0.00    -0.200 F 
ATOM    106  C   UNL     1      24.318  -3.666   2.629  1.00  0.00     0.200 A 
ATOM    107  F   UNL     1      24.691  -5.687   3.792  1.00  0.00    -0.200 F 
ATOM    108  F   UNL     1      25.638  -3.488   2.486  1.00  0.00    -0.200 F 
ENDBRANCH  75  98
ENDBRANCH  49  50
ENDBRANCH  41  44
ENDBRANCH  39  40
ENDBRANCH  38  39
ENDBRANCH  37  38
ENDBRANCH   1  37
TORSDOF 18
