REMARK SMILES CC(C)(C)[C@H](CCC(=O)NCCCCCCNC(=O)c1ccc(-c2c3nc(c(-c4c(F)c(F)c(F)c(F)c4F)c4ccc([nH]4)c(-c4c(F)c(F)c(F)c(F)c4F)c4nc(c(-c5c(F)c(F)c(F)c(F)c5F)c5ccc2[nH]5)C=C4)C=C3)cc1)CC[NH+]1CCOCC1
REMARK SMILES IDX 12 1 11 2 10 3 8 4 9 5 7 7 6 8 5 9 2 10 1 11 3 12 4 13 83 14
REMARK SMILES IDX 84 15 85 16 86 17 90 18 87 20 89 21 88 22 13 23 14 24 15 25
REMARK SMILES IDX 16 26 17 27 18 28 19 30 20 31 21 32 82 33 22 34 81 35 23 36
REMARK SMILES IDX 24 37 25 38 75 39 26 40 80 41 74 42 76 43 27 44 79 45 73 46
REMARK SMILES IDX 72 47 28 49 60 50 40 51 59 52 41 53 44 54 58 55 77 56 42 57
REMARK SMILES IDX 43 58 57 60 78 61 45 62 29 63 30 64 38 65 31 66 32 67 36 68
REMARK SMILES IDX 39 69 33 70 34 71 37 72 35 73 61 74 62 75 70 76 63 77 64 78
REMARK SMILES IDX 68 79 71 80 65 81 66 82 69 83 67 84 46 85 47 86 55 87 48 88
REMARK SMILES IDX 49 89 53 90 56 91 50 92 51 93 54 94 52 95
REMARK H PARENT 10 6 85 19 17 29 76 48 44 59
REMARK Flexibility Score: inf
ROOT
ATOM      1  C   UNL     1      -0.237   5.477   0.252  1.00  0.00     0.021 C 
ENDROOT
BRANCH   1   2
ATOM      2  C   UNL     1      -1.576   4.731   0.265  1.00  0.00     0.116 C 
BRANCH   2   3
ATOM      3  N   UNL     1      -1.860   4.185  -1.062  1.00  0.00    -0.356 N 
ATOM      4  C   UNL     1      -1.639   2.957  -1.617  1.00  0.00     0.220 C 
ATOM      5  O   UNL     1      -1.785   2.852  -2.838  1.00  0.00    -0.275 OA
ATOM      6  H   UNL     1      -2.293   4.826  -1.671  1.00  0.00     0.163 HD
BRANCH   4   7
ATOM      7  C   UNL     1      -1.317   1.730  -0.777  1.00  0.00     0.100 C 
BRANCH   7   8
ATOM      8  C   UNL     1       0.160   1.287  -0.693  1.00  0.00     0.014 C 
BRANCH   8   9
ATOM      9  C   UNL     1       1.075   2.021   0.316  1.00  0.00     0.000 C 
BRANCH   9  10
ATOM     10  C   UNL     1       0.835   1.689   1.883  1.00  0.00    -0.035 C 
ATOM     11  C   UNL     1       1.777   0.589   2.418  1.00  0.00     0.011 C 
ATOM     12  C   UNL     1      -0.591   1.233   2.260  1.00  0.00     0.011 C 
ATOM     13  C   UNL     1       1.106   2.965   2.720  1.00  0.00     0.011 C 
ENDBRANCH   9  10
BRANCH   9  14
ATOM     14  C   UNL     1       2.602   1.865  -0.076  1.00  0.00     0.065 C 
BRANCH  14  15
ATOM     15  C   UNL     1       3.218   2.054  -1.514  1.00  0.00     0.262 C 
BRANCH  15  16
ATOM     16  N   UNL     1       3.008   3.201  -2.408  1.00  0.00    -0.331 N 
ATOM     17  C   UNL     1       4.226   3.804  -2.997  1.00  0.00     0.291 C 
ATOM     18  C   UNL     1       2.221   4.286  -1.866  1.00  0.00     0.291 C 
ATOM     19  H   UNL     1       2.481   2.728  -3.142  1.00  0.00     0.348 HD
ATOM     20  C   UNL     1       4.971   4.819  -2.092  1.00  0.00     0.221 C 
ATOM     21  C   UNL     1       3.013   5.072  -0.825  1.00  0.00     0.221 C 
ATOM     22  O   UNL     1       4.096   5.761  -1.452  1.00  0.00    -0.370 OA
ENDBRANCH  15  16
ENDBRANCH  14  15
ENDBRANCH   9  14
ENDBRANCH   8   9
ENDBRANCH   7   8
ENDBRANCH   4   7
ENDBRANCH   2   3
ENDBRANCH   1   2
BRANCH   1  23
ATOM     23  C   UNL     1      -0.208   7.001   0.151  1.00  0.00     0.002 C 
BRANCH  23  24
ATOM     24  C   UNL     1       0.019   7.748   1.469  1.00  0.00     0.002 C 
BRANCH  24  25
ATOM     25  C   UNL     1       1.287   7.434   2.283  1.00  0.00     0.021 C 
BRANCH  25  26
ATOM     26  C   UNL     1       2.653   7.807   1.703  1.00  0.00     0.116 C 
BRANCH  26  27
ATOM     27  N   UNL     1       2.793   9.197   1.327  1.00  0.00    -0.352 N 
ATOM     28  C   UNL     1       3.770  10.105   1.662  1.00  0.00     0.251 C 
ATOM     29  H   UNL     1       2.081   9.546   0.743  1.00  0.00     0.163 HD
ATOM     30  O   UNL     1       3.697  11.259   1.265  1.00  0.00    -0.269 OA
BRANCH  28  31
ATOM     31  C   UNL     1       4.892   9.712   2.546  1.00  0.00     0.039 A 
ATOM     32  C   UNL     1       5.158  10.515   3.658  1.00  0.00     0.014 A 
ATOM     33  C   UNL     1       5.694   8.598   2.282  1.00  0.00     0.014 A 
ATOM     34  C   UNL     1       6.189  10.174   4.536  1.00  0.00     0.010 A 
ATOM     35  C   UNL     1       6.690   8.226   3.192  1.00  0.00     0.010 A 
ATOM     36  C   UNL     1       6.946   9.008   4.330  1.00  0.00    -0.014 A 
BRANCH  36  37
ATOM     37  C   UNL     1       7.992   8.609   5.311  1.00  0.00     0.031 A 
ATOM     38  C   UNL     1       9.446   8.603   4.926  1.00  0.00     0.074 A 
ATOM     39  C   UNL     1       7.630   8.233   6.554  1.00  0.00     0.049 A 
ATOM     40  N   UNL     1      10.493   8.284   5.647  1.00  0.00    -0.248 NA
ATOM     41  C   UNL     1       9.766   8.989   3.544  1.00  0.00     0.031 C 
ATOM     42  C   UNL     1       6.253   8.163   7.045  1.00  0.00     0.029 A 
ATOM     43  N   UNL     1       8.386   7.836   7.631  1.00  0.00    -0.354 N 
ATOM     44  C   UNL     1      11.591   8.426   4.807  1.00  0.00     0.074 A 
ATOM     45  C   UNL     1      11.079   8.809   3.509  1.00  0.00     0.031 C 
ATOM     46  C   UNL     1       6.263   7.774   8.330  1.00  0.00     0.029 A 
ATOM     47  C   UNL     1       7.641   7.527   8.744  1.00  0.00     0.049 A 
ATOM     48  H   UNL     1       9.368   7.779   7.608  1.00  0.00     0.167 HD
ATOM     49  C   UNL     1      12.905   8.270   5.097  1.00  0.00     0.037 A 
ATOM     50  C   UNL     1       8.023   7.086   9.959  1.00  0.00     0.037 A 
ATOM     51  C   UNL     1      13.414   7.901   6.394  1.00  0.00     0.049 A 
ATOM     52  C   UNL     1       9.489   6.895  10.245  1.00  0.00     0.074 A 
ATOM     53  C   UNL     1      14.732   7.774   6.799  1.00  0.00     0.029 A 
ATOM     54  N   UNL     1      12.628   7.589   7.494  1.00  0.00    -0.354 N 
ATOM     55  N   UNL     1      10.521   7.105   9.465  1.00  0.00    -0.248 NA
ATOM     56  C   UNL     1       9.844   6.411  11.587  1.00  0.00     0.031 C 
ATOM     57  C   UNL     1      14.743   7.324   8.123  1.00  0.00     0.029 A 
ATOM     58  C   UNL     1      13.434   7.237   8.567  1.00  0.00     0.049 A 
ATOM     59  H   UNL     1      11.644   7.614   7.510  1.00  0.00     0.167 HD
ATOM     60  C   UNL     1      11.644   6.812  10.227  1.00  0.00     0.074 A 
ATOM     61  C   UNL     1      11.168   6.424  11.538  1.00  0.00     0.031 C 
ATOM     62  C   UNL     1      12.951   6.859   9.871  1.00  0.00     0.037 A 
BRANCH  49  63
ATOM     63  C   UNL     1      13.896   8.488   3.988  1.00  0.00     0.064 A 
ATOM     64  C   UNL     1      14.135   9.762   3.450  1.00  0.00     0.173 A 
ATOM     65  C   UNL     1      14.653   7.416   3.489  1.00  0.00     0.173 A 
ATOM     66  F   UNL     1      13.435  10.821   3.885  1.00  0.00    -0.203 F 
ATOM     67  C   UNL     1      15.070   9.949   2.435  1.00  0.00     0.198 A 
ATOM     68  C   UNL     1      15.611   7.613   2.498  1.00  0.00     0.198 A 
ATOM     69  F   UNL     1      14.474   6.178   3.974  1.00  0.00    -0.203 F 
ATOM     70  F   UNL     1      15.244  11.167   1.903  1.00  0.00    -0.200 F 
ATOM     71  C   UNL     1      15.813   8.877   1.966  1.00  0.00     0.200 A 
ATOM     72  F   UNL     1      16.340   6.578   2.058  1.00  0.00    -0.200 F 
ATOM     73  F   UNL     1      16.719   9.060   0.996  1.00  0.00    -0.200 F 
ENDBRANCH  49  63
BRANCH  50  74
ATOM     74  C   UNL     1       7.003   6.803  11.005  1.00  0.00     0.064 A 
ATOM     75  C   UNL     1       6.923   7.582  12.168  1.00  0.00     0.173 A 
ATOM     76  C   UNL     1       6.102   5.736  10.873  1.00  0.00     0.173 A 
ATOM     77  F   UNL     1       7.777   8.600  12.353  1.00  0.00    -0.203 F 
ATOM     78  C   UNL     1       6.001   7.288  13.171  1.00  0.00     0.198 A 
ATOM     79  C   UNL     1       5.157   5.464  11.861  1.00  0.00     0.198 A 
ATOM     80  F   UNL     1       6.132   4.961   9.779  1.00  0.00    -0.203 F 
ATOM     81  F   UNL     1       5.984   8.013  14.297  1.00  0.00    -0.200 F 
ATOM     82  C   UNL     1       5.114   6.233  13.014  1.00  0.00     0.200 A 
ATOM     83  F   UNL     1       4.292   4.454  11.697  1.00  0.00    -0.200 F 
ATOM     84  F   UNL     1       4.226   5.951  13.977  1.00  0.00    -0.200 F 
ENDBRANCH  50  74
BRANCH  62  85
ATOM     85  C   UNL     1      13.969   6.523  10.926  1.00  0.00     0.064 A 
ATOM     86  C   UNL     1      14.130   5.216  11.409  1.00  0.00     0.173 A 
ATOM     87  C   UNL     1      14.819   7.518  11.433  1.00  0.00     0.173 A 
ATOM     88  F   UNL     1      13.334   4.230  10.970  1.00  0.00    -0.203 F 
ATOM     89  C   UNL     1      15.085   4.924  12.381  1.00  0.00     0.198 A 
ATOM     90  C   UNL     1      15.796   7.216  12.378  1.00  0.00     0.198 A 
ATOM     91  F   UNL     1      14.713   8.784  11.001  1.00  0.00    -0.203 F 
ATOM     92  F   UNL     1      15.184   3.679  12.867  1.00  0.00    -0.200 F 
ATOM     93  C   UNL     1      15.922   5.922  12.858  1.00  0.00     0.200 A 
ATOM     94  F   UNL     1      16.615   8.179  12.824  1.00  0.00    -0.200 F 
ATOM     95  F   UNL     1      16.846   5.637  13.786  1.00  0.00    -0.200 F 
ENDBRANCH  62  85
ENDBRANCH  36  37
ENDBRANCH  28  31
ENDBRANCH  26  27
ENDBRANCH  25  26
ENDBRANCH  24  25
ENDBRANCH  23  24
ENDBRANCH   1  23
TORSDOF 19
