REMARK SMILES O=C(NCCCCCCNC(=O)c1c(F)cccc1NC(=O)C1CCCCC1)c1ccc(-c2c3nc(c(-c4c(F)c(F)c(F)c(F)c4F)c4ccc([nH]4)c(-c4c(F)c(F)c(F)c(F)c4F)c4nc(c(-c5c(F)c(F)c(F)c(F)c5F)c5ccc2[nH]5)C=C4)C=C3)cc1
REMARK SMILES IDX 6 1 5 2 4 3 3 4 1 5 2 6 29 8 30 9 91 10 31 11 90 12 32 13
REMARK SMILES IDX 33 14 34 15 84 16 35 17 89 18 83 19 85 20 36 21 88 22 82 23
REMARK SMILES IDX 81 24 37 26 69 27 49 28 68 29 50 30 53 31 67 32 86 33 51 34
REMARK SMILES IDX 52 35 66 37 87 38 54 39 38 40 39 41 47 42 40 43 41 44 45 45
REMARK SMILES IDX 48 46 42 47 43 48 46 49 44 50 70 51 71 52 79 53 72 54 73 55
REMARK SMILES IDX 77 56 80 57 74 58 75 59 78 60 76 61 55 62 56 63 64 64 57 65
REMARK SMILES IDX 58 66 62 67 65 68 59 69 60 70 63 71 61 72 7 73 8 74 9 75
REMARK SMILES IDX 10 76 11 77 12 79 13 80 14 81 19 82 15 83 16 84 18 85 17 86
REMARK SMILES IDX 20 87 21 88 22 90 23 91 24 92 28 93 25 94 27 95 26 96
REMARK H PARENT 3 7 85 25 53 36 10 78 20 89
REMARK Flexibility Score: inf
ROOT
ATOM      1  C   UNL     1       3.970  -2.617   2.966  1.00  0.00     0.002 C 
ENDROOT
BRANCH   1   2
ATOM      2  C   UNL     1       4.541  -1.315   2.393  1.00  0.00     0.021 C 
BRANCH   2   3
ATOM      3  C   UNL     1       4.374  -1.123   0.888  1.00  0.00     0.116 C 
BRANCH   3   4
ATOM      4  N   UNL     1       2.982  -1.115   0.479  1.00  0.00    -0.352 N 
ATOM      5  O   UNL     1       1.049  -0.285  -0.316  1.00  0.00    -0.269 OA
ATOM      6  C   UNL     1       2.266  -0.167  -0.204  1.00  0.00     0.251 C 
ATOM      7  H   UNL     1       2.471  -1.917   0.734  1.00  0.00     0.163 HD
BRANCH   6   8
ATOM      8  C   UNL     1       2.938   1.012  -0.796  1.00  0.00     0.039 A 
ATOM      9  C   UNL     1       4.116   0.888  -1.539  1.00  0.00     0.014 A 
ATOM     10  C   UNL     1       2.329   2.263  -0.656  1.00  0.00     0.014 A 
ATOM     11  C   UNL     1       4.733   2.026  -2.060  1.00  0.00     0.010 A 
ATOM     12  C   UNL     1       2.920   3.395  -1.220  1.00  0.00     0.010 A 
ATOM     13  C   UNL     1       4.137   3.288  -1.909  1.00  0.00    -0.014 A 
BRANCH  13  14
ATOM     14  C   UNL     1       4.764   4.492  -2.508  1.00  0.00     0.031 A 
ATOM     15  C   UNL     1       5.371   5.552  -1.636  1.00  0.00     0.074 A 
ATOM     16  C   UNL     1       4.766   4.637  -3.846  1.00  0.00     0.049 A 
ATOM     17  N   UNL     1       5.908   6.696  -1.979  1.00  0.00    -0.248 NA
ATOM     18  C   UNL     1       5.372   5.297  -0.187  1.00  0.00     0.031 C 
ATOM     19  C   UNL     1       4.207   3.676  -4.796  1.00  0.00     0.029 A 
ATOM     20  N   UNL     1       5.253   5.646  -4.637  1.00  0.00    -0.354 N 
ATOM     21  C   UNL     1       6.293   7.304  -0.793  1.00  0.00     0.074 A 
ATOM     22  C   UNL     1       5.915   6.412   0.283  1.00  0.00     0.031 C 
ATOM     23  C   UNL     1       4.398   4.132  -6.043  1.00  0.00     0.029 A 
ATOM     24  C   UNL     1       5.052   5.436  -5.978  1.00  0.00     0.049 A 
ATOM     25  H   UNL     1       5.703   6.445  -4.277  1.00  0.00     0.167 HD
ATOM     26  C   UNL     1       6.909   8.498  -0.622  1.00  0.00     0.037 A 
ATOM     27  C   UNL     1       5.344   6.214  -7.037  1.00  0.00     0.037 A 
ATOM     28  C   UNL     1       7.301   9.375  -1.693  1.00  0.00     0.049 A 
ATOM     29  C   UNL     1       5.998   7.546  -6.819  1.00  0.00     0.074 A 
ATOM     30  C   UNL     1       7.971  10.584  -1.616  1.00  0.00     0.029 A 
ATOM     31  N   UNL     1       7.055   9.139  -3.037  1.00  0.00    -0.354 N 
ATOM     32  N   UNL     1       6.374   8.104  -5.694  1.00  0.00    -0.248 NA
ATOM     33  C   UNL     1       6.261   8.363  -8.012  1.00  0.00     0.031 C 
ATOM     34  C   UNL     1       8.101  11.095  -2.911  1.00  0.00     0.029 A 
ATOM     35  C   UNL     1       7.542  10.189  -3.798  1.00  0.00     0.049 A 
ATOM     36  H   UNL     1       6.601   8.342  -3.397  1.00  0.00     0.167 HD
ATOM     37  C   UNL     1       6.925   9.328  -6.041  1.00  0.00     0.074 A 
ATOM     38  C   UNL     1       6.843   9.432  -7.484  1.00  0.00     0.031 C 
ATOM     39  C   UNL     1       7.451  10.279  -5.232  1.00  0.00     0.037 A 
BRANCH  26  40
ATOM     40  C   UNL     1       7.194   8.937   0.782  1.00  0.00     0.064 A 
ATOM     41  C   UNL     1       6.445   9.968   1.369  1.00  0.00     0.173 A 
ATOM     42  C   UNL     1       8.243   8.378   1.526  1.00  0.00     0.173 A 
ATOM     43  F   UNL     1       5.435  10.537   0.695  1.00  0.00    -0.203 F 
ATOM     44  C   UNL     1       6.741  10.428   2.649  1.00  0.00     0.198 A 
ATOM     45  C   UNL     1       8.523   8.827   2.814  1.00  0.00     0.198 A 
ATOM     46  F   UNL     1       8.979   7.382   1.011  1.00  0.00    -0.203 F 
ATOM     47  F   UNL     1       6.025  11.426   3.184  1.00  0.00    -0.200 F 
ATOM     48  C   UNL     1       7.777   9.855   3.372  1.00  0.00     0.200 A 
ATOM     49  F   UNL     1       9.512   8.260   3.518  1.00  0.00    -0.200 F 
ATOM     50  F   UNL     1       8.054  10.291   4.608  1.00  0.00    -0.200 F 
ENDBRANCH  26  40
BRANCH  27  51
ATOM     51  C   UNL     1       5.015   5.728  -8.398  1.00  0.00     0.064 A 
ATOM     52  C   UNL     1       3.689   5.678  -8.852  1.00  0.00     0.173 A 
ATOM     53  C   UNL     1       6.019   5.241  -9.245  1.00  0.00     0.173 A 
ATOM     54  F   UNL     1       2.696   6.130  -8.072  1.00  0.00    -0.203 F 
ATOM     55  C   UNL     1       3.377   5.133 -10.094  1.00  0.00     0.198 A 
ATOM     56  C   UNL     1       5.707   4.713 -10.495  1.00  0.00     0.198 A 
ATOM     57  F   UNL     1       7.302   5.286  -8.857  1.00  0.00    -0.203 F 
ATOM     58  F   UNL     1       2.099   5.061 -10.491  1.00  0.00    -0.200 F 
ATOM     59  C   UNL     1       4.386   4.650 -10.915  1.00  0.00     0.200 A 
ATOM     60  F   UNL     1       6.685   4.261 -11.292  1.00  0.00    -0.200 F 
ATOM     61  F   UNL     1       4.085   4.122 -12.109  1.00  0.00    -0.200 F 
ENDBRANCH  27  51
BRANCH  39  62
ATOM     62  C   UNL     1       7.995  11.515  -5.880  1.00  0.00     0.064 A 
ATOM     63  C   UNL     1       9.379  11.707  -5.993  1.00  0.00     0.173 A 
ATOM     64  C   UNL     1       7.146  12.543  -6.311  1.00  0.00     0.173 A 
ATOM     65  F   UNL     1      10.229  10.752  -5.588  1.00  0.00    -0.203 F 
ATOM     66  C   UNL     1       9.895  12.895  -6.502  1.00  0.00     0.198 A 
ATOM     67  C   UNL     1       7.665  13.723  -6.835  1.00  0.00     0.198 A 
ATOM     68  F   UNL     1       5.814  12.396  -6.232  1.00  0.00    -0.203 F 
ATOM     69  F   UNL     1      11.222  13.070  -6.577  1.00  0.00    -0.200 F 
ATOM     70  C   UNL     1       9.038  13.902  -6.922  1.00  0.00     0.200 A 
ATOM     71  F   UNL     1       6.837  14.689  -7.256  1.00  0.00    -0.200 F 
ATOM     72  F   UNL     1       9.537  15.045  -7.412  1.00  0.00    -0.200 F 
ENDBRANCH  39  62
ENDBRANCH  13  14
ENDBRANCH   6   8
ENDBRANCH   3   4
ENDBRANCH   2   3
ENDBRANCH   1   2
BRANCH   1  73
ATOM     73  C   UNL     1       4.467  -3.917   2.325  1.00  0.00     0.002 C 
BRANCH  73  74
ATOM     74  C   UNL     1       5.982  -4.065   2.205  1.00  0.00     0.021 C 
BRANCH  74  75
ATOM     75  C   UNL     1       6.759  -3.884   3.503  1.00  0.00     0.116 C 
BRANCH  75  76
ATOM     76  N   UNL     1       6.641  -5.013   4.413  1.00  0.00    -0.352 N 
ATOM     77  C   UNL     1       7.665  -5.678   5.059  1.00  0.00     0.256 C 
ATOM     78  H   UNL     1       5.730  -5.340   4.588  1.00  0.00     0.163 HD
ATOM     79  O   UNL     1       7.451  -6.663   5.749  1.00  0.00    -0.269 OA
BRANCH  77  80
ATOM     80  C   UNL     1       9.047  -5.244   4.784  1.00  0.00     0.099 A 
ATOM     81  C   UNL     1       9.424  -3.949   5.138  1.00  0.00     0.138 A 
ATOM     82  C   UNL     1       9.911  -6.057   4.032  1.00  0.00     0.057 A 
ATOM     83  F   UNL     1       8.644  -3.200   5.932  1.00  0.00    -0.206 F 
ATOM     84  C   UNL     1      10.571  -3.382   4.602  1.00  0.00     0.040 A 
ATOM     85  C   UNL     1      10.978  -5.437   3.384  1.00  0.00     0.027 A 
ATOM     86  C   UNL     1      11.313  -4.107   3.673  1.00  0.00     0.005 A 
BRANCH  82  87
ATOM     87  N   UNL     1       9.659  -7.436   3.950  1.00  0.00    -0.325 N 
ATOM     88  C   UNL     1      10.436  -8.539   3.781  1.00  0.00     0.227 C 
ATOM     89  H   UNL     1       8.703  -7.654   4.035  1.00  0.00     0.169 HD
ATOM     90  O   UNL     1       9.807  -9.596   3.628  1.00  0.00    -0.274 OA
BRANCH  88  91
ATOM     91  C   UNL     1      11.982  -8.560   3.759  1.00  0.00     0.079 C 
ATOM     92  C   UNL     1      12.713  -7.665   4.773  1.00  0.00     0.013 C 
ATOM     93  C   UNL     1      12.426 -10.026   4.035  1.00  0.00     0.013 C 
ATOM     94  C   UNL     1      14.230  -7.831   4.689  1.00  0.00     0.001 C 
ATOM     95  C   UNL     1      13.938 -10.232   4.076  1.00  0.00     0.001 C 
ATOM     96  C   UNL     1      14.631  -9.257   5.016  1.00  0.00     0.000 C 
ENDBRANCH  88  91
ENDBRANCH  82  87
ENDBRANCH  77  80
ENDBRANCH  75  76
ENDBRANCH  74  75
ENDBRANCH  73  74
ENDBRANCH   1  73
TORSDOF 15
