REMARK SMILES CCOc1ccc(C(=O)NC(=S)Nc2cccc(C(=O)NCCCCCCNC(=O)c3ccc(-c4c5nc(c(-c6c(F)c(F)c(F)c(F)c6F)c6ccc([nH]6)c(-c6c(F)c(F)c(F)c(F)c6F)c6nc(c(-c7c(F)c(F)c(F)c(F)c7F)c7ccc4[nH]7)C=C6)C=C5)cc3)c2C)cc1Br
REMARK SMILES IDX 22 1 21 2 19 3 20 4 18 6 14 7 15 8 94 9 16 10 95 11 17 12
REMARK SMILES IDX 13 13 11 15 12 16 10 17 8 18 9 19 7 21 4 22 5 23 97 24 6 25
REMARK SMILES IDX 96 26 98 27 3 28 2 29 1 30 23 31 24 32 25 33 26 34 27 35
REMARK SMILES IDX 28 36 29 37 30 39 31 40 32 41 93 42 33 43 92 44 34 45 35 46
REMARK SMILES IDX 36 47 86 48 37 49 91 50 85 51 87 52 38 53 90 54 84 55 83 56
REMARK SMILES IDX 39 58 71 59 51 60 70 61 52 62 55 63 69 64 88 65 53 66 54 67
REMARK SMILES IDX 68 69 89 70 56 71 40 72 41 73 49 74 42 75 43 76 47 77 50 78
REMARK SMILES IDX 44 79 45 80 48 81 46 82 72 83 73 84 81 85 74 86 75 87 79 88
REMARK SMILES IDX 82 89 76 90 77 91 80 92 78 93 57 94 58 95 66 96 59 97 60 98
REMARK SMILES IDX 64 99 67 100 61 101 62 102 65 103 63 104
REMARK H PARENT 21 5 13 14 10 20 28 38 87 57 55 68
REMARK Flexibility Score: inf
ROOT
ATOM      1  C   UNL     1       0.600   4.404   2.637  1.00  0.00     0.116 C 
ENDROOT
BRANCH   1   2
ATOM      2  N   UNL     1       0.825   3.021   2.960  1.00  0.00    -0.352 N 
ATOM      3  C   UNL     1       1.718   2.114   2.452  1.00  0.00     0.251 C 
ATOM      4  O   UNL     1       1.903   1.087   3.098  1.00  0.00    -0.269 OA
ATOM      5  H   UNL     1       0.237   2.665   3.665  1.00  0.00     0.163 HD
BRANCH   3   6
ATOM      6  C   UNL     1       2.404   2.309   1.130  1.00  0.00     0.044 A 
ATOM      7  C   UNL     1       4.763   0.896  -1.147  1.00  0.00     0.044 A 
ATOM      8  C   UNL     1       4.352   2.620  -2.111  1.00  0.00     0.026 A 
ATOM      9  C   UNL     1       3.693   0.878   0.591  1.00  0.00    -0.015 A 
ATOM     10  C   UNL     1       2.956   3.954  -1.656  1.00  0.00     0.003 A 
ATOM     11  C   UNL     1       3.780  -0.427   1.349  1.00  0.00     0.047 C 
ATOM     12  C   UNL     1       1.785   3.869  -0.007  1.00  0.00     0.014 A 
BRANCH   7  13
ATOM     13  N   UNL     1       6.025   0.273  -1.255  1.00  0.00    -0.332 N 
ATOM     14  H   UNL     1       6.015  -0.711  -1.288  1.00  0.00     0.169 HD
BRANCH  13  15
ATOM     15  C   UNL     1       7.255   0.855  -1.319  1.00  0.00     0.177 C 
ATOM     16  S   UNL     1       8.509  -0.063  -1.945  1.00  0.00    -0.040 S 
BRANCH  15  17
ATOM     17  N   UNL     1       7.581   2.117  -0.797  1.00  0.00    -0.299 N 
ATOM     18  C   UNL     1       7.115   3.247  -0.037  1.00  0.00     0.257 C 
ATOM     19  O   UNL     1       7.868   4.188   0.201  1.00  0.00    -0.269 OA
ATOM     20  H   UNL     1       8.511   2.307  -1.059  1.00  0.00     0.172 HD
BRANCH  18  21
ATOM     21  C   UNL     1       5.711   3.325   0.383  1.00  0.00     0.041 A 
ATOM     22  C   UNL     1       2.429   2.422  -0.738  1.00  0.00     0.133 A 
ATOM     23  C   UNL     1       3.591   3.781   0.221  1.00  0.00     0.048 A 
ATOM     24  C   UNL     1       3.196   1.664  -0.978  1.00  0.00     0.060 A 
ATOM     25  C   UNL     1       4.902   4.266   0.685  1.00  0.00     0.018 A 
ATOM     26  C   UNL     1       4.869   2.352  -0.098  1.00  0.00     0.033 A 
ATOM     27  Br  UNL     1       2.673   0.129  -2.431  1.00  0.00    -0.047 Br
BRANCH  22  28
ATOM     28  O   UNL     1       1.080   2.220  -1.149  1.00  0.00    -0.493 OA
BRANCH  28  29
ATOM     29  C   UNL     1       0.149   1.426  -0.339  1.00  0.00     0.226 C 
ATOM     30  C   UNL     1       0.298  -0.091  -0.319  1.00  0.00     0.049 C 
ENDBRANCH  28  29
ENDBRANCH  22  28
ENDBRANCH  18  21
ENDBRANCH  15  17
ENDBRANCH  13  15
ENDBRANCH   7  13
ENDBRANCH   3   6
ENDBRANCH   1   2
BRANCH   1  31
ATOM     31  C   UNL     1      -0.705   4.620   1.848  1.00  0.00     0.021 C 
BRANCH  31  32
ATOM     32  C   UNL     1      -1.945   4.738   2.731  1.00  0.00     0.002 C 
BRANCH  32  33
ATOM     33  C   UNL     1      -1.748   5.667   3.935  1.00  0.00     0.002 C 
BRANCH  33  34
ATOM     34  C   UNL     1      -1.094   7.013   3.603  1.00  0.00     0.021 C 
BRANCH  34  35
ATOM     35  C   UNL     1      -2.045   7.978   2.937  1.00  0.00     0.116 C 
BRANCH  35  36
ATOM     36  N   UNL     1      -2.898   8.674   3.883  1.00  0.00    -0.352 N 
ATOM     37  C   UNL     1      -3.819   9.695   3.692  1.00  0.00     0.251 C 
ATOM     38  H   UNL     1      -2.808   8.372   4.816  1.00  0.00     0.163 HD
ATOM     39  O   UNL     1      -4.484  10.068   4.658  1.00  0.00    -0.269 OA
BRANCH  37  40
ATOM     40  C   UNL     1      -4.201  10.140   2.307  1.00  0.00     0.039 A 
ATOM     41  C   UNL     1      -5.573  10.334   2.096  1.00  0.00     0.014 A 
ATOM     42  C   UNL     1      -3.425   9.743   1.235  1.00  0.00     0.014 A 
ATOM     43  C   UNL     1      -6.186   9.680   1.032  1.00  0.00     0.010 A 
ATOM     44  C   UNL     1      -4.014   8.928   0.305  1.00  0.00     0.010 A 
ATOM     45  C   UNL     1      -5.402   8.816   0.279  1.00  0.00    -0.014 A 
BRANCH  45  46
ATOM     46  C   UNL     1      -5.875   7.979  -0.805  1.00  0.00     0.031 A 
ATOM     47  C   UNL     1      -6.047   8.796  -2.034  1.00  0.00     0.074 A 
ATOM     48  C   UNL     1      -5.907   6.632  -0.591  1.00  0.00     0.049 A 
ATOM     49  N   UNL     1      -6.966   8.639  -2.909  1.00  0.00    -0.248 NA
ATOM     50  C   UNL     1      -5.284  10.038  -2.300  1.00  0.00     0.031 C 
ATOM     51  C   UNL     1      -5.993   5.485  -1.501  1.00  0.00     0.029 A 
ATOM     52  N   UNL     1      -5.995   6.000   0.675  1.00  0.00    -0.354 N 
ATOM     53  C   UNL     1      -6.570   9.367  -4.020  1.00  0.00     0.074 A 
ATOM     54  C   UNL     1      -5.699  10.388  -3.522  1.00  0.00     0.031 C 
ATOM     55  C   UNL     1      -6.491   4.418  -0.835  1.00  0.00     0.029 A 
ATOM     56  C   UNL     1      -6.810   4.849   0.513  1.00  0.00     0.049 A 
ATOM     57  H   UNL     1      -5.570   6.303   1.510  1.00  0.00     0.167 HD
ATOM     58  C   UNL     1      -6.804   8.822  -5.247  1.00  0.00     0.037 A 
ATOM     59  C   UNL     1      -8.055   4.788   1.084  1.00  0.00     0.037 A 
ATOM     60  C   UNL     1      -7.416   7.506  -5.029  1.00  0.00     0.049 A 
ATOM     61  C   UNL     1      -9.126   5.043   0.054  1.00  0.00     0.074 A 
ATOM     62  C   UNL     1      -6.867   6.239  -4.936  1.00  0.00     0.029 A 
ATOM     63  N   UNL     1      -8.623   7.442  -4.353  1.00  0.00    -0.354 N 
ATOM     64  N   UNL     1      -8.900   5.538  -1.133  1.00  0.00    -0.248 NA
ATOM     65  C   UNL     1     -10.537   4.830   0.327  1.00  0.00     0.031 C 
ATOM     66  C   UNL     1      -7.781   5.415  -4.213  1.00  0.00     0.029 A 
ATOM     67  C   UNL     1      -8.880   6.178  -3.858  1.00  0.00     0.049 A 
ATOM     68  H   UNL     1      -9.229   8.209  -4.239  1.00  0.00     0.167 HD
ATOM     69  C   UNL     1     -10.079   5.641  -1.816  1.00  0.00     0.074 A 
ATOM     70  C   UNL     1     -11.078   5.315  -0.803  1.00  0.00     0.031 C 
ATOM     71  C   UNL     1     -10.138   5.950  -3.154  1.00  0.00     0.037 A 
BRANCH  58  72
ATOM     72  C   UNL     1      -6.225   9.254  -6.582  1.00  0.00     0.064 A 
ATOM     73  C   UNL     1      -6.180   8.321  -7.646  1.00  0.00     0.173 A 
ATOM     74  C   UNL     1      -5.723  10.531  -6.907  1.00  0.00     0.173 A 
ATOM     75  F   UNL     1      -6.668   7.082  -7.509  1.00  0.00    -0.203 F 
ATOM     76  C   UNL     1      -5.639   8.616  -8.899  1.00  0.00     0.198 A 
ATOM     77  C   UNL     1      -5.173  10.825  -8.168  1.00  0.00     0.198 A 
ATOM     78  F   UNL     1      -5.777  11.549  -6.039  1.00  0.00    -0.203 F 
ATOM     79  F   UNL     1      -5.620   7.670  -9.849  1.00  0.00    -0.200 F 
ATOM     80  C   UNL     1      -5.127   9.866  -9.161  1.00  0.00     0.200 A 
ATOM     81  F   UNL     1      -4.691  12.052  -8.420  1.00  0.00    -0.200 F 
ATOM     82  F   UNL     1      -4.609  10.146 -10.365  1.00  0.00    -0.200 F 
ENDBRANCH  58  72
BRANCH  59  83
ATOM     83  C   UNL     1      -8.097   5.348   2.482  1.00  0.00     0.064 A 
ATOM     84  C   UNL     1      -7.136   4.788   3.349  1.00  0.00     0.173 A 
ATOM     85  C   UNL     1      -8.381   6.712   2.609  1.00  0.00     0.173 A 
ATOM     86  F   UNL     1      -6.932   3.463   3.375  1.00  0.00    -0.203 F 
ATOM     87  C   UNL     1      -6.138   5.608   3.831  1.00  0.00     0.198 A 
ATOM     88  C   UNL     1      -7.449   7.528   3.214  1.00  0.00     0.198 A 
ATOM     89  F   UNL     1      -9.379   7.278   1.918  1.00  0.00    -0.203 F 
ATOM     90  F   UNL     1      -4.963   5.087   4.213  1.00  0.00    -0.200 F 
ATOM     91  C   UNL     1      -6.250   6.962   3.613  1.00  0.00     0.200 A 
ATOM     92  F   UNL     1      -7.624   8.854   3.208  1.00  0.00    -0.200 F 
ATOM     93  F   UNL     1      -5.116   7.621   3.411  1.00  0.00    -0.200 F 
ENDBRANCH  59  83
BRANCH  71  94
ATOM     94  C   UNL     1     -11.427   6.096  -3.937  1.00  0.00     0.064 A 
ATOM     95  C   UNL     1     -12.626   5.485  -3.559  1.00  0.00     0.173 A 
ATOM     96  C   UNL     1     -11.508   6.839  -5.142  1.00  0.00     0.173 A 
ATOM     97  F   UNL     1     -12.646   4.478  -2.677  1.00  0.00    -0.203 F 
ATOM     98  C   UNL     1     -13.843   5.814  -4.151  1.00  0.00     0.198 A 
ATOM     99  C   UNL     1     -12.709   7.102  -5.787  1.00  0.00     0.198 A 
ATOM    100  F   UNL     1     -10.438   7.327  -5.779  1.00  0.00    -0.203 F 
ATOM    101  F   UNL     1     -14.976   5.307  -3.648  1.00  0.00    -0.200 F 
ATOM    102  C   UNL     1     -13.887   6.637  -5.257  1.00  0.00     0.200 A 
ATOM    103  F   UNL     1     -12.703   7.812  -6.924  1.00  0.00    -0.200 F 
ATOM    104  F   UNL     1     -15.052   6.933  -5.844  1.00  0.00    -0.200 F 
ENDBRANCH  71  94
ENDBRANCH  45  46
ENDBRANCH  37  40
ENDBRANCH  35  36
ENDBRANCH  34  35
ENDBRANCH  33  34
ENDBRANCH  32  33
ENDBRANCH  31  32
ENDBRANCH   1  31
TORSDOF 19
