REMARK SMILES Cc1ccc([C@@H](CC(=O)NCCCCCCNC(=O)c2ccc(-c3c4nc(c(-c5c(F)c(F)c(F)c(F)c5F)c5ccc([nH]5)c(-c5c(F)c(F)c(F)c(F)c5F)c5nc(c(-c6c(F)c(F)c(F)c(F)c6F)c6ccc3[nH]6)C=C5)C=C4)cc2)NC(=O)c2ccc(OC(F)F)cc2)cc1
REMARK SMILES IDX 12 1 11 2 10 3 8 4 9 5 7 7 6 8 5 9 1 10 2 11 3 12 97 13 4 14
REMARK SMILES IDX 96 15 83 16 84 17 85 19 86 20 87 21 95 22 88 23 94 24 89 25
REMARK SMILES IDX 90 26 91 27 92 28 93 29 13 30 14 31 15 32 16 33 17 34 18 35
REMARK SMILES IDX 19 37 20 38 21 39 82 40 22 41 81 42 23 43 24 44 25 45 75 46
REMARK SMILES IDX 26 47 80 48 74 49 76 50 27 51 79 52 73 53 72 54 28 56 60 57
REMARK SMILES IDX 40 58 59 59 41 60 44 61 58 62 77 63 42 64 43 65 57 67 78 68
REMARK SMILES IDX 45 69 29 70 30 71 38 72 31 73 32 74 36 75 39 76 33 77 34 78
REMARK SMILES IDX 37 79 35 80 61 81 62 82 70 83 63 84 64 85 68 86 71 87 65 88
REMARK SMILES IDX 66 89 69 90 67 91 46 92 47 93 55 94 48 95 49 96 53 97 56 98
REMARK SMILES IDX 50 99 51 100 54 101 52 102
REMARK H PARENT 10 6 83 18 17 36 76 55 44 66
REMARK Flexibility Score: inf
ROOT
ATOM      1  C   UNL     1      -0.167  -3.071  -0.313  1.00  0.00     0.021 C 
ENDROOT
BRANCH   1   2
ATOM      2  C   UNL     1      -1.039  -2.508  -1.443  1.00  0.00     0.116 C 
BRANCH   2   3
ATOM      3  N   UNL     1      -2.443  -2.800  -1.226  1.00  0.00    -0.356 N 
ATOM      4  C   UNL     1      -3.520  -1.971  -1.149  1.00  0.00     0.222 C 
ATOM      5  O   UNL     1      -4.634  -2.481  -1.012  1.00  0.00    -0.275 OA
ATOM      6  H   UNL     1      -2.653  -3.755  -1.117  1.00  0.00     0.163 HD
BRANCH   4   7
ATOM      7  C   UNL     1      -3.375  -0.471  -1.265  1.00  0.00     0.129 C 
BRANCH   7   8
ATOM      8  C   UNL     1      -3.269   0.300   0.068  1.00  0.00     0.122 C 
BRANCH   8   9
ATOM      9  C   UNL     1      -1.826   0.737   0.305  1.00  0.00    -0.025 A 
ATOM     10  C   UNL     1       2.365   1.786   0.349  1.00  0.00     0.044 C 
ATOM     11  C   UNL     1       0.902   1.470   0.406  1.00  0.00    -0.051 A 
ATOM     12  C   UNL     1       0.436   0.362   1.119  1.00  0.00     0.004 A 
ATOM     13  C   UNL     1      -0.007   2.239  -0.321  1.00  0.00     0.004 A 
ATOM     14  C   UNL     1      -0.915   0.003   1.075  1.00  0.00     0.006 A 
ATOM     15  C   UNL     1      -1.355   1.881  -0.365  1.00  0.00     0.006 A 
ENDBRANCH   8   9
BRANCH   8  16
ATOM     16  N   UNL     1      -3.849  -0.372   1.226  1.00  0.00    -0.345 N 
ATOM     17  C   UNL     1      -4.995  -0.096   1.927  1.00  0.00     0.251 C 
ATOM     18  H   UNL     1      -3.337  -1.145   1.557  1.00  0.00     0.164 HD
ATOM     19  O   UNL     1      -5.164  -0.598   3.036  1.00  0.00    -0.269 OA
BRANCH  17  20
ATOM     20  C   UNL     1      -6.028   0.807   1.376  1.00  0.00     0.040 A 
ATOM     21  C   UNL     1      -6.590   1.782   2.203  1.00  0.00     0.017 A 
ATOM     22  C   UNL     1      -6.521   0.632   0.081  1.00  0.00     0.017 A 
ATOM     23  C   UNL     1      -7.601   2.612   1.710  1.00  0.00     0.047 A 
ATOM     24  C   UNL     1      -7.518   1.478  -0.415  1.00  0.00     0.047 A 
ATOM     25  C   UNL     1      -8.060   2.478   0.395  1.00  0.00     0.126 A 
BRANCH  25  26
ATOM     26  O   UNL     1      -9.045   3.355   0.042  1.00  0.00    -0.435 OA
BRANCH  26  27
ATOM     27  C   UNL     1      -9.471   3.378  -1.314  1.00  0.00     0.542 C 
ATOM     28  F   UNL     1      -8.414   3.626  -2.127  1.00  0.00    -0.167 F 
ATOM     29  F   UNL     1     -10.001   2.181  -1.659  1.00  0.00    -0.167 F 
ENDBRANCH  26  27
ENDBRANCH  25  26
ENDBRANCH  17  20
ENDBRANCH   8  16
ENDBRANCH   7   8
ENDBRANCH   4   7
ENDBRANCH   2   3
ENDBRANCH   1   2
BRANCH   1  30
ATOM     30  C   UNL     1       0.761  -4.234  -0.685  1.00  0.00     0.002 C 
BRANCH  30  31
ATOM     31  C   UNL     1       1.659  -4.049  -1.917  1.00  0.00     0.002 C 
BRANCH  31  32
ATOM     32  C   UNL     1       2.336  -2.687  -2.063  1.00  0.00     0.021 C 
BRANCH  32  33
ATOM     33  C   UNL     1       3.506  -2.456  -1.113  1.00  0.00     0.116 C 
BRANCH  33  34
ATOM     34  N   UNL     1       4.784  -2.871  -1.690  1.00  0.00    -0.352 N 
ATOM     35  C   UNL     1       6.072  -2.659  -1.240  1.00  0.00     0.251 C 
ATOM     36  H   UNL     1       4.716  -3.380  -2.530  1.00  0.00     0.163 HD
ATOM     37  O   UNL     1       7.031  -3.134  -1.844  1.00  0.00    -0.269 OA
BRANCH  35  38
ATOM     38  C   UNL     1       6.282  -1.972   0.049  1.00  0.00     0.039 A 
ATOM     39  C   UNL     1       7.029  -2.631   1.032  1.00  0.00     0.014 A 
ATOM     40  C   UNL     1       5.573  -0.816   0.356  1.00  0.00     0.014 A 
ATOM     41  C   UNL     1       6.838  -2.295   2.368  1.00  0.00     0.010 A 
ATOM     42  C   UNL     1       5.315  -0.538   1.683  1.00  0.00     0.010 A 
ATOM     43  C   UNL     1       5.875  -1.338   2.685  1.00  0.00    -0.014 A 
BRANCH  43  44
ATOM     44  C   UNL     1       5.241  -1.258   3.997  1.00  0.00     0.031 A 
ATOM     45  C   UNL     1       5.490  -0.127   4.910  1.00  0.00     0.074 A 
ATOM     46  C   UNL     1       4.307  -2.186   4.309  1.00  0.00     0.049 A 
ATOM     47  N   UNL     1       5.288  -0.162   6.185  1.00  0.00    -0.248 NA
ATOM     48  C   UNL     1       6.032   1.143   4.451  1.00  0.00     0.031 C 
ATOM     49  C   UNL     1       3.330  -2.135   5.392  1.00  0.00     0.029 A 
ATOM     50  N   UNL     1       4.185  -3.488   3.790  1.00  0.00    -0.354 N 
ATOM     51  C   UNL     1       5.390   1.125   6.666  1.00  0.00     0.074 A 
ATOM     52  C   UNL     1       5.936   1.881   5.562  1.00  0.00     0.031 C 
ATOM     53  C   UNL     1       2.922  -3.384   5.665  1.00  0.00     0.029 A 
ATOM     54  C   UNL     1       3.739  -4.284   4.869  1.00  0.00     0.049 A 
ATOM     55  H   UNL     1       4.372  -3.783   2.869  1.00  0.00     0.167 HD
ATOM     56  C   UNL     1       4.861   1.419   7.892  1.00  0.00     0.037 A 
ATOM     57  C   UNL     1       4.504  -5.293   5.375  1.00  0.00     0.037 A 
ATOM     58  C   UNL     1       4.361   0.211   8.552  1.00  0.00     0.049 A 
ATOM     59  C   UNL     1       4.837  -5.141   6.839  1.00  0.00     0.074 A 
ATOM     60  C   UNL     1       3.088  -0.321   8.688  1.00  0.00     0.029 A 
ATOM     61  N   UNL     1       5.248  -0.790   8.934  1.00  0.00    -0.354 N 
ATOM     62  N   UNL     1       4.766  -4.010   7.482  1.00  0.00    -0.248 NA
ATOM     63  C   UNL     1       5.318  -6.235   7.679  1.00  0.00     0.031 C 
ATOM     64  C   UNL     1       3.215  -1.666   9.108  1.00  0.00     0.029 A 
ATOM     65  C   UNL     1       4.562  -1.949   9.244  1.00  0.00     0.049 A 
ATOM     66  H   UNL     1       6.226  -0.687   8.978  1.00  0.00     0.167 HD
ATOM     67  C   UNL     1       5.196  -4.192   8.770  1.00  0.00     0.074 A 
ATOM     68  C   UNL     1       5.513  -5.605   8.851  1.00  0.00     0.031 C 
ATOM     69  C   UNL     1       5.266  -3.154   9.654  1.00  0.00     0.037 A 
BRANCH  56  70
ATOM     70  C   UNL     1       4.499   2.821   8.359  1.00  0.00     0.064 A 
ATOM     71  C   UNL     1       3.460   3.026   9.298  1.00  0.00     0.173 A 
ATOM     72  C   UNL     1       5.072   4.009   7.870  1.00  0.00     0.173 A 
ATOM     73  F   UNL     1       2.912   2.007   9.972  1.00  0.00    -0.203 F 
ATOM     74  C   UNL     1       2.942   4.292   9.592  1.00  0.00     0.198 A 
ATOM     75  C   UNL     1       4.525   5.273   8.123  1.00  0.00     0.198 A 
ATOM     76  F   UNL     1       6.223   4.001   7.191  1.00  0.00    -0.203 F 
ATOM     77  F   UNL     1       1.941   4.413  10.474  1.00  0.00    -0.200 F 
ATOM     78  C   UNL     1       3.446   5.413   8.969  1.00  0.00     0.200 A 
ATOM     79  F   UNL     1       5.060   6.356   7.540  1.00  0.00    -0.200 F 
ATOM     80  F   UNL     1       2.921   6.621   9.211  1.00  0.00    -0.200 F 
ENDBRANCH  56  70
BRANCH  57  81
ATOM     81  C   UNL     1       5.396  -5.924   4.368  1.00  0.00     0.064 A 
ATOM     82  C   UNL     1       4.809  -6.608   3.286  1.00  0.00     0.173 A 
ATOM     83  C   UNL     1       6.743  -5.561   4.251  1.00  0.00     0.173 A 
ATOM     84  F   UNL     1       3.518  -6.971   3.345  1.00  0.00    -0.203 F 
ATOM     85  C   UNL     1       5.507  -6.823   2.100  1.00  0.00     0.198 A 
ATOM     86  C   UNL     1       7.443  -5.789   3.064  1.00  0.00     0.198 A 
ATOM     87  F   UNL     1       7.351  -4.884   5.235  1.00  0.00    -0.203 F 
ATOM     88  F   UNL     1       4.886  -7.381   1.051  1.00  0.00    -0.200 F 
ATOM     89  C   UNL     1       6.816  -6.390   1.981  1.00  0.00     0.200 A 
ATOM     90  F   UNL     1       8.698  -5.337   2.934  1.00  0.00    -0.200 F 
ATOM     91  F   UNL     1       7.460  -6.509   0.812  1.00  0.00    -0.200 F 
ENDBRANCH  57  81
BRANCH  69  92
ATOM     92  C   UNL     1       5.915  -3.193  11.014  1.00  0.00     0.064 A 
ATOM     93  C   UNL     1       7.023  -3.996  11.327  1.00  0.00     0.173 A 
ATOM     94  C   UNL     1       5.514  -2.282  12.021  1.00  0.00     0.173 A 
ATOM     95  F   UNL     1       7.564  -4.819  10.419  1.00  0.00    -0.203 F 
ATOM     96  C   UNL     1       7.651  -3.932  12.574  1.00  0.00     0.198 A 
ATOM     97  C   UNL     1       6.177  -2.183  13.243  1.00  0.00     0.198 A 
ATOM     98  F   UNL     1       4.483  -1.444  11.836  1.00  0.00    -0.203 F 
ATOM     99  F   UNL     1       8.684  -4.745  12.838  1.00  0.00    -0.200 F 
ATOM    100  C   UNL     1       7.237  -3.019  13.526  1.00  0.00     0.200 A 
ATOM    101  F   UNL     1       5.794  -1.259  14.136  1.00  0.00    -0.200 F 
ATOM    102  F   UNL     1       7.872  -2.929  14.702  1.00  0.00    -0.200 F 
ENDBRANCH  69  92
ENDBRANCH  43  44
ENDBRANCH  35  38
ENDBRANCH  33  34
ENDBRANCH  32  33
ENDBRANCH  31  32
ENDBRANCH  30  31
ENDBRANCH   1  30
TORSDOF 19
