REMARK SMILES CC1(C)C(=O)N([C@H]2COC[C@@H]2C(=O)NCCCCCCNC(=O)c2ccc(-c3c4nc(c(-c5c(F)c(F)c(F)c(F)c5F)c5ccc([nH]5)c(-c5c(F)c(F)c(F)c(F)c5F)c5nc(c(-c6c(F)c(F)c(F)c(F)c6F)c6ccc3[nH]6)C=C5)C=C4)cc2)S1(=O)=O
REMARK SMILES IDX 18 1 17 2 16 3 15 4 14 5 12 6 13 7 11 9 7 10 8 11 9 12 10 13
REMARK SMILES IDX 6 14 1 15 2 16 3 17 4 18 87 19 5 20 88 21 89 22 19 23 20 24
REMARK SMILES IDX 21 25 22 26 23 28 24 29 25 30 86 31 26 32 85 33 27 34 28 35
REMARK SMILES IDX 29 36 79 37 30 38 84 39 78 40 80 41 31 42 83 43 77 44 76 45
REMARK SMILES IDX 32 47 64 48 44 49 63 50 45 51 48 52 62 53 81 54 46 55 47 56
REMARK SMILES IDX 61 58 82 59 49 60 33 61 34 62 42 63 35 64 36 65 40 66 43 67
REMARK SMILES IDX 37 68 38 69 41 70 39 71 65 72 66 73 74 74 67 75 68 76 72 77
REMARK SMILES IDX 75 78 69 79 70 80 73 81 71 82 50 83 51 84 59 85 52 86 53 87
REMARK SMILES IDX 57 88 60 89 54 90 55 91 58 92 56 93
REMARK H PARENT 14 8 21 27 80 46 48 57
REMARK Flexibility Score: inf
ROOT
ATOM      1  C   UNL     1      -2.827   7.665  -4.085  1.00  0.00     0.002 C 
ENDROOT
BRANCH   1   2
ATOM      2  C   UNL     1      -3.776   6.692  -3.372  1.00  0.00     0.002 C 
BRANCH   2   3
ATOM      3  C   UNL     1      -3.955   5.341  -4.071  1.00  0.00     0.021 C 
BRANCH   3   4
ATOM      4  C   UNL     1      -2.655   4.542  -4.193  1.00  0.00     0.116 C 
BRANCH   4   5
ATOM      5  N   UNL     1      -2.438   3.710  -3.023  1.00  0.00    -0.356 N 
ATOM      6  C   UNL     1      -2.795   2.448  -2.692  1.00  0.00     0.227 C 
ATOM      7  O   UNL     1      -2.469   2.089  -1.552  1.00  0.00    -0.275 OA
ATOM      8  H   UNL     1      -1.918   4.162  -2.319  1.00  0.00     0.163 HD
BRANCH   6   9
ATOM      9  C   UNL     1      -3.485   1.430  -3.599  1.00  0.00     0.130 C 
ATOM     10  C   UNL     1      -2.462   0.373  -3.993  1.00  0.00     0.143 C 
ATOM     11  C   UNL     1      -1.920   0.929  -5.302  1.00  0.00     0.187 C 
ATOM     12  O   UNL     1      -2.960   1.730  -5.891  1.00  0.00    -0.378 OA
ATOM     13  C   UNL     1      -4.021   1.879  -4.935  1.00  0.00     0.176 C 
BRANCH  10  14
ATOM     14  N   UNL     1      -3.048  -0.976  -4.128  1.00  0.00    -0.231 N 
ATOM     15  C   UNL     1      -3.498  -3.932  -5.937  1.00  0.00     0.041 C 
ATOM     16  C   UNL     1      -3.642  -3.008  -4.730  1.00  0.00     0.165 C 
ATOM     17  C   UNL     1      -4.227  -3.750  -3.531  1.00  0.00     0.041 C 
ATOM     18  C   UNL     1      -2.367  -2.180  -4.397  1.00  0.00     0.259 C 
ATOM     19  S   UNL     1      -4.334  -1.422  -5.080  1.00  0.00     0.252 S 
ATOM     20  O   UNL     1      -1.184  -2.385  -4.279  1.00  0.00    -0.272 OA
ATOM     21  O   UNL     1      -4.107  -1.017  -6.445  1.00  0.00    -0.205 OA
ATOM     22  O   UNL     1      -5.557  -1.153  -4.364  1.00  0.00    -0.205 OA
ENDBRANCH  10  14
ENDBRANCH   6   9
ENDBRANCH   4   5
ENDBRANCH   3   4
ENDBRANCH   2   3
ENDBRANCH   1   2
BRANCH   1  23
ATOM     23  C   UNL     1      -3.171   7.947  -5.550  1.00  0.00     0.021 C 
BRANCH  23  24
ATOM     24  C   UNL     1      -4.525   8.621  -5.751  1.00  0.00     0.116 C 
BRANCH  24  25
ATOM     25  N   UNL     1      -4.553   9.948  -5.153  1.00  0.00    -0.352 N 
ATOM     26  C   UNL     1      -4.743  11.167  -5.753  1.00  0.00     0.251 C 
ATOM     27  H   UNL     1      -4.417   9.974  -4.179  1.00  0.00     0.163 HD
ATOM     28  O   UNL     1      -4.481  12.204  -5.153  1.00  0.00    -0.269 OA
BRANCH  26  29
ATOM     29  C   UNL     1      -5.260  11.224  -7.135  1.00  0.00     0.039 A 
ATOM     30  C   UNL     1      -4.662  12.091  -8.052  1.00  0.00     0.014 A 
ATOM     31  C   UNL     1      -6.343  10.427  -7.516  1.00  0.00     0.014 A 
ATOM     32  C   UNL     1      -5.112  12.114  -9.373  1.00  0.00     0.010 A 
ATOM     33  C   UNL     1      -6.742  10.397  -8.847  1.00  0.00     0.010 A 
ATOM     34  C   UNL     1      -6.133  11.242  -9.787  1.00  0.00    -0.014 A 
BRANCH  34  35
ATOM     35  C   UNL     1      -6.580  11.193 -11.201  1.00  0.00     0.031 A 
ATOM     36  C   UNL     1      -7.982  11.594 -11.561  1.00  0.00     0.074 A 
ATOM     37  C   UNL     1      -5.746  10.717 -12.144  1.00  0.00     0.049 A 
ATOM     38  N   UNL     1      -8.587  11.542 -12.720  1.00  0.00    -0.248 NA
ATOM     39  C   UNL     1      -8.825  12.095 -10.465  1.00  0.00     0.031 C 
ATOM     40  C   UNL     1      -4.374  10.264 -11.909  1.00  0.00     0.029 A 
ATOM     41  N   UNL     1      -5.934  10.526 -13.490  1.00  0.00    -0.354 N 
ATOM     42  C   UNL     1      -9.880  11.993 -12.491  1.00  0.00     0.074 A 
ATOM     43  C   UNL     1      -9.990  12.257 -11.072  1.00  0.00     0.031 C 
ATOM     44  C   UNL     1      -3.835   9.873 -13.075  1.00  0.00     0.029 A 
ATOM     45  C   UNL     1      -4.835  10.006 -14.130  1.00  0.00     0.049 A 
ATOM     46  H   UNL     1      -6.776  10.741 -13.953  1.00  0.00     0.167 HD
ATOM     47  C   UNL     1     -10.876  12.193 -13.386  1.00  0.00     0.037 A 
ATOM     48  C   UNL     1      -4.660   9.669 -15.421  1.00  0.00     0.037 A 
ATOM     49  C   UNL     1     -10.755  11.939 -14.798  1.00  0.00     0.049 A 
ATOM     50  C   UNL     1      -5.796   9.860 -16.388  1.00  0.00     0.074 A 
ATOM     51  C   UNL     1     -11.688  12.152 -15.798  1.00  0.00     0.029 A 
ATOM     52  N   UNL     1      -9.629  11.405 -15.409  1.00  0.00    -0.354 N 
ATOM     53  N   UNL     1      -6.994  10.348 -16.174  1.00  0.00    -0.248 NA
ATOM     54  C   UNL     1      -5.554   9.454 -17.779  1.00  0.00     0.031 C 
ATOM     55  C   UNL     1     -11.144  11.702 -17.006  1.00  0.00     0.029 A 
ATOM     56  C   UNL     1      -9.853  11.258 -16.769  1.00  0.00     0.049 A 
ATOM     57  H   UNL     1      -8.794  11.167 -14.945  1.00  0.00     0.167 HD
ATOM     58  C   UNL     1      -7.637  10.337 -17.404  1.00  0.00     0.074 A 
ATOM     59  C   UNL     1      -6.691   9.804 -18.363  1.00  0.00     0.031 C 
ATOM     60  C   UNL     1      -8.896  10.734 -17.712  1.00  0.00     0.037 A 
BRANCH  47  61
ATOM     61  C   UNL     1     -12.184  12.711 -12.859  1.00  0.00     0.064 A 
ATOM     62  C   UNL     1     -12.308  14.013 -12.348  1.00  0.00     0.173 A 
ATOM     63  C   UNL     1     -13.331  11.903 -12.874  1.00  0.00     0.173 A 
ATOM     64  F   UNL     1     -11.240  14.824 -12.300  1.00  0.00    -0.203 F 
ATOM     65  C   UNL     1     -13.519  14.472 -11.836  1.00  0.00     0.198 A 
ATOM     66  C   UNL     1     -14.549  12.377 -12.393  1.00  0.00     0.198 A 
ATOM     67  F   UNL     1     -13.272  10.653 -13.357  1.00  0.00    -0.203 F 
ATOM     68  F   UNL     1     -13.596  15.696 -11.298  1.00  0.00    -0.200 F 
ATOM     69  C   UNL     1     -14.639  13.656 -11.864  1.00  0.00     0.200 A 
ATOM     70  F   UNL     1     -15.634  11.592 -12.432  1.00  0.00    -0.200 F 
ATOM     71  F   UNL     1     -15.805  14.098 -11.372  1.00  0.00    -0.200 F 
ENDBRANCH  47  61
BRANCH  48  72
ATOM     72  C   UNL     1      -3.347   9.147 -15.881  1.00  0.00     0.064 A 
ATOM     73  C   UNL     1      -2.528   9.915 -16.721  1.00  0.00     0.173 A 
ATOM     74  C   UNL     1      -2.882   7.882 -15.494  1.00  0.00     0.173 A 
ATOM     75  F   UNL     1      -2.939  11.123 -17.133  1.00  0.00    -0.203 F 
ATOM     76  C   UNL     1      -1.302   9.430 -17.171  1.00  0.00     0.198 A 
ATOM     77  C   UNL     1      -1.643   7.410 -15.922  1.00  0.00     0.198 A 
ATOM     78  F   UNL     1      -3.625   7.110 -14.688  1.00  0.00    -0.203 F 
ATOM     79  F   UNL     1      -0.559  10.168 -18.007  1.00  0.00    -0.200 F 
ATOM     80  C   UNL     1      -0.858   8.181 -16.766  1.00  0.00     0.200 A 
ATOM     81  F   UNL     1      -1.210   6.208 -15.518  1.00  0.00    -0.200 F 
ATOM     82  F   UNL     1       0.324   7.717 -17.195  1.00  0.00    -0.200 F 
ENDBRANCH  48  72
BRANCH  60  83
ATOM     83  C   UNL     1      -9.313  10.643 -19.151  1.00  0.00     0.064 A 
ATOM     84  C   UNL     1      -9.563   9.410 -19.771  1.00  0.00     0.173 A 
ATOM     85  C   UNL     1      -9.507  11.810 -19.907  1.00  0.00     0.173 A 
ATOM     86  F   UNL     1      -9.376   8.266 -19.096  1.00  0.00    -0.203 F 
ATOM     87  C   UNL     1      -9.968   9.348 -21.102  1.00  0.00     0.198 A 
ATOM     88  C   UNL     1      -9.942  11.745 -21.227  1.00  0.00     0.198 A 
ATOM     89  F   UNL     1      -9.287  13.015 -19.359  1.00  0.00    -0.203 F 
ATOM     90  F   UNL     1     -10.155   8.157 -21.688  1.00  0.00    -0.200 F 
ATOM     91  C   UNL     1     -10.165  10.515 -21.826  1.00  0.00     0.200 A 
ATOM     92  F   UNL     1     -10.146  12.874 -21.920  1.00  0.00    -0.200 F 
ATOM     93  F   UNL     1     -10.565  10.452 -23.103  1.00  0.00    -0.200 F 
ENDBRANCH  60  83
ENDBRANCH  34  35
ENDBRANCH  26  29
ENDBRANCH  24  25
ENDBRANCH  23  24
ENDBRANCH   1  23
TORSDOF 14
