REMARK SMILES CCC(=O)Nc1cc(NC(=O)/C=C/C(=O)NCCCCCCNC(=O)c2ccc(-c3c4nc(c(-c5c(F)c(F)c(F)c(F)c5F)c5ccc([nH]5)c(-c5c(F)c(F)c(F)c(F)c5F)c5nc(c(-c6c(F)c(F)c(F)c(F)c6F)c6ccc3[nH]6)C=C5)C=C4)cc2)ccc1C
REMARK SMILES IDX 18 1 17 2 16 3 14 4 15 5 13 7 12 8 10 9 9 10 11 12 8 13 6 14
REMARK SMILES IDX 7 15 91 16 90 17 92 18 89 19 5 20 3 21 4 22 2 24 1 25 19 26
REMARK SMILES IDX 20 27 21 28 22 29 23 30 24 31 25 33 26 34 27 35 88 36 28 37
REMARK SMILES IDX 87 38 29 39 30 40 31 41 81 42 32 43 86 44 80 45 82 46 33 47
REMARK SMILES IDX 85 48 79 49 78 50 34 52 66 53 46 54 65 55 47 56 50 57 64 58
REMARK SMILES IDX 83 59 48 60 49 61 63 63 84 64 51 65 35 66 36 67 44 68 37 69
REMARK SMILES IDX 38 70 42 71 45 72 39 73 40 74 43 75 41 76 67 77 68 78 76 79
REMARK SMILES IDX 69 80 70 81 74 82 77 83 71 84 72 85 75 86 73 87 52 88 53 89
REMARK SMILES IDX 61 90 54 91 55 92 59 93 62 94 56 95 57 96 60 97 58 98
REMARK H PARENT 16 6 9 11 5 23 23 32 82 51 50 62
REMARK Flexibility Score: inf
ROOT
ATOM      1  C   UNL     1       5.595  -7.739   2.678  1.00  0.00     0.021 C 
ENDROOT
BRANCH   1   2
ATOM      2  C   UNL     1       5.127  -7.061   1.394  1.00  0.00     0.116 C 
BRANCH   2   3
ATOM      3  N   UNL     1       4.217  -5.971   1.675  1.00  0.00    -0.353 N 
ATOM      4  C   UNL     1       4.444  -4.636   1.636  1.00  0.00     0.244 C 
ATOM      5  O   UNL     1       3.617  -3.847   2.088  1.00  0.00    -0.270 OA
ATOM      6  H   UNL     1       3.304  -6.238   1.932  1.00  0.00     0.163 HD
BRANCH   4   7
ATOM      7  C   UNL     1       5.664  -4.111   0.992  1.00  0.00     0.077 C 
ATOM      8  C   UNL     1       5.854  -4.376  -0.311  1.00  0.00     0.077 C 
BRANCH   8   9
ATOM      9  C   UNL     1       6.784  -3.564  -1.111  1.00  0.00     0.248 C 
ATOM     10  N   UNL     1       6.466  -2.268  -1.425  1.00  0.00    -0.322 N 
ATOM     11  H   UNL     1       7.141  -1.810  -1.977  1.00  0.00     0.170 HD
ATOM     12  O   UNL     1       7.839  -4.065  -1.491  1.00  0.00    -0.270 OA
BRANCH  10  13
ATOM     13  C   UNL     1       5.348  -1.469  -1.100  1.00  0.00     0.043 A 
ATOM     14  C   UNL     1       3.175  -1.141  -0.041  1.00  0.00     0.046 A 
ATOM     15  C   UNL     1       4.129  -1.968  -0.644  1.00  0.00     0.052 A 
ATOM     16  C   UNL     1       3.416   0.233   0.054  1.00  0.00    -0.027 A 
ATOM     17  C   UNL     1       4.554   0.757  -0.585  1.00  0.00     0.008 A 
ATOM     18  C   UNL     1       2.651   1.153   0.965  1.00  0.00     0.046 C 
ATOM     19  C   UNL     1       5.512  -0.086  -1.156  1.00  0.00     0.026 A 
BRANCH  14  20
ATOM     20  N   UNL     1       2.165  -1.792   0.680  1.00  0.00    -0.326 N 
ATOM     21  C   UNL     1       0.810  -1.736   0.528  1.00  0.00     0.224 C 
ATOM     22  O   UNL     1       0.079  -2.236   1.387  1.00  0.00    -0.275 OA
ATOM     23  H   UNL     1       2.480  -2.379   1.405  1.00  0.00     0.169 HD
BRANCH  21  24
ATOM     24  C   UNL     1       0.218  -1.173  -0.749  1.00  0.00     0.097 C 
ATOM     25  C   UNL     1      -0.090   0.306  -0.699  1.00  0.00     0.014 C 
ENDBRANCH  21  24
ENDBRANCH  14  20
ENDBRANCH  10  13
ENDBRANCH   8   9
ENDBRANCH   4   7
ENDBRANCH   2   3
ENDBRANCH   1   2
BRANCH   1  26
ATOM     26  C   UNL     1       4.505  -8.473   3.466  1.00  0.00     0.002 C 
BRANCH  26  27
ATOM     27  C   UNL     1       3.680  -9.523   2.705  1.00  0.00     0.002 C 
BRANCH  27  28
ATOM     28  C   UNL     1       4.436 -10.476   1.774  1.00  0.00     0.021 C 
BRANCH  28  29
ATOM     29  C   UNL     1       5.561 -11.258   2.440  1.00  0.00     0.116 C 
BRANCH  29  30
ATOM     30  N   UNL     1       5.334 -12.695   2.515  1.00  0.00    -0.352 N 
ATOM     31  C   UNL     1       6.087 -13.648   3.178  1.00  0.00     0.251 C 
ATOM     32  H   UNL     1       4.545 -13.030   2.032  1.00  0.00     0.163 HD
ATOM     33  O   UNL     1       5.763 -14.825   3.164  1.00  0.00    -0.269 OA
BRANCH  31  34
ATOM     34  C   UNL     1       7.231 -13.198   4.007  1.00  0.00     0.039 A 
ATOM     35  C   UNL     1       7.266 -13.596   5.348  1.00  0.00     0.014 A 
ATOM     36  C   UNL     1       8.133 -12.250   3.526  1.00  0.00     0.014 A 
ATOM     37  C   UNL     1       8.046 -12.877   6.250  1.00  0.00     0.010 A 
ATOM     38  C   UNL     1       8.844 -11.483   4.432  1.00  0.00     0.010 A 
ATOM     39  C   UNL     1       8.739 -11.752   5.801  1.00  0.00    -0.014 A 
BRANCH  39  40
ATOM     40  C   UNL     1       9.249 -10.732   6.710  1.00  0.00     0.031 A 
ATOM     41  C   UNL     1      10.692 -10.633   7.017  1.00  0.00     0.074 A 
ATOM     42  C   UNL     1       8.381  -9.853   7.263  1.00  0.00     0.049 A 
ATOM     43  N   UNL     1      11.163 -10.037   8.063  1.00  0.00    -0.248 NA
ATOM     44  C   UNL     1      11.726 -11.282   6.217  1.00  0.00     0.031 C 
ATOM     45  C   UNL     1       8.700  -8.623   7.985  1.00  0.00     0.029 A 
ATOM     46  N   UNL     1       7.003 -10.037   7.480  1.00  0.00    -0.354 N 
ATOM     47  C   UNL     1      12.527  -9.963   7.922  1.00  0.00     0.074 A 
ATOM     48  C   UNL     1      12.833 -10.876   6.851  1.00  0.00     0.031 C 
ATOM     49  C   UNL     1       7.677  -8.323   8.799  1.00  0.00     0.029 A 
ATOM     50  C   UNL     1       6.735  -9.426   8.727  1.00  0.00     0.049 A 
ATOM     51  H   UNL     1       6.361 -10.494   6.889  1.00  0.00     0.167 HD
ATOM     52  C   UNL     1      13.208  -9.024   8.639  1.00  0.00     0.037 A 
ATOM     53  C   UNL     1       6.282 -10.137   9.798  1.00  0.00     0.037 A 
ATOM     54  C   UNL     1      12.379  -8.489   9.721  1.00  0.00     0.049 A 
ATOM     55  C   UNL     1       7.151 -10.038  11.029  1.00  0.00     0.074 A 
ATOM     56  C   UNL     1      11.751  -7.274   9.934  1.00  0.00     0.029 A 
ATOM     57  N   UNL     1      11.904  -9.357  10.702  1.00  0.00    -0.354 N 
ATOM     58  N   UNL     1       8.384  -9.617  11.016  1.00  0.00    -0.248 NA
ATOM     59  C   UNL     1       6.720 -10.467  12.358  1.00  0.00     0.031 C 
ATOM     60  C   UNL     1      10.827  -7.444  11.000  1.00  0.00     0.029 A 
ATOM     61  C   UNL     1      10.925  -8.747  11.460  1.00  0.00     0.049 A 
ATOM     62  H   UNL     1      12.223 -10.278  10.836  1.00  0.00     0.167 HD
ATOM     63  C   UNL     1       8.925  -9.759  12.266  1.00  0.00     0.074 A 
ATOM     64  C   UNL     1       7.836 -10.264  13.079  1.00  0.00     0.031 C 
ATOM     65  C   UNL     1      10.238  -9.478  12.515  1.00  0.00     0.037 A 
BRANCH  52  66
ATOM     66  C   UNL     1      14.552  -8.419   8.258  1.00  0.00     0.064 A 
ATOM     67  C   UNL     1      15.126  -7.406   9.063  1.00  0.00     0.173 A 
ATOM     68  C   UNL     1      15.257  -8.672   7.060  1.00  0.00     0.173 A 
ATOM     69  F   UNL     1      14.580  -7.056  10.236  1.00  0.00    -0.203 F 
ATOM     70  C   UNL     1      16.271  -6.692   8.682  1.00  0.00     0.198 A 
ATOM     71  C   UNL     1      16.428  -7.994   6.706  1.00  0.00     0.198 A 
ATOM     72  F   UNL     1      14.826  -9.539   6.142  1.00  0.00    -0.203 F 
ATOM     73  F   UNL     1      16.724  -5.697   9.456  1.00  0.00    -0.200 F 
ATOM     74  C   UNL     1      16.925  -6.991   7.506  1.00  0.00     0.200 A 
ATOM     75  F   UNL     1      17.048  -8.304   5.558  1.00  0.00    -0.200 F 
ATOM     76  F   UNL     1      18.017  -6.308   7.136  1.00  0.00    -0.200 F 
ENDBRANCH  52  66
BRANCH  53  77
ATOM     77  C   UNL     1       5.481 -11.332   9.428  1.00  0.00     0.064 A 
ATOM     78  C   UNL     1       4.267 -11.144   8.742  1.00  0.00     0.173 A 
ATOM     79  C   UNL     1       6.037 -12.616   9.424  1.00  0.00     0.173 A 
ATOM     80  F   UNL     1       3.696  -9.929   8.713  1.00  0.00    -0.203 F 
ATOM     81  C   UNL     1       3.691 -12.168   7.995  1.00  0.00     0.198 A 
ATOM     82  C   UNL     1       5.449 -13.644   8.683  1.00  0.00     0.198 A 
ATOM     83  F   UNL     1       7.203 -12.854  10.040  1.00  0.00    -0.203 F 
ATOM     84  F   UNL     1       2.590 -11.928   7.269  1.00  0.00    -0.200 F 
ATOM     85  C   UNL     1       4.297 -13.412   7.947  1.00  0.00     0.200 A 
ATOM     86  F   UNL     1       6.053 -14.839   8.610  1.00  0.00    -0.200 F 
ATOM     87  F   UNL     1       3.795 -14.373   7.160  1.00  0.00    -0.200 F 
ENDBRANCH  53  77
BRANCH  65  88
ATOM     88  C   UNL     1      10.974  -9.806  13.789  1.00  0.00     0.064 A 
ATOM     89  C   UNL     1      10.690 -10.924  14.593  1.00  0.00     0.173 A 
ATOM     90  C   UNL     1      12.110  -9.054  14.168  1.00  0.00     0.173 A 
ATOM     91  F   UNL     1       9.713 -11.782  14.271  1.00  0.00    -0.203 F 
ATOM     92  C   UNL     1      11.446 -11.228  15.729  1.00  0.00     0.198 A 
ATOM     93  C   UNL     1      12.894  -9.391  15.272  1.00  0.00     0.198 A 
ATOM     94  F   UNL     1      12.502  -7.982  13.464  1.00  0.00    -0.203 F 
ATOM     95  F   UNL     1      11.110 -12.282  16.487  1.00  0.00    -0.200 F 
ATOM     96  C   UNL     1      12.552 -10.469  16.062  1.00  0.00     0.200 A 
ATOM     97  F   UNL     1      13.992  -8.675  15.553  1.00  0.00    -0.200 F 
ATOM     98  F   UNL     1      13.298 -10.789  17.128  1.00  0.00    -0.200 F 
ENDBRANCH  65  88
ENDBRANCH  39  40
ENDBRANCH  31  34
ENDBRANCH  29  30
ENDBRANCH  28  29
ENDBRANCH  27  28
ENDBRANCH  26  27
ENDBRANCH   1  26
TORSDOF 17
