REMARK SMILES O=C(/C=C\N1CC[C@@H](O)C1)NCCCCCCNC(=O)c1ccc(-c2c3nc(c(-c4c(F)c(F)c(F)c(F)c4F)c4ccc([nH]4)c(-c4c(F)c(F)c(F)c(F)c4F)c4nc(c(-c5c(F)c(F)c(F)c(F)c5F)c5ccc2[nH]5)C=C4)C=C3)cc1
REMARK SMILES IDX 14 1 13 2 12 3 11 4 1 5 2 6 3 8 4 9 5 10 6 11 10 12 7 13
REMARK SMILES IDX 8 14 9 15 15 17 16 18 17 19 18 20 19 21 20 23 21 24 22 25
REMARK SMILES IDX 83 26 23 27 82 28 24 29 25 30 26 31 76 32 27 33 81 34 75 35
REMARK SMILES IDX 77 36 28 37 80 38 74 39 73 40 29 42 61 43 41 44 60 45 42 46
REMARK SMILES IDX 45 47 59 48 78 49 43 50 44 51 58 53 79 54 46 55 30 56 31 57
REMARK SMILES IDX 39 58 32 59 33 60 37 61 40 62 34 63 35 64 38 65 36 66 62 67
REMARK SMILES IDX 63 68 71 69 64 70 65 71 69 72 72 73 66 74 67 75 70 76 68 77
REMARK SMILES IDX 47 78 48 79 56 80 49 81 50 82 54 83 57 84 51 85 52 86 55 87
REMARK SMILES IDX 53 88
REMARK H PARENT 11 7 9 16 18 22 77 41 45 52
REMARK Flexibility Score: inf
ROOT
ATOM      1  C   UNL     1       3.451   0.694   4.030  1.00  0.00     0.002 C 
ENDROOT
BRANCH   1   2
ATOM      2  C   UNL     1       2.011   0.552   3.527  1.00  0.00     0.021 C 
BRANCH   2   3
ATOM      3  C   UNL     1       1.694   1.216   2.184  1.00  0.00     0.116 C 
BRANCH   3   4
ATOM      4  N   UNL     1       2.499   0.734   1.080  1.00  0.00    -0.353 N 
ATOM      5  O   UNL     1       1.071  -0.927   0.407  1.00  0.00    -0.270 OA
ATOM      6  C   UNL     1       2.111  -0.293   0.264  1.00  0.00     0.245 C 
ATOM      7  H   UNL     1       3.367   1.166   0.909  1.00  0.00     0.163 HD
BRANCH   6   8
ATOM      8  C   UNL     1       2.954  -0.525  -0.943  1.00  0.00     0.088 C 
ATOM      9  C   UNL     1       4.264  -0.366  -1.179  1.00  0.00     0.086 C 
BRANCH   9  10
ATOM     10  N   UNL     1       5.346  -0.035  -0.396  1.00  0.00    -0.375 N 
ATOM     11  C   UNL     1       6.590   0.571  -0.901  1.00  0.00     0.119 C 
ATOM     12  C   UNL     1       5.535  -0.376   1.014  1.00  0.00     0.147 C 
ATOM     13  C   UNL     1       7.395   0.929   0.362  1.00  0.00     0.055 C 
ATOM     14  C   UNL     1       6.373   0.813   1.485  1.00  0.00     0.135 C 
BRANCH  14  15
ATOM     15  O   UNL     1       5.582   2.008   1.500  1.00  0.00    -0.391 OA
ATOM     16  H   UNL     1       5.198   2.152   0.622  1.00  0.00     0.211 HD
ENDBRANCH  14  15
ENDBRANCH   9  10
ENDBRANCH   6   8
ENDBRANCH   3   4
ENDBRANCH   2   3
ENDBRANCH   1   2
BRANCH   1  17
ATOM     17  C   UNL     1       4.003   2.119   4.088  1.00  0.00     0.002 C 
BRANCH  17  18
ATOM     18  C   UNL     1       3.464   2.975   5.226  1.00  0.00     0.021 C 
BRANCH  18  19
ATOM     19  C   UNL     1       3.806   2.462   6.617  1.00  0.00     0.116 C 
BRANCH  19  20
ATOM     20  N   UNL     1       5.239   2.381   6.878  1.00  0.00    -0.352 N 
ATOM     21  C   UNL     1       5.930   2.732   8.015  1.00  0.00     0.251 C 
ATOM     22  H   UNL     1       5.786   2.028   6.139  1.00  0.00     0.163 HD
ATOM     23  O   UNL     1       7.151   2.689   8.049  1.00  0.00    -0.269 OA
BRANCH  21  24
ATOM     24  C   UNL     1       5.170   3.210   9.189  1.00  0.00     0.039 A 
ATOM     25  C   UNL     1       5.561   4.398   9.809  1.00  0.00     0.014 A 
ATOM     26  C   UNL     1       4.031   2.526   9.620  1.00  0.00     0.014 A 
ATOM     27  C   UNL     1       4.756   4.946  10.810  1.00  0.00     0.010 A 
ATOM     28  C   UNL     1       3.182   3.122  10.543  1.00  0.00     0.010 A 
ATOM     29  C   UNL     1       3.537   4.336  11.150  1.00  0.00    -0.014 A 
BRANCH  29  30
ATOM     30  C   UNL     1       2.617   4.953  12.138  1.00  0.00     0.031 A 
ATOM     31  C   UNL     1       2.280   4.226  13.409  1.00  0.00     0.074 A 
ATOM     32  C   UNL     1       2.030   6.133  11.857  1.00  0.00     0.049 A 
ATOM     33  N   UNL     1       1.473   4.579  14.377  1.00  0.00    -0.248 NA
ATOM     34  C   UNL     1       2.903   2.906  13.601  1.00  0.00     0.031 C 
ATOM     35  C   UNL     1       2.219   6.901  10.625  1.00  0.00     0.029 A 
ATOM     36  N   UNL     1       1.154   6.893  12.590  1.00  0.00    -0.354 N 
ATOM     37  C   UNL     1       1.473   3.518  15.273  1.00  0.00     0.074 A 
ATOM     38  C   UNL     1       2.309   2.484  14.706  1.00  0.00     0.031 C 
ATOM     39  C   UNL     1       1.518   8.043  10.707  1.00  0.00     0.029 A 
ATOM     40  C   UNL     1       0.806   8.073  11.980  1.00  0.00     0.049 A 
ATOM     41  H   UNL     1       0.807   6.617  13.469  1.00  0.00     0.167 HD
ATOM     42  C   UNL     1       0.855   3.426  16.474  1.00  0.00     0.037 A 
ATOM     43  C   UNL     1       0.012   9.071  12.410  1.00  0.00     0.037 A 
ATOM     44  C   UNL     1       0.061   4.476  17.054  1.00  0.00     0.049 A 
ATOM     45  C   UNL     1      -0.640   8.958  13.761  1.00  0.00     0.074 A 
ATOM     46  C   UNL     1      -0.529   4.524  18.304  1.00  0.00     0.029 A 
ATOM     47  N   UNL     1      -0.254   5.668  16.416  1.00  0.00    -0.354 N 
ATOM     48  N   UNL     1      -0.557   7.992  14.643  1.00  0.00    -0.248 NA
ATOM     49  C   UNL     1      -1.490  10.081  14.178  1.00  0.00     0.031 C 
ATOM     50  C   UNL     1      -1.238   5.726  18.406  1.00  0.00     0.029 A 
ATOM     51  C   UNL     1      -1.052   6.448  17.238  1.00  0.00     0.049 A 
ATOM     52  H   UNL     1       0.045   5.921  15.513  1.00  0.00     0.167 HD
ATOM     53  C   UNL     1      -1.318   8.401  15.729  1.00  0.00     0.074 A 
ATOM     54  C   UNL     1      -1.843   9.711  15.400  1.00  0.00     0.031 C 
ATOM     55  C   UNL     1      -1.562   7.750  16.894  1.00  0.00     0.037 A 
BRANCH  42  56
ATOM     56  C   UNL     1       1.020   2.144  17.238  1.00  0.00     0.064 A 
ATOM     57  C   UNL     1       2.254   1.767  17.791  1.00  0.00     0.173 A 
ATOM     58  C   UNL     1      -0.071   1.282  17.424  1.00  0.00     0.173 A 
ATOM     59  F   UNL     1       3.333   2.548  17.630  1.00  0.00    -0.203 F 
ATOM     60  C   UNL     1       2.399   0.557  18.465  1.00  0.00     0.198 A 
ATOM     61  C   UNL     1       0.070   0.088  18.128  1.00  0.00     0.198 A 
ATOM     62  F   UNL     1      -1.275   1.595  16.922  1.00  0.00    -0.203 F 
ATOM     63  F   UNL     1       3.602   0.190  18.927  1.00  0.00    -0.200 F 
ATOM     64  C   UNL     1       1.306  -0.278  18.637  1.00  0.00     0.200 A 
ATOM     65  F   UNL     1      -0.990  -0.713  18.304  1.00  0.00    -0.200 F 
ATOM     66  F   UNL     1       1.447  -1.442  19.286  1.00  0.00    -0.200 F 
ENDBRANCH  42  56
BRANCH  43  67
ATOM     67  C   UNL     1      -0.161  10.292  11.581  1.00  0.00     0.064 A 
ATOM     68  C   UNL     1       0.416  11.508  11.976  1.00  0.00     0.173 A 
ATOM     69  C   UNL     1      -0.897  10.276  10.388  1.00  0.00     0.173 A 
ATOM     70  F   UNL     1       1.112  11.577  13.120  1.00  0.00    -0.203 F 
ATOM     71  C   UNL     1       0.250  12.664  11.218  1.00  0.00     0.198 A 
ATOM     72  C   UNL     1      -1.042  11.428   9.618  1.00  0.00     0.198 A 
ATOM     73  F   UNL     1      -1.466   9.138   9.965  1.00  0.00    -0.203 F 
ATOM     74  F   UNL     1       0.779  13.821  11.639  1.00  0.00    -0.200 F 
ATOM     75  C   UNL     1      -0.474  12.623  10.036  1.00  0.00     0.200 A 
ATOM     76  F   UNL     1      -1.732  11.382   8.470  1.00  0.00    -0.200 F 
ATOM     77  F   UNL     1      -0.631  13.734   9.305  1.00  0.00    -0.200 F 
ENDBRANCH  43  67
BRANCH  55  78
ATOM     78  C   UNL     1      -2.410   8.462  17.907  1.00  0.00     0.064 A 
ATOM     79  C   UNL     1      -3.788   8.640  17.719  1.00  0.00     0.173 A 
ATOM     80  C   UNL     1      -1.839   8.952  19.092  1.00  0.00     0.173 A 
ATOM     81  F   UNL     1      -4.378   8.204  16.596  1.00  0.00    -0.203 F 
ATOM     82  C   UNL     1      -4.558   9.312  18.665  1.00  0.00     0.198 A 
ATOM     83  C   UNL     1      -2.617   9.595  20.049  1.00  0.00     0.198 A 
ATOM     84  F   UNL     1      -0.526   8.801  19.323  1.00  0.00    -0.203 F 
ATOM     85  F   UNL     1      -5.862   9.520  18.438  1.00  0.00    -0.200 F 
ATOM     86  C   UNL     1      -3.973   9.783  19.831  1.00  0.00     0.200 A 
ATOM     87  F   UNL     1      -2.053  10.039  21.181  1.00  0.00    -0.200 F 
ATOM     88  F   UNL     1      -4.717  10.428  20.741  1.00  0.00    -0.200 F 
ENDBRANCH  55  78
ENDBRANCH  29  30
ENDBRANCH  21  24
ENDBRANCH  19  20
ENDBRANCH  18  19
ENDBRANCH  17  18
ENDBRANCH   1  17
TORSDOF 15
