REMARK SMILES C[C@@H]1OCC[C@@H]1C(=O)Nc1ccc(C(=O)NCCCCCCNC(=O)c2ccc(-c3c4nc(c(-c5c(F)c(F)c(F)c(F)c5F)c5ccc([nH]5)c(-c5c(F)c(F)c(F)c(F)c5F)c5nc(c(-c6c(F)c(F)c(F)c(F)c6F)c6ccc3[nH]6)C=C5)C=C4)cc2)cc1F
REMARK SMILES IDX 19 1 18 2 17 3 16 4 14 5 15 6 13 8 10 9 11 10 90 11 12 12
REMARK SMILES IDX 89 13 91 14 9 15 7 16 8 17 6 19 1 20 2 21 3 22 4 23 5 24
REMARK SMILES IDX 20 25 21 26 22 27 23 28 24 29 25 31 26 32 27 33 88 34 28 35
REMARK SMILES IDX 87 36 29 37 30 38 31 39 81 40 32 41 86 42 80 43 82 44 33 45
REMARK SMILES IDX 85 46 79 47 78 48 34 50 66 51 46 52 65 53 47 54 50 55 64 56
REMARK SMILES IDX 83 57 48 58 49 59 63 61 84 62 51 63 35 64 36 65 44 66 37 67
REMARK SMILES IDX 38 68 42 69 45 70 39 71 40 72 43 73 41 74 67 75 68 76 76 77
REMARK SMILES IDX 69 78 70 79 74 80 77 81 71 82 72 83 75 84 73 85 52 86 53 87
REMARK SMILES IDX 61 88 54 89 55 90 59 91 62 92 56 93 57 94 60 95 58 96
REMARK H PARENT 16 7 9 18 23 30 82 49 50 60
REMARK Flexibility Score: inf
ROOT
ATOM      1  C   UNL     1       2.532  -4.461   5.756  1.00  0.00     0.002 C 
ENDROOT
BRANCH   1   2
ATOM      2  C   UNL     1       2.288  -3.272   4.823  1.00  0.00     0.021 C 
BRANCH   2   3
ATOM      3  C   UNL     1       1.503  -2.145   5.513  1.00  0.00     0.116 C 
BRANCH   3   4
ATOM      4  N   UNL     1       2.413  -1.242   6.221  1.00  0.00    -0.352 N 
ATOM      5  C   UNL     1       3.028  -0.049   5.896  1.00  0.00     0.251 C 
ATOM      6  O   UNL     1       3.752   0.484   6.735  1.00  0.00    -0.269 OA
ATOM      7  H   UNL     1       2.634  -1.554   7.128  1.00  0.00     0.163 HD
BRANCH   5   8
ATOM      8  C   UNL     1       2.782   0.657   4.612  1.00  0.00     0.042 A 
ATOM      9  C   UNL     1       1.757   2.051   2.363  1.00  0.00     0.077 A 
ATOM     10  C   UNL     1       2.532   2.718   3.322  1.00  0.00     0.030 A 
ATOM     11  C   UNL     1       1.527   0.709   2.612  1.00  0.00     0.147 A 
ATOM     12  C   UNL     1       2.975   2.040   4.481  1.00  0.00     0.016 A 
ATOM     13  C   UNL     1       2.227  -0.006   3.551  1.00  0.00     0.055 A 
ATOM     14  F   UNL     1       0.483   0.038   2.134  1.00  0.00    -0.205 F 
BRANCH   9  15
ATOM     15  N   UNL     1       1.336   2.756   1.212  1.00  0.00    -0.323 N 
ATOM     16  C   UNL     1       0.634   2.410   0.082  1.00  0.00     0.230 C 
ATOM     17  O   UNL     1       0.574   3.250  -0.822  1.00  0.00    -0.274 OA
ATOM     18  H   UNL     1       1.605   3.704   1.222  1.00  0.00     0.170 HD
BRANCH  16  19
ATOM     19  C   UNL     1      -0.091   1.087  -0.049  1.00  0.00     0.110 C 
ATOM     20  C   UNL     1       1.875   0.078  -1.413  1.00  0.00     0.039 C 
ATOM     21  C   UNL     1       0.746  -0.150  -0.422  1.00  0.00     0.127 C 
ATOM     22  O   UNL     1      -0.178  -1.105  -0.997  1.00  0.00    -0.378 OA
ATOM     23  C   UNL     1      -1.470  -0.485  -1.045  1.00  0.00     0.161 C 
ATOM     24  C   UNL     1      -1.190   1.004  -1.093  1.00  0.00     0.044 C 
ENDBRANCH  16  19
ENDBRANCH   9  15
ENDBRANCH   5   8
ENDBRANCH   3   4
ENDBRANCH   2   3
ENDBRANCH   1   2
BRANCH   1  25
ATOM     25  C   UNL     1       1.256  -5.221   6.140  1.00  0.00     0.002 C 
BRANCH  25  26
ATOM     26  C   UNL     1       0.517  -5.871   4.968  1.00  0.00     0.021 C 
BRANCH  26  27
ATOM     27  C   UNL     1       1.319  -6.950   4.249  1.00  0.00     0.116 C 
BRANCH  27  28
ATOM     28  N   UNL     1       1.639  -8.057   5.138  1.00  0.00    -0.352 N 
ATOM     29  C   UNL     1       1.320  -9.387   5.024  1.00  0.00     0.251 C 
ATOM     30  H   UNL     1       2.161  -7.817   5.937  1.00  0.00     0.163 HD
ATOM     31  O   UNL     1       1.444 -10.138   5.982  1.00  0.00    -0.269 OA
BRANCH  29  32
ATOM     32  C   UNL     1       0.819  -9.906   3.736  1.00  0.00     0.039 A 
ATOM     33  C   UNL     1      -0.252 -10.804   3.736  1.00  0.00     0.014 A 
ATOM     34  C   UNL     1       1.417  -9.519   2.533  1.00  0.00     0.014 A 
ATOM     35  C   UNL     1      -0.757 -11.271   2.522  1.00  0.00     0.010 A 
ATOM     36  C   UNL     1       0.861  -9.921   1.325  1.00  0.00     0.010 A 
ATOM     37  C   UNL     1      -0.224 -10.808   1.308  1.00  0.00    -0.014 A 
BRANCH  37  38
ATOM     38  C   UNL     1      -0.787 -11.242   0.006  1.00  0.00     0.031 A 
ATOM     39  C   UNL     1       0.052 -12.036  -0.953  1.00  0.00     0.074 A 
ATOM     40  C   UNL     1      -2.036 -10.872  -0.332  1.00  0.00     0.049 A 
ATOM     41  N   UNL     1      -0.244 -12.461  -2.155  1.00  0.00    -0.248 NA
ATOM     42  C   UNL     1       1.414 -12.376  -0.514  1.00  0.00     0.031 C 
ATOM     43  C   UNL     1      -2.932 -10.071   0.502  1.00  0.00     0.029 A 
ATOM     44  N   UNL     1      -2.768 -11.120  -1.466  1.00  0.00    -0.354 N 
ATOM     45  C   UNL     1       0.892 -13.113  -2.613  1.00  0.00     0.074 A 
ATOM     46  C   UNL     1       1.906 -12.967  -1.592  1.00  0.00     0.031 C 
ATOM     47  C   UNL     1      -4.106  -9.926  -0.130  1.00  0.00     0.029 A 
ATOM     48  C   UNL     1      -4.032 -10.585  -1.431  1.00  0.00     0.049 A 
ATOM     49  H   UNL     1      -2.420 -11.632  -2.231  1.00  0.00     0.167 HD
ATOM     50  C   UNL     1       1.062 -13.799  -3.768  1.00  0.00     0.037 A 
ATOM     51  C   UNL     1      -5.020 -10.622  -2.345  1.00  0.00     0.037 A 
ATOM     52  C   UNL     1       0.045 -13.945  -4.776  1.00  0.00     0.049 A 
ATOM     53  C   UNL     1      -4.796 -11.351  -3.640  1.00  0.00     0.074 A 
ATOM     54  C   UNL     1       0.106 -14.649  -5.965  1.00  0.00     0.029 A 
ATOM     55  N   UNL     1      -1.217 -13.369  -4.715  1.00  0.00    -0.354 N 
ATOM     56  N   UNL     1      -3.735 -12.007  -4.045  1.00  0.00    -0.248 NA
ATOM     57  C   UNL     1      -5.904 -11.347  -4.604  1.00  0.00     0.031 C 
ATOM     58  C   UNL     1      -1.097 -14.453  -6.650  1.00  0.00     0.029 A 
ATOM     59  C   UNL     1      -1.934 -13.680  -5.860  1.00  0.00     0.049 A 
ATOM     60  H   UNL     1      -1.552 -12.821  -3.970  1.00  0.00     0.167 HD
ATOM     61  C   UNL     1      -4.053 -12.513  -5.298  1.00  0.00     0.074 A 
ATOM     62  C   UNL     1      -5.411 -12.096  -5.582  1.00  0.00     0.031 C 
ATOM     63  C   UNL     1      -3.287 -13.258  -6.132  1.00  0.00     0.037 A 
BRANCH  50  64
ATOM     64  C   UNL     1       2.397 -14.450  -3.997  1.00  0.00     0.064 A 
ATOM     65  C   UNL     1       3.241 -14.012  -5.029  1.00  0.00     0.173 A 
ATOM     66  C   UNL     1       2.831 -15.531  -3.213  1.00  0.00     0.173 A 
ATOM     67  F   UNL     1       2.875 -12.988  -5.814  1.00  0.00    -0.203 F 
ATOM     68  C   UNL     1       4.465 -14.632  -5.267  1.00  0.00     0.198 A 
ATOM     69  C   UNL     1       4.072 -16.125  -3.431  1.00  0.00     0.198 A 
ATOM     70  F   UNL     1       2.069 -15.985  -2.206  1.00  0.00    -0.203 F 
ATOM     71  F   UNL     1       5.242 -14.212  -6.276  1.00  0.00    -0.200 F 
ATOM     72  C   UNL     1       4.884 -15.681  -4.463  1.00  0.00     0.200 A 
ATOM     73  F   UNL     1       4.487 -17.117  -2.631  1.00  0.00    -0.200 F 
ATOM     74  F   UNL     1       6.074 -16.258  -4.677  1.00  0.00    -0.200 F 
ENDBRANCH  50  64
BRANCH  51  75
ATOM     75  C   UNL     1      -6.325  -9.991  -2.023  1.00  0.00     0.064 A 
ATOM     76  C   UNL     1      -6.462  -8.598  -1.923  1.00  0.00     0.173 A 
ATOM     77  C   UNL     1      -7.445 -10.780  -1.733  1.00  0.00     0.173 A 
ATOM     78  F   UNL     1      -5.416  -7.800  -2.182  1.00  0.00    -0.203 F 
ATOM     79  C   UNL     1      -7.662  -8.022  -1.512  1.00  0.00     0.198 A 
ATOM     80  C   UNL     1      -8.652 -10.202  -1.347  1.00  0.00     0.198 A 
ATOM     81  F   UNL     1      -7.367 -12.115  -1.833  1.00  0.00    -0.203 F 
ATOM     82  F   UNL     1      -7.752  -6.692  -1.375  1.00  0.00    -0.200 F 
ATOM     83  C   UNL     1      -8.756  -8.824  -1.225  1.00  0.00     0.200 A 
ATOM     84  F   UNL     1      -9.713 -10.979  -1.088  1.00  0.00    -0.200 F 
ATOM     85  F   UNL     1      -9.909  -8.270  -0.826  1.00  0.00    -0.200 F 
ENDBRANCH  51  75
BRANCH  63  86
ATOM     86  C   UNL     1      -3.893 -13.697  -7.434  1.00  0.00     0.064 A 
ATOM     87  C   UNL     1      -4.171 -15.053  -7.665  1.00  0.00     0.173 A 
ATOM     88  C   UNL     1      -4.114 -12.794  -8.484  1.00  0.00     0.173 A 
ATOM     89  F   UNL     1      -3.971 -15.960  -6.696  1.00  0.00    -0.203 F 
ATOM     90  C   UNL     1      -4.625 -15.492  -8.906  1.00  0.00     0.198 A 
ATOM     91  C   UNL     1      -4.598 -13.232  -9.714  1.00  0.00     0.198 A 
ATOM     92  F   UNL     1      -3.877 -11.485  -8.310  1.00  0.00    -0.203 F 
ATOM     93  F   UNL     1      -4.840 -16.798  -9.116  1.00  0.00    -0.200 F 
ATOM     94  C   UNL     1      -4.841 -14.581  -9.928  1.00  0.00     0.200 A 
ATOM     95  F   UNL     1      -4.830 -12.347 -10.694  1.00  0.00    -0.200 F 
ATOM     96  F   UNL     1      -5.284 -15.002 -11.120  1.00  0.00    -0.200 F 
ENDBRANCH  63  86
ENDBRANCH  37  38
ENDBRANCH  29  32
ENDBRANCH  27  28
ENDBRANCH  26  27
ENDBRANCH  25  26
ENDBRANCH   1  25
TORSDOF 15
