REMARK SMILES CCOc1cc(C(=O)NCCCCCCNC(=O)c2ccc(-c3c4nc(c(-c5c(F)c(F)c(F)c(F)c5F)c5ccc([nH]5)c(-c5c(F)c(F)c(F)c(F)c5F)c5nc(c(-c6c(F)c(F)c(F)c(F)c6F)c6ccc3[nH]6)C=C5)C=C4)cc2)c(NC(=O)c2ccccc2OC)cc1OC
REMARK SMILES IDX 12 1 11 2 10 3 9 4 7 5 8 6 6 8 4 9 5 10 95 11 94 12 82 13
REMARK SMILES IDX 3 14 2 15 1 16 96 17 97 18 83 19 84 20 85 22 86 23 87 24
REMARK SMILES IDX 91 25 88 26 90 27 89 28 92 29 93 30 13 31 14 32 15 33 16 34
REMARK SMILES IDX 17 35 18 37 19 38 20 39 81 40 21 41 80 42 22 43 23 44 24 45
REMARK SMILES IDX 74 46 25 47 79 48 73 49 75 50 26 51 78 52 72 53 71 54 27 56
REMARK SMILES IDX 59 57 39 58 58 59 40 60 43 61 57 62 76 63 41 64 42 65 56 67
REMARK SMILES IDX 77 68 44 69 28 70 29 71 37 72 30 73 31 74 35 75 38 76 32 77
REMARK SMILES IDX 33 78 36 79 34 80 60 81 61 82 69 83 62 84 63 85 67 86 70 87
REMARK SMILES IDX 64 88 65 89 68 90 66 91 45 92 46 93 54 94 47 95 48 96 52 97
REMARK SMILES IDX 55 98 49 99 50 100 53 101 51 102
REMARK H PARENT 9 7 83 21 16 36 75 55 43 66
REMARK Flexibility Score: inf
ROOT
ATOM      1  C   UNL     1       8.246  -5.087   5.362  1.00  0.00     0.002 C 
ENDROOT
BRANCH   1   2
ATOM      2  C   UNL     1       7.369  -3.828   5.370  1.00  0.00     0.021 C 
BRANCH   2   3
ATOM      3  C   UNL     1       6.503  -3.612   4.131  1.00  0.00     0.116 C 
BRANCH   3   4
ATOM      4  N   UNL     1       5.491  -4.634   3.923  1.00  0.00    -0.352 N 
ATOM      5  C   UNL     1       4.428  -4.663   3.043  1.00  0.00     0.253 C 
ATOM      6  O   UNL     1       3.606  -5.573   3.145  1.00  0.00    -0.269 OA
ATOM      7  H   UNL     1       5.577  -5.428   4.499  1.00  0.00     0.163 HD
BRANCH   5   8
ATOM      8  C   UNL     1       4.188  -3.567   2.061  1.00  0.00     0.067 A 
ATOM      9  C   UNL     1       2.539  -1.929   1.335  1.00  0.00     0.162 A 
ATOM     10  C   UNL     1       2.848  -3.153   1.929  1.00  0.00     0.066 A 
ATOM     11  C   UNL     1       3.565  -1.046   1.009  1.00  0.00     0.162 A 
ATOM     12  C   UNL     1       4.876  -1.531   0.990  1.00  0.00     0.077 A 
ATOM     13  C   UNL     1       5.180  -2.842   1.394  1.00  0.00     0.058 A 
BRANCH   9  14
ATOM     14  O   UNL     1       1.223  -1.600   1.159  1.00  0.00    -0.490 OA
BRANCH  14  15
ATOM     15  C   UNL     1       0.765  -1.971  -0.152  1.00  0.00     0.226 C 
ATOM     16  C   UNL     1       0.072  -0.780  -0.798  1.00  0.00     0.049 C 
ENDBRANCH  14  15
ENDBRANCH   9  14
BRANCH  11  17
ATOM     17  O   UNL     1       3.428   0.257   0.621  1.00  0.00    -0.493 OA
ATOM     18  C   UNL     1       2.361   0.993   1.220  1.00  0.00     0.278 C 
ENDBRANCH  11  17
BRANCH  13  19
ATOM     19  N   UNL     1       6.466  -3.294   1.026  1.00  0.00    -0.321 N 
ATOM     20  C   UNL     1       6.988  -4.552   0.807  1.00  0.00     0.259 C 
ATOM     21  H   UNL     1       7.119  -2.567   0.901  1.00  0.00     0.170 HD
ATOM     22  O   UNL     1       8.201  -4.655   0.616  1.00  0.00    -0.269 OA
BRANCH  20  23
ATOM     23  C   UNL     1       6.166  -5.778   0.754  1.00  0.00     0.082 A 
ATOM     24  C   UNL     1       6.543  -6.791   1.660  1.00  0.00     0.018 A 
ATOM     25  C   UNL     1       5.077  -5.990  -0.098  1.00  0.00     0.131 A 
ATOM     26  C   UNL     1       5.783  -7.947   1.814  1.00  0.00     0.001 A 
ATOM     27  C   UNL     1       4.323  -7.165   0.065  1.00  0.00     0.047 A 
ATOM     28  C   UNL     1       4.659  -8.127   1.022  1.00  0.00     0.004 A 
BRANCH  25  29
ATOM     29  O   UNL     1       4.584  -5.172  -1.076  1.00  0.00    -0.496 OA
ATOM     30  C   UNL     1       5.495  -4.357  -1.801  1.00  0.00     0.278 C 
ENDBRANCH  25  29
ENDBRANCH  20  23
ENDBRANCH  13  19
ENDBRANCH   5   8
ENDBRANCH   3   4
ENDBRANCH   2   3
ENDBRANCH   1   2
BRANCH   1  31
ATOM     31  C   UNL     1       9.209  -5.271   4.186  1.00  0.00     0.002 C 
BRANCH  31  32
ATOM     32  C   UNL     1      10.181  -4.140   3.870  1.00  0.00     0.021 C 
BRANCH  32  33
ATOM     33  C   UNL     1      10.990  -3.612   5.040  1.00  0.00     0.116 C 
BRANCH  33  34
ATOM     34  N   UNL     1      11.767  -4.625   5.728  1.00  0.00    -0.352 N 
ATOM     35  C   UNL     1      13.020  -4.522   6.294  1.00  0.00     0.251 C 
ATOM     36  H   UNL     1      11.341  -5.510   5.802  1.00  0.00     0.163 HD
ATOM     37  O   UNL     1      13.558  -5.494   6.792  1.00  0.00    -0.269 OA
BRANCH  35  38
ATOM     38  C   UNL     1      13.733  -3.222   6.249  1.00  0.00     0.039 A 
ATOM     39  C   UNL     1      15.078  -3.213   5.872  1.00  0.00     0.014 A 
ATOM     40  C   UNL     1      13.080  -2.024   6.547  1.00  0.00     0.014 A 
ATOM     41  C   UNL     1      15.749  -1.997   5.728  1.00  0.00     0.010 A 
ATOM     42  C   UNL     1      13.722  -0.811   6.317  1.00  0.00     0.010 A 
ATOM     43  C   UNL     1      15.064  -0.785   5.912  1.00  0.00    -0.014 A 
BRANCH  43  44
ATOM     44  C   UNL     1      15.737   0.521   5.700  1.00  0.00     0.031 A 
ATOM     45  C   UNL     1      15.908   1.473   6.851  1.00  0.00     0.074 A 
ATOM     46  C   UNL     1      16.134   0.877   4.464  1.00  0.00     0.049 A 
ATOM     47  N   UNL     1      16.408   2.683   6.860  1.00  0.00    -0.248 NA
ATOM     48  C   UNL     1      15.422   1.015   8.162  1.00  0.00     0.031 C 
ATOM     49  C   UNL     1      15.979   0.061   3.259  1.00  0.00     0.029 A 
ATOM     50  N   UNL     1      16.742   2.022   4.014  1.00  0.00    -0.354 N 
ATOM     51  C   UNL     1      16.280   3.133   8.167  1.00  0.00     0.074 A 
ATOM     52  C   UNL     1      15.601   2.094   8.909  1.00  0.00     0.031 C 
ATOM     53  C   UNL     1      16.504   0.718   2.212  1.00  0.00     0.029 A 
ATOM     54  C   UNL     1      16.996   2.016   2.664  1.00  0.00     0.049 A 
ATOM     55  H   UNL     1      16.973   2.776   4.602  1.00  0.00     0.167 HD
ATOM     56  C   UNL     1      16.713   4.298   8.706  1.00  0.00     0.037 A 
ATOM     57  C   UNL     1      17.560   2.955   1.880  1.00  0.00     0.037 A 
ATOM     58  C   UNL     1      17.410   5.318   7.968  1.00  0.00     0.049 A 
ATOM     59  C   UNL     1      18.026   4.245   2.500  1.00  0.00     0.074 A 
ATOM     60  C   UNL     1      17.949   6.504   8.432  1.00  0.00     0.029 A 
ATOM     61  N   UNL     1      17.660   5.272   6.603  1.00  0.00    -0.354 N 
ATOM     62  N   UNL     1      17.967   4.631   3.751  1.00  0.00    -0.248 NA
ATOM     63  C   UNL     1      18.643   5.227   1.598  1.00  0.00     0.031 C 
ATOM     64  C   UNL     1      18.479   7.201   7.341  1.00  0.00     0.029 A 
ATOM     65  C   UNL     1      18.321   6.423   6.205  1.00  0.00     0.049 A 
ATOM     66  H   UNL     1      17.405   4.532   6.007  1.00  0.00     0.167 HD
ATOM     67  C   UNL     1      18.563   5.884   3.794  1.00  0.00     0.074 A 
ATOM     68  C   UNL     1      18.989   6.188   2.443  1.00  0.00     0.031 C 
ATOM     69  C   UNL     1      18.742   6.708   4.856  1.00  0.00     0.037 A 
BRANCH  56  70
ATOM     70  C   UNL     1      16.438   4.529  10.165  1.00  0.00     0.064 A 
ATOM     71  C   UNL     1      17.067   3.770  11.165  1.00  0.00     0.173 A 
ATOM     72  C   UNL     1      15.544   5.531  10.571  1.00  0.00     0.173 A 
ATOM     73  F   UNL     1      17.922   2.791  10.832  1.00  0.00    -0.203 F 
ATOM     74  C   UNL     1      16.781   3.978  12.512  1.00  0.00     0.198 A 
ATOM     75  C   UNL     1      15.286   5.760  11.920  1.00  0.00     0.198 A 
ATOM     76  F   UNL     1      14.919   6.291   9.659  1.00  0.00    -0.203 F 
ATOM     77  F   UNL     1      17.346   3.198  13.443  1.00  0.00    -0.200 F 
ATOM     78  C   UNL     1      15.896   4.976  12.889  1.00  0.00     0.200 A 
ATOM     79  F   UNL     1      14.441   6.734  12.284  1.00  0.00    -0.200 F 
ATOM     80  F   UNL     1      15.622   5.177  14.185  1.00  0.00    -0.200 F 
ENDBRANCH  56  70
BRANCH  57  81
ATOM     81  C   UNL     1      17.745   2.693   0.429  1.00  0.00     0.064 A 
ATOM     82  C   UNL     1      19.025   2.496  -0.107  1.00  0.00     0.173 A 
ATOM     83  C   UNL     1      16.653   2.626  -0.449  1.00  0.00     0.173 A 
ATOM     84  F   UNL     1      20.102   2.572   0.689  1.00  0.00    -0.203 F 
ATOM     85  C   UNL     1      19.208   2.257  -1.468  1.00  0.00     0.198 A 
ATOM     86  C   UNL     1      16.835   2.359  -1.804  1.00  0.00     0.198 A 
ATOM     87  F   UNL     1      15.407   2.804   0.014  1.00  0.00    -0.203 F 
ATOM     88  F   UNL     1      20.446   2.114  -1.960  1.00  0.00    -0.200 F 
ATOM     89  C   UNL     1      18.113   2.182  -2.314  1.00  0.00     0.200 A 
ATOM     90  F   UNL     1      15.773   2.274  -2.617  1.00  0.00    -0.200 F 
ATOM     91  F   UNL     1      18.288   1.946  -3.621  1.00  0.00    -0.200 F 
ENDBRANCH  57  81
BRANCH  69  92
ATOM     92  C   UNL     1      19.459   8.004   4.608  1.00  0.00     0.064 A 
ATOM     93  C   UNL     1      18.860   9.055   3.898  1.00  0.00     0.173 A 
ATOM     94  C   UNL     1      20.747   8.211   5.125  1.00  0.00     0.173 A 
ATOM     95  F   UNL     1      17.637   8.902   3.370  1.00  0.00    -0.203 F 
ATOM     96  C   UNL     1      19.535  10.255   3.693  1.00  0.00     0.198 A 
ATOM     97  C   UNL     1      21.406   9.424   4.946  1.00  0.00     0.198 A 
ATOM     98  F   UNL     1      21.362   7.240   5.818  1.00  0.00    -0.203 F 
ATOM     99  F   UNL     1      18.963  11.228   2.969  1.00  0.00    -0.200 F 
ATOM    100  C   UNL     1      20.803  10.442   4.224  1.00  0.00     0.200 A 
ATOM    101  F   UNL     1      22.624   9.607   5.474  1.00  0.00    -0.200 F 
ATOM    102  F   UNL     1      21.447  11.602   4.033  1.00  0.00    -0.200 F 
ENDBRANCH  69  92
ENDBRANCH  43  44
ENDBRANCH  35  38
ENDBRANCH  33  34
ENDBRANCH  32  33
ENDBRANCH  31  32
ENDBRANCH   1  31
TORSDOF 19
