REMARK SMILES CC1(C)Cc2c(-c3ccccc3)c(-c3ccc(Cl)cc3)c(CC(=O)NCCCCCCNC(=O)c3ccc(-c4c5nc(c(-c6c(F)c(F)c(F)c(F)c6F)c6ccc([nH]6)c(-c6c(F)c(F)c(F)c(F)c6F)c6nc(c(-c7c(F)c(F)c(F)c(F)c7F)c7ccc4[nH]7)C=C6)C=C5)cc3)n2C1
REMARK SMILES IDX 28 1 27 2 26 3 25 4 23 5 24 6 22 8 21 9 1 10 2 11 3 12 4 13
REMARK SMILES IDX 99 14 5 15 98 16 6 17 13 18 7 19 8 20 12 21 9 22 11 23 10 24
REMARK SMILES IDX 14 25 15 26 20 27 16 28 19 29 17 30 18 31 29 32 30 33 31 34
REMARK SMILES IDX 32 35 33 36 34 38 35 39 36 40 97 41 37 42 96 43 38 44 39 45
REMARK SMILES IDX 40 46 90 47 41 48 95 49 89 50 91 51 42 52 94 53 88 54 87 55
REMARK SMILES IDX 43 57 75 58 55 59 74 60 56 61 59 62 73 63 92 64 57 65 58 66
REMARK SMILES IDX 72 68 93 69 60 70 44 71 45 72 53 73 46 74 47 75 51 76 54 77
REMARK SMILES IDX 48 78 49 79 52 80 50 81 76 82 77 83 85 84 78 85 79 86 83 87
REMARK SMILES IDX 86 88 80 89 81 90 84 91 82 92 61 93 62 94 70 95 63 96 64 97
REMARK SMILES IDX 68 98 71 99 65 100 66 101 69 102 67 103
REMARK H PARENT 25 7 32 37 91 56 59 67
REMARK Flexibility Score: inf
ROOT
ATOM      1  C   UNL     1      -2.290  -3.869  -5.308  1.00  0.00     0.002 C 
ENDROOT
BRANCH   1   2
ATOM      2  C   UNL     1      -1.831  -3.441  -3.913  1.00  0.00     0.021 C 
BRANCH   2   3
ATOM      3  C   UNL     1      -2.930  -2.819  -3.056  1.00  0.00     0.116 C 
BRANCH   3   4
ATOM      4  N   UNL     1      -3.902  -3.786  -2.607  1.00  0.00    -0.356 N 
ATOM      5  C   UNL     1      -4.159  -4.212  -1.335  1.00  0.00     0.225 C 
ATOM      6  O   UNL     1      -5.104  -4.988  -1.175  1.00  0.00    -0.275 OA
ATOM      7  H   UNL     1      -4.454  -4.194  -3.313  1.00  0.00     0.163 HD
BRANCH   5   8
ATOM      8  C   UNL     1      -3.356  -3.680  -0.155  1.00  0.00     0.154 C 
BRANCH   8   9
ATOM      9  C   UNL     1      -1.887  -3.977  -0.242  1.00  0.00     0.036 A 
ATOM     10  C   UNL     1       1.030   0.044   0.282  1.00  0.00     0.013 C 
ATOM     11  C   UNL     1       0.519  -1.171  -0.494  1.00  0.00    -0.012 C 
ATOM     12  C   UNL     1       0.581  -0.855  -2.001  1.00  0.00     0.013 C 
ATOM     13  C   UNL     1       1.359  -2.455  -0.190  1.00  0.00     0.063 C 
ATOM     14  C   UNL     1      -0.927  -1.551  -0.057  1.00  0.00     0.129 C 
ATOM     15  C   UNL     1       0.331  -3.521  -0.246  1.00  0.00     0.027 A 
ATOM     16  N   UNL     1      -0.930  -3.005  -0.174  1.00  0.00    -0.346 N 
ATOM     17  C   UNL     1       0.224  -4.881  -0.352  1.00  0.00     0.011 A 
ATOM     18  C   UNL     1      -1.185  -5.182  -0.335  1.00  0.00     0.011 A 
BRANCH  17  19
ATOM     19  C   UNL     1       1.326  -5.814  -0.419  1.00  0.00    -0.016 A 
ATOM     20  C   UNL     1       2.157  -5.999   0.688  1.00  0.00     0.009 A 
ATOM     21  C   UNL     1       1.450  -6.656  -1.532  1.00  0.00     0.009 A 
ATOM     22  C   UNL     1       3.070  -7.053   0.699  1.00  0.00     0.001 A 
ATOM     23  C   UNL     1       2.377  -7.697  -1.525  1.00  0.00     0.001 A 
ATOM     24  C   UNL     1       3.173  -7.906  -0.402  1.00  0.00     0.000 A 
ENDBRANCH  17  19
BRANCH  18  25
ATOM     25  C   UNL     1      -1.769  -6.517  -0.358  1.00  0.00    -0.016 A 
ATOM     26  C   UNL     1      -1.489  -7.409   0.687  1.00  0.00     0.010 A 
ATOM     27  C   UNL     1      -2.473  -6.977  -1.475  1.00  0.00     0.010 A 
ATOM     28  C   UNL     1      -1.910  -8.740   0.617  1.00  0.00     0.021 A 
ATOM     29  C   UNL     1      -2.916  -8.302  -1.537  1.00  0.00     0.021 A 
ATOM     30  C   UNL     1      -2.626  -9.179  -0.494  1.00  0.00     0.041 A 
ATOM     31  Cl  UNL     1      -3.128 -10.821  -0.594  1.00  0.00    -0.084 Cl
ENDBRANCH  18  25
ENDBRANCH   8   9
ENDBRANCH   5   8
ENDBRANCH   3   4
ENDBRANCH   2   3
ENDBRANCH   1   2
BRANCH   1  32
ATOM     32  C   UNL     1      -3.075  -2.811  -6.104  1.00  0.00     0.002 C 
BRANCH  32  33
ATOM     33  C   UNL     1      -2.443  -1.413  -6.213  1.00  0.00     0.021 C 
BRANCH  33  34
ATOM     34  C   UNL     1      -1.153  -1.391  -7.006  1.00  0.00     0.116 C 
BRANCH  34  35
ATOM     35  N   UNL     1      -1.344  -1.695  -8.432  1.00  0.00    -0.352 N 
ATOM     36  C   UNL     1      -0.388  -1.740  -9.433  1.00  0.00     0.251 C 
ATOM     37  H   UNL     1      -2.268  -1.892  -8.710  1.00  0.00     0.163 HD
ATOM     38  O   UNL     1      -0.695  -1.657 -10.623  1.00  0.00    -0.269 OA
BRANCH  36  39
ATOM     39  C   UNL     1       1.016  -1.915  -9.037  1.00  0.00     0.039 A 
ATOM     40  C   UNL     1       2.094  -1.268  -9.646  1.00  0.00     0.014 A 
ATOM     41  C   UNL     1       1.213  -2.724  -7.930  1.00  0.00     0.014 A 
ATOM     42  C   UNL     1       3.358  -1.435  -9.082  1.00  0.00     0.010 A 
ATOM     43  C   UNL     1       2.338  -2.559  -7.193  1.00  0.00     0.010 A 
ATOM     44  C   UNL     1       3.459  -2.095  -7.846  1.00  0.00    -0.014 A 
BRANCH  44  45
ATOM     45  C   UNL     1       4.707  -2.313  -7.137  1.00  0.00     0.031 A 
ATOM     46  C   UNL     1       5.415  -1.060  -6.803  1.00  0.00     0.074 A 
ATOM     47  C   UNL     1       5.030  -3.525  -6.622  1.00  0.00     0.049 A 
ATOM     48  N   UNL     1       6.501  -0.608  -7.331  1.00  0.00    -0.248 NA
ATOM     49  C   UNL     1       4.747  -0.106  -5.904  1.00  0.00     0.031 C 
ATOM     50  C   UNL     1       4.226  -4.764  -6.602  1.00  0.00     0.029 A 
ATOM     51  N   UNL     1       6.142  -3.897  -5.929  1.00  0.00    -0.354 N 
ATOM     52  C   UNL     1       6.778   0.579  -6.659  1.00  0.00     0.074 A 
ATOM     53  C   UNL     1       5.572   0.941  -5.966  1.00  0.00     0.031 C 
ATOM     54  C   UNL     1       4.777  -5.667  -5.760  1.00  0.00     0.029 A 
ATOM     55  C   UNL     1       6.065  -5.157  -5.340  1.00  0.00     0.049 A 
ATOM     56  H   UNL     1       6.936  -3.321  -5.851  1.00  0.00     0.167 HD
ATOM     57  C   UNL     1       8.069   0.977  -6.483  1.00  0.00     0.037 A 
ATOM     58  C   UNL     1       7.017  -5.751  -4.580  1.00  0.00     0.037 A 
ATOM     59  C   UNL     1       8.948   0.204  -7.326  1.00  0.00     0.049 A 
ATOM     60  C   UNL     1       8.289  -5.058  -4.863  1.00  0.00     0.074 A 
ATOM     61  C   UNL     1       9.255   0.150  -8.668  1.00  0.00     0.029 A 
ATOM     62  N   UNL     1       9.330  -0.990  -6.771  1.00  0.00    -0.354 N 
ATOM     63  N   UNL     1       8.893  -5.128  -6.014  1.00  0.00    -0.248 NA
ATOM     64  C   UNL     1       8.702  -3.959  -3.999  1.00  0.00     0.031 C 
ATOM     65  C   UNL     1       9.620  -1.206  -8.933  1.00  0.00     0.029 A 
ATOM     66  C   UNL     1       9.577  -1.924  -7.739  1.00  0.00     0.049 A 
ATOM     67  H   UNL     1       9.415  -1.154  -5.804  1.00  0.00     0.167 HD
ATOM     68  C   UNL     1       9.434  -3.869  -6.191  1.00  0.00     0.074 A 
ATOM     69  C   UNL     1       9.436  -3.258  -4.867  1.00  0.00     0.031 C 
ATOM     70  C   UNL     1       9.530  -3.336  -7.442  1.00  0.00     0.037 A 
BRANCH  57  71
ATOM     71  C   UNL     1       8.601   1.653  -5.235  1.00  0.00     0.064 A 
ATOM     72  C   UNL     1       9.946   2.081  -5.218  1.00  0.00     0.173 A 
ATOM     73  C   UNL     1       7.968   1.607  -3.973  1.00  0.00     0.173 A 
ATOM     74  F   UNL     1      10.654   2.149  -6.355  1.00  0.00    -0.203 F 
ATOM     75  C   UNL     1      10.620   2.362  -4.024  1.00  0.00     0.198 A 
ATOM     76  C   UNL     1       8.629   1.936  -2.790  1.00  0.00     0.198 A 
ATOM     77  F   UNL     1       6.729   1.134  -3.808  1.00  0.00    -0.203 F 
ATOM     78  F   UNL     1      11.929   2.646  -4.049  1.00  0.00    -0.200 F 
ATOM     79  C   UNL     1       9.962   2.282  -2.811  1.00  0.00     0.200 A 
ATOM     80  F   UNL     1       7.978   1.830  -1.623  1.00  0.00    -0.200 F 
ATOM     81  F   UNL     1      10.619   2.491  -1.663  1.00  0.00    -0.200 F 
ENDBRANCH  57  71
BRANCH  58  82
ATOM     82  C   UNL     1       6.823  -6.483  -3.311  1.00  0.00     0.064 A 
ATOM     83  C   UNL     1       7.723  -7.469  -2.878  1.00  0.00     0.173 A 
ATOM     84  C   UNL     1       5.969  -5.929  -2.342  1.00  0.00     0.173 A 
ATOM     85  F   UNL     1       8.627  -7.974  -3.731  1.00  0.00    -0.203 F 
ATOM     86  C   UNL     1       7.768  -7.878  -1.540  1.00  0.00     0.198 A 
ATOM     87  C   UNL     1       6.061  -6.292  -1.002  1.00  0.00     0.198 A 
ATOM     88  F   UNL     1       5.137  -4.928  -2.665  1.00  0.00    -0.203 F 
ATOM     89  F   UNL     1       8.670  -8.786  -1.144  1.00  0.00    -0.200 F 
ATOM     90  C   UNL     1       6.944  -7.279  -0.601  1.00  0.00     0.200 A 
ATOM     91  F   UNL     1       5.366  -5.608  -0.084  1.00  0.00    -0.200 F 
ATOM     92  F   UNL     1       7.038  -7.609   0.695  1.00  0.00    -0.200 F 
ENDBRANCH  58  82
BRANCH  70  93
ATOM     93  C   UNL     1       9.418  -4.296  -8.588  1.00  0.00     0.064 A 
ATOM     94  C   UNL     1       8.225  -4.920  -8.988  1.00  0.00     0.173 A 
ATOM     95  C   UNL     1      10.562  -4.541  -9.352  1.00  0.00     0.173 A 
ATOM     96  F   UNL     1       7.076  -4.677  -8.350  1.00  0.00    -0.203 F 
ATOM     97  C   UNL     1       8.190  -5.780 -10.084  1.00  0.00     0.198 A 
ATOM     98  C   UNL     1      10.520  -5.374 -10.465  1.00  0.00     0.198 A 
ATOM     99  F   UNL     1      11.719  -3.939  -9.035  1.00  0.00    -0.203 F 
ATOM    100  F   UNL     1       7.040  -6.376 -10.437  1.00  0.00    -0.200 F 
ATOM    101  C   UNL     1       9.337  -6.001 -10.825  1.00  0.00     0.200 A 
ATOM    102  F   UNL     1      11.625  -5.554 -11.201  1.00  0.00    -0.200 F 
ATOM    103  F   UNL     1       9.301  -6.801 -11.900  1.00  0.00    -0.200 F 
ENDBRANCH  70  93
ENDBRANCH  44  45
ENDBRANCH  36  39
ENDBRANCH  34  35
ENDBRANCH  33  34
ENDBRANCH  32  33
ENDBRANCH   1  32
TORSDOF 16
