REMARK SMILES Cc1ccc([C@H]2CC(c3cccs3)=NN2C(=O)CCC(=O)NCCCCCCNC(=O)c2ccc(-c3c4nc(c(-c5c(F)c(F)c(F)c(F)c5F)c5ccc([nH]5)c(-c5c(F)c(F)c(F)c(F)c5F)c5nc(c(-c6c(F)c(F)c(F)c(F)c6F)c6ccc3[nH]6)C=C5)C=C4)cc2)o1
REMARK SMILES IDX 24 1 23 2 22 3 20 4 21 5 19 7 18 8 16 9 17 10 15 11 6 12
REMARK SMILES IDX 7 13 8 14 14 15 5 16 1 17 2 18 3 19 95 20 4 21 9 22 10 23
REMARK SMILES IDX 13 24 11 25 12 26 25 27 26 28 27 29 28 30 29 31 30 32 31 34
REMARK SMILES IDX 32 35 33 36 94 37 34 38 93 39 35 40 36 41 37 42 87 43 38 44
REMARK SMILES IDX 92 45 86 46 88 47 39 48 91 49 85 50 84 51 40 53 72 54 52 55
REMARK SMILES IDX 71 56 53 57 56 58 70 59 89 60 54 61 55 62 69 64 90 65 57 66
REMARK SMILES IDX 41 67 42 68 50 69 43 70 44 71 48 72 51 73 45 74 46 75 49 76
REMARK SMILES IDX 47 77 73 78 74 79 82 80 75 81 76 82 80 83 83 84 77 85 78 86
REMARK SMILES IDX 81 87 79 88 58 89 59 90 67 91 60 92 61 93 65 94 68 95 62 96
REMARK SMILES IDX 63 97 66 98 64 99
REMARK H PARENT 22 6 29 33 88 52 56 63
REMARK Flexibility Score: inf
ROOT
ATOM      1  C   UNL     1      -5.492   1.587   2.367  1.00  0.00     0.021 C 
ENDROOT
BRANCH   1   2
ATOM      2  C   UNL     1      -4.778   0.322   2.841  1.00  0.00     0.116 C 
BRANCH   2   3
ATOM      3  N   UNL     1      -3.662  -0.167   2.055  1.00  0.00    -0.356 N 
ATOM      4  C   UNL     1      -2.326   0.006   2.226  1.00  0.00     0.220 C 
ATOM      5  O   UNL     1      -1.562  -0.821   1.728  1.00  0.00    -0.275 OA
ATOM      6  H   UNL     1      -3.913  -0.711   1.274  1.00  0.00     0.163 HD
BRANCH   4   7
ATOM      7  C   UNL     1      -1.794   1.217   2.954  1.00  0.00     0.110 C 
BRANCH   7   8
ATOM      8  C   UNL     1      -1.106   2.166   1.966  1.00  0.00     0.112 C 
BRANCH   8   9
ATOM      9  C   UNL     1      -2.125   2.644   0.957  1.00  0.00     0.243 C 
ATOM     10  O   UNL     1      -2.983   3.460   1.304  1.00  0.00    -0.273 OA
BRANCH   9  11
ATOM     11  N   UNL     1      -2.116   2.021  -0.279  1.00  0.00    -0.222 N 
ATOM     12  C   UNL     1      -0.995   1.988  -1.220  1.00  0.00     0.183 C 
ATOM     13  C   UNL     1      -1.677   2.065  -2.586  1.00  0.00     0.095 C 
ATOM     14  C   UNL     1      -3.086   1.772  -2.180  1.00  0.00     0.081 C 
ATOM     15  N   UNL     1      -3.312   1.805  -0.908  1.00  0.00    -0.173 NA
BRANCH  12  16
ATOM     16  C   UNL     1      -0.203   0.739  -1.052  1.00  0.00     0.129 A 
ATOM     17  C   UNL     1       3.058  -0.373  -0.121  1.00  0.00     0.087 C 
ATOM     18  C   UNL     1       1.648  -0.328  -0.551  1.00  0.00     0.101 A 
ATOM     19  C   UNL     1       0.699  -1.295  -0.797  1.00  0.00     0.045 A 
ATOM     20  O   UNL     1       1.113   0.910  -0.729  1.00  0.00    -0.464 OA
ATOM     21  C   UNL     1      -0.493  -0.608  -1.127  1.00  0.00     0.048 A 
ENDBRANCH  12  16
BRANCH  14  22
ATOM     22  C   UNL     1      -4.162   1.566  -3.104  1.00  0.00     0.050 A 
ATOM     23  C   UNL     1      -4.788   0.387  -3.452  1.00  0.00     0.022 A 
ATOM     24  S   UNL     1      -4.932   2.928  -3.788  1.00  0.00    -0.142 S 
ATOM     25  C   UNL     1      -5.936   0.614  -4.268  1.00  0.00     0.012 A 
ATOM     26  C   UNL     1      -6.143   1.956  -4.504  1.00  0.00     0.065 A 
ENDBRANCH  14  22
ENDBRANCH   9  11
ENDBRANCH   8   9
ENDBRANCH   7   8
ENDBRANCH   4   7
ENDBRANCH   2   3
ENDBRANCH   1   2
BRANCH   1  27
ATOM     27  C   UNL     1      -5.957   1.706   0.912  1.00  0.00     0.002 C 
BRANCH  27  28
ATOM     28  C   UNL     1      -6.267   0.426   0.134  1.00  0.00     0.002 C 
BRANCH  28  29
ATOM     29  C   UNL     1      -7.678  -0.121   0.325  1.00  0.00     0.021 C 
BRANCH  29  30
ATOM     30  C   UNL     1      -8.758   0.760  -0.287  1.00  0.00     0.116 C 
BRANCH  30  31
ATOM     31  N   UNL     1      -8.653   0.929  -1.734  1.00  0.00    -0.352 N 
ATOM     32  C   UNL     1      -9.619   1.444  -2.572  1.00  0.00     0.251 C 
ATOM     33  H   UNL     1      -7.808   0.646  -2.153  1.00  0.00     0.163 HD
ATOM     34  O   UNL     1      -9.485   1.487  -3.788  1.00  0.00    -0.269 OA
BRANCH  32  35
ATOM     35  C   UNL     1     -10.867   1.898  -1.933  1.00  0.00     0.039 A 
ATOM     36  C   UNL     1     -12.037   1.171  -2.150  1.00  0.00     0.014 A 
ATOM     37  C   UNL     1     -10.796   2.888  -0.951  1.00  0.00     0.014 A 
ATOM     38  C   UNL     1     -13.120   1.368  -1.296  1.00  0.00     0.010 A 
ATOM     39  C   UNL     1     -11.842   3.017  -0.050  1.00  0.00     0.010 A 
ATOM     40  C   UNL     1     -13.005   2.245  -0.204  1.00  0.00    -0.014 A 
BRANCH  40  41
ATOM     41  C   UNL     1     -14.079   2.350   0.810  1.00  0.00     0.031 A 
ATOM     42  C   UNL     1     -14.801   3.653   0.990  1.00  0.00     0.074 A 
ATOM     43  C   UNL     1     -14.339   1.301   1.615  1.00  0.00     0.049 A 
ATOM     44  N   UNL     1     -15.720   3.977   1.862  1.00  0.00    -0.248 NA
ATOM     45  C   UNL     1     -14.408   4.751   0.093  1.00  0.00     0.031 C 
ATOM     46  C   UNL     1     -13.641   0.013   1.581  1.00  0.00     0.029 A 
ATOM     47  N   UNL     1     -15.253   1.153   2.627  1.00  0.00    -0.354 N 
ATOM     48  C   UNL     1     -16.003   5.314   1.625  1.00  0.00     0.074 A 
ATOM     49  C   UNL     1     -15.112   5.761   0.577  1.00  0.00     0.031 C 
ATOM     50  C   UNL     1     -14.170  -0.801   2.509  1.00  0.00     0.029 A 
ATOM     51  C   UNL     1     -15.225  -0.086   3.221  1.00  0.00     0.049 A 
ATOM     52  H   UNL     1     -15.871   1.868   2.903  1.00  0.00     0.167 HD
ATOM     53  C   UNL     1     -16.948   6.090   2.206  1.00  0.00     0.037 A 
ATOM     54  C   UNL     1     -15.973  -0.585   4.223  1.00  0.00     0.037 A 
ATOM     55  C   UNL     1     -17.843   5.628   3.230  1.00  0.00     0.049 A 
ATOM     56  C   UNL     1     -17.042   0.286   4.827  1.00  0.00     0.074 A 
ATOM     57  C   UNL     1     -18.861   6.314   3.866  1.00  0.00     0.029 A 
ATOM     58  N   UNL     1     -17.826   4.346   3.764  1.00  0.00    -0.354 N 
ATOM     59  N   UNL     1     -17.351   1.530   4.546  1.00  0.00    -0.248 NA
ATOM     60  C   UNL     1     -17.876  -0.317   5.875  1.00  0.00     0.031 C 
ATOM     61  C   UNL     1     -19.446   5.454   4.803  1.00  0.00     0.029 A 
ATOM     62  C   UNL     1     -18.817   4.222   4.724  1.00  0.00     0.049 A 
ATOM     63  H   UNL     1     -17.203   3.632   3.500  1.00  0.00     0.167 HD
ATOM     64  C   UNL     1     -18.427   1.850   5.361  1.00  0.00     0.074 A 
ATOM     65  C   UNL     1     -18.730   0.663   6.135  1.00  0.00     0.031 C 
ATOM     66  C   UNL     1     -19.102   3.021   5.466  1.00  0.00     0.037 A 
BRANCH  53  67
ATOM     67  C   UNL     1     -17.062   7.506   1.723  1.00  0.00     0.064 A 
ATOM     68  C   UNL     1     -17.538   7.802   0.435  1.00  0.00     0.173 A 
ATOM     69  C   UNL     1     -16.693   8.579   2.547  1.00  0.00     0.173 A 
ATOM     70  F   UNL     1     -17.888   6.810  -0.399  1.00  0.00    -0.203 F 
ATOM     71  C   UNL     1     -17.605   9.115  -0.022  1.00  0.00     0.198 A 
ATOM     72  C   UNL     1     -16.791   9.893   2.098  1.00  0.00     0.198 A 
ATOM     73  F   UNL     1     -16.234   8.353   3.787  1.00  0.00    -0.203 F 
ATOM     74  F   UNL     1     -18.005   9.366  -1.276  1.00  0.00    -0.200 F 
ATOM     75  C   UNL     1     -17.236  10.160   0.811  1.00  0.00     0.200 A 
ATOM     76  F   UNL     1     -16.443  10.904   2.906  1.00  0.00    -0.200 F 
ATOM     77  F   UNL     1     -17.300  11.424   0.370  1.00  0.00    -0.200 F 
ENDBRANCH  53  67
BRANCH  54  78
ATOM     78  C   UNL     1     -15.771  -1.983   4.686  1.00  0.00     0.064 A 
ATOM     79  C   UNL     1     -16.733  -2.971   4.434  1.00  0.00     0.173 A 
ATOM     80  C   UNL     1     -14.620  -2.362   5.394  1.00  0.00     0.173 A 
ATOM     81  F   UNL     1     -17.858  -2.656   3.776  1.00  0.00    -0.203 F 
ATOM     82  C   UNL     1     -16.565  -4.277   4.891  1.00  0.00     0.198 A 
ATOM     83  C   UNL     1     -14.441  -3.674   5.828  1.00  0.00     0.198 A 
ATOM     84  F   UNL     1     -13.664  -1.458   5.655  1.00  0.00    -0.203 F 
ATOM     85  F   UNL     1     -17.523  -5.189   4.675  1.00  0.00    -0.200 F 
ATOM     86  C   UNL     1     -15.417  -4.629   5.584  1.00  0.00     0.200 A 
ATOM     87  F   UNL     1     -13.323  -4.014   6.485  1.00  0.00    -0.200 F 
ATOM     88  F   UNL     1     -15.255  -5.884   6.023  1.00  0.00    -0.200 F 
ENDBRANCH  54  78
BRANCH  66  89
ATOM     89  C   UNL     1     -20.251   3.061   6.427  1.00  0.00     0.064 A 
ATOM     90  C   UNL     1     -20.046   3.100   7.813  1.00  0.00     0.173 A 
ATOM     91  C   UNL     1     -21.570   3.108   5.952  1.00  0.00     0.173 A 
ATOM     92  F   UNL     1     -18.802   3.041   8.314  1.00  0.00    -0.203 F 
ATOM     93  C   UNL     1     -21.123   3.163   8.692  1.00  0.00     0.198 A 
ATOM     94  C   UNL     1     -22.643   3.199   6.832  1.00  0.00     0.198 A 
ATOM     95  F   UNL     1     -21.815   3.079   4.633  1.00  0.00    -0.203 F 
ATOM     96  F   UNL     1     -20.907   3.158  10.014  1.00  0.00    -0.200 F 
ATOM     97  C   UNL     1     -22.419   3.220   8.201  1.00  0.00     0.200 A 
ATOM     98  F   UNL     1     -23.894   3.265   6.357  1.00  0.00    -0.200 F 
ATOM     99  F   UNL     1     -23.455   3.289   9.049  1.00  0.00    -0.200 F 
ENDBRANCH  66  89
ENDBRANCH  40  41
ENDBRANCH  32  35
ENDBRANCH  30  31
ENDBRANCH  29  30
ENDBRANCH  28  29
ENDBRANCH  27  28
ENDBRANCH   1  27
TORSDOF 18
