REMARK SMILES Cc1ccccc1SCC(=O)N[C@H]1C=C[C@H](C(=O)NCCCCCCNC(=O)c2ccc(-c3c4nc(c(-c5c(F)c(F)c(F)c(F)c5F)c5ccc([nH]5)c(-c5c(F)c(F)c(F)c(F)c5F)c5nc(c(-c6c(F)c(F)c(F)c(F)c6F)c6ccc3[nH]6)C=C5)C=C4)cc2)C1
REMARK SMILES IDX 21 1 20 2 19 3 17 4 18 5 16 7 13 8 14 9 92 10 15 11 12 12
REMARK SMILES IDX 10 13 11 14 9 16 8 17 7 18 1 19 2 20 3 21 4 22 6 23 5 24
REMARK SMILES IDX 22 25 23 26 24 27 25 28 26 29 27 30 28 32 29 33 30 34 91 35
REMARK SMILES IDX 31 36 90 37 32 38 33 39 34 40 84 41 35 42 89 43 83 44 85 45
REMARK SMILES IDX 36 46 88 47 82 48 81 49 37 51 69 52 49 53 68 54 50 55 53 56
REMARK SMILES IDX 67 57 86 58 51 59 52 60 66 62 87 63 54 64 38 65 39 66 47 67
REMARK SMILES IDX 40 68 41 69 45 70 48 71 42 72 43 73 46 74 44 75 70 76 71 77
REMARK SMILES IDX 79 78 72 79 73 80 77 81 80 82 74 83 75 84 78 85 76 86 55 87
REMARK SMILES IDX 56 88 64 89 57 90 58 91 62 92 65 93 59 94 60 95 63 96 61 97
REMARK H PARENT 19 6 12 15 26 31 85 50 53 61
REMARK Flexibility Score: inf
ROOT
ATOM      1  C   UNL     1       1.962  10.104   2.559  1.00  0.00     0.021 C 
ENDROOT
BRANCH   1   2
ATOM      2  C   UNL     1       1.713   8.892   3.456  1.00  0.00     0.116 C 
BRANCH   2   3
ATOM      3  N   UNL     1       0.839   7.926   2.830  1.00  0.00    -0.356 N 
ATOM      4  C   UNL     1       1.064   6.614   2.537  1.00  0.00     0.227 C 
ATOM      5  O   UNL     1       0.140   5.964   2.046  1.00  0.00    -0.274 OA
ATOM      6  H   UNL     1      -0.050   8.265   2.578  1.00  0.00     0.163 HD
BRANCH   4   7
ATOM      7  C   UNL     1       2.423   5.993   2.866  1.00  0.00     0.103 C 
ATOM      8  C   UNL     1       2.200   3.573   2.597  1.00  0.00     0.106 C 
ATOM      9  C   UNL     1       2.207   3.975   4.043  1.00  0.00    -0.006 C 
ATOM     10  C   UNL     1       2.747   4.834   1.919  1.00  0.00     0.047 C 
ATOM     11  C   UNL     1       2.342   5.298   4.193  1.00  0.00    -0.016 C 
BRANCH   8  12
ATOM     12  N   UNL     1       3.051   2.416   2.455  1.00  0.00    -0.349 N 
ATOM     13  C   UNL     1       3.432   1.740   1.341  1.00  0.00     0.230 C 
ATOM     14  O   UNL     1       4.143   0.743   1.512  1.00  0.00    -0.274 OA
ATOM     15  H   UNL     1       3.412   2.060   3.300  1.00  0.00     0.164 HD
BRANCH  13  16
ATOM     16  C   UNL     1       3.164   2.257  -0.054  1.00  0.00     0.174 C 
BRANCH  16  17
ATOM     17  S   UNL     1       1.439   2.425  -0.574  1.00  0.00    -0.116 SA
BRANCH  17  18
ATOM     18  C   UNL     1       0.564   0.898  -0.241  1.00  0.00     0.011 A 
ATOM     19  C   UNL     1       2.417  -0.861  -0.623  1.00  0.00     0.045 C 
ATOM     20  C   UNL     1       1.016  -0.431  -0.307  1.00  0.00    -0.038 A 
ATOM     21  C   UNL     1       0.099  -1.480  -0.057  1.00  0.00     0.004 A 
ATOM     22  C   UNL     1      -1.250  -1.236   0.184  1.00  0.00     0.000 A 
ATOM     23  C   UNL     1      -0.812   1.118   0.000  1.00  0.00     0.015 A 
ATOM     24  C   UNL     1      -1.711   0.069   0.202  1.00  0.00     0.001 A 
ENDBRANCH  17  18
ENDBRANCH  16  17
ENDBRANCH  13  16
ENDBRANCH   8  12
ENDBRANCH   4   7
ENDBRANCH   2   3
ENDBRANCH   1   2
BRANCH   1  25
ATOM     25  C   UNL     1       0.721  10.937   2.208  1.00  0.00     0.002 C 
BRANCH  25  26
ATOM     26  C   UNL     1      -0.186  11.358   3.375  1.00  0.00     0.002 C 
BRANCH  26  27
ATOM     27  C   UNL     1       0.505  11.963   4.600  1.00  0.00     0.021 C 
BRANCH  27  28
ATOM     28  C   UNL     1       1.233  13.271   4.331  1.00  0.00     0.116 C 
BRANCH  28  29
ATOM     29  N   UNL     1       0.558  14.453   4.853  1.00  0.00    -0.352 N 
ATOM     30  C   UNL     1       0.891  15.785   4.669  1.00  0.00     0.251 C 
ATOM     31  H   UNL     1      -0.237  14.282   5.407  1.00  0.00     0.163 HD
ATOM     32  O   UNL     1       0.232  16.674   5.177  1.00  0.00    -0.269 OA
BRANCH  30  33
ATOM     33  C   UNL     1       2.001  16.112   3.740  1.00  0.00     0.039 A 
ATOM     34  C   UNL     1       1.741  16.999   2.691  1.00  0.00     0.014 A 
ATOM     35  C   UNL     1       3.197  15.399   3.782  1.00  0.00     0.014 A 
ATOM     36  C   UNL     1       2.570  16.988   1.571  1.00  0.00     0.010 A 
ATOM     37  C   UNL     1       3.968  15.320   2.637  1.00  0.00     0.010 A 
ATOM     38  C   UNL     1       3.613  16.061   1.506  1.00  0.00    -0.014 A 
BRANCH  38  39
ATOM     39  C   UNL     1       4.292  15.721   0.259  1.00  0.00     0.031 A 
ATOM     40  C   UNL     1       5.648  16.227  -0.034  1.00  0.00     0.074 A 
ATOM     41  C   UNL     1       3.685  14.897  -0.624  1.00  0.00     0.049 A 
ATOM     42  N   UNL     1       6.135  16.354  -1.224  1.00  0.00    -0.248 NA
ATOM     43  C   UNL     1       6.561  16.664   1.012  1.00  0.00     0.031 C 
ATOM     44  C   UNL     1       4.269  14.277  -1.810  1.00  0.00     0.029 A 
ATOM     45  N   UNL     1       2.308  14.643  -0.742  1.00  0.00    -0.354 N 
ATOM     46  C   UNL     1       7.471  16.657  -1.107  1.00  0.00     0.074 A 
ATOM     47  C   UNL     1       7.677  16.879   0.308  1.00  0.00     0.031 C 
ATOM     48  C   UNL     1       3.285  14.012  -2.683  1.00  0.00     0.029 A 
ATOM     49  C   UNL     1       2.063  14.572  -2.135  1.00  0.00     0.049 A 
ATOM     50  H   UNL     1       1.654  14.538  -0.013  1.00  0.00     0.167 HD
ATOM     51  C   UNL     1       8.277  16.581  -2.207  1.00  0.00     0.037 A 
ATOM     52  C   UNL     1       1.261  15.486  -2.752  1.00  0.00     0.037 A 
ATOM     53  C   UNL     1       7.519  16.261  -3.415  1.00  0.00     0.049 A 
ATOM     54  C   UNL     1       1.931  16.286  -3.849  1.00  0.00     0.074 A 
ATOM     55  C   UNL     1       7.282  15.096  -4.127  1.00  0.00     0.029 A 
ATOM     56  N   UNL     1       6.630  17.198  -3.910  1.00  0.00    -0.354 N 
ATOM     57  N   UNL     1       3.205  16.239  -4.125  1.00  0.00    -0.248 NA
ATOM     58  C   UNL     1       1.225  17.297  -4.638  1.00  0.00     0.031 C 
ATOM     59  C   UNL     1       6.228  15.346  -5.051  1.00  0.00     0.029 A 
ATOM     60  C   UNL     1       5.826  16.659  -4.895  1.00  0.00     0.049 A 
ATOM     61  H   UNL     1       6.578  18.131  -3.600  1.00  0.00     0.167 HD
ATOM     62  C   UNL     1       3.499  17.213  -5.040  1.00  0.00     0.074 A 
ATOM     63  C   UNL     1       2.231  17.851  -5.332  1.00  0.00     0.031 C 
ATOM     64  C   UNL     1       4.768  17.469  -5.465  1.00  0.00     0.037 A 
BRANCH  51  65
ATOM     65  C   UNL     1       9.788  16.572  -2.154  1.00  0.00     0.064 A 
ATOM     66  C   UNL     1      10.542  15.869  -3.119  1.00  0.00     0.173 A 
ATOM     67  C   UNL     1      10.555  17.195  -1.152  1.00  0.00     0.173 A 
ATOM     68  F   UNL     1       9.966  15.326  -4.199  1.00  0.00    -0.203 F 
ATOM     69  C   UNL     1      11.924  15.691  -3.011  1.00  0.00     0.198 A 
ATOM     70  C   UNL     1      11.928  16.967  -1.008  1.00  0.00     0.198 A 
ATOM     71  F   UNL     1      10.013  18.092  -0.320  1.00  0.00    -0.203 F 
ATOM     72  F   UNL     1      12.581  15.005  -3.957  1.00  0.00    -0.200 F 
ATOM     73  C   UNL     1      12.610  16.202  -1.930  1.00  0.00     0.200 A 
ATOM     74  F   UNL     1      12.583  17.498   0.035  1.00  0.00    -0.200 F 
ATOM     75  F   UNL     1      13.925  15.983  -1.794  1.00  0.00    -0.200 F 
ENDBRANCH  51  65
BRANCH  52  76
ATOM     76  C   UNL     1       0.188  16.017  -1.868  1.00  0.00     0.064 A 
ATOM     77  C   UNL     1      -0.730  15.115  -1.295  1.00  0.00     0.173 A 
ATOM     78  C   UNL     1       0.256  17.304  -1.323  1.00  0.00     0.173 A 
ATOM     79  F   UNL     1      -0.833  13.865  -1.777  1.00  0.00    -0.203 F 
ATOM     80  C   UNL     1      -1.456  15.448  -0.155  1.00  0.00     0.198 A 
ATOM     81  C   UNL     1      -0.494  17.643  -0.197  1.00  0.00     0.198 A 
ATOM     82  F   UNL     1       1.126  18.204  -1.803  1.00  0.00    -0.203 F 
ATOM     83  F   UNL     1      -2.228  14.526   0.439  1.00  0.00    -0.200 F 
ATOM     84  C   UNL     1      -1.321  16.706   0.406  1.00  0.00     0.200 A 
ATOM     85  F   UNL     1      -0.341  18.852   0.362  1.00  0.00    -0.200 F 
ATOM     86  F   UNL     1      -1.950  17.002   1.551  1.00  0.00    -0.200 F 
ENDBRANCH  52  76
BRANCH  64  87
ATOM     87  C   UNL     1       5.087  18.531  -6.470  1.00  0.00     0.064 A 
ATOM     88  C   UNL     1       4.394  18.637  -7.685  1.00  0.00     0.173 A 
ATOM     89  C   UNL     1       6.170  19.411  -6.284  1.00  0.00     0.173 A 
ATOM     90  F   UNL     1       3.377  17.807  -7.966  1.00  0.00    -0.203 F 
ATOM     91  C   UNL     1       4.739  19.593  -8.641  1.00  0.00     0.198 A 
ATOM     92  C   UNL     1       6.544  20.332  -7.260  1.00  0.00     0.198 A 
ATOM     93  F   UNL     1       6.875  19.413  -5.142  1.00  0.00    -0.203 F 
ATOM     94  F   UNL     1       4.021  19.697  -9.768  1.00  0.00    -0.200 F 
ATOM     95  C   UNL     1       5.821  20.431  -8.433  1.00  0.00     0.200 A 
ATOM     96  F   UNL     1       7.603  21.128  -7.053  1.00  0.00    -0.200 F 
ATOM     97  F   UNL     1       6.163  21.337  -9.360  1.00  0.00    -0.200 F 
ENDBRANCH  64  87
ENDBRANCH  38  39
ENDBRANCH  30  33
ENDBRANCH  28  29
ENDBRANCH  27  28
ENDBRANCH  26  27
ENDBRANCH  25  26
ENDBRANCH   1  25
TORSDOF 17
