REMARK SMILES O=C(NCCCCCCNC(=O)c1cc(S[C@H]2CCOC3(CCC3)C2)ccn1)c1ccc(-c2c3nc(c(-c4c(F)c(F)c(F)c(F)c4F)c4ccc([nH]4)c(-c4c(F)c(F)c(F)c(F)c4F)c4nc(c(-c5c(F)c(F)c(F)c(F)c5F)c5ccc2[nH]5)C=C4)C=C3)cc1
REMARK SMILES IDX 6 1 5 2 4 3 3 4 1 5 2 6 29 8 30 9 91 10 31 11 90 12 32 13
REMARK SMILES IDX 33 14 34 15 84 16 35 17 89 18 83 19 85 20 36 21 88 22 82 23
REMARK SMILES IDX 81 24 37 26 69 27 49 28 68 29 50 30 53 31 67 32 86 33 51 34
REMARK SMILES IDX 52 35 66 37 87 38 54 39 38 40 39 41 47 42 40 43 41 44 45 45
REMARK SMILES IDX 48 46 42 47 43 48 46 49 44 50 70 51 71 52 79 53 72 54 73 55
REMARK SMILES IDX 77 56 80 57 74 58 75 59 78 60 76 61 55 62 56 63 64 64 57 65
REMARK SMILES IDX 58 66 62 67 65 68 59 69 60 70 63 71 61 72 7 73 8 74 9 75
REMARK SMILES IDX 10 76 11 77 12 79 13 80 14 81 28 82 15 83 27 84 26 85 16 86
REMARK SMILES IDX 17 87 18 88 25 89 19 90 21 91 20 92 22 93 24 94 23 95
REMARK H PARENT 3 7 85 25 53 36 10 78
REMARK Flexibility Score: inf
ROOT
ATOM      1  C   UNL     1      14.674  -2.335  -8.831  1.00  0.00     0.002 C 
ENDROOT
BRANCH   1   2
ATOM      2  C   UNL     1      14.022  -1.082  -8.246  1.00  0.00     0.021 C 
BRANCH   2   3
ATOM      3  C   UNL     1      14.979   0.065  -7.952  1.00  0.00     0.116 C 
BRANCH   3   4
ATOM      4  N   UNL     1      15.606   0.595  -9.151  1.00  0.00    -0.352 N 
ATOM      5  O   UNL     1      16.117   2.149 -10.706  1.00  0.00    -0.269 OA
ATOM      6  C   UNL     1      15.675   1.893  -9.591  1.00  0.00     0.251 C 
ATOM      7  H   UNL     1      16.043  -0.071  -9.729  1.00  0.00     0.163 HD
BRANCH   6   8
ATOM      8  C   UNL     1      15.188   2.988  -8.724  1.00  0.00     0.039 A 
ATOM      9  C   UNL     1      15.524   3.029  -7.369  1.00  0.00     0.014 A 
ATOM     10  C   UNL     1      14.391   3.993  -9.280  1.00  0.00     0.014 A 
ATOM     11  C   UNL     1      14.959   3.996  -6.545  1.00  0.00     0.010 A 
ATOM     12  C   UNL     1      13.891   5.013  -8.467  1.00  0.00     0.010 A 
ATOM     13  C   UNL     1      14.150   5.009  -7.088  1.00  0.00    -0.014 A 
BRANCH  13  14
ATOM     14  C   UNL     1      13.649   6.091  -6.204  1.00  0.00     0.031 A 
ATOM     15  C   UNL     1      12.182   6.262  -5.936  1.00  0.00     0.074 A 
ATOM     16  C   UNL     1      14.545   6.912  -5.623  1.00  0.00     0.049 A 
ATOM     17  N   UNL     1      11.580   7.147  -5.180  1.00  0.00    -0.248 NA
ATOM     18  C   UNL     1      11.267   5.325  -6.605  1.00  0.00     0.031 C 
ATOM     19  C   UNL     1      15.995   6.846  -5.822  1.00  0.00     0.029 A 
ATOM     20  N   UNL     1      14.377   7.948  -4.742  1.00  0.00    -0.354 N 
ATOM     21  C   UNL     1      10.221   6.883  -5.291  1.00  0.00     0.074 A 
ATOM     22  C   UNL     1      10.082   5.773  -6.210  1.00  0.00     0.031 C 
ATOM     23  C   UNL     1      16.587   7.772  -5.054  1.00  0.00     0.029 A 
ATOM     24  C   UNL     1      15.558   8.535  -4.357  1.00  0.00     0.049 A 
ATOM     25  H   UNL     1      13.496   8.242  -4.416  1.00  0.00     0.167 HD
ATOM     26  C   UNL     1       9.188   7.507  -4.674  1.00  0.00     0.037 A 
ATOM     27  C   UNL     1      15.787   9.585  -3.548  1.00  0.00     0.037 A 
ATOM     28  C   UNL     1       9.336   8.609  -3.756  1.00  0.00     0.049 A 
ATOM     29  C   UNL     1      14.619  10.276  -2.904  1.00  0.00     0.074 A 
ATOM     30  C   UNL     1       8.353   9.290  -3.058  1.00  0.00     0.029 A 
ATOM     31  N   UNL     1      10.546   9.196  -3.413  1.00  0.00    -0.354 N 
ATOM     32  N   UNL     1      13.342   9.993  -2.989  1.00  0.00    -0.248 NA
ATOM     33  C   UNL     1      14.925  11.434  -2.055  1.00  0.00     0.031 C 
ATOM     34  C   UNL     1       8.963  10.316  -2.329  1.00  0.00     0.029 A 
ATOM     35  C   UNL     1      10.331  10.244  -2.531  1.00  0.00     0.049 A 
ATOM     36  H   UNL     1      11.427   8.910  -3.746  1.00  0.00     0.167 HD
ATOM     37  C   UNL     1      12.693  10.925  -2.193  1.00  0.00     0.074 A 
ATOM     38  C   UNL     1      13.720  11.767  -1.615  1.00  0.00     0.031 C 
ATOM     39  C   UNL     1      11.365  11.072  -1.964  1.00  0.00     0.037 A 
BRANCH  26  40
ATOM     40  C   UNL     1       7.798   7.025  -4.979  1.00  0.00     0.064 A 
ATOM     41  C   UNL     1       7.325   5.793  -4.503  1.00  0.00     0.173 A 
ATOM     42  C   UNL     1       6.911   7.828  -5.713  1.00  0.00     0.173 A 
ATOM     43  F   UNL     1       8.135   4.983  -3.805  1.00  0.00    -0.203 F 
ATOM     44  C   UNL     1       6.023   5.375  -4.767  1.00  0.00     0.198 A 
ATOM     45  C   UNL     1       5.602   7.418  -5.952  1.00  0.00     0.198 A 
ATOM     46  F   UNL     1       7.310   9.018  -6.186  1.00  0.00    -0.203 F 
ATOM     47  F   UNL     1       5.606   4.177  -4.334  1.00  0.00    -0.200 F 
ATOM     48  C   UNL     1       5.160   6.190  -5.484  1.00  0.00     0.200 A 
ATOM     49  F   UNL     1       4.766   8.214  -6.635  1.00  0.00    -0.200 F 
ATOM     50  F   UNL     1       3.905   5.790  -5.729  1.00  0.00    -0.200 F 
ENDBRANCH  26  40
BRANCH  27  51
ATOM     51  C   UNL     1      17.180  10.041  -3.309  1.00  0.00     0.064 A 
ATOM     52  C   UNL     1      17.783   9.892  -2.054  1.00  0.00     0.173 A 
ATOM     53  C   UNL     1      17.939  10.625  -4.335  1.00  0.00     0.173 A 
ATOM     54  F   UNL     1      17.091   9.357  -1.037  1.00  0.00    -0.203 F 
ATOM     55  C   UNL     1      19.088  10.324  -1.828  1.00  0.00     0.198 A 
ATOM     56  C   UNL     1      19.254  11.027  -4.117  1.00  0.00     0.198 A 
ATOM     57  F   UNL     1      17.409  10.784  -5.556  1.00  0.00    -0.203 F 
ATOM     58  F   UNL     1      19.628  10.208  -0.607  1.00  0.00    -0.200 F 
ATOM     59  C   UNL     1      19.825  10.884  -2.861  1.00  0.00     0.200 A 
ATOM     60  F   UNL     1      19.967  11.551  -5.122  1.00  0.00    -0.200 F 
ATOM     61  F   UNL     1      21.083  11.291  -2.646  1.00  0.00    -0.200 F 
ENDBRANCH  27  51
BRANCH  39  62
ATOM     62  C   UNL     1      10.954  12.169  -1.027  1.00  0.00     0.064 A 
ATOM     63  C   UNL     1      11.033  13.520  -1.396  1.00  0.00     0.173 A 
ATOM     64  C   UNL     1      10.457  11.863   0.249  1.00  0.00     0.173 A 
ATOM     65  F   UNL     1      11.519  13.863  -2.598  1.00  0.00    -0.203 F 
ATOM     66  C   UNL     1      10.655  14.526  -0.511  1.00  0.00     0.198 A 
ATOM     67  C   UNL     1      10.052  12.870   1.120  1.00  0.00     0.198 A 
ATOM     68  F   UNL     1      10.359  10.586   0.648  1.00  0.00    -0.203 F 
ATOM     69  F   UNL     1      10.787  15.811  -0.866  1.00  0.00    -0.200 F 
ATOM     70  C   UNL     1      10.159  14.200   0.743  1.00  0.00     0.200 A 
ATOM     71  F   UNL     1       9.563  12.553   2.327  1.00  0.00    -0.200 F 
ATOM     72  F   UNL     1       9.793  15.170   1.592  1.00  0.00    -0.200 F 
ENDBRANCH  39  62
ENDBRANCH  13  14
ENDBRANCH   6   8
ENDBRANCH   3   4
ENDBRANCH   2   3
ENDBRANCH   1   2
BRANCH   1  73
ATOM     73  C   UNL     1      15.841  -2.909  -8.022  1.00  0.00     0.002 C 
BRANCH  73  74
ATOM     74  C   UNL     1      15.552  -3.181  -6.542  1.00  0.00     0.021 C 
BRANCH  74  75
ATOM     75  C   UNL     1      14.359  -4.092  -6.275  1.00  0.00     0.116 C 
BRANCH  75  76
ATOM     76  N   UNL     1      14.564  -5.423  -6.814  1.00  0.00    -0.351 N 
ATOM     77  C   UNL     1      14.474  -6.633  -6.160  1.00  0.00     0.269 C 
ATOM     78  H   UNL     1      14.797  -5.468  -7.769  1.00  0.00     0.163 HD
ATOM     79  O   UNL     1      14.811  -7.663  -6.735  1.00  0.00    -0.268 OA
BRANCH  77  80
ATOM     80  C   UNL     1      13.908  -6.670  -4.784  1.00  0.00     0.129 A 
ATOM     81  C   UNL     1      12.621  -6.182  -4.579  1.00  0.00     0.049 A 
ATOM     82  N   UNL     1      14.689  -7.191  -3.811  1.00  0.00    -0.251 NA
ATOM     83  C   UNL     1      12.093  -6.212  -3.297  1.00  0.00     0.011 A 
ATOM     84  C   UNL     1      14.148  -7.235  -2.580  1.00  0.00     0.113 A 
ATOM     85  C   UNL     1      12.878  -6.762  -2.279  1.00  0.00     0.035 A 
BRANCH  83  86
ATOM     86  S   UNL     1      10.435  -5.700  -2.877  1.00  0.00    -0.122 SA
BRANCH  86  87
ATOM     87  C   UNL     1      10.029  -4.291  -4.007  1.00  0.00     0.057 C 
ATOM     88  C   UNL     1       9.468  -4.790  -5.344  1.00  0.00     0.043 C 
ATOM     89  C   UNL     1       8.958  -3.443  -3.292  1.00  0.00     0.050 C 
ATOM     90  C   UNL     1       9.035  -3.602  -6.188  1.00  0.00     0.162 C 
ATOM     91  C   UNL     1       8.410  -2.335  -4.199  1.00  0.00     0.069 C 
ATOM     92  O   UNL     1       8.033  -2.878  -5.490  1.00  0.00    -0.375 OA
ATOM     93  C   UNL     1       7.259  -1.535  -3.513  1.00  0.00     0.035 C 
ATOM     94  C   UNL     1       9.190  -0.985  -4.240  1.00  0.00     0.035 C 
ATOM     95  C   UNL     1       7.827  -0.267  -4.172  1.00  0.00     0.006 C 
ENDBRANCH  86  87
ENDBRANCH  83  86
ENDBRANCH  77  80
ENDBRANCH  75  76
ENDBRANCH  74  75
ENDBRANCH  73  74
ENDBRANCH   1  73
TORSDOF 15
