REMARK SMILES CSc1ncccc1C(=O)N1CSC[C@H]1C(=O)NCCCCCCNC(=O)c1ccc(-c2c3nc(c(-c4c(F)c(F)c(F)c(F)c4F)c4ccc([nH]4)c(-c4c(F)c(F)c(F)c(F)c4F)c4nc(c(-c5c(F)c(F)c(F)c(F)c5F)c5ccc2[nH]5)C=C4)C=C3)cc1
REMARK SMILES IDX 21 1 20 2 19 3 18 4 16 5 17 6 15 8 11 9 12 10 13 11 14 12
REMARK SMILES IDX 9 13 10 14 8 15 3 16 4 17 5 18 7 19 6 20 2 21 1 22 22 23
REMARK SMILES IDX 23 24 24 25 25 26 26 27 27 29 28 30 29 31 90 32 30 33 89 34
REMARK SMILES IDX 31 35 32 36 33 37 83 38 34 39 88 40 82 41 84 42 35 43 87 44
REMARK SMILES IDX 81 45 80 46 36 48 68 49 48 50 67 51 49 52 52 53 66 54 85 55
REMARK SMILES IDX 50 56 51 57 65 59 86 60 53 61 37 62 38 63 46 64 39 65 40 66
REMARK SMILES IDX 44 67 47 68 41 69 42 70 45 71 43 72 69 73 70 74 78 75 71 76
REMARK SMILES IDX 72 77 76 78 79 79 73 80 74 81 77 82 75 83 54 84 55 85 63 86
REMARK SMILES IDX 56 87 57 88 61 89 64 90 58 91 59 92 62 93 60 94
REMARK H PARENT 18 7 25 28 84 47 52 58
REMARK Flexibility Score: inf
ROOT
ATOM      1  C   UNL     1      -5.824  -2.625   4.542  1.00  0.00     0.002 C 
ENDROOT
BRANCH   1   2
ATOM      2  C   UNL     1      -4.686  -3.515   4.030  1.00  0.00     0.021 C 
BRANCH   2   3
ATOM      3  C   UNL     1      -5.100  -4.449   2.900  1.00  0.00     0.116 C 
BRANCH   3   4
ATOM      4  N   UNL     1      -5.185  -3.762   1.634  1.00  0.00    -0.354 N 
ATOM      5  C   UNL     1      -4.459  -3.901   0.491  1.00  0.00     0.243 C 
ATOM      6  O   UNL     1      -4.923  -3.354  -0.516  1.00  0.00    -0.273 OA
ATOM      7  H   UNL     1      -5.889  -3.075   1.589  1.00  0.00     0.163 HD
BRANCH   5   8
ATOM      8  C   UNL     1      -3.221  -4.819   0.376  1.00  0.00     0.185 C 
ATOM      9  N   UNL     1      -2.059  -4.542   1.237  1.00  0.00    -0.316 N 
ATOM     10  C   UNL     1      -1.810  -5.519   2.273  1.00  0.00     0.190 C 
ATOM     11  S   UNL     1      -2.461  -7.080   1.652  1.00  0.00    -0.138 SA
ATOM     12  C   UNL     1      -3.610  -6.296   0.479  1.00  0.00     0.106 C 
BRANCH   9  13
ATOM     13  C   UNL     1      -1.196  -3.525   0.833  1.00  0.00     0.257 C 
ATOM     14  O   UNL     1      -1.573  -2.617   0.096  1.00  0.00    -0.269 OA
BRANCH  13  15
ATOM     15  C   UNL     1       0.253  -3.628   1.131  1.00  0.00     0.072 A 
ATOM     16  C   UNL     1       1.040  -2.542   1.512  1.00  0.00     0.108 A 
ATOM     17  N   UNL     1       2.388  -2.649   1.685  1.00  0.00    -0.249 NA
ATOM     18  C   UNL     1       2.973  -3.839   1.437  1.00  0.00     0.112 A 
ATOM     19  C   UNL     1       0.906  -4.838   0.838  1.00  0.00     0.018 A 
ATOM     20  C   UNL     1       2.280  -4.954   1.011  1.00  0.00     0.021 A 
BRANCH  16  21
ATOM     21  S   UNL     1       0.419  -0.900   1.812  1.00  0.00    -0.109 SA
ATOM     22  C   UNL     1       1.005  -0.149   0.269  1.00  0.00     0.092 C 
ENDBRANCH  16  21
ENDBRANCH  13  15
ENDBRANCH   9  13
ENDBRANCH   5   8
ENDBRANCH   3   4
ENDBRANCH   2   3
ENDBRANCH   1   2
BRANCH   1  23
ATOM     23  C   UNL     1      -7.052  -3.375   5.075  1.00  0.00     0.002 C 
BRANCH  23  24
ATOM     24  C   UNL     1      -6.765  -4.430   6.149  1.00  0.00     0.021 C 
BRANCH  24  25
ATOM     25  C   UNL     1      -6.081  -3.898   7.406  1.00  0.00     0.116 C 
BRANCH  25  26
ATOM     26  N   UNL     1      -6.882  -2.888   8.075  1.00  0.00    -0.352 N 
ATOM     27  C   UNL     1      -7.296  -2.807   9.377  1.00  0.00     0.251 C 
ATOM     28  H   UNL     1      -7.175  -2.144   7.500  1.00  0.00     0.163 HD
ATOM     29  O   UNL     1      -8.148  -1.975   9.691  1.00  0.00    -0.269 OA
BRANCH  27  30
ATOM     30  C   UNL     1      -6.744  -3.708  10.412  1.00  0.00     0.039 A 
ATOM     31  C   UNL     1      -7.608  -4.193  11.398  1.00  0.00     0.014 A 
ATOM     32  C   UNL     1      -5.383  -4.026  10.460  1.00  0.00     0.014 A 
ATOM     33  C   UNL     1      -7.117  -5.021  12.408  1.00  0.00     0.010 A 
ATOM     34  C   UNL     1      -4.906  -4.907  11.431  1.00  0.00     0.010 A 
ATOM     35  C   UNL     1      -5.765  -5.402  12.422  1.00  0.00    -0.014 A 
BRANCH  35  36
ATOM     36  C   UNL     1      -5.261  -6.323  13.471  1.00  0.00     0.031 A 
ATOM     37  C   UNL     1      -4.273  -5.853  14.501  1.00  0.00     0.074 A 
ATOM     38  C   UNL     1      -5.682  -7.602  13.477  1.00  0.00     0.049 A 
ATOM     39  N   UNL     1      -3.766  -6.504  15.518  1.00  0.00    -0.248 NA
ATOM     40  C   UNL     1      -3.765  -4.481  14.355  1.00  0.00     0.031 C 
ATOM     41  C   UNL     1      -6.578  -8.198  12.485  1.00  0.00     0.029 A 
ATOM     42  N   UNL     1      -5.413  -8.630  14.345  1.00  0.00    -0.354 N 
ATOM     43  C   UNL     1      -2.876  -5.627  16.125  1.00  0.00     0.074 A 
ATOM     44  C   UNL     1      -2.872  -4.417  15.332  1.00  0.00     0.031 C 
ATOM     45  C   UNL     1      -6.810  -9.478  12.817  1.00  0.00     0.029 A 
ATOM     46  C   UNL     1      -6.066  -9.797  14.032  1.00  0.00     0.049 A 
ATOM     47  H   UNL     1      -4.811  -8.540  15.118  1.00  0.00     0.167 HD
ATOM     48  C   UNL     1      -2.147  -5.808  17.253  1.00  0.00     0.037 A 
ATOM     49  C   UNL     1      -6.075 -10.986  14.662  1.00  0.00     0.037 A 
ATOM     50  C   UNL     1      -2.175  -7.006  18.052  1.00  0.00     0.049 A 
ATOM     51  C   UNL     1      -5.305 -11.143  15.943  1.00  0.00     0.074 A 
ATOM     52  C   UNL     1      -1.534  -7.260  19.253  1.00  0.00     0.029 A 
ATOM     53  N   UNL     1      -2.880  -8.156  17.727  1.00  0.00    -0.354 N 
ATOM     54  N   UNL     1      -4.543 -10.274  16.562  1.00  0.00    -0.248 NA
ATOM     55  C   UNL     1      -5.414 -12.439  16.624  1.00  0.00     0.031 C 
ATOM     56  C   UNL     1      -1.817  -8.578  19.631  1.00  0.00     0.029 A 
ATOM     57  C   UNL     1      -2.673  -9.129  18.692  1.00  0.00     0.049 A 
ATOM     58  H   UNL     1      -3.443  -8.265  16.927  1.00  0.00     0.167 HD
ATOM     59  C   UNL     1      -4.098 -10.908  17.713  1.00  0.00     0.074 A 
ATOM     60  C   UNL     1      -4.696 -12.228  17.718  1.00  0.00     0.031 C 
ATOM     61  C   UNL     1      -3.267 -10.442  18.678  1.00  0.00     0.037 A 
BRANCH  48  62
ATOM     62  C   UNL     1      -1.256  -4.681  17.690  1.00  0.00     0.064 A 
ATOM     63  C   UNL     1      -1.779  -3.478  18.191  1.00  0.00     0.173 A 
ATOM     64  C   UNL     1       0.140  -4.815  17.638  1.00  0.00     0.173 A 
ATOM     65  F   UNL     1      -3.106  -3.294  18.253  1.00  0.00    -0.203 F 
ATOM     66  C   UNL     1      -0.939  -2.442  18.591  1.00  0.00     0.198 A 
ATOM     67  C   UNL     1       0.977  -3.788  18.067  1.00  0.00     0.198 A 
ATOM     68  F   UNL     1       0.694  -5.946  17.174  1.00  0.00    -0.203 F 
ATOM     69  F   UNL     1      -1.463  -1.284  19.017  1.00  0.00    -0.200 F 
ATOM     70  C   UNL     1       0.437  -2.599  18.535  1.00  0.00     0.200 A 
ATOM     71  F   UNL     1       2.307  -3.947  18.023  1.00  0.00    -0.200 F 
ATOM     72  F   UNL     1       1.244  -1.603  18.924  1.00  0.00    -0.200 F 
ENDBRANCH  48  62
BRANCH  49  73
ATOM     73  C   UNL     1      -6.883 -12.102  14.110  1.00  0.00     0.064 A 
ATOM     74  C   UNL     1      -8.058 -12.526  14.746  1.00  0.00     0.173 A 
ATOM     75  C   UNL     1      -6.510 -12.754  12.926  1.00  0.00     0.173 A 
ATOM     76  F   UNL     1      -8.446 -11.944  15.890  1.00  0.00    -0.203 F 
ATOM     77  C   UNL     1      -8.819 -13.572  14.229  1.00  0.00     0.198 A 
ATOM     78  C   UNL     1      -7.286 -13.781  12.395  1.00  0.00     0.198 A 
ATOM     79  F   UNL     1      -5.399 -12.378  12.274  1.00  0.00    -0.203 F 
ATOM     80  F   UNL     1      -9.917 -13.983  14.878  1.00  0.00    -0.200 F 
ATOM     81  C   UNL     1      -8.437 -14.194  13.050  1.00  0.00     0.200 A 
ATOM     82  F   UNL     1      -6.922 -14.368  11.246  1.00  0.00    -0.200 F 
ATOM     83  F   UNL     1      -9.174 -15.193  12.547  1.00  0.00    -0.200 F 
ENDBRANCH  49  73
BRANCH  61  84
ATOM     84  C   UNL     1      -2.973 -11.364  19.826  1.00  0.00     0.064 A 
ATOM     85  C   UNL     1      -2.174 -12.507  19.664  1.00  0.00     0.173 A 
ATOM     86  C   UNL     1      -3.490 -11.099  21.102  1.00  0.00     0.173 A 
ATOM     87  F   UNL     1      -1.668 -12.812  18.460  1.00  0.00    -0.203 F 
ATOM     88  C   UNL     1      -1.937 -13.370  20.730  1.00  0.00     0.198 A 
ATOM     89  C   UNL     1      -3.225 -11.949  22.173  1.00  0.00     0.198 A 
ATOM     90  F   UNL     1      -4.254 -10.016  21.312  1.00  0.00    -0.203 F 
ATOM     91  F   UNL     1      -1.222 -14.488  20.538  1.00  0.00    -0.200 F 
ATOM     92  C   UNL     1      -2.459 -13.089  21.984  1.00  0.00     0.200 A 
ATOM     93  F   UNL     1      -3.720 -11.669  23.387  1.00  0.00    -0.200 F 
ATOM     94  F   UNL     1      -2.233 -13.923  23.008  1.00  0.00    -0.200 F 
ENDBRANCH  61  84
ENDBRANCH  35  36
ENDBRANCH  27  30
ENDBRANCH  25  26
ENDBRANCH  24  25
ENDBRANCH  23  24
ENDBRANCH   1  23
TORSDOF 16
