REMARK SMILES O=C(/C=C/c1ccc(NC(=O)NC2CCCC2)c(F)c1)NCCCCCCNC(=O)c1ccc(-c2c3nc(c(-c4c(F)c(F)c(F)c(F)c4F)c4ccc([nH]4)c(-c4c(F)c(F)c(F)c(F)c4F)c4nc(c(-c5c(F)c(F)c(F)c(F)c5F)c5ccc2[nH]5)C=C4)C=C3)cc1
REMARK SMILES IDX 24 1 23 2 22 3 21 4 1 5 2 6 3 8 4 9 5 10 6 11 20 12 7 13
REMARK SMILES IDX 18 14 8 15 19 16 9 17 10 18 11 20 12 21 13 23 14 24 17 25
REMARK SMILES IDX 15 26 16 27 25 28 26 29 27 30 28 31 29 32 30 34 31 35 32 36
REMARK SMILES IDX 93 37 33 38 92 39 34 40 35 41 36 42 86 43 37 44 91 45 85 46
REMARK SMILES IDX 87 47 38 48 90 49 84 50 83 51 39 53 71 54 51 55 70 56 52 57
REMARK SMILES IDX 55 58 69 59 88 60 53 61 54 62 68 64 89 65 56 66 40 67 41 68
REMARK SMILES IDX 49 69 42 70 43 71 47 72 50 73 44 74 45 75 48 76 46 77 72 78
REMARK SMILES IDX 73 79 81 80 74 81 75 82 79 83 82 84 76 85 77 86 80 87 78 88
REMARK SMILES IDX 57 89 58 90 66 91 59 92 60 93 64 94 67 95 61 96 62 97 65 98
REMARK SMILES IDX 63 99
REMARK H PARENT 21 7 9 19 12 22 28 33 87 52 55 63
REMARK Flexibility Score: inf
ROOT
ATOM      1  C   UNL     1       4.181   1.475   3.482  1.00  0.00     0.002 C 
ENDROOT
BRANCH   1   2
ATOM      2  C   UNL     1       2.676   1.248   3.280  1.00  0.00     0.021 C 
BRANCH   2   3
ATOM      3  C   UNL     1       2.169   1.607   1.883  1.00  0.00     0.116 C 
BRANCH   3   4
ATOM      4  N   UNL     1       2.890   0.863   0.876  1.00  0.00    -0.353 N 
ATOM      5  O   UNL     1       1.213  -0.625   0.355  1.00  0.00    -0.270 OA
ATOM      6  C   UNL     1       2.377  -0.251   0.273  1.00  0.00     0.243 C 
ATOM      7  H   UNL     1       3.788   1.171   0.613  1.00  0.00     0.163 HD
BRANCH   6   8
ATOM      8  C   UNL     1       3.343  -0.979  -0.579  1.00  0.00     0.072 C 
ATOM      9  C   UNL     1       4.637  -1.144  -0.253  1.00  0.00     0.014 C 
BRANCH   9  10
ATOM     10  C   UNL     1       5.526  -1.874  -1.155  1.00  0.00    -0.022 A 
ATOM     11  C   UNL     1       5.799  -1.357  -2.423  1.00  0.00     0.010 A 
ATOM     12  C   UNL     1       6.067  -3.108  -0.795  1.00  0.00     0.049 A 
ATOM     13  C   UNL     1       6.476  -2.133  -3.365  1.00  0.00     0.030 A 
ATOM     14  C   UNL     1       6.688  -3.888  -1.770  1.00  0.00     0.147 A 
ATOM     15  C   UNL     1       6.767  -3.461  -3.100  1.00  0.00     0.078 A 
ATOM     16  F   UNL     1       7.131  -5.110  -1.437  1.00  0.00    -0.205 F 
BRANCH  15  17
ATOM     17  N   UNL     1       7.118  -4.402  -4.081  1.00  0.00    -0.305 N 
ATOM     18  C   UNL     1       6.787  -4.640  -5.368  1.00  0.00     0.319 C 
ATOM     19  H   UNL     1       7.774  -5.055  -3.744  1.00  0.00     0.171 HD
ATOM     20  O   UNL     1       7.402  -5.540  -5.952  1.00  0.00    -0.248 OA
ATOM     21  N   UNL     1       5.773  -4.072  -6.047  1.00  0.00    -0.335 N 
ATOM     22  H   UNL     1       5.642  -4.464  -6.940  1.00  0.00     0.165 HD
BRANCH  21  23
ATOM     23  C   UNL     1       4.837  -3.017  -5.754  1.00  0.00     0.083 C 
ATOM     24  C   UNL     1       5.190  -1.722  -6.487  1.00  0.00     0.025 C 
ATOM     25  C   UNL     1       3.391  -3.194  -6.214  1.00  0.00     0.025 C 
ATOM     26  C   UNL     1       4.008  -0.823  -6.162  1.00  0.00     0.002 C 
ATOM     27  C   UNL     1       2.824  -1.783  -5.980  1.00  0.00     0.002 C 
ENDBRANCH  21  23
ENDBRANCH  15  17
ENDBRANCH   9  10
ENDBRANCH   6   8
ENDBRANCH   3   4
ENDBRANCH   2   3
ENDBRANCH   1   2
BRANCH   1  28
ATOM     28  C   UNL     1       4.664   2.906   3.225  1.00  0.00     0.002 C 
BRANCH  28  29
ATOM     29  C   UNL     1       3.991   3.977   4.084  1.00  0.00     0.021 C 
BRANCH  29  30
ATOM     30  C   UNL     1       4.128   3.769   5.589  1.00  0.00     0.116 C 
BRANCH  30  31
ATOM     31  N   UNL     1       5.513   3.811   6.030  1.00  0.00    -0.352 N 
ATOM     32  C   UNL     1       6.092   4.541   7.037  1.00  0.00     0.251 C 
ATOM     33  H   UNL     1       6.128   3.227   5.530  1.00  0.00     0.163 HD
ATOM     34  O   UNL     1       7.314   4.578   7.140  1.00  0.00    -0.269 OA
BRANCH  32  35
ATOM     35  C   UNL     1       5.252   5.308   7.984  1.00  0.00     0.039 A 
ATOM     36  C   UNL     1       5.665   6.589   8.355  1.00  0.00     0.014 A 
ATOM     37  C   UNL     1       4.077   4.770   8.518  1.00  0.00     0.014 A 
ATOM     38  C   UNL     1       4.871   7.351   9.213  1.00  0.00     0.010 A 
ATOM     39  C   UNL     1       3.246   5.561   9.309  1.00  0.00     0.010 A 
ATOM     40  C   UNL     1       3.634   6.859   9.666  1.00  0.00    -0.014 A 
BRANCH  40  41
ATOM     41  C   UNL     1       2.738   7.715  10.486  1.00  0.00     0.031 A 
ATOM     42  C   UNL     1       2.392   7.342  11.899  1.00  0.00     0.074 A 
ATOM     43  C   UNL     1       2.209   8.826   9.937  1.00  0.00     0.049 A 
ATOM     44  N   UNL     1       1.647   7.986  12.764  1.00  0.00    -0.248 NA
ATOM     45  C   UNL     1       2.931   6.071  12.403  1.00  0.00     0.031 C 
ATOM     46  C   UNL     1       2.422   9.263   8.557  1.00  0.00     0.029 A 
ATOM     47  N   UNL     1       1.395   9.793  10.471  1.00  0.00    -0.354 N 
ATOM     48  C   UNL     1       1.634   7.203  13.910  1.00  0.00     0.074 A 
ATOM     49  C   UNL     1       2.386   6.004  13.610  1.00  0.00     0.031 C 
ATOM     50  C   UNL     1       1.797  10.434   8.366  1.00  0.00     0.029 A 
ATOM     51  C   UNL     1       1.107  10.811   9.596  1.00  0.00     0.049 A 
ATOM     52  H   UNL     1       1.050   9.759  11.392  1.00  0.00     0.167 HD
ATOM     53  C   UNL     1       1.071   7.473  15.113  1.00  0.00     0.037 A 
ATOM     54  C   UNL     1       0.374  11.929   9.765  1.00  0.00     0.037 A 
ATOM     55  C   UNL     1       0.328   8.672  15.408  1.00  0.00     0.049 A 
ATOM     56  C   UNL     1      -0.254  12.202  11.102  1.00  0.00     0.074 A 
ATOM     57  C   UNL     1      -0.237   9.061  16.610  1.00  0.00     0.029 A 
ATOM     58  N   UNL     1       0.038   9.672  14.490  1.00  0.00    -0.354 N 
ATOM     59  N   UNL     1      -0.201  11.488  12.200  1.00  0.00    -0.248 NA
ATOM     60  C   UNL     1      -1.037  13.438  11.226  1.00  0.00     0.031 C 
ATOM     61  C   UNL     1      -0.919  10.264  16.405  1.00  0.00     0.029 A 
ATOM     62  C   UNL     1      -0.726  10.661  15.092  1.00  0.00     0.049 A 
ATOM     63  H   UNL     1       0.331   9.678  13.550  1.00  0.00     0.167 HD
ATOM     64  C   UNL     1      -0.934  12.189  13.148  1.00  0.00     0.074 A 
ATOM     65  C   UNL     1      -1.396  13.400  12.502  1.00  0.00     0.031 C 
ATOM     66  C   UNL     1      -1.201  11.854  14.435  1.00  0.00     0.037 A 
BRANCH  53  67
ATOM     67  C   UNL     1       1.245   6.458  16.207  1.00  0.00     0.064 A 
ATOM     68  C   UNL     1       0.141   5.756  16.715  1.00  0.00     0.173 A 
ATOM     69  C   UNL     1       2.498   6.214  16.792  1.00  0.00     0.173 A 
ATOM     70  F   UNL     1      -1.082   5.954  16.199  1.00  0.00    -0.203 F 
ATOM     71  C   UNL     1       0.284   4.857  17.769  1.00  0.00     0.198 A 
ATOM     72  C   UNL     1       2.643   5.289  17.822  1.00  0.00     0.198 A 
ATOM     73  F   UNL     1       3.590   6.850  16.339  1.00  0.00    -0.203 F 
ATOM     74  F   UNL     1      -0.791   4.222  18.256  1.00  0.00    -0.200 F 
ATOM     75  C   UNL     1       1.535   4.618  18.316  1.00  0.00     0.200 A 
ATOM     76  F   UNL     1       3.858   5.038  18.330  1.00  0.00    -0.200 F 
ATOM     77  F   UNL     1       1.674   3.737  19.317  1.00  0.00    -0.200 F 
ENDBRANCH  53  67
BRANCH  54  78
ATOM     78  C   UNL     1       0.248  12.889   8.638  1.00  0.00     0.064 A 
ATOM     79  C   UNL     1      -0.477  12.565   7.481  1.00  0.00     0.173 A 
ATOM     80  C   UNL     1       0.905  14.126   8.672  1.00  0.00     0.173 A 
ATOM     81  F   UNL     1      -1.117  11.390   7.397  1.00  0.00    -0.203 F 
ATOM     82  C   UNL     1      -0.512  13.429   6.389  1.00  0.00     0.198 A 
ATOM     83  C   UNL     1       0.845  15.002   7.590  1.00  0.00     0.198 A 
ATOM     84  F   UNL     1       1.594  14.489   9.764  1.00  0.00    -0.203 F 
ATOM     85  F   UNL     1      -1.170  13.073   5.277  1.00  0.00    -0.200 F 
ATOM     86  C   UNL     1       0.147  14.647   6.444  1.00  0.00     0.200 A 
ATOM     87  F   UNL     1       1.466  16.187   7.655  1.00  0.00    -0.200 F 
ATOM     88  F   UNL     1       0.113  15.478   5.394  1.00  0.00    -0.200 F 
ENDBRANCH  54  78
BRANCH  66  89
ATOM     89  C   UNL     1      -2.042  12.809  15.236  1.00  0.00     0.064 A 
ATOM     90  C   UNL     1      -1.490  13.518  16.313  1.00  0.00     0.173 A 
ATOM     91  C   UNL     1      -3.408  12.985  14.967  1.00  0.00     0.173 A 
ATOM     92  F   UNL     1      -0.191  13.381  16.620  1.00  0.00    -0.203 F 
ATOM     93  C   UNL     1      -2.275  14.361  17.096  1.00  0.00     0.198 A 
ATOM     94  C   UNL     1      -4.183  13.855  15.731  1.00  0.00     0.198 A 
ATOM     95  F   UNL     1      -3.984  12.340  13.941  1.00  0.00    -0.203 F 
ATOM     96  F   UNL     1      -1.732  15.003  18.140  1.00  0.00    -0.200 F 
ATOM     97  C   UNL     1      -3.618  14.535  16.799  1.00  0.00     0.200 A 
ATOM     98  F   UNL     1      -5.473  14.044  15.424  1.00  0.00    -0.200 F 
ATOM     99  F   UNL     1      -4.367  15.363  17.540  1.00  0.00    -0.200 F 
ENDBRANCH  66  89
ENDBRANCH  40  41
ENDBRANCH  32  35
ENDBRANCH  30  31
ENDBRANCH  29  30
ENDBRANCH  28  29
ENDBRANCH   1  28
TORSDOF 16
