REMARK SMILES CC1=C(CC(=O)NCCCCCCNC(=O)c2ccc(-c3c4nc(c(-c5c(F)c(F)c(F)c(F)c5F)c5ccc([nH]5)c(-c5c(F)c(F)c(F)c(F)c5F)c5nc(c(-c6c(F)c(F)c(F)c(F)c6F)c6ccc3[nH]6)C=C5)C=C4)cc2)c2cc(F)ccc2/C1=C\c1ccc([S@@+](C)[O-])cc1
REMARK SMILES IDX 10 1 9 2 8 3 7 4 5 5 6 6 4 8 3 9 1 10 2 11 87 12 80 13 86 14
REMARK SMILES IDX 88 15 81 16 85 17 82 18 84 19 83 20 89 21 90 22 97 23 91 24
REMARK SMILES IDX 96 25 92 26 93 27 94 28 95 29 11 30 12 31 13 32 14 33 15 34
REMARK SMILES IDX 16 36 17 37 18 38 79 39 19 40 78 41 20 42 21 43 22 44 72 45
REMARK SMILES IDX 23 46 77 47 71 48 73 49 24 50 76 51 70 52 69 53 25 55 57 56
REMARK SMILES IDX 37 57 56 58 38 59 41 60 55 61 74 62 39 63 40 64 54 66 75 67
REMARK SMILES IDX 42 68 26 69 27 70 35 71 28 72 29 73 33 74 36 75 30 76 31 77
REMARK SMILES IDX 34 78 32 79 58 80 59 81 67 82 60 83 61 84 65 85 68 86 62 87
REMARK SMILES IDX 63 88 66 89 64 90 43 91 44 92 52 93 45 94 46 95 50 96 53 97
REMARK SMILES IDX 47 98 48 99 51 100 49 101
REMARK H PARENT 7 7 14 35 73 54 41 65
REMARK Flexibility Score: inf
ROOT
ATOM      1  C   UNL     1      -1.810   1.782   4.558  1.00  0.00     0.002 C 
ENDROOT
BRANCH   1   2
ATOM      2  C   UNL     1      -0.993   1.468   3.297  1.00  0.00     0.021 C 
BRANCH   2   3
ATOM      3  C   UNL     1      -1.568   0.332   2.449  1.00  0.00     0.116 C 
BRANCH   3   4
ATOM      4  N   UNL     1      -2.785   0.738   1.779  1.00  0.00    -0.356 N 
ATOM      5  C   UNL     1      -2.971   1.076   0.471  1.00  0.00     0.224 C 
ATOM      6  O   UNL     1      -4.086   1.472   0.125  1.00  0.00    -0.275 OA
ATOM      7  H   UNL     1      -3.589   0.774   2.345  1.00  0.00     0.163 HD
BRANCH   5   8
ATOM      8  C   UNL     1      -1.839   0.914  -0.541  1.00  0.00     0.136 C 
BRANCH   8   9
ATOM      9  C   UNL     1      -0.694   1.856  -0.341  1.00  0.00    -0.027 C 
ATOM     10  C   UNL     1       1.276   0.235  -0.161  1.00  0.00     0.045 C 
ATOM     11  C   UNL     1       0.619   1.576  -0.156  1.00  0.00    -0.039 C 
ATOM     12  C   UNL     1       1.372   2.829   0.025  1.00  0.00    -0.014 C 
ATOM     13  C   UNL     1      -0.841   3.321  -0.372  1.00  0.00    -0.011 A 
ATOM     14  C   UNL     1       0.417   3.930  -0.209  1.00  0.00    -0.010 A 
ATOM     15  C   UNL     1       2.667   2.889   0.394  1.00  0.00     0.017 C 
ATOM     16  C   UNL     1      -1.981   4.092  -0.566  1.00  0.00     0.048 A 
ATOM     17  C   UNL     1       0.550   5.309  -0.309  1.00  0.00     0.012 A 
ATOM     18  C   UNL     1      -1.843   5.476  -0.604  1.00  0.00     0.123 A 
ATOM     19  C   UNL     1      -0.595   6.087  -0.490  1.00  0.00     0.040 A 
ATOM     20  F   UNL     1      -2.929   6.242  -0.772  1.00  0.00    -0.207 F 
BRANCH  15  21
ATOM     21  C   UNL     1       3.435   4.119   0.604  1.00  0.00    -0.025 A 
ATOM     22  C   UNL     1       3.153   4.977   1.673  1.00  0.00     0.013 A 
ATOM     23  C   UNL     1       4.387   4.494  -0.346  1.00  0.00     0.013 A 
ATOM     24  C   UNL     1       3.721   6.255   1.717  1.00  0.00     0.061 A 
ATOM     25  C   UNL     1       4.973   5.761  -0.288  1.00  0.00     0.061 A 
ATOM     26  C   UNL     1       4.614   6.666   0.719  1.00  0.00     0.152 A 
BRANCH  26  27
ATOM     27  S   UNL     1       5.162   8.388   0.600  1.00  0.00    -0.018 S 
ATOM     28  C   UNL     1       5.753   8.644   2.283  1.00  0.00     0.346 C 
ATOM     29  O   UNL     1       6.407   8.408  -0.357  1.00  0.00    -0.612 OA
ENDBRANCH  26  27
ENDBRANCH  15  21
ENDBRANCH   8   9
ENDBRANCH   5   8
ENDBRANCH   3   4
ENDBRANCH   2   3
ENDBRANCH   1   2
BRANCH   1  30
ATOM     30  C   UNL     1      -1.987   0.614   5.537  1.00  0.00     0.002 C 
BRANCH  30  31
ATOM     31  C   UNL     1      -0.692  -0.070   5.978  1.00  0.00     0.021 C 
BRANCH  31  32
ATOM     32  C   UNL     1       0.300   0.841   6.691  1.00  0.00     0.116 C 
BRANCH  32  33
ATOM     33  N   UNL     1      -0.186   1.293   7.987  1.00  0.00    -0.352 N 
ATOM     34  C   UNL     1       0.428   1.235   9.215  1.00  0.00     0.251 C 
ATOM     35  H   UNL     1      -1.084   1.699   7.983  1.00  0.00     0.163 HD
ATOM     36  O   UNL     1      -0.190   1.523  10.236  1.00  0.00    -0.269 OA
BRANCH  34  37
ATOM     37  C   UNL     1       1.834   0.787   9.308  1.00  0.00     0.039 A 
ATOM     38  C   UNL     1       2.798   1.288   8.430  1.00  0.00     0.014 A 
ATOM     39  C   UNL     1       2.184  -0.167  10.267  1.00  0.00     0.014 A 
ATOM     40  C   UNL     1       4.064   0.713   8.400  1.00  0.00     0.010 A 
ATOM     41  C   UNL     1       3.482  -0.686  10.288  1.00  0.00     0.010 A 
ATOM     42  C   UNL     1       4.417  -0.288   9.320  1.00  0.00    -0.014 A 
BRANCH  42  43
ATOM     43  C   UNL     1       5.760  -0.918   9.232  1.00  0.00     0.031 A 
ATOM     44  C   UNL     1       5.904  -2.367   8.852  1.00  0.00     0.074 A 
ATOM     45  C   UNL     1       6.857  -0.161   9.424  1.00  0.00     0.049 A 
ATOM     46  N   UNL     1       6.995  -3.075   8.694  1.00  0.00    -0.248 NA
ATOM     47  C   UNL     1       4.664  -3.122   8.617  1.00  0.00     0.031 C 
ATOM     48  C   UNL     1       6.845   1.260   9.774  1.00  0.00     0.029 A 
ATOM     49  N   UNL     1       8.190  -0.468   9.322  1.00  0.00    -0.354 N 
ATOM     50  C   UNL     1       6.574  -4.354   8.353  1.00  0.00     0.074 A 
ATOM     51  C   UNL     1       5.127  -4.337   8.359  1.00  0.00     0.031 C 
ATOM     52  C   UNL     1       8.106   1.716   9.796  1.00  0.00     0.029 A 
ATOM     53  C   UNL     1       9.017   0.609   9.523  1.00  0.00     0.049 A 
ATOM     54  H   UNL     1       8.521  -1.373   9.122  1.00  0.00     0.167 HD
ATOM     55  C   UNL     1       7.326  -5.438   8.046  1.00  0.00     0.037 A 
ATOM     56  C   UNL     1      10.361   0.695   9.499  1.00  0.00     0.037 A 
ATOM     57  C   UNL     1       8.765  -5.450   8.025  1.00  0.00     0.049 A 
ATOM     58  C   UNL     1      11.171  -0.538   9.217  1.00  0.00     0.074 A 
ATOM     59  C   UNL     1       9.615  -6.500   7.724  1.00  0.00     0.029 A 
ATOM     60  N   UNL     1       9.569  -4.356   8.312  1.00  0.00    -0.354 N 
ATOM     61  N   UNL     1      10.759  -1.743   8.907  1.00  0.00    -0.248 NA
ATOM     62  C   UNL     1      12.631  -0.403   9.297  1.00  0.00     0.031 C 
ATOM     63  C   UNL     1      10.932  -6.053   7.865  1.00  0.00     0.029 A 
ATOM     64  C   UNL     1      10.904  -4.712   8.212  1.00  0.00     0.049 A 
ATOM     65  H   UNL     1       9.239  -3.460   8.552  1.00  0.00     0.167 HD
ATOM     66  C   UNL     1      11.906  -2.507   8.744  1.00  0.00     0.074 A 
ATOM     67  C   UNL     1      13.032  -1.624   8.970  1.00  0.00     0.031 C 
ATOM     68  C   UNL     1      12.014  -3.823   8.442  1.00  0.00     0.037 A 
BRANCH  55  69
ATOM     69  C   UNL     1       6.609  -6.713   7.708  1.00  0.00     0.064 A 
ATOM     70  C   UNL     1       5.939  -6.873   6.486  1.00  0.00     0.173 A 
ATOM     71  C   UNL     1       6.644  -7.806   8.586  1.00  0.00     0.173 A 
ATOM     72  F   UNL     1       5.865  -5.854   5.617  1.00  0.00    -0.203 F 
ATOM     73  C   UNL     1       5.317  -8.077   6.163  1.00  0.00     0.198 A 
ATOM     74  C   UNL     1       6.043  -9.016   8.249  1.00  0.00     0.198 A 
ATOM     75  F   UNL     1       7.276  -7.707   9.765  1.00  0.00    -0.203 F 
ATOM     76  F   UNL     1       4.654  -8.196   5.004  1.00  0.00    -0.200 F 
ATOM     77  C   UNL     1       5.377  -9.150   7.040  1.00  0.00     0.200 A 
ATOM     78  F   UNL     1       6.112 -10.056   9.093  1.00  0.00    -0.200 F 
ATOM     79  F   UNL     1       4.789 -10.311   6.722  1.00  0.00    -0.200 F 
ENDBRANCH  55  69
BRANCH  56  80
ATOM     80  C   UNL     1      11.015   2.006   9.736  1.00  0.00     0.064 A 
ATOM     81  C   UNL     1      11.662   2.683   8.694  1.00  0.00     0.173 A 
ATOM     82  C   UNL     1      10.979   2.623  10.995  1.00  0.00     0.173 A 
ATOM     83  F   UNL     1      11.739   2.123   7.478  1.00  0.00    -0.203 F 
ATOM     84  C   UNL     1      12.248   3.929   8.902  1.00  0.00     0.198 A 
ATOM     85  C   UNL     1      11.543   3.881  11.196  1.00  0.00     0.198 A 
ATOM     86  F   UNL     1      10.370   2.016  12.024  1.00  0.00    -0.203 F 
ATOM     87  F   UNL     1      12.882   4.546   7.895  1.00  0.00    -0.200 F 
ATOM     88  C   UNL     1      12.180   4.532  10.150  1.00  0.00     0.200 A 
ATOM     89  F   UNL     1      11.460   4.466  12.398  1.00  0.00    -0.200 F 
ATOM     90  F   UNL     1      12.729   5.738  10.345  1.00  0.00    -0.200 F 
ENDBRANCH  56  80
BRANCH  68  91
ATOM     91  C   UNL     1      13.396  -4.393   8.326  1.00  0.00     0.064 A 
ATOM     92  C   UNL     1      14.180  -4.640   9.462  1.00  0.00     0.173 A 
ATOM     93  C   UNL     1      13.916  -4.754   7.074  1.00  0.00     0.173 A 
ATOM     94  F   UNL     1      13.731  -4.299  10.679  1.00  0.00    -0.203 F 
ATOM     95  C   UNL     1      15.442  -5.216   9.347  1.00  0.00     0.198 A 
ATOM     96  C   UNL     1      15.168  -5.353   6.966  1.00  0.00     0.198 A 
ATOM     97  F   UNL     1      13.201  -4.543   5.959  1.00  0.00    -0.203 F 
ATOM     98  F   UNL     1      16.188  -5.414  10.443  1.00  0.00    -0.200 F 
ATOM     99  C   UNL     1      15.931  -5.580   8.101  1.00  0.00     0.200 A 
ATOM    100  F   UNL     1      15.633  -5.716   5.763  1.00  0.00    -0.200 F 
ATOM    101  F   UNL     1      17.140  -6.147   7.994  1.00  0.00    -0.200 F 
ENDBRANCH  68  91
ENDBRANCH  42  43
ENDBRANCH  34  37
ENDBRANCH  32  33
ENDBRANCH  31  32
ENDBRANCH  30  31
ENDBRANCH   1  30
TORSDOF 16
