REMARK SMILES CO[C@H]1C[C@@H](C(=O)NCCCCCCNC(=O)c2ccc(-c3c4nc(c(-c5c(F)c(F)c(F)c(F)c5F)c5ccc([nH]5)c(-c5c(F)c(F)c(F)c(F)c5F)c5nc(c(-c6c(F)c(F)c(F)c(F)c6F)c6ccc3[nH]6)C=C5)C=C4)cc2)N(C(=O)CSc2cccs2)C1
REMARK SMILES IDX 10 1 9 2 8 3 6 4 7 5 5 7 3 8 4 9 91 10 81 11 2 12 1 13 82 14
REMARK SMILES IDX 83 15 84 16 85 17 86 18 87 19 90 20 88 21 89 22 11 23 12 24
REMARK SMILES IDX 13 25 14 26 15 27 16 28 17 30 18 31 19 32 80 33 20 34 79 35
REMARK SMILES IDX 21 36 22 37 23 38 73 39 24 40 78 41 72 42 74 43 25 44 77 45
REMARK SMILES IDX 71 46 70 47 26 49 58 50 38 51 57 52 39 53 42 54 56 55 75 56
REMARK SMILES IDX 40 57 41 58 55 60 76 61 43 62 27 63 28 64 36 65 29 66 30 67
REMARK SMILES IDX 34 68 37 69 31 70 32 71 35 72 33 73 59 74 60 75 68 76 61 77
REMARK SMILES IDX 62 78 66 79 69 80 63 81 64 82 67 83 65 84 44 85 45 86 53 87
REMARK SMILES IDX 46 88 47 89 51 90 54 91 48 92 49 93 52 94 50 95
REMARK H PARENT 8 6 15 29 74 48 42 59
REMARK Flexibility Score: inf
ROOT
ATOM      1  C   UNL     1       3.542   5.946  -0.793  1.00  0.00     0.021 C 
ENDROOT
BRANCH   1   2
ATOM      2  C   UNL     1       3.692   4.426  -0.746  1.00  0.00     0.116 C 
BRANCH   2   3
ATOM      3  N   UNL     1       3.524   3.888   0.591  1.00  0.00    -0.354 N 
ATOM      4  C   UNL     1       2.518   3.155   1.143  1.00  0.00     0.242 C 
ATOM      5  O   UNL     1       2.709   2.698   2.273  1.00  0.00    -0.273 OA
ATOM      6  H   UNL     1       4.267   4.088   1.206  1.00  0.00     0.163 HD
BRANCH   4   7
ATOM      7  C   UNL     1       1.268   2.754   0.346  1.00  0.00     0.177 C 
ATOM      8  C   UNL     1       0.648   1.620  -1.695  1.00  0.00     0.139 C 
ATOM      9  C   UNL     1       1.649   1.562  -0.545  1.00  0.00     0.069 C 
ATOM     10  C   UNL     1       0.372   3.115  -1.867  1.00  0.00     0.152 C 
ATOM     11  N   UNL     1       0.685   3.732  -0.580  1.00  0.00    -0.327 N 
BRANCH   8  12
ATOM     12  O   UNL     1       0.999   0.971  -2.912  1.00  0.00    -0.380 OA
ATOM     13  C   UNL     1       2.377   0.884  -3.239  1.00  0.00     0.195 C 
ENDBRANCH   8  12
BRANCH  11  14
ATOM     14  C   UNL     1       0.166   4.978  -0.277  1.00  0.00     0.233 C 
ATOM     15  O   UNL     1      -0.469   5.612  -1.126  1.00  0.00    -0.274 OA
BRANCH  14  16
ATOM     16  C   UNL     1       0.480   5.623   1.069  1.00  0.00     0.175 C 
BRANCH  16  17
ATOM     17  S   UNL     1      -0.575   5.011   2.400  1.00  0.00    -0.105 SA
BRANCH  17  18
ATOM     18  C   UNL     1      -2.120   5.649   1.885  1.00  0.00     0.060 A 
ATOM     19  C   UNL     1      -3.183   4.883   1.464  1.00  0.00     0.027 A 
ATOM     20  S   UNL     1      -2.481   7.319   1.856  1.00  0.00    -0.137 S 
ATOM     21  C   UNL     1      -4.293   5.682   1.065  1.00  0.00     0.013 A 
ATOM     22  C   UNL     1      -4.040   7.028   1.215  1.00  0.00     0.066 A 
ENDBRANCH  17  18
ENDBRANCH  16  17
ENDBRANCH  14  16
ENDBRANCH  11  14
ENDBRANCH   4   7
ENDBRANCH   2   3
ENDBRANCH   1   2
BRANCH   1  23
ATOM     23  C   UNL     1       4.488   6.701   0.146  1.00  0.00     0.002 C 
BRANCH  23  24
ATOM     24  C   UNL     1       5.973   6.438  -0.111  1.00  0.00     0.002 C 
BRANCH  24  25
ATOM     25  C   UNL     1       6.415   6.659  -1.559  1.00  0.00     0.021 C 
BRANCH  25  26
ATOM     26  C   UNL     1       6.095   8.044  -2.106  1.00  0.00     0.116 C 
BRANCH  26  27
ATOM     27  N   UNL     1       6.848   9.081  -1.419  1.00  0.00    -0.352 N 
ATOM     28  C   UNL     1       7.692  10.019  -1.954  1.00  0.00     0.251 C 
ATOM     29  H   UNL     1       6.736   9.114  -0.442  1.00  0.00     0.163 HD
ATOM     30  O   UNL     1       8.430  10.683  -1.229  1.00  0.00    -0.269 OA
BRANCH  28  31
ATOM     31  C   UNL     1       7.723  10.213  -3.417  1.00  0.00     0.039 A 
ATOM     32  C   UNL     1       8.957  10.274  -4.067  1.00  0.00     0.014 A 
ATOM     33  C   UNL     1       6.533  10.320  -4.144  1.00  0.00     0.014 A 
ATOM     34  C   UNL     1       8.997  10.392  -5.457  1.00  0.00     0.010 A 
ATOM     35  C   UNL     1       6.575  10.360  -5.534  1.00  0.00     0.010 A 
ATOM     36  C   UNL     1       7.807  10.404  -6.204  1.00  0.00    -0.014 A 
BRANCH  36  37
ATOM     37  C   UNL     1       7.835  10.469  -7.686  1.00  0.00     0.031 A 
ATOM     38  C   UNL     1       7.252  11.656  -8.401  1.00  0.00     0.074 A 
ATOM     39  C   UNL     1       8.332   9.432  -8.389  1.00  0.00     0.049 A 
ATOM     40  N   UNL     1       7.132  11.871  -9.687  1.00  0.00    -0.248 NA
ATOM     41  C   UNL     1       6.709  12.734  -7.559  1.00  0.00     0.031 C 
ATOM     42  C   UNL     1       8.881   8.205  -7.811  1.00  0.00     0.029 A 
ATOM     43  N   UNL     1       8.447   9.241  -9.743  1.00  0.00    -0.354 N 
ATOM     44  C   UNL     1       6.490  13.097  -9.806  1.00  0.00     0.074 A 
ATOM     45  C   UNL     1       6.196  13.553  -8.465  1.00  0.00     0.031 C 
ATOM     46  C   UNL     1       9.294   7.399  -8.801  1.00  0.00     0.029 A 
ATOM     47  C   UNL     1       9.003   8.033 -10.084  1.00  0.00     0.049 A 
ATOM     48  H   UNL     1       8.158   9.908 -10.408  1.00  0.00     0.167 HD
ATOM     49  C   UNL     1       6.196  13.791 -10.931  1.00  0.00     0.037 A 
ATOM     50  C   UNL     1       9.241   7.492 -11.294  1.00  0.00     0.037 A 
ATOM     51  C   UNL     1       6.510  13.341 -12.262  1.00  0.00     0.049 A 
ATOM     52  C   UNL     1       8.893   8.279 -12.529  1.00  0.00     0.074 A 
ATOM     53  C   UNL     1       6.309  13.998 -13.464  1.00  0.00     0.029 A 
ATOM     54  N   UNL     1       7.086  12.116 -12.567  1.00  0.00    -0.354 N 
ATOM     55  N   UNL     1       8.356   9.470 -12.628  1.00  0.00    -0.248 NA
ATOM     56  C   UNL     1       9.193   7.648 -13.822  1.00  0.00     0.031 C 
ATOM     57  C   UNL     1       6.710  13.147 -14.499  1.00  0.00     0.029 A 
ATOM     58  C   UNL     1       7.221  11.986 -13.941  1.00  0.00     0.049 A 
ATOM     59  H   UNL     1       7.358  11.439 -11.906  1.00  0.00     0.167 HD
ATOM     60  C   UNL     1       8.280   9.744 -13.987  1.00  0.00     0.074 A 
ATOM     61  C   UNL     1       8.842   8.600 -14.674  1.00  0.00     0.031 C 
ATOM     62  C   UNL     1       7.789  10.844 -14.610  1.00  0.00     0.037 A 
BRANCH  49  63
ATOM     63  C   UNL     1       5.496  15.110 -10.774  1.00  0.00     0.064 A 
ATOM     64  C   UNL     1       6.138  16.225 -10.212  1.00  0.00     0.173 A 
ATOM     65  C   UNL     1       4.179  15.276 -11.230  1.00  0.00     0.173 A 
ATOM     66  F   UNL     1       7.394  16.119  -9.751  1.00  0.00    -0.203 F 
ATOM     67  C   UNL     1       5.479  17.445 -10.085  1.00  0.00     0.198 A 
ATOM     68  C   UNL     1       3.534  16.506 -11.132  1.00  0.00     0.198 A 
ATOM     69  F   UNL     1       3.519  14.246 -11.781  1.00  0.00    -0.203 F 
ATOM     70  F   UNL     1       6.097  18.480  -9.499  1.00  0.00    -0.200 F 
ATOM     71  C   UNL     1       4.182  17.587 -10.553  1.00  0.00     0.200 A 
ATOM     72  F   UNL     1       2.286  16.646 -11.599  1.00  0.00    -0.200 F 
ATOM     73  F   UNL     1       3.553  18.765 -10.440  1.00  0.00    -0.200 F 
ENDBRANCH  49  63
BRANCH  50  74
ATOM     74  C   UNL     1       9.856   6.142 -11.397  1.00  0.00     0.064 A 
ATOM     75  C   UNL     1      11.155   5.977 -11.898  1.00  0.00     0.173 A 
ATOM     76  C   UNL     1       9.158   4.991 -11.004  1.00  0.00     0.173 A 
ATOM     77  F   UNL     1      11.856   7.045 -12.305  1.00  0.00    -0.203 F 
ATOM     78  C   UNL     1      11.723   4.710 -12.024  1.00  0.00     0.198 A 
ATOM     79  C   UNL     1       9.739   3.728 -11.100  1.00  0.00     0.198 A 
ATOM     80  F   UNL     1       7.915   5.093 -10.511  1.00  0.00    -0.203 F 
ATOM     81  F   UNL     1      12.947   4.577 -12.553  1.00  0.00    -0.200 F 
ATOM     82  C   UNL     1      11.017   3.588 -11.620  1.00  0.00     0.200 A 
ATOM     83  F   UNL     1       9.060   2.648 -10.691  1.00  0.00    -0.200 F 
ATOM     84  F   UNL     1      11.565   2.370 -11.737  1.00  0.00    -0.200 F 
ENDBRANCH  50  74
BRANCH  62  85
ATOM     85  C   UNL     1       7.871  10.882 -16.110  1.00  0.00     0.064 A 
ATOM     86  C   UNL     1       7.072  10.059 -16.916  1.00  0.00     0.173 A 
ATOM     87  C   UNL     1       8.734  11.787 -16.748  1.00  0.00     0.173 A 
ATOM     88  F   UNL     1       6.241   9.167 -16.355  1.00  0.00    -0.203 F 
ATOM     89  C   UNL     1       7.153  10.120 -18.305  1.00  0.00     0.198 A 
ATOM     90  C   UNL     1       8.787  11.870 -18.136  1.00  0.00     0.198 A 
ATOM     91  F   UNL     1       9.515  12.603 -16.024  1.00  0.00    -0.203 F 
ATOM     92  F   UNL     1       6.417   9.288 -19.054  1.00  0.00    -0.200 F 
ATOM     93  C   UNL     1       8.004  11.031 -18.913  1.00  0.00     0.200 A 
ATOM     94  F   UNL     1       9.598  12.762 -18.722  1.00  0.00    -0.200 F 
ATOM     95  F   UNL     1       8.073  11.095 -20.250  1.00  0.00    -0.200 F 
ENDBRANCH  62  85
ENDBRANCH  36  37
ENDBRANCH  28  31
ENDBRANCH  26  27
ENDBRANCH  25  26
ENDBRANCH  24  25
ENDBRANCH  23  24
ENDBRANCH   1  23
TORSDOF 18
