REMARK SMILES O=C(NCCCCCCNC(=O)[C@H]1CCCCN1c1cc(-c2ccccc2)nc(-c2cccc(Cl)c2)n1)c1ccc(-c2c3nc(c(-c4c(F)c(F)c(F)c(F)c4F)c4ccc([nH]4)c(-c4c(F)c(F)c(F)c(F)c4F)c4nc(c(-c5c(F)c(F)c(F)c(F)c5F)c5ccc2[nH]5)C=C4)C=C3)cc1
REMARK SMILES IDX 6 1 5 2 4 3 3 4 1 5 2 6 38 8 39 9 100 10 40 11 99 12 41 13
REMARK SMILES IDX 42 14 43 15 93 16 44 17 98 18 92 19 94 20 45 21 97 22 91 23
REMARK SMILES IDX 90 24 46 26 78 27 58 28 77 29 59 30 62 31 76 32 95 33 60 34
REMARK SMILES IDX 61 35 75 37 96 38 63 39 47 40 48 41 56 42 49 43 50 44 54 45
REMARK SMILES IDX 57 46 51 47 52 48 55 49 53 50 79 51 80 52 88 53 81 54 82 55
REMARK SMILES IDX 86 56 89 57 83 58 84 59 87 60 85 61 64 62 65 63 73 64 66 65
REMARK SMILES IDX 67 66 71 67 74 68 68 69 69 70 72 71 70 72 7 73 8 74 9 75
REMARK SMILES IDX 10 76 11 77 12 79 13 80 14 81 18 82 15 83 17 84 16 85 19 86
REMARK SMILES IDX 20 87 37 88 21 89 29 90 28 91 22 92 23 93 27 94 24 95 26 96
REMARK SMILES IDX 25 97 30 98 31 99 36 100 32 101 34 102 33 103 35 104
REMARK H PARENT 3 7 94 25 62 36 10 78
REMARK Flexibility Score: inf
ROOT
ATOM      1  C   UNL     1      11.404 -11.288  -3.622  1.00  0.00     0.002 C 
ENDROOT
BRANCH   1   2
ATOM      2  C   UNL     1      11.595 -12.557  -2.792  1.00  0.00     0.021 C 
BRANCH   2   3
ATOM      3  C   UNL     1      10.796 -13.770  -3.250  1.00  0.00     0.116 C 
BRANCH   3   4
ATOM      4  N   UNL     1      11.158 -14.230  -4.578  1.00  0.00    -0.352 N 
ATOM      5  O   UNL     1      11.848 -15.706  -6.141  1.00  0.00    -0.269 OA
ATOM      6  C   UNL     1      11.455 -15.505  -5.001  1.00  0.00     0.251 C 
ATOM      7  H   UNL     1      11.195 -13.534  -5.272  1.00  0.00     0.163 HD
BRANCH   6   8
ATOM      8  C   UNL     1      11.331 -16.636  -4.053  1.00  0.00     0.039 A 
ATOM      9  C   UNL     1      10.199 -16.776  -3.246  1.00  0.00     0.014 A 
ATOM     10  C   UNL     1      12.369 -17.567  -3.975  1.00  0.00     0.014 A 
ATOM     11  C   UNL     1      10.167 -17.764  -2.267  1.00  0.00     0.010 A 
ATOM     12  C   UNL     1      12.298 -18.610  -3.047  1.00  0.00     0.010 A 
ATOM     13  C   UNL     1      11.210 -18.698  -2.166  1.00  0.00    -0.014 A 
BRANCH  13  14
ATOM     14  C   UNL     1      11.113 -19.797  -1.172  1.00  0.00     0.031 A 
ATOM     15  C   UNL     1      12.075 -19.896  -0.023  1.00  0.00     0.074 A 
ATOM     16  C   UNL     1      10.127 -20.704  -1.310  1.00  0.00     0.049 A 
ATOM     17  N   UNL     1      12.123 -20.784   0.939  1.00  0.00    -0.248 NA
ATOM     18  C   UNL     1      13.127 -18.873   0.053  1.00  0.00     0.031 C 
ATOM     19  C   UNL     1       9.142 -20.714  -2.392  1.00  0.00     0.029 A 
ATOM     20  N   UNL     1       9.781 -21.780  -0.534  1.00  0.00    -0.354 N 
ATOM     21  C   UNL     1      13.217 -20.440   1.721  1.00  0.00     0.074 A 
ATOM     22  C   UNL     1      13.823 -19.277   1.107  1.00  0.00     0.031 C 
ATOM     23  C   UNL     1       8.275 -21.716  -2.188  1.00  0.00     0.029 A 
ATOM     24  C   UNL     1       8.679 -22.454  -0.996  1.00  0.00     0.049 A 
ATOM     25  H   UNL     1      10.275 -22.043   0.276  1.00  0.00     0.167 HD
ATOM     26  C   UNL     1      13.668 -21.038   2.851  1.00  0.00     0.037 A 
ATOM     27  C   UNL     1       8.066 -23.554  -0.522  1.00  0.00     0.037 A 
ATOM     28  C   UNL     1      13.052 -22.189   3.462  1.00  0.00     0.049 A 
ATOM     29  C   UNL     1       8.603 -24.211   0.716  1.00  0.00     0.074 A 
ATOM     30  C   UNL     1      13.407 -22.842   4.630  1.00  0.00     0.029 A 
ATOM     31  N   UNL     1      11.956 -22.866   2.946  1.00  0.00    -0.354 N 
ATOM     32  N   UNL     1       9.614 -23.853   1.469  1.00  0.00    -0.248 NA
ATOM     33  C   UNL     1       7.916 -25.428   1.166  1.00  0.00     0.031 C 
ATOM     34  C   UNL     1      12.557 -23.942   4.794  1.00  0.00     0.029 A 
ATOM     35  C   UNL     1      11.638 -23.945   3.757  1.00  0.00     0.049 A 
ATOM     36  H   UNL     1      11.474 -22.617   2.124  1.00  0.00     0.167 HD
ATOM     37  C   UNL     1       9.675 -24.787   2.493  1.00  0.00     0.074 A 
ATOM     38  C   UNL     1       8.586 -25.719   2.272  1.00  0.00     0.031 C 
ATOM     39  C   UNL     1      10.553 -24.865   3.522  1.00  0.00     0.037 A 
BRANCH  26  40
ATOM     40  C   UNL     1      14.905 -20.472   3.490  1.00  0.00     0.064 A 
ATOM     41  C   UNL     1      14.900 -19.228   4.140  1.00  0.00     0.173 A 
ATOM     42  C   UNL     1      16.107 -21.197   3.475  1.00  0.00     0.173 A 
ATOM     43  F   UNL     1      13.781 -18.489   4.176  1.00  0.00    -0.203 F 
ATOM     44  C   UNL     1      16.059 -18.718   4.722  1.00  0.00     0.198 A 
ATOM     45  C   UNL     1      17.256 -20.697   4.082  1.00  0.00     0.198 A 
ATOM     46  F   UNL     1      16.167 -22.395   2.874  1.00  0.00    -0.203 F 
ATOM     47  F   UNL     1      16.042 -17.505   5.292  1.00  0.00    -0.200 F 
ATOM     48  C   UNL     1      17.234 -19.454   4.697  1.00  0.00     0.200 A 
ATOM     49  F   UNL     1      18.387 -21.416   4.068  1.00  0.00    -0.200 F 
ATOM     50  F   UNL     1      18.347 -18.962   5.258  1.00  0.00    -0.200 F 
ENDBRANCH  26  40
BRANCH  27  51
ATOM     51  C   UNL     1       6.869 -24.083  -1.223  1.00  0.00     0.064 A 
ATOM     52  C   UNL     1       5.597 -23.983  -0.645  1.00  0.00     0.173 A 
ATOM     53  C   UNL     1       6.967 -24.662  -2.496  1.00  0.00     0.173 A 
ATOM     54  F   UNL     1       5.457 -23.451   0.578  1.00  0.00    -0.203 F 
ATOM     55  C   UNL     1       4.467 -24.448  -1.313  1.00  0.00     0.198 A 
ATOM     56  C   UNL     1       5.833 -25.102  -3.175  1.00  0.00     0.198 A 
ATOM     57  F   UNL     1       8.163 -24.774  -3.093  1.00  0.00    -0.203 F 
ATOM     58  F   UNL     1       3.265 -24.367  -0.727  1.00  0.00    -0.200 F 
ATOM     59  C   UNL     1       4.585 -24.999  -2.581  1.00  0.00     0.200 A 
ATOM     60  F   UNL     1       5.950 -25.616  -4.407  1.00  0.00    -0.200 F 
ATOM     61  F   UNL     1       3.495 -25.431  -3.229  1.00  0.00    -0.200 F 
ENDBRANCH  27  51
BRANCH  39  62
ATOM     62  C   UNL     1      10.354 -25.983   4.504  1.00  0.00     0.064 A 
ATOM     63  C   UNL     1      10.642 -27.314   4.172  1.00  0.00     0.173 A 
ATOM     64  C   UNL     1       9.890 -25.713   5.800  1.00  0.00     0.173 A 
ATOM     65  F   UNL     1      11.071 -27.625   2.939  1.00  0.00    -0.203 F 
ATOM     66  C   UNL     1      10.448 -28.339   5.094  1.00  0.00     0.198 A 
ATOM     67  C   UNL     1       9.725 -26.736   6.729  1.00  0.00     0.198 A 
ATOM     68  F   UNL     1       9.603 -24.455   6.168  1.00  0.00    -0.203 F 
ATOM     69  F   UNL     1      10.682 -29.610   4.740  1.00  0.00    -0.200 F 
ATOM     70  C   UNL     1       9.996 -28.049   6.373  1.00  0.00     0.200 A 
ATOM     71  F   UNL     1       9.298 -26.453   7.967  1.00  0.00    -0.200 F 
ATOM     72  F   UNL     1       9.813 -29.036   7.261  1.00  0.00    -0.200 F 
ENDBRANCH  39  62
ENDBRANCH  13  14
ENDBRANCH   6   8
ENDBRANCH   3   4
ENDBRANCH   2   3
ENDBRANCH   1   2
BRANCH   1  73
ATOM     73  C   UNL     1       9.955 -10.866  -3.873  1.00  0.00     0.002 C 
BRANCH  73  74
ATOM     74  C   UNL     1       9.048 -10.754  -2.642  1.00  0.00     0.021 C 
BRANCH  74  75
ATOM     75  C   UNL     1       9.526  -9.823  -1.531  1.00  0.00     0.116 C 
BRANCH  75  76
ATOM     76  N   UNL     1       9.701  -8.468  -1.990  1.00  0.00    -0.354 N 
ATOM     77  C   UNL     1       9.550  -7.281  -1.348  1.00  0.00     0.242 C 
ATOM     78  H   UNL     1       9.978  -8.390  -2.932  1.00  0.00     0.163 HD
ATOM     79  O   UNL     1       9.711  -6.283  -2.065  1.00  0.00    -0.273 OA
BRANCH  77  80
ATOM     80  C   UNL     1       9.146  -7.168   0.162  1.00  0.00     0.173 C 
ATOM     81  C   UNL     1       9.875  -8.085   1.153  1.00  0.00     0.035 C 
ATOM     82  N   UNL     1       9.412  -5.786   0.605  1.00  0.00    -0.344 N 
ATOM     83  C   UNL     1      11.366  -7.762   1.225  1.00  0.00     0.004 C 
ATOM     84  C   UNL     1      10.798  -5.342   0.685  1.00  0.00     0.119 C 
ATOM     85  C   UNL     1      11.588  -6.293   1.589  1.00  0.00     0.022 C 
BRANCH  82  86
ATOM     86  C   UNL     1       8.378  -5.015   1.073  1.00  0.00     0.133 A 
ATOM     87  C   UNL     1       8.221  -3.714   0.641  1.00  0.00     0.076 A 
ATOM     88  N   UNL     1       7.518  -5.567   1.941  1.00  0.00    -0.211 NA
ATOM     89  C   UNL     1       7.139  -3.005   1.125  1.00  0.00     0.076 A 
ATOM     90  C   UNL     1       6.512  -4.796   2.388  1.00  0.00     0.162 A 
ATOM     91  N   UNL     1       6.274  -3.529   2.015  1.00  0.00    -0.228 NA
BRANCH  89  92
ATOM     92  C   UNL     1       6.863  -1.632   0.689  1.00  0.00     0.000 A 
ATOM     93  C   UNL     1       6.822  -0.578   1.615  1.00  0.00     0.010 A 
ATOM     94  C   UNL     1       6.642  -1.333  -0.667  1.00  0.00     0.010 A 
ATOM     95  C   UNL     1       6.588   0.735   1.198  1.00  0.00     0.001 A 
ATOM     96  C   UNL     1       6.396  -0.023  -1.083  1.00  0.00     0.001 A 
ATOM     97  C   UNL     1       6.375   1.012  -0.151  1.00  0.00     0.000 A 
ENDBRANCH  89  92
BRANCH  90  98
ATOM     98  C   UNL     1       5.604  -5.395   3.368  1.00  0.00     0.021 A 
ATOM     99  C   UNL     1       6.101  -6.013   4.530  1.00  0.00     0.012 A 
ATOM    100  C   UNL     1       4.214  -5.380   3.167  1.00  0.00     0.032 A 
ATOM    101  C   UNL     1       5.241  -6.595   5.464  1.00  0.00     0.002 A 
ATOM    102  C   UNL     1       3.359  -5.981   4.091  1.00  0.00     0.041 A 
ATOM    103  C   UNL     1       3.866  -6.584   5.240  1.00  0.00     0.020 A 
ATOM    104  Cl  UNL     1       1.662  -5.990   3.803  1.00  0.00    -0.084 Cl
ENDBRANCH  90  98
ENDBRANCH  82  86
ENDBRANCH  77  80
ENDBRANCH  75  76
ENDBRANCH  74  75
ENDBRANCH  73  74
ENDBRANCH   1  73
TORSDOF 16
