REMARK SMILES O=C(C[C@@H]1CN(c2nc3ccccc3s2)CCO1)NCCCCCCNC(=O)c1ccc(-c2c3nc(c(-c4c(F)c(F)c(F)c(F)c4F)c4ccc([nH]4)c(-c4c(F)c(F)c(F)c(F)c4F)c4nc(c(-c5c(F)c(F)c(F)c(F)c5F)c5ccc2[nH]5)C=C4)C=C3)cc1
REMARK SMILES IDX 22 1 21 2 20 3 19 4 1 5 2 6 3 8 4 9 5 10 18 11 6 12 17 13
REMARK SMILES IDX 16 14 7 15 8 16 15 17 9 18 14 19 10 20 13 21 11 22 12 23
REMARK SMILES IDX 23 24 24 25 25 26 26 27 27 28 28 30 29 31 30 32 91 33 31 34
REMARK SMILES IDX 90 35 32 36 33 37 34 38 84 39 35 40 89 41 83 42 85 43 36 44
REMARK SMILES IDX 88 45 82 46 81 47 37 49 69 50 49 51 68 52 50 53 53 54 67 55
REMARK SMILES IDX 86 56 51 57 52 58 66 60 87 61 54 62 38 63 39 64 47 65 40 66
REMARK SMILES IDX 41 67 45 68 48 69 42 70 43 71 46 72 44 73 70 74 71 75 79 76
REMARK SMILES IDX 72 77 73 78 77 79 80 80 74 81 75 82 78 83 76 84 55 85 56 86
REMARK SMILES IDX 64 87 57 88 58 89 62 90 65 91 59 92 60 93 63 94 61 95
REMARK H PARENT 19 7 26 29 85 48 53 59
REMARK Flexibility Score: inf
ROOT
ATOM      1  C   UNL     1       4.240   3.180   1.840  1.00  0.00     0.002 C 
ENDROOT
BRANCH   1   2
ATOM      2  C   UNL     1       2.730   2.896   1.849  1.00  0.00     0.021 C 
BRANCH   2   3
ATOM      3  C   UNL     1       2.168   2.388   0.521  1.00  0.00     0.116 C 
BRANCH   3   4
ATOM      4  N   UNL     1       2.827   1.169   0.117  1.00  0.00    -0.356 N 
ATOM      5  O   UNL     1       1.011  -0.234   0.217  1.00  0.00    -0.275 OA
ATOM      6  C   UNL     1       2.210  -0.053   0.042  1.00  0.00     0.222 C 
ATOM      7  H   UNL     1       3.781   1.219  -0.121  1.00  0.00     0.163 HD
BRANCH   6   8
ATOM      8  C   UNL     1       3.175  -1.197  -0.176  1.00  0.00     0.133 C 
BRANCH   8   9
ATOM      9  C   UNL     1       4.008  -1.035  -1.444  1.00  0.00     0.147 C 
ATOM     10  C   UNL     1       4.858  -2.302  -1.661  1.00  0.00     0.151 C 
ATOM     11  O   UNL     1       4.882   0.120  -1.310  1.00  0.00    -0.374 OA
ATOM     12  N   UNL     1       5.710  -2.104  -2.830  1.00  0.00    -0.343 N 
ATOM     13  C   UNL     1       5.674   0.295  -2.506  1.00  0.00     0.182 C 
ATOM     14  C   UNL     1       6.571  -0.929  -2.770  1.00  0.00     0.147 C 
BRANCH  12  15
ATOM     15  C   UNL     1       5.996  -3.136  -3.655  1.00  0.00     0.186 A 
ATOM     16  N   UNL     1       7.205  -3.571  -3.919  1.00  0.00    -0.220 NA
ATOM     17  S   UNL     1       4.731  -3.935  -4.516  1.00  0.00    -0.097 S 
ATOM     18  C   UNL     1       7.148  -4.650  -4.789  1.00  0.00     0.084 A 
ATOM     19  C   UNL     1       5.875  -4.969  -5.260  1.00  0.00     0.056 A 
ATOM     20  C   UNL     1       8.240  -5.426  -5.227  1.00  0.00     0.030 A 
ATOM     21  C   UNL     1       5.654  -5.999  -6.187  1.00  0.00     0.021 A 
ATOM     22  C   UNL     1       8.030  -6.475  -6.131  1.00  0.00     0.002 A 
ATOM     23  C   UNL     1       6.753  -6.747  -6.613  1.00  0.00     0.002 A 
ENDBRANCH  12  15
ENDBRANCH   8   9
ENDBRANCH   6   8
ENDBRANCH   3   4
ENDBRANCH   2   3
ENDBRANCH   1   2
BRANCH   1  24
ATOM     24  C   UNL     1       4.713   4.197   0.797  1.00  0.00     0.002 C 
BRANCH  24  25
ATOM     25  C   UNL     1       4.044   5.570   0.875  1.00  0.00     0.021 C 
BRANCH  25  26
ATOM     26  C   UNL     1       4.191   6.282   2.216  1.00  0.00     0.116 C 
BRANCH  26  27
ATOM     27  N   UNL     1       5.573   6.619   2.523  1.00  0.00    -0.352 N 
ATOM     28  C   UNL     1       6.116   7.823   2.896  1.00  0.00     0.251 C 
ATOM     29  H   UNL     1       6.212   5.873   2.454  1.00  0.00     0.163 HD
ATOM     30  O   UNL     1       7.337   7.956   2.958  1.00  0.00    -0.269 OA
BRANCH  28  31
ATOM     31  C   UNL     1       5.239   8.976   3.195  1.00  0.00     0.039 A 
ATOM     32  C   UNL     1       5.577  10.231   2.683  1.00  0.00     0.014 A 
ATOM     33  C   UNL     1       4.092   8.827   3.979  1.00  0.00     0.014 A 
ATOM     34  C   UNL     1       4.729  11.320   2.898  1.00  0.00     0.010 A 
ATOM     35  C   UNL     1       3.210   9.895   4.129  1.00  0.00     0.010 A 
ATOM     36  C   UNL     1       3.518  11.153   3.589  1.00  0.00    -0.014 A 
BRANCH  36  37
ATOM     37  C   UNL     1       2.558  12.278   3.741  1.00  0.00     0.031 A 
ATOM     38  C   UNL     1       2.221  12.813   5.105  1.00  0.00     0.074 A 
ATOM     39  C   UNL     1       1.942  12.778   2.652  1.00  0.00     0.049 A 
ATOM     40  N   UNL     1       1.366  13.746   5.441  1.00  0.00    -0.248 NA
ATOM     41  C   UNL     1       2.918  12.200   6.246  1.00  0.00     0.031 C 
ATOM     42  C   UNL     1       2.147  12.314   1.278  1.00  0.00     0.029 A 
ATOM     43  N   UNL     1       1.010  13.778   2.528  1.00  0.00    -0.354 N 
ATOM     44  C   UNL     1       1.415  13.825   6.826  1.00  0.00     0.074 A 
ATOM     45  C   UNL     1       2.341  12.807   7.274  1.00  0.00     0.031 C 
ATOM     46  C   UNL     1       1.384  13.043   0.449  1.00  0.00     0.029 A 
ATOM     47  C   UNL     1       0.604  13.996   1.234  1.00  0.00     0.049 A 
ATOM     48  H   UNL     1       0.665  14.292   3.294  1.00  0.00     0.167 HD
ATOM     49  C   UNL     1       0.764  14.683   7.649  1.00  0.00     0.037 A 
ATOM     50  C   UNL     1      -0.303  14.858   0.735  1.00  0.00     0.037 A 
ATOM     51  C   UNL     1      -0.145  15.705   7.199  1.00  0.00     0.049 A 
ATOM     52  C   UNL     1      -1.026  15.788   1.673  1.00  0.00     0.074 A 
ATOM     53  C   UNL     1      -0.808  16.660   7.949  1.00  0.00     0.029 A 
ATOM     54  N   UNL     1      -0.524  15.900   5.879  1.00  0.00    -0.354 N 
ATOM     55  N   UNL     1      -0.915  15.902   2.974  1.00  0.00    -0.248 NA
ATOM     56  C   UNL     1      -1.995  16.713   1.071  1.00  0.00     0.031 C 
ATOM     57  C   UNL     1      -1.631  17.397   7.092  1.00  0.00     0.029 A 
ATOM     58  C   UNL     1      -1.435  16.943   5.798  1.00  0.00     0.049 A 
ATOM     59  H   UNL     1      -0.196  15.376   5.113  1.00  0.00     0.167 HD
ATOM     60  C   UNL     1      -1.775  16.929   3.342  1.00  0.00     0.074 A 
ATOM     61  C   UNL     1      -2.388  17.416   2.124  1.00  0.00     0.031 C 
ATOM     62  C   UNL     1      -2.033  17.423   4.578  1.00  0.00     0.037 A 
BRANCH  49  63
ATOM     63  C   UNL     1       1.012  14.553   9.126  1.00  0.00     0.064 A 
ATOM     64  C   UNL     1       2.250  14.883   9.698  1.00  0.00     0.173 A 
ATOM     65  C   UNL     1      -0.015  14.133   9.986  1.00  0.00     0.173 A 
ATOM     66  F   UNL     1       3.268  15.281   8.920  1.00  0.00    -0.203 F 
ATOM     67  C   UNL     1       2.461  14.768  11.069  1.00  0.00     0.198 A 
ATOM     68  C   UNL     1       0.189  14.051  11.361  1.00  0.00     0.198 A 
ATOM     69  F   UNL     1      -1.221  13.813   9.494  1.00  0.00    -0.203 F 
ATOM     70  F   UNL     1       3.667  15.039  11.585  1.00  0.00    -0.200 F 
ATOM     71  C   UNL     1       1.429  14.360  11.900  1.00  0.00     0.200 A 
ATOM     72  F   UNL     1      -0.814  13.672  12.164  1.00  0.00    -0.200 F 
ATOM     73  F   UNL     1       1.630  14.258  13.221  1.00  0.00    -0.200 F 
ENDBRANCH  49  63
BRANCH  50  74
ATOM     74  C   UNL     1      -0.566  14.899  -0.728  1.00  0.00     0.064 A 
ATOM     75  C   UNL     1      -0.193  16.010  -1.497  1.00  0.00     0.173 A 
ATOM     76  C   UNL     1      -1.202  13.835  -1.385  1.00  0.00     0.173 A 
ATOM     77  F   UNL     1       0.399  17.061  -0.910  1.00  0.00    -0.203 F 
ATOM     78  C   UNL     1      -0.466  16.066  -2.862  1.00  0.00     0.198 A 
ATOM     79  C   UNL     1      -1.446  13.879  -2.756  1.00  0.00     0.198 A 
ATOM     80  F   UNL     1      -1.575  12.746  -0.697  1.00  0.00    -0.203 F 
ATOM     81  F   UNL     1      -0.144  17.162  -3.562  1.00  0.00    -0.200 F 
ATOM     82  C   UNL     1      -1.087  14.998  -3.492  1.00  0.00     0.200 A 
ATOM     83  F   UNL     1      -2.032  12.838  -3.364  1.00  0.00    -0.200 F 
ATOM     84  F   UNL     1      -1.347  15.051  -4.805  1.00  0.00    -0.200 F 
ENDBRANCH  50  74
BRANCH  62  85
ATOM     85  C   UNL     1      -2.991  18.576   4.674  1.00  0.00     0.064 A 
ATOM     86  C   UNL     1      -4.365  18.417   4.441  1.00  0.00     0.173 A 
ATOM     87  C   UNL     1      -2.532  19.851   5.040  1.00  0.00     0.173 A 
ATOM     88  F   UNL     1      -4.854  17.223   4.073  1.00  0.00    -0.203 F 
ATOM     89  C   UNL     1      -5.239  19.497   4.544  1.00  0.00     0.198 A 
ATOM     90  C   UNL     1      -3.413  20.920   5.175  1.00  0.00     0.198 A 
ATOM     91  F   UNL     1      -1.228  20.057   5.281  1.00  0.00    -0.203 F 
ATOM     92  F   UNL     1      -6.540  19.332   4.265  1.00  0.00    -0.200 F 
ATOM     93  C   UNL     1      -4.764  20.744   4.919  1.00  0.00     0.200 A 
ATOM     94  F   UNL     1      -2.954  22.121   5.553  1.00  0.00    -0.200 F 
ATOM     95  F   UNL     1      -5.607  21.780   5.025  1.00  0.00    -0.200 F 
ENDBRANCH  62  85
ENDBRANCH  36  37
ENDBRANCH  28  31
ENDBRANCH  26  27
ENDBRANCH  25  26
ENDBRANCH  24  25
ENDBRANCH   1  24
TORSDOF 15
