REMARK SMILES O=C(NCCCCCCNC(=O)c1coc(-c2csc(-c3ccc(Cl)cn3)n2)c1)c1ccc(-c2c3nc(c(-c4c(F)c(F)c(F)c(F)c4F)c4ccc([nH]4)c(-c4c(F)c(F)c(F)c(F)c4F)c4nc(c(-c5c(F)c(F)c(F)c(F)c5F)c5ccc2[nH]5)C=C4)C=C3)cc1
REMARK SMILES IDX 6 1 5 2 4 3 3 4 1 5 2 6 30 8 31 9 92 10 32 11 91 12 33 13
REMARK SMILES IDX 34 14 35 15 85 16 36 17 90 18 84 19 86 20 37 21 89 22 83 23
REMARK SMILES IDX 82 24 38 26 70 27 50 28 69 29 51 30 54 31 68 32 87 33 52 34
REMARK SMILES IDX 53 35 67 37 88 38 55 39 39 40 40 41 48 42 41 43 42 44 46 45
REMARK SMILES IDX 49 46 43 47 44 48 47 49 45 50 71 51 72 52 80 53 73 54 74 55
REMARK SMILES IDX 78 56 81 57 75 58 76 59 79 60 77 61 56 62 57 63 65 64 58 65
REMARK SMILES IDX 59 66 63 67 66 68 60 69 61 70 64 71 62 72 7 73 8 74 9 75
REMARK SMILES IDX 10 76 11 77 12 79 13 80 14 81 29 82 15 83 16 84 17 85 18 86
REMARK SMILES IDX 28 87 19 88 20 89 21 90 22 91 27 92 23 93 26 94 24 95 25 96
REMARK H PARENT 3 7 86 25 54 36 10 78
REMARK Flexibility Score: inf
ROOT
ATOM      1  C   UNL     1       4.139  -2.927   2.833  1.00  0.00     0.002 C 
ENDROOT
BRANCH   1   2
ATOM      2  C   UNL     1       4.324  -1.406   2.756  1.00  0.00     0.021 C 
BRANCH   2   3
ATOM      3  C   UNL     1       4.324  -0.813   1.346  1.00  0.00     0.116 C 
BRANCH   3   4
ATOM      4  N   UNL     1       3.066  -1.025   0.654  1.00  0.00    -0.352 N 
ATOM      5  O   UNL     1       1.288  -0.517  -0.628  1.00  0.00    -0.269 OA
ATOM      6  C   UNL     1       2.416  -0.220  -0.245  1.00  0.00     0.251 C 
ATOM      7  H   UNL     1       2.611  -1.874   0.862  1.00  0.00     0.163 HD
BRANCH   6   8
ATOM      8  C   UNL     1       3.048   1.021  -0.747  1.00  0.00     0.039 A 
ATOM      9  C   UNL     1       4.354   1.027  -1.246  1.00  0.00     0.014 A 
ATOM     10  C   UNL     1       2.275   2.187  -0.791  1.00  0.00     0.014 A 
ATOM     11  C   UNL     1       4.904   2.213  -1.739  1.00  0.00     0.010 A 
ATOM     12  C   UNL     1       2.821   3.369  -1.295  1.00  0.00     0.010 A 
ATOM     13  C   UNL     1       4.143   3.392  -1.760  1.00  0.00    -0.014 A 
BRANCH  13  14
ATOM     14  C   UNL     1       4.726   4.643  -2.295  1.00  0.00     0.031 A 
ATOM     15  C   UNL     1       5.321   5.660  -1.369  1.00  0.00     0.074 A 
ATOM     16  C   UNL     1       4.716   4.863  -3.621  1.00  0.00     0.049 A 
ATOM     17  N   UNL     1       5.900   6.798  -1.658  1.00  0.00    -0.248 NA
ATOM     18  C   UNL     1       5.256   5.362   0.069  1.00  0.00     0.031 C 
ATOM     19  C   UNL     1       4.153   3.959  -4.623  1.00  0.00     0.029 A 
ATOM     20  N   UNL     1       5.197   5.920  -4.351  1.00  0.00    -0.354 N 
ATOM     21  C   UNL     1       6.263   7.355  -0.442  1.00  0.00     0.074 A 
ATOM     22  C   UNL     1       5.839   6.433   0.592  1.00  0.00     0.031 C 
ATOM     23  C   UNL     1       4.329   4.496  -5.842  1.00  0.00     0.029 A 
ATOM     24  C   UNL     1       5.012   5.779  -5.702  1.00  0.00     0.049 A 
ATOM     25  H   UNL     1       5.633   6.703  -3.944  1.00  0.00     0.167 HD
ATOM     26  C   UNL     1       6.898   8.527  -0.208  1.00  0.00     0.037 A 
ATOM     27  C   UNL     1       5.359   6.595  -6.714  1.00  0.00     0.037 A 
ATOM     28  C   UNL     1       7.339   9.444  -1.224  1.00  0.00     0.049 A 
ATOM     29  C   UNL     1       6.059   7.889  -6.427  1.00  0.00     0.074 A 
ATOM     30  C   UNL     1       8.037  10.630  -1.076  1.00  0.00     0.029 A 
ATOM     31  N   UNL     1       7.118   9.275  -2.581  1.00  0.00    -0.354 N 
ATOM     32  N   UNL     1       6.430   8.387  -5.275  1.00  0.00    -0.248 NA
ATOM     33  C   UNL     1       6.386   8.735  -7.585  1.00  0.00     0.031 C 
ATOM     34  C   UNL     1       8.233  11.185  -2.348  1.00  0.00     0.029 A 
ATOM     35  C   UNL     1       7.656  10.341  -3.282  1.00  0.00     0.049 A 
ATOM     36  H   UNL     1       6.648   8.511  -2.986  1.00  0.00     0.167 HD
ATOM     37  C   UNL     1       7.036   9.600  -5.564  1.00  0.00     0.074 A 
ATOM     38  C   UNL     1       6.982   9.767  -7.002  1.00  0.00     0.031 C 
ATOM     39  C   UNL     1       7.590  10.493  -4.710  1.00  0.00     0.037 A 
BRANCH  26  40
ATOM     40  C   UNL     1       7.158   8.883   1.218  1.00  0.00     0.064 A 
ATOM     41  C   UNL     1       8.332   8.467   1.860  1.00  0.00     0.173 A 
ATOM     42  C   UNL     1       6.245   9.664   1.939  1.00  0.00     0.173 A 
ATOM     43  F   UNL     1       9.224   7.706   1.208  1.00  0.00    -0.203 F 
ATOM     44  C   UNL     1       8.584   8.822   3.182  1.00  0.00     0.198 A 
ATOM     45  C   UNL     1       6.500  10.017   3.261  1.00  0.00     0.198 A 
ATOM     46  F   UNL     1       5.104  10.071   1.365  1.00  0.00    -0.203 F 
ATOM     47  F   UNL     1       9.706   8.405   3.784  1.00  0.00    -0.200 F 
ATOM     48  C   UNL     1       7.669   9.597   3.880  1.00  0.00     0.200 A 
ATOM     49  F   UNL     1       5.612  10.756   3.939  1.00  0.00    -0.200 F 
ATOM     50  F   UNL     1       7.910   9.932   5.155  1.00  0.00    -0.200 F 
ENDBRANCH  26  40
BRANCH  27  51
ATOM     51  C   UNL     1       5.052   6.196  -8.104  1.00  0.00     0.064 A 
ATOM     52  C   UNL     1       5.987   5.485  -8.866  1.00  0.00     0.173 A 
ATOM     53  C   UNL     1       3.817   6.505  -8.686  1.00  0.00     0.173 A 
ATOM     54  F   UNL     1       7.186   5.185  -8.347  1.00  0.00    -0.203 F 
ATOM     55  C   UNL     1       5.693   5.092 -10.169  1.00  0.00     0.198 A 
ATOM     56  C   UNL     1       3.524   6.110  -9.989  1.00  0.00     0.198 A 
ATOM     57  F   UNL     1       2.902   7.195  -7.990  1.00  0.00    -0.203 F 
ATOM     58  F   UNL     1       6.603   4.418 -10.885  1.00  0.00    -0.200 F 
ATOM     59  C   UNL     1       4.462   5.403 -10.728  1.00  0.00     0.200 A 
ATOM     60  F   UNL     1       2.338   6.419 -10.530  1.00  0.00    -0.200 F 
ATOM     61  F   UNL     1       4.181   5.027 -11.983  1.00  0.00    -0.200 F 
ENDBRANCH  27  51
BRANCH  39  62
ATOM     62  C   UNL     1       8.180  11.727  -5.310  1.00  0.00     0.064 A 
ATOM     63  C   UNL     1       7.397  12.871  -5.514  1.00  0.00     0.173 A 
ATOM     64  C   UNL     1       9.537  11.778  -5.653  1.00  0.00     0.173 A 
ATOM     65  F   UNL     1       6.091  12.858  -5.208  1.00  0.00    -0.203 F 
ATOM     66  C   UNL     1       7.955  14.028  -6.047  1.00  0.00     0.198 A 
ATOM     67  C   UNL     1      10.093  12.938  -6.185  1.00  0.00     0.198 A 
ATOM     68  F   UNL     1      10.318  10.701  -5.480  1.00  0.00    -0.203 F 
ATOM     69  F   UNL     1       7.190  15.110  -6.246  1.00  0.00    -0.200 F 
ATOM     70  C   UNL     1       9.302  14.061  -6.381  1.00  0.00     0.200 A 
ATOM     71  F   UNL     1      11.392  12.968  -6.513  1.00  0.00    -0.200 F 
ATOM     72  F   UNL     1       9.837  15.175  -6.899  1.00  0.00    -0.200 F 
ENDBRANCH  39  62
ENDBRANCH  13  14
ENDBRANCH   6   8
ENDBRANCH   3   4
ENDBRANCH   2   3
ENDBRANCH   1   2
BRANCH   1  73
ATOM     73  C   UNL     1       5.177  -3.762   2.077  1.00  0.00     0.002 C 
BRANCH  73  74
ATOM     74  C   UNL     1       6.636  -3.552   2.505  1.00  0.00     0.021 C 
BRANCH  74  75
ATOM     75  C   UNL     1       6.922  -3.846   3.980  1.00  0.00     0.116 C 
BRANCH  75  76
ATOM     76  N   UNL     1       6.641  -5.232   4.310  1.00  0.00    -0.352 N 
ATOM     77  C   UNL     1       7.498  -6.301   4.360  1.00  0.00     0.254 C 
ATOM     78  H   UNL     1       5.702  -5.433   4.528  1.00  0.00     0.163 HD
ATOM     79  O   UNL     1       7.036  -7.438   4.318  1.00  0.00    -0.269 OA
BRANCH  77  80
ATOM     80  C   UNL     1       8.919  -6.060   4.460  1.00  0.00     0.078 A 
ATOM     81  C   UNL     1       9.552  -5.296   5.419  1.00  0.00     0.209 A 
ATOM     82  C   UNL     1       9.967  -6.640   3.692  1.00  0.00     0.066 A 
ATOM     83  O   UNL     1      10.899  -5.349   5.271  1.00  0.00    -0.462 OA
ATOM     84  C   UNL     1      11.158  -6.172   4.211  1.00  0.00     0.153 A 
BRANCH  84  85
ATOM     85  C   UNL     1      12.517  -6.522   3.716  1.00  0.00     0.117 A 
ATOM     86  C   UNL     1      13.667  -6.132   4.366  1.00  0.00     0.099 A 
ATOM     87  N   UNL     1      12.706  -7.265   2.564  1.00  0.00    -0.231 NA
ATOM     88  S   UNL     1      15.034  -6.757   3.546  1.00  0.00    -0.120 S 
ATOM     89  C   UNL     1      13.996  -7.470   2.364  1.00  0.00     0.142 A 
BRANCH  89  90
ATOM     90  C   UNL     1      14.554  -8.200   1.213  1.00  0.00     0.099 A 
ATOM     91  C   UNL     1      13.828  -8.305   0.026  1.00  0.00     0.033 A 
ATOM     92  N   UNL     1      15.780  -8.765   1.367  1.00  0.00    -0.252 NA
ATOM     93  C   UNL     1      14.378  -9.004  -1.048  1.00  0.00     0.024 A 
ATOM     94  C   UNL     1      16.284  -9.450   0.310  1.00  0.00     0.132 A 
ATOM     95  C   UNL     1      15.628  -9.591  -0.903  1.00  0.00     0.059 A 
ATOM     96  Cl  UNL     1      16.340 -10.466  -2.195  1.00  0.00    -0.083 Cl
ENDBRANCH  89  90
ENDBRANCH  84  85
ENDBRANCH  77  80
ENDBRANCH  75  76
ENDBRANCH  74  75
ENDBRANCH  73  74
ENDBRANCH   1  73
TORSDOF 15
