REMARK SMILES Cc1cc(C(=O)N2C[C@@H](C(=O)NCCCCCCNC(=O)c3ccc(-c4c5nc(c(-c6c(F)c(F)c(F)c(F)c6F)c6ccc([nH]6)c(-c6c(F)c(F)c(F)c(F)c6F)c6nc(c(-c7c(F)c(F)c(F)c(F)c7F)c7ccc4[nH]7)C=C6)C=C5)cc3)[C@H](C(C)C)C2)cs1
REMARK SMILES IDX 15 1 14 2 13 3 12 4 10 5 11 6 9 8 7 9 8 10 89 11 85 12 5 13
REMARK SMILES IDX 6 14 4 15 1 16 2 17 3 18 91 19 90 20 86 21 87 22 88 23 16 24
REMARK SMILES IDX 17 25 18 26 19 27 20 28 21 30 22 31 23 32 84 33 24 34 83 35
REMARK SMILES IDX 25 36 26 37 27 38 77 39 28 40 82 41 76 42 78 43 29 44 81 45
REMARK SMILES IDX 75 46 74 47 30 49 62 50 42 51 61 52 43 53 46 54 60 55 79 56
REMARK SMILES IDX 44 57 45 58 59 60 80 61 47 62 31 63 32 64 40 65 33 66 34 67
REMARK SMILES IDX 38 68 41 69 35 70 36 71 39 72 37 73 63 74 64 75 72 76 65 77
REMARK SMILES IDX 66 78 70 79 73 80 67 81 68 82 71 83 69 84 48 85 49 86 57 87
REMARK SMILES IDX 50 88 51 89 55 90 58 91 52 92 53 93 56 94 54 95
REMARK H PARENT 12 7 19 29 78 48 46 59
REMARK Flexibility Score: inf
ROOT
ATOM      1  C   UNL     1      -0.221  -6.518   5.092  1.00  0.00     0.002 C 
ENDROOT
BRANCH   1   2
ATOM      2  C   UNL     1      -0.565  -5.437   4.057  1.00  0.00     0.021 C 
BRANCH   2   3
ATOM      3  C   UNL     1       0.478  -5.306   2.943  1.00  0.00     0.116 C 
BRANCH   3   4
ATOM      4  N   UNL     1       0.369  -6.429   2.034  1.00  0.00    -0.356 N 
ATOM      5  C   UNL     1      -0.418  -6.629   0.946  1.00  0.00     0.225 C 
ATOM      6  O   UNL     1      -0.702  -7.808   0.717  1.00  0.00    -0.275 OA
ATOM      7  H   UNL     1       0.972  -7.179   2.242  1.00  0.00     0.163 HD
BRANCH   5   8
ATOM      8  C   UNL     1      -0.783  -5.516  -0.039  1.00  0.00     0.103 C 
ATOM      9  N   UNL     1      -2.088  -3.621  -0.468  1.00  0.00    -0.337 N 
ATOM     10  C   UNL     1      -1.272  -4.213   0.565  1.00  0.00     0.133 C 
ATOM     11  C   UNL     1      -2.788  -4.651  -1.190  1.00  0.00     0.124 C 
ATOM     12  C   UNL     1      -1.951  -5.935  -0.998  1.00  0.00     0.025 C 
BRANCH   9  13
ATOM     13  C   UNL     1      -2.369  -2.284  -0.680  1.00  0.00     0.254 C 
ATOM     14  O   UNL     1      -3.407  -1.926  -1.239  1.00  0.00    -0.269 OA
BRANCH  13  15
ATOM     15  C   UNL     1      -1.361  -1.299  -0.276  1.00  0.00     0.050 A 
ATOM     16  C   UNL     1       2.220  -0.059   0.040  1.00  0.00     0.056 C 
ATOM     17  C   UNL     1       0.748  -0.293   0.021  1.00  0.00     0.002 A 
ATOM     18  C   UNL     1       0.069  -1.419  -0.395  1.00  0.00     0.029 A 
ATOM     19  S   UNL     1      -0.329   0.936   0.515  1.00  0.00    -0.148 S 
ATOM     20  C   UNL     1      -1.694  -0.031   0.165  1.00  0.00     0.079 A 
ENDBRANCH  13  15
ENDBRANCH   9  13
BRANCH  12  21
ATOM     21  C   UNL     1      -1.493  -6.520  -2.365  1.00  0.00    -0.012 C 
ATOM     22  C   UNL     1      -0.549  -7.718  -2.240  1.00  0.00     0.008 C 
ATOM     23  C   UNL     1      -2.703  -6.952  -3.208  1.00  0.00     0.008 C 
ENDBRANCH  12  21
ENDBRANCH   5   8
ENDBRANCH   3   4
ENDBRANCH   2   3
ENDBRANCH   1   2
BRANCH   1  24
ATOM     24  C   UNL     1       1.095  -6.295   5.847  1.00  0.00     0.002 C 
BRANCH  24  25
ATOM     25  C   UNL     1       1.237  -4.920   6.506  1.00  0.00     0.021 C 
BRANCH  25  26
ATOM     26  C   UNL     1       0.155  -4.599   7.532  1.00  0.00     0.116 C 
BRANCH  26  27
ATOM     27  N   UNL     1       0.227  -5.477   8.688  1.00  0.00    -0.352 N 
ATOM     28  C   UNL     1       0.298  -5.153  10.020  1.00  0.00     0.251 C 
ATOM     29  H   UNL     1       0.226  -6.441   8.487  1.00  0.00     0.163 HD
ATOM     30  O   UNL     1       0.559  -6.011  10.853  1.00  0.00    -0.269 OA
BRANCH  28  31
ATOM     31  C   UNL     1       0.071  -3.756  10.448  1.00  0.00     0.039 A 
ATOM     32  C   UNL     1       0.938  -3.188  11.385  1.00  0.00     0.014 A 
ATOM     33  C   UNL     1      -1.005  -3.019   9.945  1.00  0.00     0.014 A 
ATOM     34  C   UNL     1       0.754  -1.863  11.784  1.00  0.00     0.010 A 
ATOM     35  C   UNL     1      -1.151  -1.680  10.296  1.00  0.00     0.010 A 
ATOM     36  C   UNL     1      -0.278  -1.093  11.225  1.00  0.00    -0.014 A 
BRANCH  36  37
ATOM     37  C   UNL     1      -0.467   0.327  11.607  1.00  0.00     0.031 A 
ATOM     38  C   UNL     1      -1.703   0.750  12.348  1.00  0.00     0.074 A 
ATOM     39  C   UNL     1       0.434   1.247  11.215  1.00  0.00     0.049 A 
ATOM     40  N   UNL     1      -2.084   1.950  12.706  1.00  0.00    -0.248 NA
ATOM     41  C   UNL     1      -2.651  -0.315  12.706  1.00  0.00     0.031 C 
ATOM     42  C   UNL     1       1.639   0.967  10.435  1.00  0.00     0.029 A 
ATOM     43  N   UNL     1       0.464   2.606  11.402  1.00  0.00    -0.354 N 
ATOM     44  C   UNL     1      -3.324   1.786  13.310  1.00  0.00     0.074 A 
ATOM     45  C   UNL     1      -3.652   0.379  13.227  1.00  0.00     0.031 C 
ATOM     46  C   UNL     1       2.293   2.118  10.212  1.00  0.00     0.029 A 
ATOM     47  C   UNL     1       1.541   3.217  10.812  1.00  0.00     0.049 A 
ATOM     48  H   UNL     1      -0.222   3.095  11.911  1.00  0.00     0.167 HD
ATOM     49  C   UNL     1      -4.107   2.722  13.898  1.00  0.00     0.037 A 
ATOM     50  C   UNL     1       1.881   4.518  10.754  1.00  0.00     0.037 A 
ATOM     51  C   UNL     1      -3.761   4.115  14.005  1.00  0.00     0.049 A 
ATOM     52  C   UNL     1       1.017   5.535  11.444  1.00  0.00     0.074 A 
ATOM     53  C   UNL     1      -4.442   5.127  14.658  1.00  0.00     0.029 A 
ATOM     54  N   UNL     1      -2.635   4.693  13.436  1.00  0.00    -0.354 N 
ATOM     55  N   UNL     1      -0.110   5.359  12.090  1.00  0.00    -0.248 NA
ATOM     56  C   UNL     1       1.478   6.930  11.410  1.00  0.00     0.031 C 
ATOM     57  C   UNL     1      -3.749   6.325  14.449  1.00  0.00     0.029 A 
ATOM     58  C   UNL     1      -2.614   6.053  13.703  1.00  0.00     0.049 A 
ATOM     59  H   UNL     1      -1.952   4.208  12.918  1.00  0.00     0.167 HD
ATOM     60  C   UNL     1      -0.487   6.612  12.552  1.00  0.00     0.074 A 
ATOM     61  C   UNL     1       0.542   7.539  12.126  1.00  0.00     0.031 C 
ATOM     62  C   UNL     1      -1.586   6.963  13.264  1.00  0.00     0.037 A 
BRANCH  49  63
ATOM     63  C   UNL     1      -5.418   2.262  14.466  1.00  0.00     0.064 A 
ATOM     64  C   UNL     1      -5.482   1.445  15.606  1.00  0.00     0.173 A 
ATOM     65  C   UNL     1      -6.627   2.646  13.867  1.00  0.00     0.173 A 
ATOM     66  F   UNL     1      -4.354   1.040  16.210  1.00  0.00    -0.203 F 
ATOM     67  C   UNL     1      -6.704   0.996  16.099  1.00  0.00     0.198 A 
ATOM     68  C   UNL     1      -7.849   2.220  14.381  1.00  0.00     0.198 A 
ATOM     69  F   UNL     1      -6.624   3.431  12.780  1.00  0.00    -0.203 F 
ATOM     70  F   UNL     1      -6.736   0.166  17.151  1.00  0.00    -0.200 F 
ATOM     71  C   UNL     1      -7.886   1.386  15.489  1.00  0.00     0.200 A 
ATOM     72  F   UNL     1      -8.992   2.607  13.797  1.00  0.00    -0.200 F 
ATOM     73  F   UNL     1      -9.062   0.950  15.962  1.00  0.00    -0.200 F 
ENDBRANCH  49  63
BRANCH  50  74
ATOM     74  C   UNL     1       3.115   4.916  10.033  1.00  0.00     0.064 A 
ATOM     75  C   UNL     1       4.263   5.309  10.733  1.00  0.00     0.173 A 
ATOM     76  C   UNL     1       3.186   4.867   8.633  1.00  0.00     0.173 A 
ATOM     77  F   UNL     1       4.236   5.385  12.072  1.00  0.00    -0.203 F 
ATOM     78  C   UNL     1       5.435   5.645  10.060  1.00  0.00     0.198 A 
ATOM     79  C   UNL     1       4.365   5.181   7.962  1.00  0.00     0.198 A 
ATOM     80  F   UNL     1       2.115   4.488   7.920  1.00  0.00    -0.203 F 
ATOM     81  F   UNL     1       6.513   6.040  10.752  1.00  0.00    -0.200 F 
ATOM     82  C   UNL     1       5.488   5.573   8.676  1.00  0.00     0.200 A 
ATOM     83  F   UNL     1       4.417   5.095   6.626  1.00  0.00    -0.200 F 
ATOM     84  F   UNL     1       6.621   5.880   8.030  1.00  0.00    -0.200 F 
ENDBRANCH  50  74
BRANCH  62  85
ATOM     85  C   UNL     1      -1.727   8.408  13.639  1.00  0.00     0.064 A 
ATOM     86  C   UNL     1      -2.076   9.380  12.690  1.00  0.00     0.173 A 
ATOM     87  C   UNL     1      -1.553   8.819  14.969  1.00  0.00     0.173 A 
ATOM     88  F   UNL     1      -2.238   9.039  11.403  1.00  0.00    -0.203 F 
ATOM     89  C   UNL     1      -2.227  10.715  13.056  1.00  0.00     0.198 A 
ATOM     90  C   UNL     1      -1.730  10.149  15.336  1.00  0.00     0.198 A 
ATOM     91  F   UNL     1      -1.223   7.926  15.915  1.00  0.00    -0.203 F 
ATOM     92  F   UNL     1      -2.522  11.633  12.126  1.00  0.00    -0.200 F 
ATOM     93  C   UNL     1      -2.061  11.097  14.379  1.00  0.00     0.200 A 
ATOM     94  F   UNL     1      -1.580  10.516  16.617  1.00  0.00    -0.200 F 
ATOM     95  F   UNL     1      -2.214  12.381  14.731  1.00  0.00    -0.200 F 
ENDBRANCH  62  85
ENDBRANCH  36  37
ENDBRANCH  28  31
ENDBRANCH  26  27
ENDBRANCH  25  26
ENDBRANCH  24  25
ENDBRANCH   1  24
TORSDOF 16
