REMARK SMILES CC(C)n1cncc1C[NH2+][C@@H]1CCC[C@H](C(=O)NCCCCCCNC(=O)c2ccc(-c3c4nc(c(-c5c(F)c(F)c(F)c(F)c5F)c5ccc([nH]5)c(-c5c(F)c(F)c(F)c(F)c5F)c5nc(c(-c6c(F)c(F)c(F)c(F)c6F)c6ccc3[nH]6)C=C5)C=C4)cc2)C1
REMARK SMILES IDX 20 1 19 2 18 3 16 4 17 5 15 7 11 8 12 9 91 10 13 11 14 12
REMARK SMILES IDX 10 13 9 16 8 17 4 18 5 19 6 20 7 21 2 22 1 23 3 24 21 25
REMARK SMILES IDX 22 26 23 27 24 28 25 29 26 30 27 32 28 33 29 34 90 35 30 36
REMARK SMILES IDX 89 37 31 38 32 39 33 40 83 41 34 42 88 43 82 44 84 45 35 46
REMARK SMILES IDX 87 47 81 48 80 49 36 51 68 52 48 53 67 54 49 55 52 56 66 57
REMARK SMILES IDX 85 58 50 59 51 60 65 62 86 63 53 64 37 65 38 66 46 67 39 68
REMARK SMILES IDX 40 69 44 70 47 71 41 72 42 73 45 74 43 75 69 76 70 77 78 78
REMARK SMILES IDX 71 79 72 80 76 81 79 82 73 83 74 84 77 85 75 86 54 87 55 88
REMARK SMILES IDX 63 89 56 90 57 91 61 92 64 93 58 94 59 95 62 96 60 97
REMARK H PARENT 18 6 10 14 10 15 25 31 84 50 52 61
REMARK Flexibility Score: inf
ROOT
ATOM      1  C   UNL     1      -4.285   7.308   2.173  1.00  0.00     0.021 C 
ENDROOT
BRANCH   1   2
ATOM      2  C   UNL     1      -4.107   6.335   1.015  1.00  0.00     0.116 C 
BRANCH   2   3
ATOM      3  N   UNL     1      -3.782   7.045  -0.209  1.00  0.00    -0.356 N 
ATOM      4  C   UNL     1      -2.665   6.990  -0.982  1.00  0.00     0.223 C 
ATOM      5  O   UNL     1      -2.579   7.749  -1.948  1.00  0.00    -0.275 OA
ATOM      6  H   UNL     1      -4.479   7.662  -0.530  1.00  0.00     0.163 HD
BRANCH   4   7
ATOM      7  C   UNL     1      -1.544   6.023  -0.641  1.00  0.00     0.084 C 
ATOM      8  C   UNL     1      -1.069   3.549  -0.090  1.00  0.00     0.183 C 
ATOM      9  C   UNL     1      -0.574   4.053   1.278  1.00  0.00     0.065 C 
ATOM     10  C   UNL     1      -2.026   4.561  -0.736  1.00  0.00     0.078 C 
ATOM     11  C   UNL     1       0.096   5.410   1.187  1.00  0.00     0.007 C 
ATOM     12  C   UNL     1      -0.875   6.447   0.674  1.00  0.00     0.014 C 
BRANCH   8  13
ATOM     13  N   UNL     1      -1.752   2.240  -0.061  1.00  0.00    -0.339 N 
ATOM     14  H   UNL     1      -2.758   2.405  -0.113  1.00  0.00     0.346 HD
ATOM     15  H   UNL     1      -1.393   1.708  -0.854  1.00  0.00     0.346 HD
BRANCH  13  16
ATOM     16  C   UNL     1      -1.483   1.445   1.127  1.00  0.00     0.317 C 
BRANCH  16  17
ATOM     17  C   UNL     1      -1.861   0.027   0.960  1.00  0.00     0.093 A 
ATOM     18  N   UNL     1      -0.986  -1.037   0.923  1.00  0.00    -0.327 N 
ATOM     19  C   UNL     1      -1.751  -2.178   0.923  1.00  0.00     0.200 A 
ATOM     20  N   UNL     1      -3.035  -1.911   0.916  1.00  0.00    -0.245 NA
ATOM     21  C   UNL     1      -3.116  -0.548   0.933  1.00  0.00     0.140 A 
BRANCH  18  22
ATOM     22  C   UNL     1       0.475  -1.051   0.973  1.00  0.00     0.082 C 
ATOM     23  C   UNL     1       1.158  -0.161  -0.071  1.00  0.00     0.031 C 
ATOM     24  C   UNL     1       0.998  -0.781   2.386  1.00  0.00     0.031 C 
ENDBRANCH  18  22
ENDBRANCH  16  17
ENDBRANCH  13  16
ENDBRANCH   8  13
ENDBRANCH   4   7
ENDBRANCH   2   3
ENDBRANCH   1   2
BRANCH   1  25
ATOM     25  C   UNL     1      -5.508   8.208   1.993  1.00  0.00     0.002 C 
BRANCH  25  26
ATOM     26  C   UNL     1      -6.815   7.441   1.731  1.00  0.00     0.002 C 
BRANCH  26  27
ATOM     27  C   UNL     1      -7.138   6.344   2.756  1.00  0.00     0.021 C 
BRANCH  27  28
ATOM     28  C   UNL     1      -7.265   6.893   4.162  1.00  0.00     0.116 C 
BRANCH  28  29
ATOM     29  N   UNL     1      -8.436   7.756   4.330  1.00  0.00    -0.352 N 
ATOM     30  C   UNL     1      -9.050   8.096   5.520  1.00  0.00     0.251 C 
ATOM     31  H   UNL     1      -8.827   8.133   3.509  1.00  0.00     0.163 HD
ATOM     32  O   UNL     1     -10.220   8.487   5.555  1.00  0.00    -0.269 OA
BRANCH  30  33
ATOM     33  C   UNL     1      -8.214   8.105   6.734  1.00  0.00     0.039 A 
ATOM     34  C   UNL     1      -8.630   7.923   8.051  1.00  0.00     0.014 A 
ATOM     35  C   UNL     1      -6.899   8.477   6.532  1.00  0.00     0.014 A 
ATOM     36  C   UNL     1      -7.682   8.192   9.073  1.00  0.00     0.010 A 
ATOM     37  C   UNL     1      -5.986   8.094   7.457  1.00  0.00     0.010 A 
ATOM     38  C   UNL     1      -6.328   8.468   8.729  1.00  0.00    -0.014 A 
BRANCH  38  39
ATOM     39  C   UNL     1      -5.141   8.446   9.623  1.00  0.00     0.031 A 
ATOM     40  C   UNL     1      -5.192   7.092  10.311  1.00  0.00     0.074 A 
ATOM     41  C   UNL     1      -4.126   9.393   9.662  1.00  0.00     0.049 A 
ATOM     42  N   UNL     1      -5.782   6.884  11.446  1.00  0.00    -0.248 NA
ATOM     43  C   UNL     1      -4.993   5.800   9.587  1.00  0.00     0.031 C 
ATOM     44  C   UNL     1      -3.925  10.658   8.902  1.00  0.00     0.029 A 
ATOM     45  N   UNL     1      -2.989   9.454  10.481  1.00  0.00    -0.354 N 
ATOM     46  C   UNL     1      -5.590   5.536  11.736  1.00  0.00     0.074 A 
ATOM     47  C   UNL     1      -5.429   4.895  10.474  1.00  0.00     0.031 C 
ATOM     48  C   UNL     1      -2.662  11.158   9.075  1.00  0.00     0.029 A 
ATOM     49  C   UNL     1      -1.954  10.370  10.067  1.00  0.00     0.049 A 
ATOM     50  H   UNL     1      -2.902   8.903  11.292  1.00  0.00     0.167 HD
ATOM     51  C   UNL     1      -5.099   5.215  12.967  1.00  0.00     0.037 A 
ATOM     52  C   UNL     1      -0.700  10.570  10.637  1.00  0.00     0.037 A 
ATOM     53  C   UNL     1      -5.268   6.367  13.831  1.00  0.00     0.049 A 
ATOM     54  C   UNL     1      -0.768   9.979  12.001  1.00  0.00     0.074 A 
ATOM     55  C   UNL     1      -6.334   7.108  14.299  1.00  0.00     0.029 A 
ATOM     56  N   UNL     1      -4.194   7.211  13.783  1.00  0.00    -0.354 N 
ATOM     57  N   UNL     1      -1.538  10.479  12.927  1.00  0.00    -0.248 NA
ATOM     58  C   UNL     1      -0.526   8.544  12.040  1.00  0.00     0.031 C 
ATOM     59  C   UNL     1      -5.909   8.474  14.250  1.00  0.00     0.029 A 
ATOM     60  C   UNL     1      -4.551   8.514  13.943  1.00  0.00     0.049 A 
ATOM     61  H   UNL     1      -3.267   6.910  13.648  1.00  0.00     0.167 HD
ATOM     62  C   UNL     1      -2.308   9.396  13.315  1.00  0.00     0.074 A 
ATOM     63  C   UNL     1      -1.633   8.225  12.717  1.00  0.00     0.031 C 
ATOM     64  C   UNL     1      -3.596   9.574  13.748  1.00  0.00     0.037 A 
BRANCH  51  65
ATOM     65  C   UNL     1      -3.959   4.226  13.220  1.00  0.00     0.064 A 
ATOM     66  C   UNL     1      -3.538   4.041  14.555  1.00  0.00     0.173 A 
ATOM     67  C   UNL     1      -3.075   3.710  12.243  1.00  0.00     0.173 A 
ATOM     68  F   UNL     1      -4.279   4.507  15.571  1.00  0.00    -0.203 F 
ATOM     69  C   UNL     1      -2.308   3.457  14.880  1.00  0.00     0.198 A 
ATOM     70  C   UNL     1      -1.869   3.083  12.574  1.00  0.00     0.198 A 
ATOM     71  F   UNL     1      -3.273   3.870  10.931  1.00  0.00    -0.203 F 
ATOM     72  F   UNL     1      -1.908   3.416  16.158  1.00  0.00    -0.200 F 
ATOM     73  C   UNL     1      -1.474   2.978  13.889  1.00  0.00     0.200 A 
ATOM     74  F   UNL     1      -1.061   2.649  11.595  1.00  0.00    -0.200 F 
ATOM     75  F   UNL     1      -0.280   2.453  14.194  1.00  0.00    -0.200 F 
ENDBRANCH  51  65
BRANCH  52  76
ATOM     76  C   UNL     1       0.676  10.790  10.024  1.00  0.00     0.064 A 
ATOM     77  C   UNL     1       1.875  11.063  10.750  1.00  0.00     0.173 A 
ATOM     78  C   UNL     1       0.882  10.377   8.700  1.00  0.00     0.173 A 
ATOM     79  F   UNL     1       1.828  11.414  12.045  1.00  0.00    -0.203 F 
ATOM     80  C   UNL     1       3.163  10.912  10.178  1.00  0.00     0.198 A 
ATOM     81  C   UNL     1       2.157  10.205   8.143  1.00  0.00     0.198 A 
ATOM     82  F   UNL     1      -0.166  10.028   7.944  1.00  0.00    -0.203 F 
ATOM     83  F   UNL     1       4.271  11.144  10.902  1.00  0.00    -0.200 F 
ATOM     84  C   UNL     1       3.298  10.462   8.878  1.00  0.00     0.200 A 
ATOM     85  F   UNL     1       2.266   9.719   6.899  1.00  0.00    -0.200 F 
ATOM     86  F   UNL     1       4.510  10.236   8.347  1.00  0.00    -0.200 F 
ENDBRANCH  52  76
BRANCH  64  87
ATOM     87  C   UNL     1      -4.061  10.976  14.041  1.00  0.00     0.064 A 
ATOM     88  C   UNL     1      -4.274  11.995  13.093  1.00  0.00     0.173 A 
ATOM     89  C   UNL     1      -4.412  11.255  15.365  1.00  0.00     0.173 A 
ATOM     90  F   UNL     1      -4.101  11.767  11.785  1.00  0.00    -0.203 F 
ATOM     91  C   UNL     1      -4.731  13.259  13.480  1.00  0.00     0.198 A 
ATOM     92  C   UNL     1      -4.902  12.498  15.743  1.00  0.00     0.198 A 
ATOM     93  F   UNL     1      -4.322  10.291  16.294  1.00  0.00    -0.203 F 
ATOM     94  F   UNL     1      -4.906  14.226  12.566  1.00  0.00    -0.200 F 
ATOM     95  C   UNL     1      -5.033  13.510  14.809  1.00  0.00     0.200 A 
ATOM     96  F   UNL     1      -5.268  12.702  17.015  1.00  0.00    -0.200 F 
ATOM     97  F   UNL     1      -5.472  14.719  15.188  1.00  0.00    -0.200 F 
ENDBRANCH  64  87
ENDBRANCH  38  39
ENDBRANCH  30  33
ENDBRANCH  28  29
ENDBRANCH  27  28
ENDBRANCH  26  27
ENDBRANCH  25  26
ENDBRANCH   1  25
TORSDOF 17
