REMARK SMILES CC(C)(C)OC(=O)Nc1ccc(-c2cccc(Cl)c2C(=O)NCCCCCCNC(=O)c2ccc(-c3c4nc(c(-c5c(F)c(F)c(F)c(F)c5F)c5ccc([nH]5)c(-c5c(F)c(F)c(F)c(F)c5F)c5nc(c(-c6c(F)c(F)c(F)c(F)c6F)c6ccc3[nH]6)C=C5)C=C4)cc2)cc1
REMARK SMILES IDX 24 1 23 2 22 3 20 4 21 5 19 7 13 8 14 9 15 10 17 11 16 12
REMARK SMILES IDX 18 13 12 14 9 15 10 16 96 17 11 18 95 19 8 20 6 21 7 22 5 24
REMARK SMILES IDX 2 25 1 26 3 27 4 28 25 29 26 30 27 31 28 32 29 33 30 34
REMARK SMILES IDX 31 36 32 37 33 38 94 39 34 40 93 41 35 42 36 43 37 44 87 45
REMARK SMILES IDX 38 46 92 47 86 48 88 49 39 50 91 51 85 52 84 53 40 55 72 56
REMARK SMILES IDX 52 57 71 58 53 59 56 60 70 61 89 62 54 63 55 64 69 66 90 67
REMARK SMILES IDX 57 68 41 69 42 70 50 71 43 72 44 73 48 74 51 75 45 76 46 77
REMARK SMILES IDX 49 78 47 79 73 80 74 81 82 82 75 83 76 84 80 85 83 86 77 87
REMARK SMILES IDX 78 88 81 89 79 90 58 91 59 92 67 93 60 94 61 95 65 96 68 97
REMARK SMILES IDX 62 98 63 99 66 100 64 101
REMARK H PARENT 22 6 8 23 29 35 88 54 56 65
REMARK Flexibility Score: inf
ROOT
ATOM      1  C   UNL     1       4.323   6.663   0.724  1.00  0.00     0.021 C 
ENDROOT
BRANCH   1   2
ATOM      2  C   UNL     1       4.584   5.596   1.776  1.00  0.00     0.116 C 
BRANCH   2   3
ATOM      3  N   UNL     1       5.935   5.309   2.169  1.00  0.00    -0.352 N 
ATOM      4  C   UNL     1       6.380   4.653   3.305  1.00  0.00     0.253 C 
ATOM      5  O   UNL     1       7.425   4.011   3.161  1.00  0.00    -0.269 OA
ATOM      6  H   UNL     1       6.636   5.620   1.551  1.00  0.00     0.163 HD
BRANCH   4   7
ATOM      7  C   UNL     1       5.764   4.692   4.689  1.00  0.00     0.066 A 
ATOM      8  C   UNL     1       4.418   4.393   5.050  1.00  0.00    -0.004 A 
ATOM      9  C   UNL     1       4.074   4.276   6.425  1.00  0.00     0.009 A 
ATOM     10  C   UNL     1       4.999   4.444   7.443  1.00  0.00     0.002 A 
ATOM     11  C   UNL     1       6.679   4.907   5.761  1.00  0.00     0.054 A 
ATOM     12  C   UNL     1       6.300   4.771   7.109  1.00  0.00     0.021 A 
ATOM     13  Cl  UNL     1       8.324   5.434   5.539  1.00  0.00    -0.083 Cl
BRANCH   8  14
ATOM     14  C   UNL     1       3.278   4.212   4.146  1.00  0.00    -0.017 A 
ATOM     15  C   UNL     1       1.130   4.028   2.311  1.00  0.00     0.044 A 
ATOM     16  C   UNL     1       1.221   5.116   3.181  1.00  0.00     0.027 A 
ATOM     17  C   UNL     1       2.074   3.000   2.428  1.00  0.00     0.027 A 
ATOM     18  C   UNL     1       2.268   5.196   4.101  1.00  0.00     0.011 A 
ATOM     19  C   UNL     1       3.138   3.087   3.337  1.00  0.00     0.011 A 
BRANCH  15  20
ATOM     20  N   UNL     1       0.119   4.093   1.334  1.00  0.00    -0.291 N 
ATOM     21  C   UNL     1      -0.219   3.236   0.321  1.00  0.00     0.412 C 
ATOM     22  O   UNL     1      -1.079   3.552  -0.495  1.00  0.00    -0.224 OA
ATOM     23  H   UNL     1      -0.446   4.898   1.388  1.00  0.00     0.173 HD
BRANCH  21  24
ATOM     24  O   UNL     1       0.452   2.071   0.328  1.00  0.00    -0.444 OA
BRANCH  24  25
ATOM     25  C   UNL     1       0.175   0.999  -0.602  1.00  0.00     0.106 C 
ATOM     26  C   UNL     1       0.878  -0.212   0.024  1.00  0.00     0.056 C 
ATOM     27  C   UNL     1       0.796   1.304  -1.966  1.00  0.00     0.056 C 
ATOM     28  C   UNL     1      -1.321   0.696  -0.716  1.00  0.00     0.056 C 
ENDBRANCH  24  25
ENDBRANCH  21  24
ENDBRANCH  15  20
ENDBRANCH   8  14
ENDBRANCH   4   7
ENDBRANCH   2   3
ENDBRANCH   1   2
BRANCH   1  29
ATOM     29  C   UNL     1       4.685   6.376  -0.734  1.00  0.00     0.002 C 
BRANCH  29  30
ATOM     30  C   UNL     1       4.132   5.109  -1.400  1.00  0.00     0.002 C 
BRANCH  30  31
ATOM     31  C   UNL     1       2.647   4.787  -1.216  1.00  0.00     0.021 C 
BRANCH  31  32
ATOM     32  C   UNL     1       1.638   5.870  -1.593  1.00  0.00     0.116 C 
BRANCH  32  33
ATOM     33  N   UNL     1       1.526   6.062  -3.026  1.00  0.00    -0.352 N 
ATOM     34  C   UNL     1       0.446   5.933  -3.868  1.00  0.00     0.251 C 
ATOM     35  H   UNL     1       2.362   6.329  -3.471  1.00  0.00     0.163 HD
ATOM     36  O   UNL     1       0.639   5.978  -5.082  1.00  0.00    -0.269 OA
BRANCH  34  37
ATOM     37  C   UNL     1      -0.942   5.736  -3.371  1.00  0.00     0.039 A 
ATOM     38  C   UNL     1      -1.793   4.903  -4.109  1.00  0.00     0.014 A 
ATOM     39  C   UNL     1      -1.458   6.420  -2.266  1.00  0.00     0.014 A 
ATOM     40  C   UNL     1      -3.129   4.728  -3.726  1.00  0.00     0.010 A 
ATOM     41  C   UNL     1      -2.776   6.194  -1.845  1.00  0.00     0.010 A 
ATOM     42  C   UNL     1      -3.633   5.351  -2.574  1.00  0.00    -0.014 A 
BRANCH  42  43
ATOM     43  C   UNL     1      -5.047   5.133  -2.142  1.00  0.00     0.031 A 
ATOM     44  C   UNL     1      -6.031   6.272  -2.115  1.00  0.00     0.074 A 
ATOM     45  C   UNL     1      -5.456   3.906  -1.758  1.00  0.00     0.049 A 
ATOM     46  N   UNL     1      -7.291   6.273  -1.749  1.00  0.00    -0.248 NA
ATOM     47  C   UNL     1      -5.532   7.588  -2.539  1.00  0.00     0.031 C 
ATOM     48  C   UNL     1      -4.609   2.718  -1.714  1.00  0.00     0.029 A 
ATOM     49  N   UNL     1      -6.683   3.453  -1.329  1.00  0.00    -0.354 N 
ATOM     50  C   UNL     1      -7.730   7.582  -1.899  1.00  0.00     0.074 A 
ATOM     51  C   UNL     1      -6.588   8.360  -2.331  1.00  0.00     0.031 C 
ATOM     52  C   UNL     1      -5.338   1.667  -1.305  1.00  0.00     0.029 A 
ATOM     53  C   UNL     1      -6.698   2.115  -1.016  1.00  0.00     0.049 A 
ATOM     54  H   UNL     1      -7.475   4.033  -1.254  1.00  0.00     0.167 HD
ATOM     55  C   UNL     1      -8.976   8.088  -1.718  1.00  0.00     0.037 A 
ATOM     56  C   UNL     1      -7.688   1.335  -0.537  1.00  0.00     0.037 A 
ATOM     57  C   UNL     1     -10.118   7.317  -1.295  1.00  0.00     0.049 A 
ATOM     58  C   UNL     1      -9.049   1.933  -0.294  1.00  0.00     0.074 A 
ATOM     59  C   UNL     1     -11.426   7.738  -1.120  1.00  0.00     0.029 A 
ATOM     60  N   UNL     1     -10.090   5.968  -0.973  1.00  0.00    -0.354 N 
ATOM     61  N   UNL     1      -9.464   3.160  -0.496  1.00  0.00    -0.248 NA
ATOM     62  C   UNL     1     -10.084   1.034   0.238  1.00  0.00     0.031 C 
ATOM     63  C   UNL     1     -12.174   6.661  -0.634  1.00  0.00     0.029 A 
ATOM     64  C   UNL     1     -11.350   5.550  -0.572  1.00  0.00     0.049 A 
ATOM     65  H   UNL     1      -9.293   5.392  -1.022  1.00  0.00     0.167 HD
ATOM     66  C   UNL     1     -10.810   3.170  -0.152  1.00  0.00     0.074 A 
ATOM     67  C   UNL     1     -11.147   1.824   0.257  1.00  0.00     0.031 C 
ATOM     68  C   UNL     1     -11.686   4.205  -0.175  1.00  0.00     0.037 A 
BRANCH  55  69
ATOM     69  C   UNL     1      -9.174   9.556  -1.973  1.00  0.00     0.064 A 
ATOM     70  C   UNL     1      -9.098  10.096  -3.267  1.00  0.00     0.173 A 
ATOM     71  C   UNL     1      -9.487  10.428  -0.919  1.00  0.00     0.173 A 
ATOM     72  F   UNL     1      -8.796   9.309  -4.310  1.00  0.00    -0.203 F 
ATOM     73  C   UNL     1      -9.295  11.456  -3.490  1.00  0.00     0.198 A 
ATOM     74  C   UNL     1      -9.718  11.782  -1.151  1.00  0.00     0.198 A 
ATOM     75  F   UNL     1      -9.583   9.966   0.337  1.00  0.00    -0.203 F 
ATOM     76  F   UNL     1      -9.164  11.957  -4.726  1.00  0.00    -0.200 F 
ATOM     77  C   UNL     1      -9.612  12.296  -2.434  1.00  0.00     0.200 A 
ATOM     78  F   UNL     1     -10.043  12.589  -0.131  1.00  0.00    -0.200 F 
ATOM     79  F   UNL     1      -9.810  13.604  -2.651  1.00  0.00    -0.200 F 
ENDBRANCH  55  69
BRANCH  56  80
ATOM     80  C   UNL     1      -7.437  -0.105  -0.257  1.00  0.00     0.064 A 
ATOM     81  C   UNL     1      -8.074  -1.109  -1.001  1.00  0.00     0.173 A 
ATOM     82  C   UNL     1      -6.582  -0.509   0.780  1.00  0.00     0.173 A 
ATOM     83  F   UNL     1      -8.921  -0.777  -1.986  1.00  0.00    -0.203 F 
ATOM     84  C   UNL     1      -7.889  -2.458  -0.700  1.00  0.00     0.198 A 
ATOM     85  C   UNL     1      -6.370  -1.858   1.056  1.00  0.00     0.198 A 
ATOM     86  F   UNL     1      -5.947   0.408   1.524  1.00  0.00    -0.203 F 
ATOM     87  F   UNL     1      -8.559  -3.393  -1.387  1.00  0.00    -0.200 F 
ATOM     88  C   UNL     1      -7.033  -2.831   0.324  1.00  0.00     0.200 A 
ATOM     89  F   UNL     1      -5.531  -2.215   2.038  1.00  0.00    -0.200 F 
ATOM     90  F   UNL     1      -6.856  -4.127   0.614  1.00  0.00    -0.200 F 
ENDBRANCH  56  80
BRANCH  68  91
ATOM     91  C   UNL     1     -13.111   3.917   0.209  1.00  0.00     0.064 A 
ATOM     92  C   UNL     1     -13.476   3.609   1.528  1.00  0.00     0.173 A 
ATOM     93  C   UNL     1     -14.132   3.986  -0.752  1.00  0.00     0.173 A 
ATOM     94  F   UNL     1     -12.540   3.516   2.485  1.00  0.00    -0.203 F 
ATOM     95  C   UNL     1     -14.804   3.350   1.863  1.00  0.00     0.198 A 
ATOM     96  C   UNL     1     -15.462   3.763  -0.407  1.00  0.00     0.198 A 
ATOM     97  F   UNL     1     -13.841   4.284  -2.028  1.00  0.00    -0.203 F 
ATOM     98  F   UNL     1     -15.120   3.004   3.119  1.00  0.00    -0.200 F 
ATOM     99  C   UNL     1     -15.796   3.436   0.898  1.00  0.00     0.200 A 
ATOM    100  F   UNL     1     -16.421   3.863  -1.338  1.00  0.00    -0.200 F 
ATOM    101  F   UNL     1     -17.073   3.196   1.224  1.00  0.00    -0.200 F 
ENDBRANCH  68  91
ENDBRANCH  42  43
ENDBRANCH  34  37
ENDBRANCH  32  33
ENDBRANCH  31  32
ENDBRANCH  30  31
ENDBRANCH  29  30
ENDBRANCH   1  29
TORSDOF 17
