REMARK SMILES O=C(CC[C@@H]1CCCC[NH2+]1)N[C@@H]1CCCCC[C@@H]1C(=O)NCCCCCCNC(=O)c1ccc(-c2c3nc(c(-c4c(F)c(F)c(F)c(F)c4F)c4ccc([nH]4)c(-c4c(F)c(F)c(F)c(F)c4F)c4nc(c(-c5c(F)c(F)c(F)c(F)c5F)c5ccc2[nH]5)C=C4)C=C3)cc1
REMARK SMILES IDX 23 1 22 2 21 3 19 4 20 5 18 7 12 8 11 9 1 10 2 11 3 13 4 14
REMARK SMILES IDX 5 15 6 16 10 17 7 18 9 19 8 22 13 23 14 24 17 26 16 27 15 28
REMARK SMILES IDX 24 30 25 31 26 32 27 33 28 34 29 35 30 37 31 38 32 39 93 40
REMARK SMILES IDX 33 41 92 42 34 43 35 44 36 45 86 46 37 47 91 48 85 49 87 50
REMARK SMILES IDX 38 51 90 52 84 53 83 54 39 56 71 57 51 58 70 59 52 60 55 61
REMARK SMILES IDX 69 62 88 63 53 64 54 65 68 67 89 68 56 69 40 70 41 71 49 72
REMARK SMILES IDX 42 73 43 74 47 75 50 76 44 77 45 78 48 79 46 80 72 81 73 82
REMARK SMILES IDX 81 83 74 84 75 85 79 86 82 87 76 88 77 89 80 90 78 91 57 92
REMARK SMILES IDX 58 93 66 94 59 95 60 96 64 97 67 98 61 99 62 100 65 101
REMARK SMILES IDX 63 102
REMARK H PARENT 21 6 11 12 10 20 10 21 28 36 87 55 55 66
REMARK Flexibility Score: 100.00
ROOT
ATOM      1  C   UNL     1       3.933  -5.056   0.512  1.00  0.00     0.021 C 
ENDROOT
BRANCH   1   2
ATOM      2  C   UNL     1       3.531  -3.622   0.178  1.00  0.00     0.116 C 
BRANCH   2   3
ATOM      3  N   UNL     1       4.282  -3.135  -0.968  1.00  0.00    -0.356 N 
ATOM      4  C   UNL     1       3.901  -2.604  -2.153  1.00  0.00     0.225 C 
ATOM      5  O   UNL     1       4.791  -2.126  -2.865  1.00  0.00    -0.275 OA
ATOM      6  H   UNL     1       5.258  -3.205  -0.860  1.00  0.00     0.163 HD
BRANCH   4   7
ATOM      7  C   UNL     1       2.449  -2.517  -2.593  1.00  0.00     0.101 C 
BRANCH   7   8
ATOM      8  C   UNL     1       1.807  -1.150  -2.241  1.00  0.00     0.094 C 
BRANCH   8   9
ATOM      9  N   UNL     1       2.569  -0.316  -1.291  1.00  0.00    -0.353 N 
ATOM     10  O   UNL     1       1.474  -0.734   0.686  1.00  0.00    -0.275 OA
ATOM     11  C   UNL     1       2.344  -0.145   0.053  1.00  0.00     0.220 C 
ATOM     12  H   UNL     1       3.333   0.179  -1.667  1.00  0.00     0.163 HD
BRANCH  11  13
ATOM     13  C   UNL     1       3.294   0.843   0.726  1.00  0.00     0.106 C 
BRANCH  13  14
ATOM     14  C   UNL     1       4.433   0.124   1.450  1.00  0.00     0.075 C 
BRANCH  14  15
ATOM     15  C   UNL     1       5.629  -0.241   0.539  1.00  0.00     0.182 C 
ATOM     16  C   UNL     1       6.385  -1.414   1.152  1.00  0.00     0.065 C 
ATOM     17  N   UNL     1       6.565   0.868   0.352  1.00  0.00    -0.344 N 
ATOM     18  C   UNL     1       7.582  -1.879   0.344  1.00  0.00     0.012 C 
ATOM     19  C   UNL     1       7.666   0.472  -0.540  1.00  0.00     0.260 C 
ATOM     20  H   UNL     1       6.949   1.139   1.257  1.00  0.00     0.346 HD
ATOM     21  H   UNL     1       6.067   1.651  -0.070  1.00  0.00     0.346 HD
ATOM     22  C   UNL     1       8.477  -0.704   0.011  1.00  0.00     0.062 C 
ENDBRANCH  14  15
ENDBRANCH  13  14
ENDBRANCH  11  13
ENDBRANCH   8   9
BRANCH   8  23
ATOM     23  C   UNL     1       0.291  -1.172  -1.986  1.00  0.00     0.026 C 
BRANCH  23  24
ATOM     24  C   UNL     1      -0.519  -1.749  -3.153  1.00  0.00     0.002 CG0
ATOM     25  G   UNL     1      -0.714  -3.261  -3.087  1.00  0.00     0.000 G0
ENDBRANCH  23  24
ENDBRANCH   8  23
ENDBRANCH   7   8
BRANCH   7  26
ATOM     26  C   UNL     1       1.648  -3.803  -2.332  1.00  0.00     0.015 C 
BRANCH  26  27
ATOM     27  C   UNL     1       0.547  -4.072  -3.352  1.00  0.00     0.001 C 
BRANCH  27  28
ATOM     28  C   UNL     1      -0.714  -3.261  -3.087  1.00  0.00     0.000 CG0
ATOM     29  G   UNL     1      -0.519  -1.749  -3.153  1.00  0.00     0.000 G0
ENDBRANCH  27  28
ENDBRANCH  26  27
ENDBRANCH   7  26
ENDBRANCH   4   7
ENDBRANCH   2   3
ENDBRANCH   1   2
BRANCH   1  30
ATOM     30  C   UNL     1       5.348  -5.179   1.099  1.00  0.00     0.002 C 
BRANCH  30  31
ATOM     31  C   UNL     1       5.558  -4.507   2.461  1.00  0.00     0.002 C 
BRANCH  31  32
ATOM     32  C   UNL     1       4.664  -4.991   3.581  1.00  0.00     0.021 C 
BRANCH  32  33
ATOM     33  C   UNL     1       4.934  -6.428   3.946  1.00  0.00     0.116 C 
BRANCH  33  34
ATOM     34  N   UNL     1       6.270  -6.596   4.510  1.00  0.00    -0.352 N 
ATOM     35  C   UNL     1       6.632  -6.926   5.797  1.00  0.00     0.251 C 
ATOM     36  H   UNL     1       7.016  -6.454   3.882  1.00  0.00     0.163 HD
ATOM     37  O   UNL     1       7.776  -6.795   6.187  1.00  0.00    -0.269 OA
BRANCH  35  38
ATOM     38  C   UNL     1       5.577  -7.427   6.699  1.00  0.00     0.039 A 
ATOM     39  C   UNL     1       5.486  -6.939   8.002  1.00  0.00     0.014 A 
ATOM     40  C   UNL     1       4.627  -8.321   6.205  1.00  0.00     0.014 A 
ATOM     41  C   UNL     1       4.387  -7.296   8.784  1.00  0.00     0.010 A 
ATOM     42  C   UNL     1       3.464  -8.538   6.918  1.00  0.00     0.010 A 
ATOM     43  C   UNL     1       3.348  -8.062   8.230  1.00  0.00    -0.014 A 
BRANCH  43  44
ATOM     44  C   UNL     1       2.149  -8.447   9.010  1.00  0.00     0.031 A 
ATOM     45  C   UNL     1       1.833  -9.909   9.185  1.00  0.00     0.074 A 
ATOM     46  C   UNL     1       1.316  -7.500   9.481  1.00  0.00     0.049 A 
ATOM     47  N   UNL     1       0.781 -10.473   9.720  1.00  0.00    -0.248 NA
ATOM     48  C   UNL     1       2.807 -10.869   8.634  1.00  0.00     0.031 C 
ATOM     49  C   UNL     1       1.484  -6.055   9.309  1.00  0.00     0.029 A 
ATOM     50  N   UNL     1       0.151  -7.614  10.195  1.00  0.00    -0.354 N 
ATOM     51  C   UNL     1       0.962 -11.839   9.546  1.00  0.00     0.074 A 
ATOM     52  C   UNL     1       2.168 -12.018   8.775  1.00  0.00     0.031 C 
ATOM     53  C   UNL     1       0.482  -5.417   9.936  1.00  0.00     0.029 A 
ATOM     54  C   UNL     1      -0.420  -6.406  10.515  1.00  0.00     0.049 A 
ATOM     55  H   UNL     1      -0.239  -8.480  10.454  1.00  0.00     0.167 HD
ATOM     56  C   UNL     1       0.214 -12.857  10.028  1.00  0.00     0.037 A 
ATOM     57  C   UNL     1      -1.548  -6.138  11.199  1.00  0.00     0.037 A 
ATOM     58  C   UNL     1      -0.958 -12.668  10.836  1.00  0.00     0.049 A 
ATOM     59  C   UNL     1      -2.357  -7.289  11.737  1.00  0.00     0.074 A 
ATOM     60  C   UNL     1      -1.765 -13.622  11.426  1.00  0.00     0.029 A 
ATOM     61  N   UNL     1      -1.482 -11.429  11.177  1.00  0.00    -0.354 N 
ATOM     62  N   UNL     1      -2.140  -8.578  11.626  1.00  0.00    -0.248 NA
ATOM     63  C   UNL     1      -3.561  -6.947  12.504  1.00  0.00     0.031 C 
ATOM     64  C   UNL     1      -2.801 -12.961  12.093  1.00  0.00     0.029 A 
ATOM     65  C   UNL     1      -2.610 -11.594  11.961  1.00  0.00     0.049 A 
ATOM     66  H   UNL     1      -1.107 -10.561  10.901  1.00  0.00     0.167 HD
ATOM     67  C   UNL     1      -3.160  -9.199  12.334  1.00  0.00     0.074 A 
ATOM     68  C   UNL     1      -3.985  -8.143  12.886  1.00  0.00     0.031 C 
ATOM     69  C   UNL     1      -3.399 -10.522  12.511  1.00  0.00     0.037 A 
BRANCH  56  70
ATOM     70  C   UNL     1       0.663 -14.255   9.714  1.00  0.00     0.064 A 
ATOM     71  C   UNL     1       1.852 -14.782  10.246  1.00  0.00     0.173 A 
ATOM     72  C   UNL     1      -0.104 -15.084   8.883  1.00  0.00     0.173 A 
ATOM     73  F   UNL     1       2.633 -14.026  11.032  1.00  0.00    -0.203 F 
ATOM     74  C   UNL     1       2.272 -16.070   9.929  1.00  0.00     0.198 A 
ATOM     75  C   UNL     1       0.302 -16.386   8.597  1.00  0.00     0.198 A 
ATOM     76  F   UNL     1      -1.248 -14.633   8.347  1.00  0.00    -0.203 F 
ATOM     77  F   UNL     1       3.442 -16.526  10.399  1.00  0.00    -0.200 F 
ATOM     78  C   UNL     1       1.493 -16.874   9.111  1.00  0.00     0.200 A 
ATOM     79  F   UNL     1      -0.458 -17.166   7.815  1.00  0.00    -0.200 F 
ATOM     80  F   UNL     1       1.896 -18.116   8.811  1.00  0.00    -0.200 F 
ENDBRANCH  56  70
BRANCH  57  81
ATOM     81  C   UNL     1      -1.960  -4.730  11.446  1.00  0.00     0.064 A 
ATOM     82  C   UNL     1      -1.940  -4.192  12.741  1.00  0.00     0.173 A 
ATOM     83  C   UNL     1      -2.397  -3.899  10.405  1.00  0.00     0.173 A 
ATOM     84  F   UNL     1      -1.545  -4.951  13.775  1.00  0.00    -0.203 F 
ATOM     85  C   UNL     1      -2.371  -2.891  12.989  1.00  0.00     0.198 A 
ATOM     86  C   UNL     1      -2.799  -2.587  10.649  1.00  0.00     0.198 A 
ATOM     87  F   UNL     1      -2.428  -4.360   9.146  1.00  0.00    -0.203 F 
ATOM     88  F   UNL     1      -2.395  -2.423  14.245  1.00  0.00    -0.200 F 
ATOM     89  C   UNL     1      -2.797  -2.088  11.943  1.00  0.00     0.200 A 
ATOM     90  F   UNL     1      -3.195  -1.809   9.633  1.00  0.00    -0.200 F 
ATOM     91  F   UNL     1      -3.214  -0.837  12.182  1.00  0.00    -0.200 F 
ENDBRANCH  57  81
BRANCH  69  92
ATOM     92  C   UNL     1      -4.569 -10.898  13.370  1.00  0.00     0.064 A 
ATOM     93  C   UNL     1      -5.890 -10.723  12.933  1.00  0.00     0.173 A 
ATOM     94  C   UNL     1      -4.362 -11.483  14.628  1.00  0.00     0.173 A 
ATOM     95  F   UNL     1      -6.138 -10.156  11.743  1.00  0.00    -0.203 F 
ATOM     96  C   UNL     1      -6.962 -11.095  13.738  1.00  0.00     0.198 A 
ATOM     97  C   UNL     1      -5.436 -11.885  15.415  1.00  0.00     0.198 A 
ATOM     98  F   UNL     1      -3.117 -11.681  15.086  1.00  0.00    -0.203 F 
ATOM     99  F   UNL     1      -8.217 -10.872  13.322  1.00  0.00    -0.200 F 
ATOM    100  C   UNL     1      -6.735 -11.682  14.973  1.00  0.00     0.200 A 
ATOM    101  F   UNL     1      -5.215 -12.468  16.601  1.00  0.00    -0.200 F 
ATOM    102  F   UNL     1      -7.770 -12.048  15.742  1.00  0.00    -0.200 F 
ENDBRANCH  69  92
ENDBRANCH  43  44
ENDBRANCH  35  38
ENDBRANCH  33  34
ENDBRANCH  32  33
ENDBRANCH  31  32
ENDBRANCH  30  31
ENDBRANCH   1  30
TORSDOF 17
