REMARK SMILES Cc1ccc([C@@H](C)Nc2ccc(N)cc2C(=O)NCCCCCCNC(=O)c2ccc(-c3c4nc(c(-c5c(F)c(F)c(F)c(F)c5F)c5ccc([nH]5)c(-c5c(F)c(F)c(F)c(F)c5F)c5nc(c(-c6c(F)c(F)c(F)c(F)c6F)c6ccc3[nH]6)C=C5)C=C4)cc2)cc1F
REMARK SMILES IDX 21 1 20 2 19 3 18 4 16 5 17 6 15 8 9 9 10 10 11 11 14 12
REMARK SMILES IDX 12 13 8 14 6 16 7 17 5 18 1 19 2 20 3 21 92 22 4 23 91 24
REMARK SMILES IDX 93 25 13 26 22 29 23 30 24 31 25 32 26 33 27 35 28 36 29 37
REMARK SMILES IDX 90 38 30 39 89 40 31 41 32 42 33 43 83 44 34 45 88 46 82 47
REMARK SMILES IDX 84 48 35 49 87 50 81 51 80 52 36 54 68 55 48 56 67 57 49 58
REMARK SMILES IDX 52 59 66 60 85 61 50 62 51 63 65 65 86 66 53 67 37 68 38 69
REMARK SMILES IDX 46 70 39 71 40 72 44 73 47 74 41 75 42 76 45 77 43 78 69 79
REMARK SMILES IDX 70 80 78 81 71 82 72 83 76 84 79 85 73 86 74 87 77 88 75 89
REMARK SMILES IDX 54 90 55 91 63 92 56 93 57 94 61 95 64 96 58 97 59 98 62 99
REMARK SMILES IDX 60 100
REMARK H PARENT 18 7 8 15 13 27 13 28 25 34 84 53 52 64
REMARK Flexibility Score: inf
ROOT
ATOM      1  C   UNL     1      -1.448   0.535  -0.764  1.00  0.00     0.002 C 
ENDROOT
BRANCH   1   2
ATOM      2  C   UNL     1      -0.530  -1.164   0.285  1.00  0.00     0.021 C 
BRANCH   2   3
ATOM      3  C   UNL     1      -0.760  -2.873   0.426  1.00  0.00     0.116 C 
BRANCH   3   4
ATOM      4  N   UNL     1      -0.956  -3.710  -0.748  1.00  0.00    -0.352 N 
ATOM      5  C   UNL     1      -1.962  -4.591  -1.059  1.00  0.00     0.253 C 
ATOM      6  O   UNL     1      -2.015  -5.072  -2.190  1.00  0.00    -0.269 OA
ATOM      7  H   UNL     1      -0.251  -3.631  -1.432  1.00  0.00     0.163 HD
BRANCH   5   8
ATOM      8  C   UNL     1      -2.872  -5.084  -0.004  1.00  0.00     0.065 A 
ATOM      9  C   UNL     1      -3.487  -4.284   0.966  1.00  0.00     0.048 A 
ATOM     10  C   UNL     1      -3.750  -4.939   2.186  1.00  0.00     0.028 A 
ATOM     11  C   UNL     1      -3.576  -6.325   2.355  1.00  0.00     0.027 A 
ATOM     12  C   UNL     1      -2.852  -6.493   0.107  1.00  0.00     0.041 A 
ATOM     13  C   UNL     1      -3.237  -7.130   1.277  1.00  0.00     0.032 A 
BRANCH   9  14
ATOM     14  N   UNL     1      -3.828  -2.944   0.871  1.00  0.00    -0.378 N 
ATOM     15  H   UNL     1      -4.123  -2.543   1.720  1.00  0.00     0.161 HD
BRANCH  14  16
ATOM     16  C   UNL     1      -3.829  -2.011  -0.267  1.00  0.00     0.106 C 
ATOM     17  C   UNL     1      -4.464  -2.558  -1.538  1.00  0.00     0.036 C 
BRANCH  16  18
ATOM     18  C   UNL     1      -2.522  -1.226  -0.336  1.00  0.00    -0.023 A 
ATOM     19  C   UNL     1       1.861   1.405  -0.018  1.00  0.00     0.047 C 
ATOM     20  C   UNL     1       0.599   0.612  -0.115  1.00  0.00    -0.015 A 
ATOM     21  C   UNL     1      -0.640   0.780   1.183  1.00  0.00     0.007 A 
ATOM     22  C   UNL     1       0.274  -0.453  -1.534  1.00  0.00     0.126 A 
ATOM     23  C   UNL     1      -2.183  -0.150   1.080  1.00  0.00     0.006 A 
ATOM     24  C   UNL     1      -1.294  -1.351  -1.663  1.00  0.00     0.045 A 
ATOM     25  F   UNL     1       1.214  -0.611  -2.474  1.00  0.00    -0.207 F 
ENDBRANCH  16  18
ENDBRANCH  14  16
ENDBRANCH   9  14
BRANCH  13  26
ATOM     26  N   UNL     1      -3.078  -8.499   1.416  1.00  0.00    -0.399 N 
ATOM     27  H   UNL     1      -3.353  -8.945   2.250  1.00  0.00     0.156 HD
ATOM     28  H   UNL     1      -2.689  -9.027   0.681  1.00  0.00     0.156 HD
ENDBRANCH  13  26
ENDBRANCH   5   8
ENDBRANCH   3   4
ENDBRANCH   2   3
ENDBRANCH   1   2
BRANCH   1  29
ATOM     29  C   UNL     1      -3.006   1.207  -1.007  1.00  0.00     0.002 C 
BRANCH  29  30
ATOM     30  C   UNL     1      -3.740   2.110   0.004  1.00  0.00     0.021 C 
BRANCH  30  31
ATOM     31  C   UNL     1      -2.998   3.313   0.563  1.00  0.00     0.116 C 
BRANCH  31  32
ATOM     32  N   UNL     1      -2.659   4.310  -0.444  1.00  0.00    -0.352 N 
ATOM     33  C   UNL     1      -2.166   5.566  -0.156  1.00  0.00     0.251 C 
ATOM     34  H   UNL     1      -2.789   4.072  -1.391  1.00  0.00     0.163 HD
ATOM     35  O   UNL     1      -2.450   6.549  -0.825  1.00  0.00    -0.269 OA
BRANCH  33  36
ATOM     36  C   UNL     1      -1.180   5.661   0.930  1.00  0.00     0.039 A 
ATOM     37  C   UNL     1      -1.045   6.800   1.736  1.00  0.00     0.014 A 
ATOM     38  C   UNL     1      -0.294   4.590   1.026  1.00  0.00     0.014 A 
ATOM     39  C   UNL     1       0.029   6.875   2.615  1.00  0.00     0.010 A 
ATOM     40  C   UNL     1       0.672   4.600   1.976  1.00  0.00     0.010 A 
ATOM     41  C   UNL     1       0.892   5.784   2.676  1.00  0.00    -0.014 A 
BRANCH  41  42
ATOM     42  C   UNL     1       2.135   5.741   3.405  1.00  0.00     0.031 A 
ATOM     43  C   UNL     1       2.050   5.547   4.850  1.00  0.00     0.074 A 
ATOM     44  C   UNL     1       3.216   5.601   2.602  1.00  0.00     0.049 A 
ATOM     45  N   UNL     1       2.962   5.889   5.681  1.00  0.00    -0.248 NA
ATOM     46  C   UNL     1       0.859   5.001   5.507  1.00  0.00     0.031 C 
ATOM     47  C   UNL     1       4.552   5.091   2.852  1.00  0.00     0.029 A 
ATOM     48  N   UNL     1       3.278   6.026   1.260  1.00  0.00    -0.354 N 
ATOM     49  C   UNL     1       2.680   5.216   6.851  1.00  0.00     0.074 A 
ATOM     50  C   UNL     1       1.279   4.892   6.772  1.00  0.00     0.031 C 
ATOM     51  C   UNL     1       5.370   5.542   1.876  1.00  0.00     0.029 A 
ATOM     52  C   UNL     1       4.599   6.462   1.052  1.00  0.00     0.049 A 
ATOM     53  H   UNL     1       2.545   6.019   0.602  1.00  0.00     0.167 HD
ATOM     54  C   UNL     1       3.734   4.795   7.609  1.00  0.00     0.037 A 
ATOM     55  C   UNL     1       4.801   7.812   0.947  1.00  0.00     0.037 A 
ATOM     56  C   UNL     1       4.982   5.166   6.933  1.00  0.00     0.049 A 
ATOM     57  C   UNL     1       5.477   8.384   2.175  1.00  0.00     0.074 A 
ATOM     58  C   UNL     1       5.855   4.485   6.102  1.00  0.00     0.029 A 
ATOM     59  N   UNL     1       5.246   6.505   6.737  1.00  0.00    -0.354 N 
ATOM     60  N   UNL     1       5.599   7.748   3.308  1.00  0.00    -0.248 NA
ATOM     61  C   UNL     1       6.026   9.733   2.233  1.00  0.00     0.031 C 
ATOM     62  C   UNL     1       6.642   5.453   5.403  1.00  0.00     0.029 A 
ATOM     63  C   UNL     1       6.242   6.714   5.809  1.00  0.00     0.049 A 
ATOM     64  H   UNL     1       4.776   7.231   7.208  1.00  0.00     0.167 HD
ATOM     65  C   UNL     1       6.249   8.531   4.217  1.00  0.00     0.074 A 
ATOM     66  C   UNL     1       6.437   9.792   3.512  1.00  0.00     0.031 C 
ATOM     67  C   UNL     1       6.584   8.086   5.469  1.00  0.00     0.037 A 
BRANCH  54  68
ATOM     68  C   UNL     1       3.704   3.835   8.776  1.00  0.00     0.064 A 
ATOM     69  C   UNL     1       4.907   3.228   9.209  1.00  0.00     0.173 A 
ATOM     70  C   UNL     1       2.567   3.472   9.524  1.00  0.00     0.173 A 
ATOM     71  F   UNL     1       6.085   3.527   8.647  1.00  0.00    -0.203 F 
ATOM     72  C   UNL     1       4.956   2.297  10.247  1.00  0.00     0.198 A 
ATOM     73  C   UNL     1       2.614   2.523  10.554  1.00  0.00     0.198 A 
ATOM     74  F   UNL     1       1.378   4.049   9.330  1.00  0.00    -0.203 F 
ATOM     75  F   UNL     1       6.133   1.758  10.597  1.00  0.00    -0.200 F 
ATOM     76  C   UNL     1       3.807   1.933  10.912  1.00  0.00     0.200 A 
ATOM     77  F   UNL     1       1.488   2.193  11.205  1.00  0.00    -0.200 F 
ATOM     78  F   UNL     1       3.853   1.037  11.907  1.00  0.00    -0.200 F 
ENDBRANCH  54  68
BRANCH  55  79
ATOM     79  C   UNL     1       3.681   8.460   0.182  1.00  0.00     0.064 A 
ATOM     80  C   UNL     1       3.455   7.997  -1.135  1.00  0.00     0.173 A 
ATOM     81  C   UNL     1       2.601   9.062   0.843  1.00  0.00     0.173 A 
ATOM     82  F   UNL     1       4.461   7.439  -1.828  1.00  0.00    -0.203 F 
ATOM     83  C   UNL     1       2.171   7.943  -1.672  1.00  0.00     0.198 A 
ATOM     84  C   UNL     1       1.323   9.050   0.277  1.00  0.00     0.198 A 
ATOM     85  F   UNL     1       2.747   9.540   2.087  1.00  0.00    -0.203 F 
ATOM     86  F   UNL     1       1.962   7.322  -2.843  1.00  0.00    -0.200 F 
ATOM     87  C   UNL     1       1.101   8.438  -0.950  1.00  0.00     0.200 A 
ATOM     88  F   UNL     1       0.285   9.548   0.966  1.00  0.00    -0.200 F 
ATOM     89  F   UNL     1      -0.146   8.295  -1.419  1.00  0.00    -0.200 F 
ENDBRANCH  55  79
BRANCH  67  90
ATOM     90  C   UNL     1       7.246   8.951   6.510  1.00  0.00     0.064 A 
ATOM     91  C   UNL     1       8.236   9.886   6.186  1.00  0.00     0.173 A 
ATOM     92  C   UNL     1       6.948   8.837   7.890  1.00  0.00     0.173 A 
ATOM     93  F   UNL     1       8.740   9.955   4.945  1.00  0.00    -0.203 F 
ATOM     94  C   UNL     1       8.757  10.761   7.139  1.00  0.00     0.198 A 
ATOM     95  C   UNL     1       7.527   9.657   8.850  1.00  0.00     0.198 A 
ATOM     96  F   UNL     1       6.067   7.952   8.371  1.00  0.00    -0.203 F 
ATOM     97  F   UNL     1       9.612  11.719   6.758  1.00  0.00    -0.200 F 
ATOM     98  C   UNL     1       8.396  10.652   8.469  1.00  0.00     0.200 A 
ATOM     99  F   UNL     1       7.210   9.485  10.142  1.00  0.00    -0.200 F 
ATOM    100  F   UNL     1       8.891  11.496   9.383  1.00  0.00    -0.200 F 
ENDBRANCH  67  90
ENDBRANCH  41  42
ENDBRANCH  33  36
ENDBRANCH  31  32
ENDBRANCH  30  31
ENDBRANCH  29  30
ENDBRANCH   1  29
TORSDOF 17
