REMARK SMILES Cc1noc(C)c1CCC(=O)N1CCC2(CC1)NC(=O)C[C@@H]2C(=O)NCCCCCCNC(=O)c1ccc(-c2c3nc(c(-c4c(F)c(F)c(F)c(F)c4F)c4ccc([nH]4)c(-c4c(F)c(F)c(F)c(F)c4F)c4nc(c(-c5c(F)c(F)c(F)c(F)c5F)c5ccc2[nH]5)C=C4)C=C3)cc1
REMARK SMILES IDX 28 1 27 2 26 3 25 4 23 5 24 6 22 8 10 9 11 10 12 11 13 12
REMARK SMILES IDX 17 13 14 14 16 15 15 16 18 17 19 18 21 20 20 21 9 22 8 23
REMARK SMILES IDX 7 24 1 25 2 26 3 27 4 28 5 29 6 30 29 31 30 32 31 33 32 34
REMARK SMILES IDX 33 35 34 37 35 38 36 39 97 40 37 41 96 42 38 43 39 44 40 45
REMARK SMILES IDX 90 46 41 47 95 48 89 49 91 50 42 51 94 52 88 53 87 54 43 56
REMARK SMILES IDX 75 57 55 58 74 59 56 60 59 61 73 62 92 63 57 64 58 65 72 67
REMARK SMILES IDX 93 68 60 69 44 70 45 71 53 72 46 73 47 74 51 75 54 76 48 77
REMARK SMILES IDX 49 78 52 79 50 80 76 81 77 82 85 83 78 84 79 85 83 86 86 87
REMARK SMILES IDX 80 88 81 89 84 90 82 91 61 92 62 93 70 94 63 95 64 96 68 97
REMARK SMILES IDX 71 98 65 99 66 100 69 101 67 102
REMARK H PARENT 25 7 18 19 32 36 91 55 59 66
REMARK Flexibility Score: inf
ROOT
ATOM      1  C   UNL     1      -7.148   1.004  -3.756  1.00  0.00     0.002 C 
ENDROOT
BRANCH   1   2
ATOM      2  C   UNL     1      -6.238  -0.228  -3.739  1.00  0.00     0.021 C 
BRANCH   2   3
ATOM      3  C   UNL     1      -5.443  -0.349  -2.456  1.00  0.00     0.116 C 
BRANCH   3   4
ATOM      4  N   UNL     1      -5.237  -1.680  -1.936  1.00  0.00    -0.356 N 
ATOM      5  C   UNL     1      -4.338  -1.840  -0.915  1.00  0.00     0.226 C 
ATOM      6  O   UNL     1      -4.785  -1.799   0.237  1.00  0.00    -0.275 OA
ATOM      7  H   UNL     1      -5.727  -2.450  -2.304  1.00  0.00     0.163 HD
BRANCH   5   8
ATOM      8  C   UNL     1      -2.906  -2.336  -1.147  1.00  0.00     0.113 C 
ATOM      9  C   UNL     1      -1.051   2.261  -1.564  1.00  0.00     0.222 C 
ATOM     10  O   UNL     1      -2.013   3.009  -1.765  1.00  0.00    -0.275 OA
ATOM     11  N   UNL     1      -1.065   0.913  -1.958  1.00  0.00    -0.343 N 
ATOM     12  C   UNL     1      -2.230   0.536  -2.710  1.00  0.00     0.122 C 
ATOM     13  C   UNL     1      -0.494  -0.123  -1.116  1.00  0.00     0.122 C 
ATOM     14  C   UNL     1      -2.208  -0.871  -3.300  1.00  0.00     0.051 C 
ATOM     15  C   UNL     1      -0.516  -1.538  -1.673  1.00  0.00     0.051 C 
ATOM     16  C   UNL     1      -1.887  -1.951  -2.270  1.00  0.00     0.055 C 
ATOM     17  N   UNL     1      -1.656  -3.209  -2.960  1.00  0.00    -0.350 N 
ATOM     18  C   UNL     1      -2.133  -4.315  -2.314  1.00  0.00     0.221 C 
ATOM     19  H   UNL     1      -1.192  -3.260  -3.827  1.00  0.00     0.164 HD
ATOM     20  C   UNL     1      -3.016  -3.879  -1.192  1.00  0.00     0.116 C 
ATOM     21  O   UNL     1      -1.872  -5.462  -2.623  1.00  0.00    -0.275 OA
BRANCH   9  22
ATOM     22  C   UNL     1       0.206   2.821  -0.938  1.00  0.00     0.105 C 
BRANCH  22  23
ATOM     23  C   UNL     1       0.157   2.954   0.582  1.00  0.00     0.051 C 
BRANCH  23  24
ATOM     24  C   UNL     1       0.345   1.677   1.330  1.00  0.00     0.018 A 
ATOM     25  C   UNL     1      -2.067   1.222   2.274  1.00  0.00     0.071 C 
ATOM     26  C   UNL     1      -0.622   0.944   2.082  1.00  0.00     0.084 A 
ATOM     27  N   UNL     1      -0.104  -0.192   2.563  1.00  0.00    -0.085 NA
ATOM     28  O   UNL     1       1.203  -0.229   2.131  1.00  0.00    -0.361 OA
ATOM     29  C   UNL     1       1.470   0.874   1.385  1.00  0.00     0.137 A 
ATOM     30  C   UNL     1       2.802   0.901   0.744  1.00  0.00     0.091 C 
ENDBRANCH  23  24
ENDBRANCH  22  23
ENDBRANCH   9  22
ENDBRANCH   5   8
ENDBRANCH   3   4
ENDBRANCH   2   3
ENDBRANCH   1   2
BRANCH   1  31
ATOM     31  C   UNL     1      -6.569   2.342  -3.265  1.00  0.00     0.002 C 
BRANCH  31  32
ATOM     32  C   UNL     1      -5.354   2.910  -4.000  1.00  0.00     0.021 C 
BRANCH  32  33
ATOM     33  C   UNL     1      -5.467   3.011  -5.518  1.00  0.00     0.116 C 
BRANCH  33  34
ATOM     34  N   UNL     1      -6.706   3.633  -5.957  1.00  0.00    -0.352 N 
ATOM     35  C   UNL     1      -6.933   4.696  -6.792  1.00  0.00     0.251 C 
ATOM     36  H   UNL     1      -7.522   3.219  -5.593  1.00  0.00     0.163 HD
ATOM     37  O   UNL     1      -8.073   5.130  -6.931  1.00  0.00    -0.269 OA
BRANCH  35  38
ATOM     38  C   UNL     1      -5.815   5.345  -7.506  1.00  0.00     0.039 A 
ATOM     39  C   UNL     1      -5.764   6.742  -7.532  1.00  0.00     0.014 A 
ATOM     40  C   UNL     1      -4.838   4.594  -8.163  1.00  0.00     0.014 A 
ATOM     41  C   UNL     1      -4.690   7.387  -8.149  1.00  0.00     0.010 A 
ATOM     42  C   UNL     1      -3.736   5.236  -8.725  1.00  0.00     0.010 A 
ATOM     43  C   UNL     1      -3.646   6.637  -8.711  1.00  0.00    -0.014 A 
BRANCH  43  44
ATOM     44  C   UNL     1      -2.430   7.293  -9.253  1.00  0.00     0.031 A 
ATOM     45  C   UNL     1      -2.102   7.190 -10.714  1.00  0.00     0.074 A 
ATOM     46  C   UNL     1      -1.578   7.902  -8.407  1.00  0.00     0.049 A 
ATOM     47  N   UNL     1      -1.028   7.585 -11.351  1.00  0.00    -0.248 NA
ATOM     48  C   UNL     1      -3.103   6.536 -11.570  1.00  0.00     0.031 C 
ATOM     49  C   UNL     1      -1.773   8.035  -6.963  1.00  0.00     0.029 A 
ATOM     50  N   UNL     1      -0.365   8.505  -8.634  1.00  0.00    -0.354 N 
ATOM     51  C   UNL     1      -1.217   7.213 -12.675  1.00  0.00     0.074 A 
ATOM     52  C   UNL     1      -2.489   6.525 -12.745  1.00  0.00     0.031 C 
ATOM     53  C   UNL     1      -0.723   8.682  -6.434  1.00  0.00     0.029 A 
ATOM     54  C   UNL     1       0.241   8.968  -7.492  1.00  0.00     0.049 A 
ATOM     55  H   UNL     1       0.032   8.597  -9.531  1.00  0.00     0.167 HD
ATOM     56  C   UNL     1      -0.408   7.441 -13.738  1.00  0.00     0.037 A 
ATOM     57  C   UNL     1       1.449   9.536  -7.313  1.00  0.00     0.037 A 
ATOM     58  C   UNL     1       0.846   8.145 -13.662  1.00  0.00     0.049 A 
ATOM     59  C   UNL     1       2.342   9.749  -8.505  1.00  0.00     0.074 A 
ATOM     60  C   UNL     1       1.705   8.489 -14.692  1.00  0.00     0.029 A 
ATOM     61  N   UNL     1       1.425   8.605 -12.488  1.00  0.00    -0.354 N 
ATOM     62  N   UNL     1       2.124   9.453  -9.764  1.00  0.00    -0.248 NA
ATOM     63  C   UNL     1       3.649  10.370  -8.253  1.00  0.00     0.031 C 
ATOM     64  C   UNL     1       2.829   9.107 -14.135  1.00  0.00     0.029 A 
ATOM     65  C   UNL     1       2.647   9.198 -12.764  1.00  0.00     0.049 A 
ATOM     66  H   UNL     1       1.026   8.523 -11.592  1.00  0.00     0.167 HD
ATOM     67  C   UNL     1       3.253   9.870 -10.455  1.00  0.00     0.074 A 
ATOM     68  C   UNL     1       4.148  10.456  -9.478  1.00  0.00     0.031 C 
ATOM     69  C   UNL     1       3.526   9.774 -11.779  1.00  0.00     0.037 A 
BRANCH  56  70
ATOM     70  C   UNL     1      -0.848   6.921 -15.075  1.00  0.00     0.064 A 
ATOM     71  C   UNL     1      -1.935   7.482 -15.764  1.00  0.00     0.173 A 
ATOM     72  C   UNL     1      -0.146   5.878 -15.698  1.00  0.00     0.173 A 
ATOM     73  F   UNL     1      -2.646   8.475 -15.208  1.00  0.00    -0.203 F 
ATOM     74  C   UNL     1      -2.318   7.000 -17.013  1.00  0.00     0.198 A 
ATOM     75  C   UNL     1      -0.513   5.420 -16.961  1.00  0.00     0.198 A 
ATOM     76  F   UNL     1       0.905   5.311 -15.088  1.00  0.00    -0.203 F 
ATOM     77  F   UNL     1      -3.387   7.521 -17.631  1.00  0.00    -0.200 F 
ATOM     78  C   UNL     1      -1.603   5.975 -17.614  1.00  0.00     0.200 A 
ATOM     79  F   UNL     1       0.189   4.439 -17.546  1.00  0.00    -0.200 F 
ATOM     80  F   UNL     1      -1.967   5.519 -18.820  1.00  0.00    -0.200 F 
ENDBRANCH  56  70
BRANCH  57  81
ATOM     81  C   UNL     1       1.885   9.939  -5.950  1.00  0.00     0.064 A 
ATOM     82  C   UNL     1       2.024  11.291  -5.609  1.00  0.00     0.173 A 
ATOM     83  C   UNL     1       2.174   8.984  -4.963  1.00  0.00     0.173 A 
ATOM     84  F   UNL     1       1.781  12.240  -6.525  1.00  0.00    -0.203 F 
ATOM     85  C   UNL     1       2.452  11.673  -4.339  1.00  0.00     0.198 A 
ATOM     86  C   UNL     1       2.573   9.368  -3.685  1.00  0.00     0.198 A 
ATOM     87  F   UNL     1       2.055   7.676  -5.237  1.00  0.00    -0.203 F 
ATOM     88  F   UNL     1       2.621  12.971  -4.054  1.00  0.00    -0.200 F 
ATOM     89  C   UNL     1       2.720  10.711  -3.376  1.00  0.00     0.200 A 
ATOM     90  F   UNL     1       2.817   8.435  -2.754  1.00  0.00    -0.200 F 
ATOM     91  F   UNL     1       3.127  11.079  -2.154  1.00  0.00    -0.200 F 
ENDBRANCH  57  81
BRANCH  69  92
ATOM     92  C   UNL     1       4.837  10.329 -12.255  1.00  0.00     0.064 A 
ATOM     93  C   UNL     1       6.050   9.680 -11.981  1.00  0.00     0.173 A 
ATOM     94  C   UNL     1       4.875  11.491 -13.040  1.00  0.00     0.173 A 
ATOM     95  F   UNL     1       6.067   8.575 -11.220  1.00  0.00    -0.203 F 
ATOM     96  C   UNL     1       7.255  10.184 -12.463  1.00  0.00     0.198 A 
ATOM     97  C   UNL     1       6.078  11.975 -13.545  1.00  0.00     0.198 A 
ATOM     98  F   UNL     1       3.742  12.146 -13.335  1.00  0.00    -0.203 F 
ATOM     99  F   UNL     1       8.406   9.570 -12.155  1.00  0.00    -0.200 F 
ATOM    100  C   UNL     1       7.267  11.324 -13.252  1.00  0.00     0.200 A 
ATOM    101  F   UNL     1       6.087  13.069 -14.319  1.00  0.00    -0.200 F 
ATOM    102  F   UNL     1       8.427  11.799 -13.726  1.00  0.00    -0.200 F 
ENDBRANCH  69  92
ENDBRANCH  43  44
ENDBRANCH  35  38
ENDBRANCH  33  34
ENDBRANCH  32  33
ENDBRANCH  31  32
ENDBRANCH   1  31
TORSDOF 16
