REMARK SMILES O=C(Cn1cccc1C(=O)NCCC(=O)NC1CC1)NCCCCCCNC(=O)c1ccc(-c2c3nc(c(-c4c(F)c(F)c(F)c(F)c4F)c4ccc([nH]4)c(-c4c(F)c(F)c(F)c(F)c4F)c4nc(c(-c5c(F)c(F)c(F)c(F)c5F)c5ccc2[nH]5)C=C4)C=C3)cc1
REMARK SMILES IDX 21 1 20 2 1 3 2 4 3 6 4 7 5 8 8 9 6 10 7 11 9 12 10 13 11 14
REMARK SMILES IDX 12 16 13 17 14 18 15 19 16 20 17 22 18 23 19 24 22 25 23 26
REMARK SMILES IDX 24 27 25 28 26 29 27 30 28 31 29 33 30 34 31 35 92 36 32 37
REMARK SMILES IDX 91 38 33 39 34 40 35 41 85 42 36 43 90 44 84 45 86 46 37 47
REMARK SMILES IDX 89 48 83 49 82 50 38 52 70 53 50 54 69 55 51 56 54 57 68 58
REMARK SMILES IDX 87 59 52 60 53 61 67 63 88 64 55 65 39 66 40 67 48 68 41 69
REMARK SMILES IDX 42 70 46 71 49 72 43 73 44 74 47 75 45 76 71 77 72 78 80 79
REMARK SMILES IDX 73 80 74 81 78 82 81 83 75 84 76 85 79 86 77 87 56 88 57 89
REMARK SMILES IDX 65 90 58 91 59 92 63 93 66 94 60 95 61 96 64 97 62 98
REMARK H PARENT 20 5 11 15 16 21 27 32 86 51 54 62
REMARK Flexibility Score: inf
ROOT
ATOM      1  C   UNL     1       2.101   2.668   0.499  1.00  0.00     0.116 C 
ENDROOT
BRANCH   1   2
ATOM      2  N   UNL     1       2.765   1.470   0.044  1.00  0.00    -0.355 N 
ATOM      3  O   UNL     1       0.882   0.388  -0.694  1.00  0.00    -0.273 OA
ATOM      4  C   UNL     1       2.087   0.389  -0.462  1.00  0.00     0.239 C 
ATOM      5  H   UNL     1       3.747   1.427   0.099  1.00  0.00     0.163 HD
BRANCH   4   6
ATOM      6  C   UNL     1       2.928  -0.856  -0.546  1.00  0.00     0.222 C 
BRANCH   6   7
ATOM      7  N   UNL     1       3.884  -0.987  -1.629  1.00  0.00    -0.334 N 
ATOM      8  C   UNL     1       4.254   0.048  -2.459  1.00  0.00     0.087 A 
ATOM      9  C   UNL     1       4.571  -2.150  -1.969  1.00  0.00     0.107 A 
ATOM     10  C   UNL     1       5.150  -0.424  -3.380  1.00  0.00     0.020 A 
ATOM     11  C   UNL     1       5.332  -1.786  -3.088  1.00  0.00     0.033 A 
BRANCH   9  12
ATOM     12  C   UNL     1       4.628  -3.517  -1.450  1.00  0.00     0.267 C 
ATOM     13  O   UNL     1       5.292  -4.370  -2.057  1.00  0.00    -0.268 OA
ATOM     14  N   UNL     1       4.056  -4.050  -0.332  1.00  0.00    -0.350 N 
ATOM     15  H   UNL     1       4.349  -4.984  -0.230  1.00  0.00     0.163 HD
BRANCH  14  16
ATOM     16  C   UNL     1       3.160  -3.706   0.760  1.00  0.00     0.126 C 
BRANCH  16  17
ATOM     17  C   UNL     1       1.681  -3.801   0.407  1.00  0.00     0.121 C 
BRANCH  17  18
ATOM     18  C   UNL     1       1.084  -5.157   0.696  1.00  0.00     0.221 C 
ATOM     19  O   UNL     1       0.487  -5.377   1.751  1.00  0.00    -0.275 OA
ATOM     20  N   UNL     1       1.206  -6.151  -0.235  1.00  0.00    -0.353 N 
ATOM     21  H   UNL     1       0.709  -6.980  -0.045  1.00  0.00     0.163 HD
BRANCH  20  22
ATOM     22  C   UNL     1       1.959  -6.140  -1.444  1.00  0.00     0.082 C 
ATOM     23  C   UNL     1       1.373  -6.721  -2.702  1.00  0.00     0.027 C 
ATOM     24  C   UNL     1       1.635  -5.250  -2.611  1.00  0.00     0.027 C 
ENDBRANCH  20  22
ENDBRANCH  17  18
ENDBRANCH  16  17
ENDBRANCH  14  16
ENDBRANCH   9  12
ENDBRANCH   6   7
ENDBRANCH   4   6
ENDBRANCH   1   2
BRANCH   1  25
ATOM     25  C   UNL     1       2.710   3.138   1.819  1.00  0.00     0.021 C 
BRANCH  25  26
ATOM     26  C   UNL     1       4.224   3.387   1.770  1.00  0.00     0.002 C 
BRANCH  26  27
ATOM     27  C   UNL     1       4.694   4.299   0.631  1.00  0.00     0.002 C 
BRANCH  27  28
ATOM     28  C   UNL     1       3.992   5.661   0.563  1.00  0.00     0.021 C 
BRANCH  28  29
ATOM     29  C   UNL     1       4.200   6.517   1.809  1.00  0.00     0.116 C 
BRANCH  29  30
ATOM     30  N   UNL     1       5.588   6.923   1.921  1.00  0.00    -0.352 N 
ATOM     31  C   UNL     1       6.187   7.749   2.835  1.00  0.00     0.251 C 
ATOM     32  H   UNL     1       6.191   6.549   1.238  1.00  0.00     0.163 HD
ATOM     33  O   UNL     1       7.248   8.289   2.548  1.00  0.00    -0.269 OA
BRANCH  31  34
ATOM     34  C   UNL     1       5.578   8.004   4.156  1.00  0.00     0.039 A 
ATOM     35  C   UNL     1       5.716   9.290   4.694  1.00  0.00     0.014 A 
ATOM     36  C   UNL     1       4.984   6.984   4.907  1.00  0.00     0.014 A 
ATOM     37  C   UNL     1       5.215   9.567   5.960  1.00  0.00     0.010 A 
ATOM     38  C   UNL     1       4.460   7.261   6.166  1.00  0.00     0.010 A 
ATOM     39  C   UNL     1       4.565   8.558   6.683  1.00  0.00    -0.014 A 
BRANCH  39  40
ATOM     40  C   UNL     1       3.814   8.944   7.897  1.00  0.00     0.031 A 
ATOM     41  C   UNL     1       2.467   9.614   7.519  1.00  0.00     0.074 A 
ATOM     42  C   UNL     1       4.419   8.688   9.100  1.00  0.00     0.049 A 
ATOM     43  N   UNL     1       1.738  10.471   8.166  1.00  0.00    -0.248 NA
ATOM     44  C   UNL     1       1.865   9.324   6.183  1.00  0.00     0.031 C 
ATOM     45  C   UNL     1       5.702   7.965   9.264  1.00  0.00     0.029 A 
ATOM     46  N   UNL     1       4.107   8.970  10.417  1.00  0.00    -0.354 N 
ATOM     47  C   UNL     1       0.537  10.663   7.437  1.00  0.00     0.074 A 
ATOM     48  C   UNL     1       0.727  10.021   6.175  1.00  0.00     0.031 C 
ATOM     49  C   UNL     1       6.090   7.942  10.559  1.00  0.00     0.029 A 
ATOM     50  C   UNL     1       5.111   8.635  11.373  1.00  0.00     0.049 A 
ATOM     51  H   UNL     1       3.249   9.376  10.678  1.00  0.00     0.167 HD
ATOM     52  C   UNL     1      -0.588  11.220   7.984  1.00  0.00     0.037 A 
ATOM     53  C   UNL     1       5.169   8.942  12.710  1.00  0.00     0.037 A 
ATOM     54  C   UNL     1      -0.310  11.632   9.315  1.00  0.00     0.049 A 
ATOM     55  C   UNL     1       3.868   9.552  12.998  1.00  0.00     0.074 A 
ATOM     56  C   UNL     1       0.428  12.669   9.818  1.00  0.00     0.029 A 
ATOM     57  N   UNL     1      -0.530  10.706  10.303  1.00  0.00    -0.354 N 
ATOM     58  N   UNL     1       2.755   8.891  13.101  1.00  0.00    -0.248 NA
ATOM     59  C   UNL     1       3.783  11.014  13.091  1.00  0.00     0.031 C 
ATOM     60  C   UNL     1       1.053  12.093  10.941  1.00  0.00     0.029 A 
ATOM     61  C   UNL     1       0.484  10.842  11.213  1.00  0.00     0.049 A 
ATOM     62  H   UNL     1      -1.275  10.065  10.349  1.00  0.00     0.167 HD
ATOM     63  C   UNL     1       1.823   9.883  12.927  1.00  0.00     0.074 A 
ATOM     64  C   UNL     1       2.470  11.132  13.262  1.00  0.00     0.031 C 
ATOM     65  C   UNL     1       0.827   9.702  12.024  1.00  0.00     0.037 A 
BRANCH  52  66
ATOM     66  C   UNL     1      -2.040  11.238   7.575  1.00  0.00     0.064 A 
ATOM     67  C   UNL     1      -2.910  12.132   8.256  1.00  0.00     0.173 A 
ATOM     68  C   UNL     1      -2.658  10.195   6.876  1.00  0.00     0.173 A 
ATOM     69  F   UNL     1      -2.427  13.206   8.902  1.00  0.00    -0.203 F 
ATOM     70  C   UNL     1      -4.277  11.889   8.378  1.00  0.00     0.198 A 
ATOM     71  C   UNL     1      -4.040   9.988   6.955  1.00  0.00     0.198 A 
ATOM     72  F   UNL     1      -1.939   9.298   6.192  1.00  0.00    -0.203 F 
ATOM     73  F   UNL     1      -5.027  12.667   9.172  1.00  0.00    -0.200 F 
ATOM     74  C   UNL     1      -4.838  10.801   7.745  1.00  0.00     0.200 A 
ATOM     75  F   UNL     1      -4.588   8.938   6.326  1.00  0.00    -0.200 F 
ATOM     76  F   UNL     1      -6.135  10.513   7.922  1.00  0.00    -0.200 F 
ENDBRANCH  52  66
BRANCH  53  77
ATOM     77  C   UNL     1       6.146   8.912  13.873  1.00  0.00     0.064 A 
ATOM     78  C   UNL     1       7.395   8.284  13.895  1.00  0.00     0.173 A 
ATOM     79  C   UNL     1       5.852   9.646  15.066  1.00  0.00     0.173 A 
ATOM     80  F   UNL     1       7.763   7.451  12.916  1.00  0.00    -0.203 F 
ATOM     81  C   UNL     1       8.313   8.482  14.950  1.00  0.00     0.198 A 
ATOM     82  C   UNL     1       6.778   9.890  16.079  1.00  0.00     0.198 A 
ATOM     83  F   UNL     1       4.639  10.165  15.298  1.00  0.00    -0.203 F 
ATOM     84  F   UNL     1       9.502   7.862  14.922  1.00  0.00    -0.200 F 
ATOM     85  C   UNL     1       8.023   9.321  16.013  1.00  0.00     0.200 A 
ATOM     86  F   UNL     1       6.448  10.695  17.100  1.00  0.00    -0.200 F 
ATOM     87  F   UNL     1       8.926   9.566  16.972  1.00  0.00    -0.200 F 
ENDBRANCH  53  77
BRANCH  65  88
ATOM     88  C   UNL     1       0.512   8.245  11.731  1.00  0.00     0.064 A 
ATOM     89  C   UNL     1       0.073   7.408  12.770  1.00  0.00     0.173 A 
ATOM     90  C   UNL     1       0.751   7.615  10.498  1.00  0.00     0.173 A 
ATOM     91  F   UNL     1      -0.201   7.929  13.975  1.00  0.00    -0.203 F 
ATOM     92  C   UNL     1      -0.088   6.031  12.590  1.00  0.00     0.198 A 
ATOM     93  C   UNL     1       0.587   6.239  10.312  1.00  0.00     0.198 A 
ATOM     94  F   UNL     1       1.147   8.318   9.440  1.00  0.00    -0.203 F 
ATOM     95  F   UNL     1      -0.503   5.269  13.611  1.00  0.00    -0.200 F 
ATOM     96  C   UNL     1       0.173   5.446  11.362  1.00  0.00     0.200 A 
ATOM     97  F   UNL     1       0.826   5.691   9.110  1.00  0.00    -0.200 F 
ATOM     98  F   UNL     1       0.008   4.127  11.187  1.00  0.00    -0.200 F 
ENDBRANCH  65  88
ENDBRANCH  39  40
ENDBRANCH  31  34
ENDBRANCH  29  30
ENDBRANCH  28  29
ENDBRANCH  27  28
ENDBRANCH  26  27
ENDBRANCH  25  26
ENDBRANCH   1  25
TORSDOF 19
