REMARK SMILES O=C(NCCCCCCNC(=O)[C@@H]1CCCCC[C@H]1NC(=O)c1ccc(Cl)o1)c1ccc(-c2c3nc(c(-c4c(F)c(F)c(F)c(F)c4F)c4ccc([nH]4)c(-c4c(F)c(F)c(F)c(F)c4F)c4nc(c(-c5c(F)c(F)c(F)c(F)c5F)c5ccc2[nH]5)C=C4)C=C3)cc1
REMARK SMILES IDX 7 1 6 2 5 3 4 4 3 5 1 6 2 7 29 9 30 10 91 11 31 12 90 13
REMARK SMILES IDX 32 14 33 15 34 16 84 17 35 18 89 19 83 20 85 21 36 22 88 23
REMARK SMILES IDX 82 24 81 25 37 27 69 28 49 29 68 30 50 31 53 32 67 33 86 34
REMARK SMILES IDX 51 35 52 36 66 38 87 39 54 40 38 41 39 42 47 43 40 44 41 45
REMARK SMILES IDX 45 46 48 47 42 48 43 49 46 50 44 51 70 52 71 53 79 54 72 55
REMARK SMILES IDX 73 56 77 57 80 58 74 59 75 60 78 61 76 62 55 63 56 64 64 65
REMARK SMILES IDX 57 66 58 67 62 68 65 69 59 70 60 71 63 72 61 73 8 74 9 75
REMARK SMILES IDX 10 76 11 77 12 79 13 80 14 81 15 82 16 83 19 85 18 86 17 87
REMARK SMILES IDX 20 89 21 90 22 92 23 93 24 94 28 95 25 96 26 97 27 98
REMARK H PARENT 3 8 85 26 53 37 10 78 20 91
REMARK Flexibility Score: 100.00
ROOT
ATOM      1  C   UNL     1       4.577  -3.053   3.144  1.00  0.00     0.002 C 
ENDROOT
BRANCH   1   2
ATOM      2  C   UNL     1       4.076  -1.643   3.471  1.00  0.00     0.002 C 
BRANCH   2   3
ATOM      3  C   UNL     1       4.559  -0.526   2.546  1.00  0.00     0.021 C 
BRANCH   3   4
ATOM      4  C   UNL     1       4.305  -0.737   1.057  1.00  0.00     0.116 C 
BRANCH   4   5
ATOM      5  N   UNL     1       2.892  -0.765   0.730  1.00  0.00    -0.352 N 
ATOM      6  O   UNL     1       0.960  -0.080  -0.195  1.00  0.00    -0.269 OA
ATOM      7  C   UNL     1       2.186  -0.009  -0.171  1.00  0.00     0.251 C 
ATOM      8  H   UNL     1       2.361  -1.427   1.229  1.00  0.00     0.163 HD
BRANCH   7   9
ATOM      9  C   UNL     1       2.880   0.911  -1.101  1.00  0.00     0.039 A 
ATOM     10  C   UNL     1       4.023   0.523  -1.807  1.00  0.00     0.014 A 
ATOM     11  C   UNL     1       2.326   2.178  -1.315  1.00  0.00     0.014 A 
ATOM     12  C   UNL     1       4.663   1.429  -2.654  1.00  0.00     0.010 A 
ATOM     13  C   UNL     1       2.935   3.064  -2.205  1.00  0.00     0.010 A 
ATOM     14  C   UNL     1       4.117   2.703  -2.870  1.00  0.00    -0.014 A 
BRANCH  14  15
ATOM     15  C   UNL     1       4.739   3.644  -3.835  1.00  0.00     0.031 A 
ATOM     16  C   UNL     1       5.358   4.927  -3.362  1.00  0.00     0.074 A 
ATOM     17  C   UNL     1       4.685   3.368  -5.151  1.00  0.00     0.049 A 
ATOM     18  N   UNL     1       5.835   5.925  -4.063  1.00  0.00    -0.248 NA
ATOM     19  C   UNL     1       5.438   5.120  -1.907  1.00  0.00     0.031 C 
ATOM     20  C   UNL     1       4.099   2.161  -5.733  1.00  0.00     0.029 A 
ATOM     21  N   UNL     1       5.107   4.093  -6.237  1.00  0.00    -0.354 N 
ATOM     22  C   UNL     1       6.249   6.873  -3.138  1.00  0.00     0.074 A 
ATOM     23  C   UNL     1       5.948   6.341  -1.825  1.00  0.00     0.031 C 
ATOM     24  C   UNL     1       4.191   2.229  -7.069  1.00  0.00     0.029 A 
ATOM     25  C   UNL     1       4.796   3.506  -7.438  1.00  0.00     0.049 A 
ATOM     26  H   UNL     1       5.585   4.950  -6.162  1.00  0.00     0.167 HD
ATOM     27  C   UNL     1       6.829   8.077  -3.368  1.00  0.00     0.037 A 
ATOM     28  C   UNL     1       4.947   3.958  -8.697  1.00  0.00     0.037 A 
ATOM     29  C   UNL     1       7.140   8.592  -4.676  1.00  0.00     0.049 A 
ATOM     30  C   UNL     1       5.572   5.303  -8.929  1.00  0.00     0.074 A 
ATOM     31  C   UNL     1       7.780   9.774  -5.009  1.00  0.00     0.029 A 
ATOM     32  N   UNL     1       6.824   7.960  -5.870  1.00  0.00    -0.354 N 
ATOM     33  N   UNL     1       5.999   6.175  -8.049  1.00  0.00    -0.248 NA
ATOM     34  C   UNL     1       5.736   5.729 -10.326  1.00  0.00     0.031 C 
ATOM     35  C   UNL     1       7.810   9.878  -6.404  1.00  0.00     0.029 A 
ATOM     36  C   UNL     1       7.232   8.739  -6.942  1.00  0.00     0.049 A 
ATOM     37  H   UNL     1       6.376   7.086  -5.946  1.00  0.00     0.167 HD
ATOM     38  C   UNL     1       6.502   7.241  -8.781  1.00  0.00     0.074 A 
ATOM     39  C   UNL     1       6.330   6.906 -10.180  1.00  0.00     0.031 C 
ATOM     40  C   UNL     1       7.060   8.391  -8.330  1.00  0.00     0.037 A 
BRANCH  27  41
ATOM     41  C   UNL     1       7.141   8.933  -2.175  1.00  0.00     0.064 A 
ATOM     42  C   UNL     1       8.174   8.609  -1.282  1.00  0.00     0.173 A 
ATOM     43  C   UNL     1       6.412  10.108  -1.937  1.00  0.00     0.173 A 
ATOM     44  F   UNL     1       8.895   7.492  -1.460  1.00  0.00    -0.203 F 
ATOM     45  C   UNL     1       8.441   9.412  -0.176  1.00  0.00     0.198 A 
ATOM     46  C   UNL     1       6.700  10.922  -0.845  1.00  0.00     0.198 A 
ATOM     47  F   UNL     1       5.419  10.468  -2.764  1.00  0.00    -0.203 F 
ATOM     48  F   UNL     1       9.397   9.055   0.693  1.00  0.00    -0.200 F 
ATOM     49  C   UNL     1       7.708  10.569   0.040  1.00  0.00     0.200 A 
ATOM     50  F   UNL     1       5.998  12.046  -0.645  1.00  0.00    -0.200 F 
ATOM     51  F   UNL     1       7.966  11.339   1.106  1.00  0.00    -0.200 F 
ENDBRANCH  27  41
BRANCH  28  52
ATOM     52  C   UNL     1       4.482   3.114  -9.826  1.00  0.00     0.064 A 
ATOM     53  C   UNL     1       5.395   2.445 -10.649  1.00  0.00     0.173 A 
ATOM     54  C   UNL     1       3.113   2.914 -10.063  1.00  0.00     0.173 A 
ATOM     55  F   UNL     1       6.712   2.621 -10.470  1.00  0.00    -0.203 F 
ATOM     56  C   UNL     1       4.957   1.603 -11.669  1.00  0.00     0.198 A 
ATOM     57  C   UNL     1       2.677   2.054 -11.068  1.00  0.00     0.198 A 
ATOM     58  F   UNL     1       2.202   3.530  -9.296  1.00  0.00    -0.203 F 
ATOM     59  F   UNL     1       5.849   0.988 -12.457  1.00  0.00    -0.200 F 
ATOM     60  C   UNL     1       3.599   1.401 -11.871  1.00  0.00     0.200 A 
ATOM     61  F   UNL     1       1.365   1.849 -11.249  1.00  0.00    -0.200 F 
ATOM     62  F   UNL     1       3.179   0.576 -12.840  1.00  0.00    -0.200 F 
ENDBRANCH  28  52
BRANCH  40  63
ATOM     63  C   UNL     1       7.561   9.364  -9.355  1.00  0.00     0.064 A 
ATOM     64  C   UNL     1       6.683  10.174 -10.089  1.00  0.00     0.173 A 
ATOM     65  C   UNL     1       8.939   9.536  -9.552  1.00  0.00     0.173 A 
ATOM     66  F   UNL     1       5.356  10.034  -9.947  1.00  0.00    -0.203 F 
ATOM     67  C   UNL     1       7.168  11.116 -10.992  1.00  0.00     0.198 A 
ATOM     68  C   UNL     1       9.421  10.495 -10.439  1.00  0.00     0.198 A 
ATOM     69  F   UNL     1       9.818   8.787  -8.870  1.00  0.00    -0.203 F 
ATOM     70  F   UNL     1       6.313  11.862 -11.705  1.00  0.00    -0.200 F 
ATOM     71  C   UNL     1       8.536  11.282 -11.159  1.00  0.00     0.200 A 
ATOM     72  F   UNL     1      10.742  10.661 -10.591  1.00  0.00    -0.200 F 
ATOM     73  F   UNL     1       9.001  12.200 -12.018  1.00  0.00    -0.200 F 
ENDBRANCH  40  63
ENDBRANCH  14  15
ENDBRANCH   7   9
ENDBRANCH   4   5
ENDBRANCH   3   4
ENDBRANCH   2   3
ENDBRANCH   1   2
BRANCH   1  74
ATOM     74  C   UNL     1       6.092  -3.221   2.975  1.00  0.00     0.021 C 
BRANCH  74  75
ATOM     75  C   UNL     1       6.954  -2.731   4.134  1.00  0.00     0.116 C 
BRANCH  75  76
ATOM     76  N   UNL     1       6.677  -3.409   5.383  1.00  0.00    -0.356 N 
ATOM     77  C   UNL     1       7.529  -3.769   6.384  1.00  0.00     0.225 C 
ATOM     78  H   UNL     1       5.733  -3.645   5.531  1.00  0.00     0.163 HD
ATOM     79  O   UNL     1       7.025  -4.198   7.423  1.00  0.00    -0.275 OA
BRANCH  77  80
ATOM     80  C   UNL     1       9.049  -3.629   6.200  1.00  0.00     0.101 C 
BRANCH  80  81
ATOM     81  C   UNL     1       9.755  -4.568   7.202  1.00  0.00     0.015 C 
BRANCH  81  82
ATOM     82  C   UNL     1      11.256  -4.371   7.377  1.00  0.00     0.001 C 
BRANCH  82  83
ATOM     83  C   UNL     1      11.592  -3.342   8.452  1.00  0.00     0.000 CG0
ATOM     84  G   UNL     1      11.262  -1.893   8.120  1.00  0.00     0.000 G0
ENDBRANCH  82  83
ENDBRANCH  81  82
ENDBRANCH  80  81
BRANCH  80  85
ATOM     85  C   UNL     1       9.458  -2.136   6.256  1.00  0.00     0.094 C 
BRANCH  85  86
ATOM     86  C   UNL     1       9.831  -1.617   7.656  1.00  0.00     0.026 C 
BRANCH  86  87
ATOM     87  C   UNL     1      11.262  -1.893   8.120  1.00  0.00     0.002 CG0
ATOM     88  G   UNL     1      11.592  -3.342   8.452  1.00  0.00     0.000 G0
ENDBRANCH  86  87
ENDBRANCH  85  86
BRANCH  85  89
ATOM     89  N   UNL     1      10.534  -1.862   5.291  1.00  0.00    -0.346 N 
ATOM     90  C   UNL     1      10.591  -1.115   4.142  1.00  0.00     0.287 C 
ATOM     91  H   UNL     1      11.385  -2.304   5.515  1.00  0.00     0.164 HD
ATOM     92  O   UNL     1      11.586  -1.289   3.434  1.00  0.00    -0.266 OA
BRANCH  90  93
ATOM     93  C   UNL     1       9.533  -0.198   3.789  1.00  0.00     0.193 A 
ATOM     94  C   UNL     1       8.704   0.642   4.511  1.00  0.00     0.058 A 
ATOM     95  O   UNL     1       9.275  -0.030   2.452  1.00  0.00    -0.440 OA
ATOM     96  C   UNL     1       7.906   1.341   3.570  1.00  0.00     0.064 A 
ATOM     97  C   UNL     1       8.297   0.903   2.325  1.00  0.00     0.194 A 
ATOM     98  Cl  UNL     1       7.667   1.409   0.808  1.00  0.00    -0.043 Cl
ENDBRANCH  90  93
ENDBRANCH  85  89
ENDBRANCH  80  85
ENDBRANCH  77  80
ENDBRANCH  75  76
ENDBRANCH  74  75
ENDBRANCH   1  74
TORSDOF 15
