REMARK SMILES C=C[C@@H]1[C@@H](O)C[C@H]2[C@]3(CC[C@]4(C)[C@@H]([C@H](C)CCC=C(C)C)CC[C@]24C)C[C@]13CCC(=O)NCCCCCCNC(=O)c1ccc(-c2c3nc(c(-c4c(F)c(F)c(F)c(F)c4F)c4ccc([nH]4)c(-c4c(F)c(F)c(F)c(F)c4F)c4nc(c(-c5c(F)c(F)c(F)c(F)c5F)c5ccc2[nH]5)C=C4)C=C3)cc1
REMARK SMILES IDX 33 1 32 2 30 3 31 4 29 6 28 7 27 8 3 9 4 10 6 11 8 12 26 13
REMARK SMILES IDX 7 14 9 15 24 16 10 17 11 18 23 19 25 20 13 21 12 22 22 23
REMARK SMILES IDX 2 24 1 25 5 26 14 28 15 29 16 30 17 31 18 32 19 33 20 34
REMARK SMILES IDX 21 35 34 36 35 37 36 38 37 39 38 40 39 41 40 42 41 44 42 45
REMARK SMILES IDX 43 46 104 47 44 48 103 49 45 50 46 51 47 52 97 53 48 54
REMARK SMILES IDX 102 55 96 56 98 57 49 58 101 59 95 60 94 61 50 63 82 64
REMARK SMILES IDX 62 65 81 66 63 67 66 68 80 69 99 70 64 71 65 72 79 74 100 75
REMARK SMILES IDX 67 76 51 77 52 78 60 79 53 80 54 81 58 82 61 83 55 84 56 85
REMARK SMILES IDX 59 86 57 87 83 88 84 89 92 90 85 91 86 92 90 93 93 94 87 95
REMARK SMILES IDX 88 96 91 97 89 98 68 99 69 100 77 101 70 102 71 103 75 104
REMARK SMILES IDX 78 105 72 106 73 107 76 108 74 109
REMARK H PARENT 32 5 5 27 39 43 98 62 66 73
REMARK Flexibility Score: inf
ROOT
ATOM      1  C   UNL     1       1.665  -1.912  -1.552  1.00  0.00     0.116 C 
ENDROOT
BRANCH   1   2
ATOM      2  N   UNL     1       1.540  -2.275  -2.951  1.00  0.00    -0.356 N 
ATOM      3  C   UNL     1       0.721  -1.865  -3.953  1.00  0.00     0.220 C 
ATOM      4  O   UNL     1       0.967  -2.328  -5.074  1.00  0.00    -0.275 OA
ATOM      5  H   UNL     1       2.185  -2.963  -3.234  1.00  0.00     0.163 HD
BRANCH   3   6
ATOM      6  C   UNL     1      -0.387  -0.829  -3.804  1.00  0.00     0.100 C 
BRANCH   6   7
ATOM      7  C   UNL     1      -1.702  -1.221  -3.130  1.00  0.00     0.018 C 
BRANCH   7   8
ATOM      8  C   UNL     1      -1.778  -1.154  -1.594  1.00  0.00    -0.014 C 
ATOM      9  C   UNL     1      -1.623   0.301  -0.998  1.00  0.00     0.047 C 
ATOM     10  C   UNL     1      -2.325   0.566   0.363  1.00  0.00     0.122 C 
ATOM     11  C   UNL     1      -2.535  -0.676   1.203  1.00  0.00     0.037 C 
ATOM     12  C   UNL     1      -2.755  -2.143  -0.863  1.00  0.00    -0.019 C 
ATOM     13  C   UNL     1      -1.293  -2.387  -0.859  1.00  0.00     0.016 C 
ATOM     14  C   UNL     1      -3.423  -1.679   0.442  1.00  0.00     0.005 C 
ATOM     15  C   UNL     1      -3.524  -3.220  -1.598  1.00  0.00     0.008 C 
ATOM     16  C   UNL     1      -3.956  -2.850   1.367  1.00  0.00    -0.023 C 
ATOM     17  C   UNL     1      -3.814  -4.366  -0.638  1.00  0.00     0.008 C 
ATOM     18  C   UNL     1      -4.714  -3.960   0.531  1.00  0.00    -0.024 C 
ATOM     19  C   UNL     1      -5.103  -2.291   2.245  1.00  0.00     0.008 C 
ATOM     20  C   UNL     1      -2.837  -3.420   2.269  1.00  0.00     0.012 C 
ATOM     21  C   UNL     1      -6.024  -3.209   0.124  1.00  0.00    -0.002 C 
ATOM     22  C   UNL     1      -5.012  -5.222   1.372  1.00  0.00     0.012 C 
ATOM     23  C   UNL     1      -6.390  -2.438   1.422  1.00  0.00     0.005 C 
BRANCH   9  24
ATOM     24  C   UNL     1      -0.223   0.914  -1.008  1.00  0.00    -0.028 C 
ATOM     25  C   UNL     1       0.645   1.068   0.004  1.00  0.00     0.004 C 
ENDBRANCH   9  24
BRANCH  10  26
ATOM     26  O   UNL     1      -3.596   1.199   0.159  1.00  0.00    -0.392 OA
ATOM     27  H   UNL     1      -4.181   0.600  -0.330  1.00  0.00     0.210 HD
ENDBRANCH  10  26
BRANCH  21  28
ATOM     28  C   UNL     1      -7.256  -3.865  -0.568  1.00  0.00    -0.010 C 
ATOM     29  C   UNL     1      -8.046  -4.903   0.228  1.00  0.00     0.008 C 
BRANCH  28  30
ATOM     30  C   UNL     1      -7.178  -4.187  -2.093  1.00  0.00     0.008 C 
BRANCH  30  31
ATOM     31  C   UNL     1      -6.281  -5.244  -2.775  1.00  0.00     0.027 C 
BRANCH  31  32
ATOM     32  C   UNL     1      -6.027  -6.562  -2.102  1.00  0.00    -0.028 C 
ATOM     33  C   UNL     1      -5.036  -7.423  -2.423  1.00  0.00    -0.080 C 
ATOM     34  C   UNL     1      -4.699  -8.581  -1.522  1.00  0.00     0.039 C 
ATOM     35  C   UNL     1      -4.159  -7.290  -3.639  1.00  0.00     0.039 C 
ENDBRANCH  31  32
ENDBRANCH  30  31
ENDBRANCH  28  30
ENDBRANCH  21  28
ENDBRANCH   7   8
ENDBRANCH   6   7
ENDBRANCH   3   6
ENDBRANCH   1   2
BRANCH   1  36
ATOM     36  C   UNL     1       1.688  -3.150  -0.642  1.00  0.00     0.021 C 
BRANCH  36  37
ATOM     37  C   UNL     1       2.969  -3.363   0.148  1.00  0.00     0.002 C 
BRANCH  37  38
ATOM     38  C   UNL     1       3.265  -2.271   1.184  1.00  0.00     0.002 C 
BRANCH  38  39
ATOM     39  C   UNL     1       2.194  -2.020   2.256  1.00  0.00     0.021 C 
BRANCH  39  40
ATOM     40  C   UNL     1       1.702  -3.250   3.017  1.00  0.00     0.116 C 
BRANCH  40  41
ATOM     41  N   UNL     1       2.801  -4.057   3.526  1.00  0.00    -0.352 N 
ATOM     42  C   UNL     1       3.144  -4.364   4.813  1.00  0.00     0.251 C 
ATOM     43  H   UNL     1       3.389  -4.441   2.837  1.00  0.00     0.163 HD
ATOM     44  O   UNL     1       4.243  -4.869   5.058  1.00  0.00    -0.269 OA
BRANCH  42  45
ATOM     45  C   UNL     1       2.206  -4.089   5.913  1.00  0.00     0.039 A 
ATOM     46  C   UNL     1       2.685  -3.493   7.082  1.00  0.00     0.014 A 
ATOM     47  C   UNL     1       0.859  -4.442   5.797  1.00  0.00     0.014 A 
ATOM     48  C   UNL     1       1.798  -3.198   8.117  1.00  0.00     0.010 A 
ATOM     49  C   UNL     1      -0.035  -4.083   6.799  1.00  0.00     0.010 A 
ATOM     50  C   UNL     1       0.427  -3.463   7.970  1.00  0.00    -0.014 A 
BRANCH  50  51
ATOM     51  C   UNL     1      -0.544  -3.104   9.032  1.00  0.00     0.031 A 
ATOM     52  C   UNL     1      -1.311  -4.184   9.741  1.00  0.00     0.074 A 
ATOM     53  C   UNL     1      -0.782  -1.807   9.301  1.00  0.00     0.049 A 
ATOM     54  N   UNL     1      -2.266  -4.075  10.629  1.00  0.00    -0.248 NA
ATOM     55  C   UNL     1      -0.980  -5.572   9.382  1.00  0.00     0.031 C 
ATOM     56  C   UNL     1      -0.126  -0.674   8.646  1.00  0.00     0.029 A 
ATOM     57  N   UNL     1      -1.653  -1.221  10.184  1.00  0.00    -0.354 N 
ATOM     58  C   UNL     1      -2.658  -5.374  10.921  1.00  0.00     0.074 A 
ATOM     59  C   UNL     1      -1.879  -6.253  10.077  1.00  0.00     0.031 C 
ATOM     60  C   UNL     1      -0.604   0.469   9.162  1.00  0.00     0.029 A 
ATOM     61  C   UNL     1      -1.632   0.152  10.149  1.00  0.00     0.049 A 
ATOM     62  H   UNL     1      -2.238  -1.736  10.786  1.00  0.00     0.167 HD
ATOM     63  C   UNL     1      -3.572  -5.794  11.828  1.00  0.00     0.037 A 
ATOM     64  C   UNL     1      -2.370   1.051  10.826  1.00  0.00     0.037 A 
ATOM     65  C   UNL     1      -4.328  -4.909  12.675  1.00  0.00     0.049 A 
ATOM     66  C   UNL     1      -3.393   0.558  11.813  1.00  0.00     0.074 A 
ATOM     67  C   UNL     1      -5.236  -5.232  13.667  1.00  0.00     0.029 A 
ATOM     68  N   UNL     1      -4.268  -3.524  12.622  1.00  0.00    -0.354 N 
ATOM     69  N   UNL     1      -3.708  -0.674  12.134  1.00  0.00    -0.248 NA
ATOM     70  C   UNL     1      -4.160   1.580  12.539  1.00  0.00     0.031 C 
ATOM     71  C   UNL     1      -5.770  -4.044  14.174  1.00  0.00     0.029 A 
ATOM     72  C   UNL     1      -5.146  -2.978  13.546  1.00  0.00     0.049 A 
ATOM     73  H   UNL     1      -3.689  -3.006  12.019  1.00  0.00     0.167 HD
ATOM     74  C   UNL     1      -4.682  -0.576  13.118  1.00  0.00     0.074 A 
ATOM     75  C   UNL     1      -4.898   0.837  13.351  1.00  0.00     0.031 C 
ATOM     76  C   UNL     1      -5.337  -1.567  13.772  1.00  0.00     0.037 A 
BRANCH  63  77
ATOM     77  C   UNL     1      -3.807  -7.273  11.948  1.00  0.00     0.064 A 
ATOM     78  C   UNL     1      -2.829  -8.138  12.463  1.00  0.00     0.173 A 
ATOM     79  C   UNL     1      -5.040  -7.829  11.575  1.00  0.00     0.173 A 
ATOM     80  F   UNL     1      -1.628  -7.661  12.824  1.00  0.00    -0.203 F 
ATOM     81  C   UNL     1      -3.064  -9.506  12.568  1.00  0.00     0.198 A 
ATOM     82  C   UNL     1      -5.285  -9.193  11.715  1.00  0.00     0.198 A 
ATOM     83  F   UNL     1      -6.014  -7.049  11.083  1.00  0.00    -0.203 F 
ATOM     84  F   UNL     1      -2.095 -10.319  13.011  1.00  0.00    -0.200 F 
ATOM     85  C   UNL     1      -4.294 -10.031  12.203  1.00  0.00     0.200 A 
ATOM     86  F   UNL     1      -6.480  -9.696  11.376  1.00  0.00    -0.200 F 
ATOM     87  F   UNL     1      -4.522 -11.347  12.313  1.00  0.00    -0.200 F 
ENDBRANCH  63  77
BRANCH  64  88
ATOM     88  C   UNL     1      -2.158   2.506  10.603  1.00  0.00     0.064 A 
ATOM     89  C   UNL     1      -1.615   3.318  11.609  1.00  0.00     0.173 A 
ATOM     90  C   UNL     1      -2.494   3.116   9.386  1.00  0.00     0.173 A 
ATOM     91  F   UNL     1      -1.292   2.785  12.797  1.00  0.00    -0.203 F 
ATOM     92  C   UNL     1      -1.439   4.686  11.415  1.00  0.00     0.198 A 
ATOM     93  C   UNL     1      -2.288   4.479   9.181  1.00  0.00     0.198 A 
ATOM     94  F   UNL     1      -3.010   2.385   8.387  1.00  0.00    -0.203 F 
ATOM     95  F   UNL     1      -0.965   5.446  12.411  1.00  0.00    -0.200 F 
ATOM     96  C   UNL     1      -1.771   5.265  10.199  1.00  0.00     0.200 A 
ATOM     97  F   UNL     1      -2.592   5.030   7.998  1.00  0.00    -0.200 F 
ATOM     98  F   UNL     1      -1.597   6.580  10.011  1.00  0.00    -0.200 F 
ENDBRANCH  64  88
BRANCH  76  99
ATOM     99  C   UNL     1      -6.317  -1.163  14.835  1.00  0.00     0.064 A 
ATOM    100  C   UNL     1      -7.545  -0.563  14.521  1.00  0.00     0.173 A 
ATOM    101  C   UNL     1      -6.044  -1.432  16.186  1.00  0.00     0.173 A 
ATOM    102  F   UNL     1      -7.848  -0.271  13.247  1.00  0.00    -0.203 F 
ATOM    103  C   UNL     1      -8.453  -0.226  15.522  1.00  0.00     0.198 A 
ATOM    104  C   UNL     1      -6.968  -1.126  17.180  1.00  0.00     0.198 A 
ATOM    105  F   UNL     1      -4.887  -2.012  16.539  1.00  0.00    -0.203 F 
ATOM    106  F   UNL     1      -9.600   0.390  15.203  1.00  0.00    -0.200 F 
ATOM    107  C   UNL     1      -8.169  -0.517  16.848  1.00  0.00     0.200 A 
ATOM    108  F   UNL     1      -6.699  -1.425  18.458  1.00  0.00    -0.200 F 
ATOM    109  F   UNL     1      -9.050  -0.205  17.808  1.00  0.00    -0.200 F 
ENDBRANCH  76  99
ENDBRANCH  50  51
ENDBRANCH  42  45
ENDBRANCH  40  41
ENDBRANCH  39  40
ENDBRANCH  38  39
ENDBRANCH  37  38
ENDBRANCH  36  37
ENDBRANCH   1  36
TORSDOF 21
