REMARK SMILES Cc1ncccc1C(=O)N1CC[C@H](C(=O)NCCCCCCNC(=O)c2ccc(-c3c4nc(c(-c5c(F)c(F)c(F)c(F)c5F)c5ccc([nH]5)c(-c5c(F)c(F)c(F)c(F)c5F)c5nc(c(-c6c(F)c(F)c(F)c(F)c6F)c6ccc3[nH]6)C=C5)C=C4)cc2)C1
REMARK SMILES IDX 19 1 18 2 17 3 16 4 14 5 15 6 13 8 10 9 11 10 89 11 12 12
REMARK SMILES IDX 8 13 9 14 7 15 1 16 2 17 3 18 4 19 6 20 5 21 20 22 21 23
REMARK SMILES IDX 22 24 23 25 24 26 25 28 26 29 27 30 88 31 28 32 87 33 29 34
REMARK SMILES IDX 30 35 31 36 81 37 32 38 86 39 80 40 82 41 33 42 85 43 79 44
REMARK SMILES IDX 78 45 34 47 66 48 46 49 65 50 47 51 50 52 64 53 83 54 48 55
REMARK SMILES IDX 49 56 63 58 84 59 51 60 35 61 36 62 44 63 37 64 38 65 42 66
REMARK SMILES IDX 45 67 39 68 40 69 43 70 41 71 67 72 68 73 76 74 69 75 70 76
REMARK SMILES IDX 74 77 77 78 71 79 72 80 75 81 73 82 52 83 53 84 61 85 54 86
REMARK SMILES IDX 55 87 59 88 62 89 56 90 57 91 60 92 58 93
REMARK H PARENT 16 7 23 27 82 46 50 57
REMARK Flexibility Score: inf
ROOT
ATOM      1  C   UNL     1       4.466   1.173  -4.026  1.00  0.00     0.002 C 
ENDROOT
BRANCH   1   2
ATOM      2  C   UNL     1       4.029   0.580  -2.684  1.00  0.00     0.021 C 
BRANCH   2   3
ATOM      3  C   UNL     1       3.729  -0.918  -2.714  1.00  0.00     0.116 C 
BRANCH   3   4
ATOM      4  N   UNL     1       4.936  -1.721  -2.694  1.00  0.00    -0.356 N 
ATOM      5  C   UNL     1       5.365  -2.693  -1.847  1.00  0.00     0.224 C 
ATOM      6  O   UNL     1       6.445  -3.228  -2.121  1.00  0.00    -0.275 OA
ATOM      7  H   UNL     1       5.560  -1.525  -3.430  1.00  0.00     0.163 HD
BRANCH   5   8
ATOM      8  C   UNL     1       4.623  -3.117  -0.584  1.00  0.00     0.099 C 
ATOM      9  N   UNL     1       2.416  -2.566   0.071  1.00  0.00    -0.338 N 
ATOM     10  C   UNL     1       3.259  -2.201   1.188  1.00  0.00     0.120 C 
ATOM     11  C   UNL     1       3.156  -3.483  -0.791  1.00  0.00     0.133 C 
ATOM     12  C   UNL     1       4.634  -2.068   0.541  1.00  0.00     0.037 C 
BRANCH   9  13
ATOM     13  C   UNL     1       1.082  -2.335  -0.195  1.00  0.00     0.255 C 
ATOM     14  O   UNL     1       0.478  -3.144  -0.910  1.00  0.00    -0.269 OA
BRANCH  13  15
ATOM     15  C   UNL     1       0.309  -1.116   0.214  1.00  0.00     0.061 A 
ATOM     16  C   UNL     1       2.173   0.666   0.418  1.00  0.00     0.067 C 
ATOM     17  C   UNL     1       0.756   0.205   0.347  1.00  0.00     0.050 A 
ATOM     18  N   UNL     1      -0.106   1.267   0.438  1.00  0.00    -0.261 NA
ATOM     19  C   UNL     1      -1.431   1.040   0.369  1.00  0.00     0.111 A 
ATOM     20  C   UNL     1      -1.092  -1.296   0.193  1.00  0.00     0.017 A 
ATOM     21  C   UNL     1      -1.971  -0.219   0.260  1.00  0.00     0.021 A 
ENDBRANCH  13  15
ENDBRANCH   9  13
ENDBRANCH   5   8
ENDBRANCH   3   4
ENDBRANCH   2   3
ENDBRANCH   1   2
BRANCH   1  22
ATOM     22  C   UNL     1       3.432   1.074  -5.154  1.00  0.00     0.002 C 
BRANCH  22  23
ATOM     23  C   UNL     1       2.038   1.624  -4.834  1.00  0.00     0.021 C 
BRANCH  23  24
ATOM     24  C   UNL     1       1.995   3.089  -4.404  1.00  0.00     0.116 C 
BRANCH  24  25
ATOM     25  N   UNL     1       2.471   3.985  -5.446  1.00  0.00    -0.352 N 
ATOM     26  C   UNL     1       1.856   5.059  -6.032  1.00  0.00     0.251 C 
ATOM     27  H   UNL     1       3.375   3.788  -5.783  1.00  0.00     0.163 HD
ATOM     28  O   UNL     1       2.356   5.582  -7.030  1.00  0.00    -0.269 OA
BRANCH  26  29
ATOM     29  C   UNL     1       0.588   5.596  -5.492  1.00  0.00     0.039 A 
ATOM     30  C   UNL     1      -0.421   5.963  -6.388  1.00  0.00     0.014 A 
ATOM     31  C   UNL     1       0.402   5.778  -4.119  1.00  0.00     0.014 A 
ATOM     32  C   UNL     1      -1.635   6.460  -5.906  1.00  0.00     0.010 A 
ATOM     33  C   UNL     1      -0.831   6.214  -3.635  1.00  0.00     0.010 A 
ATOM     34  C   UNL     1      -1.860   6.562  -4.524  1.00  0.00    -0.014 A 
BRANCH  34  35
ATOM     35  C   UNL     1      -3.170   7.021  -3.994  1.00  0.00     0.031 A 
ATOM     36  C   UNL     1      -3.275   8.311  -3.231  1.00  0.00     0.074 A 
ATOM     37  C   UNL     1      -4.255   6.237  -4.143  1.00  0.00     0.049 A 
ATOM     38  N   UNL     1      -4.319   8.845  -2.647  1.00  0.00    -0.248 NA
ATOM     39  C   UNL     1      -2.038   9.090  -3.078  1.00  0.00     0.031 C 
ATOM     40  C   UNL     1      -4.270   4.935  -4.811  1.00  0.00     0.029 A 
ATOM     41  N   UNL     1      -5.552   6.413  -3.727  1.00  0.00    -0.354 N 
ATOM     42  C   UNL     1      -3.861  10.009  -2.044  1.00  0.00     0.074 A 
ATOM     43  C   UNL     1      -2.437  10.081  -2.294  1.00  0.00     0.031 C 
ATOM     44  C   UNL     1      -5.514   4.434  -4.768  1.00  0.00     0.029 A 
ATOM     45  C   UNL     1      -6.378   5.364  -4.045  1.00  0.00     0.049 A 
ATOM     46  H   UNL     1      -5.859   7.215  -3.246  1.00  0.00     0.167 HD
ATOM     47  C   UNL     1      -4.568  10.941  -1.360  1.00  0.00     0.037 A 
ATOM     48  C   UNL     1      -7.683   5.167  -3.777  1.00  0.00     0.037 A 
ATOM     49  C   UNL     1      -5.989  10.881  -1.139  1.00  0.00     0.049 A 
ATOM     50  C   UNL     1      -8.451   6.228  -3.040  1.00  0.00     0.074 A 
ATOM     51  C   UNL     1      -6.810  11.818  -0.536  1.00  0.00     0.029 A 
ATOM     52  N   UNL     1      -6.802   9.818  -1.508  1.00  0.00    -0.354 N 
ATOM     53  N   UNL     1      -8.026   7.367  -2.550  1.00  0.00    -0.248 NA
ATOM     54  C   UNL     1      -9.884   5.982  -2.828  1.00  0.00     0.031 C 
ATOM     55  C   UNL     1      -8.110  11.302  -0.496  1.00  0.00     0.029 A 
ATOM     56  C   UNL     1      -8.109  10.064  -1.119  1.00  0.00     0.049 A 
ATOM     57  H   UNL     1      -6.495   9.008  -1.976  1.00  0.00     0.167 HD
ATOM     58  C   UNL     1      -9.137   7.981  -1.989  1.00  0.00     0.074 A 
ATOM     59  C   UNL     1     -10.261   7.096  -2.216  1.00  0.00     0.031 C 
ATOM     60  C   UNL     1      -9.218   9.171  -1.345  1.00  0.00     0.037 A 
BRANCH  47  61
ATOM     61  C   UNL     1      -3.811  12.108  -0.793  1.00  0.00     0.064 A 
ATOM     62  C   UNL     1      -3.258  13.100  -1.618  1.00  0.00     0.173 A 
ATOM     63  C   UNL     1      -3.661  12.251   0.594  1.00  0.00     0.173 A 
ATOM     64  F   UNL     1      -3.365  13.006  -2.952  1.00  0.00    -0.203 F 
ATOM     65  C   UNL     1      -2.555  14.173  -1.076  1.00  0.00     0.198 A 
ATOM     66  C   UNL     1      -2.984  13.342   1.134  1.00  0.00     0.198 A 
ATOM     67  F   UNL     1      -4.176  11.336   1.429  1.00  0.00    -0.203 F 
ATOM     68  F   UNL     1      -1.991  15.080  -1.885  1.00  0.00    -0.200 F 
ATOM     69  C   UNL     1      -2.424  14.296   0.299  1.00  0.00     0.200 A 
ATOM     70  F   UNL     1      -2.870  13.467   2.464  1.00  0.00    -0.200 F 
ATOM     71  F   UNL     1      -1.751  15.332   0.819  1.00  0.00    -0.200 F 
ENDBRANCH  47  61
BRANCH  48  72
ATOM     72  C   UNL     1      -8.344   3.918  -4.232  1.00  0.00     0.064 A 
ATOM     73  C   UNL     1      -9.270   3.933  -5.284  1.00  0.00     0.173 A 
ATOM     74  C   UNL     1      -8.049   2.682  -3.638  1.00  0.00     0.173 A 
ATOM     75  F   UNL     1      -9.598   5.094  -5.870  1.00  0.00    -0.203 F 
ATOM     76  C   UNL     1      -9.886   2.761  -5.717  1.00  0.00     0.198 A 
ATOM     77  C   UNL     1      -8.646   1.507  -4.089  1.00  0.00     0.198 A 
ATOM     78  F   UNL     1      -7.165   2.614  -2.632  1.00  0.00    -0.203 F 
ATOM     79  F   UNL     1     -10.795   2.808  -6.700  1.00  0.00    -0.200 F 
ATOM     80  C   UNL     1      -9.568   1.548  -5.124  1.00  0.00     0.200 A 
ATOM     81  F   UNL     1      -8.326   0.336  -3.523  1.00  0.00    -0.200 F 
ATOM     82  F   UNL     1     -10.154   0.419  -5.546  1.00  0.00    -0.200 F 
ENDBRANCH  48  72
BRANCH  60  83
ATOM     83  C   UNL     1     -10.571   9.594  -0.851  1.00  0.00     0.064 A 
ATOM     84  C   UNL     1     -11.178   8.970   0.249  1.00  0.00     0.173 A 
ATOM     85  C   UNL     1     -11.251  10.658  -1.462  1.00  0.00     0.173 A 
ATOM     86  F   UNL     1     -10.575   7.938   0.858  1.00  0.00    -0.203 F 
ATOM     87  C   UNL     1     -12.429   9.382   0.704  1.00  0.00     0.198 A 
ATOM     88  C   UNL     1     -12.488  11.085  -0.987  1.00  0.00     0.198 A 
ATOM     89  F   UNL     1     -10.711  11.291  -2.514  1.00  0.00    -0.203 F 
ATOM     90  F   UNL     1     -13.011   8.741   1.727  1.00  0.00    -0.200 F 
ATOM     91  C   UNL     1     -13.079  10.442   0.090  1.00  0.00     0.200 A 
ATOM     92  F   UNL     1     -13.109  12.117  -1.573  1.00  0.00    -0.200 F 
ATOM     93  F   UNL     1     -14.280  10.840   0.533  1.00  0.00    -0.200 F 
ENDBRANCH  60  83
ENDBRANCH  34  35
ENDBRANCH  26  29
ENDBRANCH  24  25
ENDBRANCH  23  24
ENDBRANCH  22  23
ENDBRANCH   1  22
TORSDOF 15
