REMARK SMILES Cc1nn(C)c(C)c1CNC(=O)NCC(=O)NCC(=O)NCCCCCCNC(=O)c1ccc(-c2c3nc(c(-c4c(F)c(F)c(F)c(F)c4F)c4ccc([nH]4)c(-c4c(F)c(F)c(F)c(F)c4F)c4nc(c(-c5c(F)c(F)c(F)c(F)c5F)c5ccc2[nH]5)C=C4)C=C3)cc1
REMARK SMILES IDX 23 1 22 2 21 3 19 4 20 5 18 7 17 8 15 9 16 10 14 12 13 13
REMARK SMILES IDX 10 14 11 15 12 17 9 19 8 20 1 21 2 22 3 23 4 24 6 25 5 26
REMARK SMILES IDX 7 27 24 28 25 29 26 30 27 31 28 32 29 33 30 35 31 36 32 37
REMARK SMILES IDX 93 38 33 39 92 40 34 41 35 42 36 43 86 44 37 45 91 46 85 47
REMARK SMILES IDX 87 48 38 49 90 50 84 51 83 52 39 54 71 55 51 56 70 57 52 58
REMARK SMILES IDX 55 59 69 60 88 61 53 62 54 63 68 65 89 66 56 67 40 68 41 69
REMARK SMILES IDX 49 70 42 71 43 72 47 73 50 74 44 75 45 76 48 77 46 78 72 79
REMARK SMILES IDX 73 80 81 81 74 82 75 83 79 84 82 85 76 86 77 87 80 88 78 89
REMARK SMILES IDX 57 90 58 91 66 92 59 93 60 94 64 95 67 96 61 97 62 98 65 99
REMARK SMILES IDX 63 100
REMARK H PARENT 21 6 17 11 10 16 13 18 28 34 87 53 55 64
REMARK Flexibility Score: inf
ROOT
ATOM      1  C   UNL     1       1.199   8.793  -0.497  1.00  0.00     0.021 C 
ENDROOT
BRANCH   1   2
ATOM      2  C   UNL     1       0.598   7.649   0.302  1.00  0.00     0.116 C 
BRANCH   2   3
ATOM      3  N   UNL     1      -0.735   7.925   0.774  1.00  0.00    -0.355 N 
ATOM      4  C   UNL     1      -1.867   7.184   0.594  1.00  0.00     0.239 C 
ATOM      5  O   UNL     1      -2.868   7.492   1.245  1.00  0.00    -0.273 OA
ATOM      6  H   UNL     1      -0.844   8.754   1.294  1.00  0.00     0.163 HD
BRANCH   4   7
ATOM      7  C   UNL     1      -1.854   5.904  -0.261  1.00  0.00     0.216 C 
BRANCH   7   8
ATOM      8  N   UNL     1      -1.303   6.021  -1.604  1.00  0.00    -0.346 N 
ATOM      9  C   UNL     1      -0.297   5.372  -2.247  1.00  0.00     0.239 C 
ATOM     10  O   UNL     1      -0.169   5.624  -3.451  1.00  0.00    -0.273 OA
ATOM     11  H   UNL     1      -1.748   6.705  -2.155  1.00  0.00     0.164 HD
BRANCH   9  12
ATOM     12  C   UNL     1       0.588   4.280  -1.610  1.00  0.00     0.217 C 
BRANCH  12  13
ATOM     13  N   UNL     1       1.105   4.513  -0.270  1.00  0.00    -0.329 N 
ATOM     14  N   UNL     1      -0.054   3.128   1.245  1.00  0.00    -0.334 N 
ATOM     15  C   UNL     1       0.857   4.057   0.959  1.00  0.00     0.315 C 
ATOM     16  H   UNL     1      -0.089   2.907   2.203  1.00  0.00     0.165 HD
ATOM     17  O   UNL     1       1.525   4.530   1.881  1.00  0.00    -0.249 OA
ATOM     18  H   UNL     1       1.828   5.182  -0.270  1.00  0.00     0.165 HD
BRANCH  14  19
ATOM     19  C   UNL     1      -0.998   2.376   0.459  1.00  0.00     0.157 C 
BRANCH  19  20
ATOM     20  C   UNL     1      -0.513   0.990   0.204  1.00  0.00     0.015 A 
ATOM     21  C   UNL     1      -2.854  -0.183  -0.016  1.00  0.00     0.069 C 
ATOM     22  C   UNL     1      -1.369  -0.137   0.022  1.00  0.00     0.065 A 
ATOM     23  N   UNL     1      -0.681  -1.270  -0.126  1.00  0.00    -0.178 NA
ATOM     24  N   UNL     1       0.603  -0.891  -0.054  1.00  0.00    -0.272 N 
ATOM     25  C   UNL     1       0.770   0.467   0.052  1.00  0.00     0.040 A 
ATOM     26  C   UNL     1       1.617  -1.920  -0.077  1.00  0.00     0.174 C 
ATOM     27  C   UNL     1       2.123   1.083   0.025  1.00  0.00     0.067 C 
ENDBRANCH  19  20
ENDBRANCH  14  19
ENDBRANCH  12  13
ENDBRANCH   9  12
ENDBRANCH   7   8
ENDBRANCH   4   7
ENDBRANCH   2   3
ENDBRANCH   1   2
BRANCH   1  28
ATOM     28  C   UNL     1       1.752   9.918   0.372  1.00  0.00     0.002 C 
BRANCH  28  29
ATOM     29  C   UNL     1       2.856   9.492   1.348  1.00  0.00     0.002 C 
BRANCH  29  30
ATOM     30  C   UNL     1       4.056   8.783   0.714  1.00  0.00     0.021 C 
BRANCH  30  31
ATOM     31  C   UNL     1       4.747   9.567  -0.398  1.00  0.00     0.116 C 
BRANCH  31  32
ATOM     32  N   UNL     1       5.212  10.868   0.057  1.00  0.00    -0.352 N 
ATOM     33  C   UNL     1       6.469  11.415   0.019  1.00  0.00     0.251 C 
ATOM     34  H   UNL     1       4.518  11.443   0.453  1.00  0.00     0.163 HD
ATOM     35  O   UNL     1       6.713  12.446   0.632  1.00  0.00    -0.269 OA
BRANCH  33  36
ATOM     36  C   UNL     1       7.538  10.745  -0.750  1.00  0.00     0.039 A 
ATOM     37  C   UNL     1       8.799  10.604  -0.165  1.00  0.00     0.014 A 
ATOM     38  C   UNL     1       7.300  10.261  -2.039  1.00  0.00     0.014 A 
ATOM     39  C   UNL     1       9.802   9.912  -0.846  1.00  0.00     0.010 A 
ATOM     40  C   UNL     1       8.278   9.511  -2.686  1.00  0.00     0.010 A 
ATOM     41  C   UNL     1       9.535   9.322  -2.092  1.00  0.00    -0.014 A 
BRANCH  41  42
ATOM     42  C   UNL     1      10.546   8.470  -2.768  1.00  0.00     0.031 A 
ATOM     43  C   UNL     1      11.121   8.877  -4.096  1.00  0.00     0.074 A 
ATOM     44  C   UNL     1      10.891   7.292  -2.212  1.00  0.00     0.049 A 
ATOM     45  N   UNL     1      11.961   8.231  -4.865  1.00  0.00    -0.248 NA
ATOM     46  C   UNL     1      10.677  10.168  -4.644  1.00  0.00     0.031 C 
ATOM     47  C   UNL     1      10.370   6.770  -0.947  1.00  0.00     0.029 A 
ATOM     48  N   UNL     1      11.753   6.314  -2.643  1.00  0.00    -0.354 N 
ATOM     49  C   UNL     1      12.134   9.027  -5.989  1.00  0.00     0.074 A 
ATOM     50  C   UNL     1      11.279  10.183  -5.825  1.00  0.00     0.031 C 
ATOM     51  C   UNL     1      10.942   5.583  -0.691  1.00  0.00     0.029 A 
ATOM     52  C   UNL     1      11.832   5.236  -1.794  1.00  0.00     0.049 A 
ATOM     53  H   UNL     1      12.267   6.379  -3.480  1.00  0.00     0.167 HD
ATOM     54  C   UNL     1      12.946   8.818  -7.053  1.00  0.00     0.037 A 
ATOM     55  C   UNL     1      12.531   4.090  -1.902  1.00  0.00     0.037 A 
ATOM     56  C   UNL     1      13.812   7.676  -7.198  1.00  0.00     0.049 A 
ATOM     57  C   UNL     1      13.400   3.874  -3.112  1.00  0.00     0.074 A 
ATOM     58  C   UNL     1      14.732   7.416  -8.199  1.00  0.00     0.029 A 
ATOM     59  N   UNL     1      13.858   6.601  -6.323  1.00  0.00    -0.354 N 
ATOM     60  N   UNL     1      13.622   4.675  -4.126  1.00  0.00    -0.248 NA
ATOM     61  C   UNL     1      14.114   2.593  -3.193  1.00  0.00     0.031 C 
ATOM     62  C   UNL     1      15.286   6.154  -7.966  1.00  0.00     0.029 A 
ATOM     63  C   UNL     1      14.759   5.655  -6.785  1.00  0.00     0.049 A 
ATOM     64  H   UNL     1      13.329   6.522  -5.496  1.00  0.00     0.167 HD
ATOM     65  C   UNL     1      14.521   4.008  -4.948  1.00  0.00     0.074 A 
ATOM     66  C   UNL     1      14.819   2.746  -4.304  1.00  0.00     0.031 C 
ATOM     67  C   UNL     1      15.050   4.404  -6.131  1.00  0.00     0.037 A 
BRANCH  54  68
ATOM     68  C   UNL     1      12.938   9.837  -8.155  1.00  0.00     0.064 A 
ATOM     69  C   UNL     1      13.483  11.118  -7.982  1.00  0.00     0.173 A 
ATOM     70  C   UNL     1      12.441   9.503  -9.425  1.00  0.00     0.173 A 
ATOM     71  F   UNL     1      13.965  11.491  -6.787  1.00  0.00    -0.203 F 
ATOM     72  C   UNL     1      13.511  12.033  -9.031  1.00  0.00     0.198 A 
ATOM     73  C   UNL     1      12.498  10.410 -10.480  1.00  0.00     0.198 A 
ATOM     74  F   UNL     1      11.914   8.290  -9.647  1.00  0.00    -0.203 F 
ATOM     75  F   UNL     1      14.001  13.265  -8.831  1.00  0.00    -0.200 F 
ATOM     76  C   UNL     1      13.028  11.675 -10.281  1.00  0.00     0.200 A 
ATOM     77  F   UNL     1      12.046  10.056 -11.691  1.00  0.00    -0.200 F 
ATOM     78  F   UNL     1      13.072  12.552 -11.294  1.00  0.00    -0.200 F 
ENDBRANCH  54  68
BRANCH  55  79
ATOM     79  C   UNL     1      12.449   3.058  -0.834  1.00  0.00     0.064 A 
ATOM     80  C   UNL     1      13.567   2.749  -0.046  1.00  0.00     0.173 A 
ATOM     81  C   UNL     1      11.269   2.338  -0.599  1.00  0.00     0.173 A 
ATOM     82  F   UNL     1      14.726   3.394  -0.247  1.00  0.00    -0.203 F 
ATOM     83  C   UNL     1      13.516   1.742   0.915  1.00  0.00     0.198 A 
ATOM     84  C   UNL     1      11.209   1.353   0.385  1.00  0.00     0.198 A 
ATOM     85  F   UNL     1      10.168   2.594  -1.322  1.00  0.00    -0.203 F 
ATOM     86  F   UNL     1      14.617   1.427   1.611  1.00  0.00    -0.200 F 
ATOM     87  C   UNL     1      12.336   1.048   1.133  1.00  0.00     0.200 A 
ATOM     88  F   UNL     1      10.062   0.695   0.603  1.00  0.00    -0.200 F 
ATOM     89  F   UNL     1      12.288   0.076   2.054  1.00  0.00    -0.200 F 
ENDBRANCH  55  79
BRANCH  67  90
ATOM     90  C   UNL     1      16.027   3.477  -6.795  1.00  0.00     0.064 A 
ATOM     91  C   UNL     1      15.617   2.265  -7.370  1.00  0.00     0.173 A 
ATOM     92  C   UNL     1      17.383   3.824  -6.894  1.00  0.00     0.173 A 
ATOM     93  F   UNL     1      14.335   1.878  -7.289  1.00  0.00    -0.203 F 
ATOM     94  C   UNL     1      16.534   1.423  -7.996  1.00  0.00     0.198 A 
ATOM     95  C   UNL     1      18.290   2.998  -7.550  1.00  0.00     0.198 A 
ATOM     96  F   UNL     1      17.827   4.976  -6.366  1.00  0.00    -0.203 F 
ATOM     97  F   UNL     1      16.129   0.246  -8.492  1.00  0.00    -0.200 F 
ATOM     98  C   UNL     1      17.866   1.794  -8.093  1.00  0.00     0.200 A 
ATOM     99  F   UNL     1      19.574   3.366  -7.658  1.00  0.00    -0.200 F 
ATOM    100  F   UNL     1      18.745   0.988  -8.705  1.00  0.00    -0.200 F 
ENDBRANCH  67  90
ENDBRANCH  41  42
ENDBRANCH  33  36
ENDBRANCH  31  32
ENDBRANCH  30  31
ENDBRANCH  29  30
ENDBRANCH  28  29
ENDBRANCH   1  28
TORSDOF 18
