REMARK SMILES O=C(NCCCCCCNC(=O)[C@]1(CCc2cccnc2)C[C@H]2CC[C@@H]1O2)c1ccc(-c2c3nc(c(-c4c(F)c(F)c(F)c(F)c4F)c4ccc([nH]4)c(-c4c(F)c(F)c(F)c(F)c4F)c4nc(c(-c5c(F)c(F)c(F)c(F)c5F)c5ccc2[nH]5)C=C4)C=C3)cc1
REMARK SMILES IDX 7 1 6 2 5 3 4 4 3 5 1 6 2 7 28 9 29 10 90 11 30 12 89 13
REMARK SMILES IDX 31 14 32 15 33 16 83 17 34 18 88 19 82 20 84 21 35 22 87 23
REMARK SMILES IDX 81 24 80 25 36 27 68 28 48 29 67 30 49 31 52 32 66 33 85 34
REMARK SMILES IDX 50 35 51 36 65 38 86 39 53 40 37 41 38 42 46 43 39 44 40 45
REMARK SMILES IDX 44 46 47 47 41 48 42 49 45 50 43 51 69 52 70 53 78 54 71 55
REMARK SMILES IDX 72 56 76 57 79 58 73 59 74 60 77 61 75 62 54 63 55 64 63 65
REMARK SMILES IDX 56 66 57 67 61 68 64 69 58 70 59 71 62 72 60 73 8 74 9 75
REMARK SMILES IDX 10 76 11 77 12 79 13 80 22 81 26 82 23 83 25 84 27 85 24 86
REMARK SMILES IDX 14 87 15 88 16 89 17 90 21 91 18 92 20 93 19 94
REMARK H PARENT 3 8 84 26 52 37 10 78
REMARK Flexibility Score: inf
ROOT
ATOM      1  C   UNL     1       5.241   1.230  -3.622  1.00  0.00     0.002 C 
ENDROOT
BRANCH   1   2
ATOM      2  C   UNL     1       4.302   0.035  -3.717  1.00  0.00     0.002 C 
BRANCH   2   3
ATOM      3  C   UNL     1       4.449  -0.992  -2.604  1.00  0.00     0.021 C 
BRANCH   3   4
ATOM      4  C   UNL     1       4.262  -0.443  -1.197  1.00  0.00     0.116 C 
BRANCH   4   5
ATOM      5  N   UNL     1       2.898  -0.019  -0.907  1.00  0.00    -0.352 N 
ATOM      6  O   UNL     1       1.029   0.105   0.391  1.00  0.00    -0.269 OA
ATOM      7  C   UNL     1       2.207  -0.208   0.270  1.00  0.00     0.251 C 
ATOM      8  H   UNL     1       2.420   0.451  -1.628  1.00  0.00     0.163 HD
BRANCH   7   9
ATOM      9  C   UNL     1       2.936  -0.835   1.389  1.00  0.00     0.039 A 
ATOM     10  C   UNL     1       4.137  -0.265   1.813  1.00  0.00     0.014 A 
ATOM     11  C   UNL     1       2.498  -2.058   1.901  1.00  0.00     0.014 A 
ATOM     12  C   UNL     1       4.976  -0.994   2.641  1.00  0.00     0.010 A 
ATOM     13  C   UNL     1       3.307  -2.749   2.808  1.00  0.00     0.010 A 
ATOM     14  C   UNL     1       4.566  -2.237   3.159  1.00  0.00    -0.014 A 
BRANCH  14  15
ATOM     15  C   UNL     1       5.457  -2.929   4.124  1.00  0.00     0.031 A 
ATOM     16  C   UNL     1       6.103  -4.246   3.805  1.00  0.00     0.074 A 
ATOM     17  C   UNL     1       5.723  -2.301   5.286  1.00  0.00     0.049 A 
ATOM     18  N   UNL     1       6.944  -4.945   4.528  1.00  0.00    -0.248 NA
ATOM     19  C   UNL     1       5.762  -4.869   2.518  1.00  0.00     0.031 C 
ATOM     20  C   UNL     1       5.131  -1.027   5.702  1.00  0.00     0.029 A 
ATOM     21  N   UNL     1       6.575  -2.622   6.309  1.00  0.00    -0.354 N 
ATOM     22  C   UNL     1       7.221  -6.091   3.795  1.00  0.00     0.074 A 
ATOM     23  C   UNL     1       6.442  -6.008   2.577  1.00  0.00     0.031 C 
ATOM     24  C   UNL     1       5.683  -0.643   6.859  1.00  0.00     0.029 A 
ATOM     25  C   UNL     1       6.612  -1.675   7.302  1.00  0.00     0.049 A 
ATOM     26  H   UNL     1       7.108  -3.450   6.330  1.00  0.00     0.167 HD
ATOM     27  C   UNL     1       8.053  -7.113   4.113  1.00  0.00     0.037 A 
ATOM     28  C   UNL     1       7.306  -1.645   8.454  1.00  0.00     0.037 A 
ATOM     29  C   UNL     1       8.828  -7.181   5.328  1.00  0.00     0.049 A 
ATOM     30  C   UNL     1       8.226  -2.786   8.771  1.00  0.00     0.074 A 
ATOM     31  C   UNL     1       9.699  -8.174   5.745  1.00  0.00     0.029 A 
ATOM     32  N   UNL     1       8.826  -6.212   6.322  1.00  0.00    -0.354 N 
ATOM     33  N   UNL     1       8.480  -3.861   8.065  1.00  0.00    -0.248 NA
ATOM     34  C   UNL     1       8.951  -2.712  10.044  1.00  0.00     0.031 C 
ATOM     35  C   UNL     1      10.198  -7.821   7.004  1.00  0.00     0.029 A 
ATOM     36  C   UNL     1       9.674  -6.587   7.353  1.00  0.00     0.049 A 
ATOM     37  H   UNL     1       8.301  -5.380   6.298  1.00  0.00     0.167 HD
ATOM     38  C   UNL     1       9.391  -4.595   8.808  1.00  0.00     0.074 A 
ATOM     39  C   UNL     1       9.676  -3.821   9.999  1.00  0.00     0.031 C 
ATOM     40  C   UNL     1       9.932  -5.808   8.536  1.00  0.00     0.037 A 
BRANCH  27  41
ATOM     41  C   UNL     1       8.168  -8.254   3.142  1.00  0.00     0.064 A 
ATOM     42  C   UNL     1       8.857  -8.118   1.928  1.00  0.00     0.173 A 
ATOM     43  C   UNL     1       7.643  -9.517   3.459  1.00  0.00     0.173 A 
ATOM     44  F   UNL     1       9.368  -6.931   1.571  1.00  0.00    -0.203 F 
ATOM     45  C   UNL     1       9.004  -9.200   1.062  1.00  0.00     0.198 A 
ATOM     46  C   UNL     1       7.814 -10.602   2.602  1.00  0.00     0.198 A 
ATOM     47  F   UNL     1       6.981  -9.704   4.611  1.00  0.00    -0.203 F 
ATOM     48  F   UNL     1       9.640  -9.038  -0.107  1.00  0.00    -0.200 F 
ATOM     49  C   UNL     1       8.490 -10.442   1.403  1.00  0.00     0.200 A 
ATOM     50  F   UNL     1       7.327 -11.805   2.940  1.00  0.00    -0.200 F 
ATOM     51  F   UNL     1       8.645 -11.484   0.574  1.00  0.00    -0.200 F 
ENDBRANCH  27  41
BRANCH  28  52
ATOM     52  C   UNL     1       7.135  -0.500   9.383  1.00  0.00     0.064 A 
ATOM     53  C   UNL     1       8.171   0.415   9.605  1.00  0.00     0.173 A 
ATOM     54  C   UNL     1       5.917  -0.284  10.045  1.00  0.00     0.173 A 
ATOM     55  F   UNL     1       9.358   0.242   9.007  1.00  0.00    -0.203 F 
ATOM     56  C   UNL     1       8.000   1.497  10.467  1.00  0.00     0.198 A 
ATOM     57  C   UNL     1       5.736   0.816  10.878  1.00  0.00     0.198 A 
ATOM     58  F   UNL     1       4.891  -1.127   9.857  1.00  0.00    -0.203 F 
ATOM     59  F   UNL     1       9.019   2.337  10.693  1.00  0.00    -0.200 F 
ATOM     60  C   UNL     1       6.780   1.701  11.095  1.00  0.00     0.200 A 
ATOM     61  F   UNL     1       4.549   1.021  11.465  1.00  0.00    -0.200 F 
ATOM     62  F   UNL     1       6.612   2.750  11.912  1.00  0.00    -0.200 F 
ENDBRANCH  28  52
BRANCH  40  63
ATOM     63  C   UNL     1      10.887  -6.357   9.554  1.00  0.00     0.064 A 
ATOM     64  C   UNL     1      10.438  -6.828  10.797  1.00  0.00     0.173 A 
ATOM     65  C   UNL     1      12.262  -6.406   9.287  1.00  0.00     0.173 A 
ATOM     66  F   UNL     1       9.133  -6.783  11.104  1.00  0.00    -0.203 F 
ATOM     67  C   UNL     1      11.338  -7.296  11.750  1.00  0.00     0.198 A 
ATOM     68  C   UNL     1      13.156  -6.901  10.232  1.00  0.00     0.198 A 
ATOM     69  F   UNL     1      12.740  -5.970   8.111  1.00  0.00    -0.203 F 
ATOM     70  F   UNL     1      10.893  -7.685  12.953  1.00  0.00    -0.200 F 
ATOM     71  C   UNL     1      12.694  -7.335  11.466  1.00  0.00     0.200 A 
ATOM     72  F   UNL     1      14.466  -6.946   9.954  1.00  0.00    -0.200 F 
ATOM     73  F   UNL     1      13.560  -7.779  12.388  1.00  0.00    -0.200 F 
ENDBRANCH  40  63
ENDBRANCH  14  15
ENDBRANCH   7   9
ENDBRANCH   4   5
ENDBRANCH   3   4
ENDBRANCH   2   3
ENDBRANCH   1   2
BRANCH   1  74
ATOM     74  C   UNL     1       6.745   0.937  -3.647  1.00  0.00     0.021 C 
BRANCH  74  75
ATOM     75  C   UNL     1       7.330   0.274  -4.909  1.00  0.00     0.116 C 
BRANCH  75  76
ATOM     76  N   UNL     1       7.019   0.932  -6.170  1.00  0.00    -0.356 N 
ATOM     77  C   UNL     1       7.617   1.876  -6.956  1.00  0.00     0.228 C 
ATOM     78  H   UNL     1       6.166   0.619  -6.550  1.00  0.00     0.163 HD
ATOM     79  O   UNL     1       6.999   2.144  -7.992  1.00  0.00    -0.274 OA
BRANCH  77  80
ATOM     80  C   UNL     1       8.954   2.570  -6.613  1.00  0.00     0.078 C 
ATOM     81  C   UNL     1       9.290   3.751  -7.570  1.00  0.00     0.051 C 
ATOM     82  C   UNL     1      10.025   1.530  -7.073  1.00  0.00     0.134 C 
ATOM     83  C   UNL     1      10.493   3.224  -8.349  1.00  0.00     0.120 C 
ATOM     84  C   UNL     1      11.461   1.843  -6.670  1.00  0.00     0.036 C 
ATOM     85  O   UNL     1      10.138   1.836  -8.495  1.00  0.00    -0.374 OA
ATOM     86  C   UNL     1      11.732   3.129  -7.451  1.00  0.00     0.035 C 
BRANCH  80  87
ATOM     87  C   UNL     1       9.062   3.050  -5.154  1.00  0.00     0.024 C 
BRANCH  87  88
ATOM     88  C   UNL     1       8.338   4.334  -4.657  1.00  0.00     0.038 C 
BRANCH  88  89
ATOM     89  C   UNL     1       6.945   4.819  -4.976  1.00  0.00    -0.030 A 
ATOM     90  C   UNL     1       5.910   4.092  -5.542  1.00  0.00     0.007 A 
ATOM     91  C   UNL     1       6.601   6.122  -4.608  1.00  0.00     0.114 A 
ATOM     92  C   UNL     1       4.643   4.641  -5.743  1.00  0.00     0.020 A 
ATOM     93  N   UNL     1       5.382   6.697  -4.774  1.00  0.00    -0.264 NA
ATOM     94  C   UNL     1       4.428   5.940  -5.346  1.00  0.00     0.111 A 
ENDBRANCH  88  89
ENDBRANCH  87  88
ENDBRANCH  80  87
ENDBRANCH  77  80
ENDBRANCH  75  76
ENDBRANCH  74  75
ENDBRANCH   1  74
TORSDOF 16
