REMARK SMILES O=C(NCCCCCCNC(=O)[C@@H]1[C@@H](C(=O)Nc2cccc([N+](=O)[O-])c2)[C@@H]2C=C[C@H]1O2)c1ccc(-c2c3nc(c(-c4c(F)c(F)c(F)c(F)c4F)c4ccc([nH]4)c(-c4c(F)c(F)c(F)c(F)c4F)c4nc(c(-c5c(F)c(F)c(F)c(F)c5F)c5ccc2[nH]5)C=C4)C=C3)cc1
REMARK SMILES IDX 7 1 6 2 5 3 4 4 3 5 1 6 2 7 32 9 33 10 94 11 34 12 93 13
REMARK SMILES IDX 35 14 36 15 37 16 87 17 38 18 92 19 86 20 88 21 39 22 91 23
REMARK SMILES IDX 85 24 84 25 40 27 72 28 52 29 71 30 53 31 56 32 70 33 89 34
REMARK SMILES IDX 54 35 55 36 69 38 90 39 57 40 41 41 42 42 50 43 43 44 44 45
REMARK SMILES IDX 48 46 51 47 45 48 46 49 49 50 47 51 73 52 74 53 82 54 75 55
REMARK SMILES IDX 76 56 80 57 83 58 77 59 78 60 81 61 79 62 58 63 59 64 67 65
REMARK SMILES IDX 60 66 61 67 65 68 68 69 62 70 63 71 66 72 64 73 8 74 9 75
REMARK SMILES IDX 10 76 11 77 12 79 13 80 14 81 30 82 27 83 29 84 31 85 28 86
REMARK SMILES IDX 15 87 16 88 17 89 18 91 19 92 26 93 20 94 22 95 21 96 23 97
REMARK SMILES IDX 24 98 25 99
REMARK H PARENT 3 8 88 26 56 37 10 78 17 90
REMARK Flexibility Score: inf
ROOT
ATOM      1  C   UNL     1       4.763   2.284   3.662  1.00  0.00     0.002 C 
ENDROOT
BRANCH   1   2
ATOM      2  C   UNL     1       3.951   2.797   2.468  1.00  0.00     0.002 C 
BRANCH   2   3
ATOM      3  C   UNL     1       4.442   2.280   1.115  1.00  0.00     0.021 C 
BRANCH   3   4
ATOM      4  C   UNL     1       4.365   0.765   0.997  1.00  0.00     0.116 C 
BRANCH   4   5
ATOM      5  N   UNL     1       2.982   0.319   0.997  1.00  0.00    -0.352 N 
ATOM      6  O   UNL     1       1.066  -0.323  -0.016  1.00  0.00    -0.269 OA
ATOM      7  C   UNL     1       2.289  -0.282  -0.022  1.00  0.00     0.251 C 
ATOM      8  H   UNL     1       2.480   0.467   1.831  1.00  0.00     0.163 HD
BRANCH   7   9
ATOM      9  C   UNL     1       3.053  -0.896  -1.125  1.00  0.00     0.039 A 
ATOM     10  C   UNL     1       4.168  -1.688  -0.834  1.00  0.00     0.014 A 
ATOM     11  C   UNL     1       2.636  -0.707  -2.443  1.00  0.00     0.014 A 
ATOM     12  C   UNL     1       4.923  -2.222  -1.866  1.00  0.00     0.010 A 
ATOM     13  C   UNL     1       3.344  -1.319  -3.477  1.00  0.00     0.010 A 
ATOM     14  C   UNL     1       4.487  -2.085  -3.192  1.00  0.00    -0.014 A 
BRANCH  14  15
ATOM     15  C   UNL     1       5.149  -2.881  -4.250  1.00  0.00     0.031 A 
ATOM     16  C   UNL     1       5.894  -2.223  -5.369  1.00  0.00     0.074 A 
ATOM     17  C   UNL     1       5.034  -4.222  -4.185  1.00  0.00     0.049 A 
ATOM     18  N   UNL     1       6.474  -2.777  -6.402  1.00  0.00    -0.248 NA
ATOM     19  C   UNL     1       5.999  -0.757  -5.333  1.00  0.00     0.031 C 
ATOM     20  C   UNL     1       4.311  -4.955  -3.140  1.00  0.00     0.029 A 
ATOM     21  N   UNL     1       5.510  -5.208  -5.008  1.00  0.00    -0.354 N 
ATOM     22  C   UNL     1       6.991  -1.731  -7.153  1.00  0.00     0.074 A 
ATOM     23  C   UNL     1       6.649  -0.505  -6.463  1.00  0.00     0.031 C 
ATOM     24  C   UNL     1       4.407  -6.270  -3.374  1.00  0.00     0.029 A 
ATOM     25  C   UNL     1       5.128  -6.471  -4.623  1.00  0.00     0.049 A 
ATOM     26  H   UNL     1       6.070  -5.030  -5.798  1.00  0.00     0.167 HD
ATOM     27  C   UNL     1       7.685  -1.802  -8.313  1.00  0.00     0.037 A 
ATOM     28  C   UNL     1       5.298  -7.657  -5.234  1.00  0.00     0.037 A 
ATOM     29  C   UNL     1       8.031  -3.037  -8.971  1.00  0.00     0.049 A 
ATOM     30  C   UNL     1       6.036  -7.691  -6.540  1.00  0.00     0.074 A 
ATOM     31  C   UNL     1       8.803  -3.221 -10.104  1.00  0.00     0.029 A 
ATOM     32  N   UNL     1       7.612  -4.296  -8.564  1.00  0.00    -0.354 N 
ATOM     33  N   UNL     1       6.588  -6.703  -7.202  1.00  0.00    -0.248 NA
ATOM     34  C   UNL     1       6.168  -9.000  -7.191  1.00  0.00     0.031 C 
ATOM     35  C   UNL     1       8.792  -4.581 -10.424  1.00  0.00     0.029 A 
ATOM     36  C   UNL     1       8.066  -5.255  -9.455  1.00  0.00     0.049 A 
ATOM     37  H   UNL     1       7.072  -4.480  -7.761  1.00  0.00     0.167 HD
ATOM     38  C   UNL     1       7.142  -7.271  -8.339  1.00  0.00     0.074 A 
ATOM     39  C   UNL     1       6.886  -8.694  -8.262  1.00  0.00     0.031 C 
ATOM     40  C   UNL     1       7.796  -6.667  -9.360  1.00  0.00     0.037 A 
BRANCH  27  41
ATOM     41  C   UNL     1       8.101  -0.522  -8.976  1.00  0.00     0.064 A 
ATOM     42  C   UNL     1       9.130   0.279  -8.464  1.00  0.00     0.173 A 
ATOM     43  C   UNL     1       7.521  -0.144 -10.198  1.00  0.00     0.173 A 
ATOM     44  F   UNL     1       9.712  -0.033  -7.296  1.00  0.00    -0.203 F 
ATOM     45  C   UNL     1       9.560   1.416  -9.146  1.00  0.00     0.198 A 
ATOM     46  C   UNL     1       7.971   0.977 -10.890  1.00  0.00     0.198 A 
ATOM     47  F   UNL     1       6.536  -0.879 -10.735  1.00  0.00    -0.203 F 
ATOM     48  F   UNL     1      10.530   2.180  -8.627  1.00  0.00    -0.200 F 
ATOM     49  C   UNL     1       8.988   1.757 -10.363  1.00  0.00     0.200 A 
ATOM     50  F   UNL     1       7.427   1.295 -12.073  1.00  0.00    -0.200 F 
ATOM     51  F   UNL     1       9.418   2.838 -11.029  1.00  0.00    -0.200 F 
ENDBRANCH  27  41
BRANCH  28  52
ATOM     52  C   UNL     1       4.713  -8.889  -4.643  1.00  0.00     0.064 A 
ATOM     53  C   UNL     1       5.528  -9.928  -4.178  1.00  0.00     0.173 A 
ATOM     54  C   UNL     1       3.322  -9.057  -4.546  1.00  0.00     0.173 A 
ATOM     55  F   UNL     1       6.862  -9.822  -4.263  1.00  0.00    -0.203 F 
ATOM     56  C   UNL     1       4.976 -11.100  -3.666  1.00  0.00     0.198 A 
ATOM     57  C   UNL     1       2.772 -10.213  -4.000  1.00  0.00     0.198 A 
ATOM     58  F   UNL     1       2.495  -8.090  -4.970  1.00  0.00    -0.203 F 
ATOM     59  F   UNL     1       5.777 -12.103  -3.283  1.00  0.00    -0.200 F 
ATOM     60  C   UNL     1       3.599 -11.240  -3.572  1.00  0.00     0.200 A 
ATOM     61  F   UNL     1       1.442 -10.334  -3.892  1.00  0.00    -0.200 F 
ATOM     62  F   UNL     1       3.069 -12.368  -3.080  1.00  0.00    -0.200 F 
ENDBRANCH  28  52
BRANCH  40  63
ATOM     63  C   UNL     1       8.290  -7.547 -10.470  1.00  0.00     0.064 A 
ATOM     64  C   UNL     1       7.404  -8.132 -11.387  1.00  0.00     0.173 A 
ATOM     65  C   UNL     1       9.663  -7.769 -10.646  1.00  0.00     0.173 A 
ATOM     66  F   UNL     1       6.080  -7.966 -11.248  1.00  0.00    -0.203 F 
ATOM     67  C   UNL     1       7.877  -8.922 -12.431  1.00  0.00     0.198 A 
ATOM     68  C   UNL     1      10.134  -8.533 -11.710  1.00  0.00     0.198 A 
ATOM     69  F   UNL     1      10.550  -7.229  -9.797  1.00  0.00    -0.203 F 
ATOM     70  F   UNL     1       7.011  -9.508 -13.269  1.00  0.00    -0.200 F 
ATOM     71  C   UNL     1       9.240  -9.113 -12.597  1.00  0.00     0.200 A 
ATOM     72  F   UNL     1      11.452  -8.703 -11.878  1.00  0.00    -0.200 F 
ATOM     73  F   UNL     1       9.694  -9.862 -13.612  1.00  0.00    -0.200 F 
ENDBRANCH  40  63
ENDBRANCH  14  15
ENDBRANCH   7   9
ENDBRANCH   4   5
ENDBRANCH   3   4
ENDBRANCH   2   3
ENDBRANCH   1   2
BRANCH   1  74
ATOM     74  C   UNL     1       6.277   2.503   3.533  1.00  0.00     0.021 C 
BRANCH  74  75
ATOM     75  C   UNL     1       6.652   3.982   3.413  1.00  0.00     0.116 C 
BRANCH  75  76
ATOM     76  N   UNL     1       6.563   4.612   4.708  1.00  0.00    -0.356 N 
ATOM     77  C   UNL     1       7.389   4.580   5.775  1.00  0.00     0.227 C 
ATOM     78  H   UNL     1       5.758   5.163   4.836  1.00  0.00     0.163 HD
ATOM     79  O   UNL     1       6.893   4.947   6.848  1.00  0.00    -0.275 OA
BRANCH  77  80
ATOM     80  C   UNL     1       8.870   4.262   5.729  1.00  0.00     0.127 C 
ATOM     81  C   UNL     1       9.639   3.585   4.572  1.00  0.00     0.127 C 
ATOM     82  C   UNL     1       9.195   3.296   6.890  1.00  0.00     0.155 C 
ATOM     83  C   UNL     1      10.385   2.446   5.279  1.00  0.00     0.155 C 
ATOM     84  C   UNL     1       8.643   1.921   6.644  1.00  0.00     0.004 C 
ATOM     85  O   UNL     1      10.587   3.010   6.594  1.00  0.00    -0.365 OA
ATOM     86  C   UNL     1       9.383   1.390   5.659  1.00  0.00     0.004 C 
BRANCH  81  87
ATOM     87  C   UNL     1      10.524   4.443   3.656  1.00  0.00     0.231 C 
ATOM     88  O   UNL     1      10.609   4.109   2.465  1.00  0.00    -0.274 OA
ATOM     89  N   UNL     1      11.144   5.611   3.998  1.00  0.00    -0.325 N 
ATOM     90  H   UNL     1      11.439   6.154   3.232  1.00  0.00     0.169 HD
BRANCH  89  91
ATOM     91  C   UNL     1      11.431   6.168   5.247  1.00  0.00     0.048 A 
ATOM     92  C   UNL     1      11.115   7.512   5.466  1.00  0.00     0.026 A 
ATOM     93  C   UNL     1      11.966   5.407   6.279  1.00  0.00     0.111 A 
ATOM     94  C   UNL     1      11.167   8.040   6.761  1.00  0.00     0.009 A 
ATOM     95  C   UNL     1      11.981   5.925   7.576  1.00  0.00     0.271 A 
ATOM     96  C   UNL     1      11.564   7.235   7.830  1.00  0.00     0.086 A 
BRANCH  95  97
ATOM     97  N   UNL     1      12.368   5.055   8.686  1.00  0.00     0.062 N 
ATOM     98  O   UNL     1      11.893   5.312   9.802  1.00  0.00    -0.258 OA
ATOM     99  O   UNL     1      13.150   4.126   8.444  1.00  0.00    -0.258 OA
ENDBRANCH  95  97
ENDBRANCH  89  91
ENDBRANCH  81  87
ENDBRANCH  77  80
ENDBRANCH  75  76
ENDBRANCH  74  75
ENDBRANCH   1  74
TORSDOF 16
