REMARK SMILES Cc1ccc2[nH]cc([C@@H](C(=O)NCCCCCCNC(=O)c3ccc(-c4c5nc(c(-c6c(F)c(F)c(F)c(F)c6F)c6ccc([nH]6)c(-c6c(F)c(F)c(F)c(F)c6F)c6nc(c(-c7c(F)c(F)c(F)c(F)c7F)c7ccc4[nH]7)C=C6)C=C5)cc3)[NH+]3CCN(c4cccc(Cl)c4)CC3)c2c1
REMARK SMILES IDX 15 1 14 2 13 3 12 4 10 5 11 6 9 8 8 9 1 10 2 11 3 12 99 13
REMARK SMILES IDX 4 14 98 15 5 16 6 17 7 18 85 20 86 21 97 22 87 24 96 25
REMARK SMILES IDX 88 26 89 27 90 28 95 29 91 30 93 31 92 32 94 33 16 34 17 35
REMARK SMILES IDX 18 36 19 37 20 38 21 40 22 41 23 42 84 43 24 44 83 45 25 46
REMARK SMILES IDX 26 47 27 48 77 49 28 50 82 51 76 52 78 53 29 54 81 55 75 56
REMARK SMILES IDX 74 57 30 59 62 60 42 61 61 62 43 63 46 64 60 65 79 66 44 67
REMARK SMILES IDX 45 68 59 70 80 71 47 72 31 73 32 74 40 75 33 76 34 77 38 78
REMARK SMILES IDX 41 79 35 80 36 81 39 82 37 83 63 84 64 85 72 86 65 87 66 88
REMARK SMILES IDX 70 89 73 90 67 91 68 92 71 93 69 94 48 95 49 96 57 97 50 98
REMARK SMILES IDX 51 99 55 100 58 101 52 102 53 103 56 104 54 105
REMARK H PARENT 12 7 6 19 85 23 19 39 78 58 46 69
REMARK Flexibility Score: inf
ROOT
ATOM      1  C   UNL     1      -1.627  -1.548   5.062  1.00  0.00     0.002 C 
ENDROOT
BRANCH   1   2
ATOM      2  C   UNL     1      -1.055  -1.341   3.657  1.00  0.00     0.021 C 
BRANCH   2   3
ATOM      3  C   UNL     1      -0.772  -2.648   2.919  1.00  0.00     0.116 C 
BRANCH   3   4
ATOM      4  N   UNL     1      -2.004  -3.310   2.556  1.00  0.00    -0.351 N 
ATOM      5  C   UNL     1      -2.675  -3.282   1.361  1.00  0.00     0.283 C 
ATOM      6  O   UNL     1      -3.782  -3.830   1.358  1.00  0.00    -0.268 OA
ATOM      7  H   UNL     1      -2.419  -3.854   3.264  1.00  0.00     0.163 HD
BRANCH   5   8
ATOM      8  C   UNL     1      -1.986  -2.658   0.100  1.00  0.00     0.307 C 
BRANCH   8   9
ATOM      9  C   UNL     1      -1.709  -1.177   0.233  1.00  0.00     0.044 A 
ATOM     10  C   UNL     1       3.383  -0.642  -0.191  1.00  0.00     0.044 C 
ATOM     11  C   UNL     1       1.980  -0.115  -0.113  1.00  0.00    -0.050 A 
ATOM     12  C   UNL     1       1.737   1.256  -0.001  1.00  0.00     0.005 A 
ATOM     13  C   UNL     1       0.899  -1.014  -0.104  1.00  0.00     0.014 A 
ATOM     14  C   UNL     1       0.443   1.755   0.173  1.00  0.00     0.027 A 
ATOM     15  C   UNL     1      -0.418  -0.541   0.104  1.00  0.00     0.009 A 
ATOM     16  C   UNL     1      -0.604   0.831   0.260  1.00  0.00     0.046 A 
ATOM     17  N   UNL     1      -1.939   1.031   0.511  1.00  0.00    -0.361 N 
ATOM     18  C   UNL     1      -2.589  -0.170   0.589  1.00  0.00     0.094 A 
ATOM     19  H   UNL     1      -2.366   1.912   0.620  1.00  0.00     0.166 HD
ENDBRANCH   8   9
BRANCH   8  20
ATOM     20  N   UNL     1      -2.678  -3.029  -1.157  1.00  0.00    -0.318 N 
ATOM     21  C   UNL     1      -4.071  -2.594  -1.345  1.00  0.00     0.284 C 
ATOM     22  C   UNL     1      -1.903  -2.807  -2.388  1.00  0.00     0.284 C 
ATOM     23  H   UNL     1      -2.745  -4.032  -0.989  1.00  0.00     0.349 HD
ATOM     24  C   UNL     1      -4.311  -1.226  -2.015  1.00  0.00     0.178 C 
ATOM     25  C   UNL     1      -2.025  -1.408  -3.034  1.00  0.00     0.178 C 
ATOM     26  N   UNL     1      -3.429  -0.999  -3.162  1.00  0.00    -0.360 N 
BRANCH  26  27
ATOM     27  C   UNL     1      -3.664   0.146  -3.917  1.00  0.00     0.038 A 
ATOM     28  C   UNL     1      -3.819   1.417  -3.343  1.00  0.00     0.026 A 
ATOM     29  C   UNL     1      -3.780   0.023  -5.304  1.00  0.00     0.046 A 
ATOM     30  C   UNL     1      -4.126   2.530  -4.131  1.00  0.00     0.004 A 
ATOM     31  C   UNL     1      -4.096   1.129  -6.089  1.00  0.00     0.043 A 
ATOM     32  C   UNL     1      -4.276   2.382  -5.508  1.00  0.00     0.020 A 
ATOM     33  Cl  UNL     1      -4.288   0.938  -7.788  1.00  0.00    -0.084 Cl
ENDBRANCH  26  27
ENDBRANCH   8  20
ENDBRANCH   5   8
ENDBRANCH   3   4
ENDBRANCH   2   3
ENDBRANCH   1   2
BRANCH   1  34
ATOM     34  C   UNL     1      -0.736  -2.381   5.987  1.00  0.00     0.002 C 
BRANCH  34  35
ATOM     35  C   UNL     1       0.701  -1.868   6.107  1.00  0.00     0.021 C 
BRANCH  35  36
ATOM     36  C   UNL     1       0.804  -0.436   6.618  1.00  0.00     0.116 C 
BRANCH  36  37
ATOM     37  N   UNL     1       0.264  -0.310   7.963  1.00  0.00    -0.352 N 
ATOM     38  C   UNL     1       0.886   0.119   9.107  1.00  0.00     0.251 C 
ATOM     39  H   UNL     1      -0.680  -0.570   8.066  1.00  0.00     0.163 HD
ATOM     40  O   UNL     1       0.372  -0.068  10.203  1.00  0.00    -0.269 OA
BRANCH  38  41
ATOM     41  C   UNL     1       2.190   0.804   9.007  1.00  0.00     0.039 A 
ATOM     42  C   UNL     1       3.209   0.454   9.894  1.00  0.00     0.014 A 
ATOM     43  C   UNL     1       2.400   1.792   8.040  1.00  0.00     0.014 A 
ATOM     44  C   UNL     1       4.460   1.061   9.778  1.00  0.00     0.010 A 
ATOM     45  C   UNL     1       3.667   2.337   7.874  1.00  0.00     0.010 A 
ATOM     46  C   UNL     1       4.707   1.984   8.748  1.00  0.00    -0.014 A 
BRANCH  46  47
ATOM     47  C   UNL     1       6.046   2.599   8.573  1.00  0.00     0.031 A 
ATOM     48  C   UNL     1       6.220   4.083   8.739  1.00  0.00     0.074 A 
ATOM     49  C   UNL     1       7.090   1.829   8.212  1.00  0.00     0.049 A 
ATOM     50  N   UNL     1       7.292   4.815   8.571  1.00  0.00    -0.248 NA
ATOM     51  C   UNL     1       5.023   4.851   9.115  1.00  0.00     0.031 C 
ATOM     52  C   UNL     1       7.035   0.385   7.982  1.00  0.00     0.029 A 
ATOM     53  N   UNL     1       8.400   2.155   7.967  1.00  0.00    -0.354 N 
ATOM     54  C   UNL     1       6.897   6.124   8.814  1.00  0.00     0.074 A 
ATOM     55  C   UNL     1       5.474   6.095   9.075  1.00  0.00     0.031 C 
ATOM     56  C   UNL     1       8.261  -0.055   7.660  1.00  0.00     0.029 A 
ATOM     57  C   UNL     1       9.178   1.080   7.616  1.00  0.00     0.049 A 
ATOM     58  H   UNL     1       8.749   3.073   8.037  1.00  0.00     0.167 HD
ATOM     59  C   UNL     1       7.657   7.245   8.844  1.00  0.00     0.037 A 
ATOM     60  C   UNL     1      10.482   1.019   7.290  1.00  0.00     0.037 A 
ATOM     61  C   UNL     1       9.075   7.264   8.595  1.00  0.00     0.049 A 
ATOM     62  C   UNL     1      11.298   2.285   7.297  1.00  0.00     0.074 A 
ATOM     63  C   UNL     1       9.945   8.338   8.645  1.00  0.00     0.029 A 
ATOM     64  N   UNL     1       9.829   6.155   8.241  1.00  0.00    -0.354 N 
ATOM     65  N   UNL     1      10.928   3.507   7.593  1.00  0.00    -0.248 NA
ATOM     66  C   UNL     1      12.714   2.159   6.928  1.00  0.00     0.031 C 
ATOM     67  C   UNL     1      11.215   7.890   8.267  1.00  0.00     0.029 A 
ATOM     68  C   UNL     1      11.150   6.524   8.043  1.00  0.00     0.049 A 
ATOM     69  H   UNL     1       9.478   5.240   8.145  1.00  0.00     0.167 HD
ATOM     70  C   UNL     1      12.070   4.289   7.482  1.00  0.00     0.074 A 
ATOM     71  C   UNL     1      13.148   3.399   7.103  1.00  0.00     0.031 C 
ATOM     72  C   UNL     1      12.214   5.624   7.675  1.00  0.00     0.037 A 
BRANCH  59  73
ATOM     73  C   UNL     1       6.966   8.542   9.156  1.00  0.00     0.064 A 
ATOM     74  C   UNL     1       6.426   8.804  10.425  1.00  0.00     0.173 A 
ATOM     75  C   UNL     1       6.861   9.547   8.181  1.00  0.00     0.173 A 
ATOM     76  F   UNL     1       6.487   7.875  11.390  1.00  0.00    -0.203 F 
ATOM     77  C   UNL     1       5.775  10.006  10.695  1.00  0.00     0.198 A 
ATOM     78  C   UNL     1       6.242  10.761   8.466  1.00  0.00     0.198 A 
ATOM     79  F   UNL     1       7.364   9.354   6.953  1.00  0.00    -0.203 F 
ATOM     80  F   UNL     1       5.215  10.207  11.896  1.00  0.00    -0.200 F 
ATOM     81  C   UNL     1       5.691  10.986   9.718  1.00  0.00     0.200 A 
ATOM     82  F   UNL     1       6.174  11.713   7.525  1.00  0.00    -0.200 F 
ATOM     83  F   UNL     1       5.069  12.144   9.980  1.00  0.00    -0.200 F 
ENDBRANCH  59  73
BRANCH  60  84
ATOM     84  C   UNL     1      11.107  -0.287   6.953  1.00  0.00     0.064 A 
ATOM     85  C   UNL     1      12.066  -0.865   7.798  1.00  0.00     0.173 A 
ATOM     86  C   UNL     1      10.769  -0.981   5.782  1.00  0.00     0.173 A 
ATOM     87  F   UNL     1      12.436  -0.231   8.920  1.00  0.00    -0.203 F 
ATOM     88  C   UNL     1      12.681  -2.071   7.472  1.00  0.00     0.198 A 
ATOM     89  C   UNL     1      11.361  -2.204   5.473  1.00  0.00     0.198 A 
ATOM     90  F   UNL     1       9.853  -0.476   4.942  1.00  0.00    -0.203 F 
ATOM     91  F   UNL     1      13.631  -2.573   8.271  1.00  0.00    -0.200 F 
ATOM     92  C   UNL     1      12.324  -2.743   6.312  1.00  0.00     0.200 A 
ATOM     93  F   UNL     1      11.001  -2.857   4.359  1.00  0.00    -0.200 F 
ATOM     94  F   UNL     1      12.913  -3.905   6.000  1.00  0.00    -0.200 F 
ENDBRANCH  60  84
BRANCH  72  95
ATOM     95  C   UNL     1      13.594   6.197   7.525  1.00  0.00     0.064 A 
ATOM     96  C   UNL     1      14.222   6.298   6.274  1.00  0.00     0.173 A 
ATOM     97  C   UNL     1      14.284   6.686   8.646  1.00  0.00     0.173 A 
ATOM     98  F   UNL     1      13.613   5.832   5.173  1.00  0.00    -0.203 F 
ATOM     99  C   UNL     1      15.499   6.841   6.156  1.00  0.00     0.198 A 
ATOM    100  C   UNL     1      15.545   7.260   8.518  1.00  0.00     0.198 A 
ATOM    101  F   UNL     1      13.726   6.621   9.864  1.00  0.00    -0.203 F 
ATOM    102  F   UNL     1      16.100   6.877   4.958  1.00  0.00    -0.200 F 
ATOM    103  C   UNL     1      16.155   7.329   7.276  1.00  0.00     0.200 A 
ATOM    104  F   UNL     1      16.171   7.746   9.600  1.00  0.00    -0.200 F 
ATOM    105  F   UNL     1      17.381   7.858   7.158  1.00  0.00    -0.200 F 
ENDBRANCH  72  95
ENDBRANCH  46  47
ENDBRANCH  38  41
ENDBRANCH  36  37
ENDBRANCH  35  36
ENDBRANCH  34  35
ENDBRANCH   1  34
TORSDOF 16
