REMARK SMILES Cc1ccc(Cl)c(NC(=O)C[N@@H+]2CCC[C@H]2C(=O)NCCCCCCNC(=O)c2ccc(-c3c4nc(c(-c5c(F)c(F)c(F)c(F)c5F)c5ccc([nH]5)c(-c5c(F)c(F)c(F)c(F)c5F)c5nc(c(-c6c(F)c(F)c(F)c(F)c6F)c6ccc3[nH]6)C=C5)C=C4)cc2)c1Cl
REMARK SMILES IDX 22 1 21 2 20 3 19 4 17 5 18 6 16 8 12 9 13 10 14 12 15 13
REMARK SMILES IDX 11 14 9 15 8 16 10 18 7 19 1 20 2 21 3 22 92 23 4 24 93 25
REMARK SMILES IDX 5 26 6 27 23 28 24 29 25 30 26 31 27 32 28 34 29 35 30 36
REMARK SMILES IDX 91 37 31 38 90 39 32 40 33 41 34 42 84 43 35 44 89 45 83 46
REMARK SMILES IDX 85 47 36 48 88 49 82 50 81 51 37 53 69 54 49 55 68 56 50 57
REMARK SMILES IDX 53 58 67 59 86 60 51 61 52 62 66 64 87 65 54 66 38 67 39 68
REMARK SMILES IDX 47 69 40 70 41 71 45 72 48 73 42 74 43 75 46 76 44 77 70 78
REMARK SMILES IDX 71 79 79 80 72 81 73 82 77 83 80 84 74 85 75 86 78 87 76 88
REMARK SMILES IDX 55 89 56 90 64 91 57 92 58 93 62 94 65 95 59 96 60 97 63 98
REMARK SMILES IDX 61 99
REMARK H PARENT 19 7 12 11 8 17 26 33 85 52 53 63
REMARK Flexibility Score: inf
ROOT
ATOM      1  C   UNL     1      -2.999  -0.832  -3.379  1.00  0.00     0.002 C 
ENDROOT
BRANCH   1   2
ATOM      2  C   UNL     1      -1.972  -1.014  -2.263  1.00  0.00     0.021 C 
BRANCH   2   3
ATOM      3  C   UNL     1      -0.650  -1.642  -2.686  1.00  0.00     0.116 C 
BRANCH   3   4
ATOM      4  N   UNL     1       0.214  -0.709  -3.378  1.00  0.00    -0.351 N 
ATOM      5  C   UNL     1       1.458  -0.267  -3.015  1.00  0.00     0.278 C 
ATOM      6  O   UNL     1       2.065   0.442  -3.822  1.00  0.00    -0.268 OA
ATOM      7  H   UNL     1      -0.140  -0.344  -4.221  1.00  0.00     0.163 HD
BRANCH   5   8
ATOM      8  C   UNL     1       1.998  -0.566  -1.590  1.00  0.00     0.274 C 
ATOM      9  N   UNL     1       2.213  -2.026  -1.380  1.00  0.00    -0.317 N 
ATOM     10  C   UNL     1       3.588  -2.230  -1.888  1.00  0.00     0.263 C 
ATOM     11  H   UNL     1       1.497  -2.587  -1.841  1.00  0.00     0.349 HD
ATOM     12  C   UNL     1       4.380  -1.042  -1.374  1.00  0.00     0.068 C 
ATOM     13  C   UNL     1       3.366   0.094  -1.342  1.00  0.00     0.081 C 
BRANCH   9  14
ATOM     14  C   UNL     1       2.156  -2.410   0.063  1.00  0.00     0.364 C 
BRANCH  14  15
ATOM     15  C   UNL     1       0.748  -2.681   0.605  1.00  0.00     0.279 C 
ATOM     16  N   UNL     1      -0.083  -1.778   1.204  1.00  0.00    -0.319 N 
ATOM     17  H   UNL     1      -0.853  -2.205   1.645  1.00  0.00     0.170 HD
ATOM     18  O   UNL     1       0.259  -3.814   0.465  1.00  0.00    -0.268 OA
BRANCH  16  19
ATOM     19  C   UNL     1      -0.091  -0.368   1.337  1.00  0.00     0.079 A 
ATOM     20  C   UNL     1       2.160   2.739   1.204  1.00  0.00     0.046 C 
ATOM     21  C   UNL     1       0.954   1.839   1.245  1.00  0.00    -0.030 A 
ATOM     22  C   UNL     1      -0.275   2.393   0.856  1.00  0.00     0.006 A 
ATOM     23  C   UNL     1       1.018   0.462   1.558  1.00  0.00     0.069 A 
ATOM     24  C   UNL     1      -1.431   1.622   0.877  1.00  0.00     0.023 A 
ATOM     25  Cl  UNL     1       2.366  -0.125   2.478  1.00  0.00    -0.082 Cl
ATOM     26  C   UNL     1      -1.341   0.257   1.140  1.00  0.00     0.066 A 
ATOM     27  Cl  UNL     1      -2.818  -0.651   1.166  1.00  0.00    -0.082 Cl
ENDBRANCH  16  19
ENDBRANCH  14  15
ENDBRANCH   9  14
ENDBRANCH   5   8
ENDBRANCH   3   4
ENDBRANCH   2   3
ENDBRANCH   1   2
BRANCH   1  28
ATOM     28  C   UNL     1      -3.408  -2.118  -4.104  1.00  0.00     0.002 C 
BRANCH  28  29
ATOM     29  C   UNL     1      -3.901  -3.258  -3.207  1.00  0.00     0.021 C 
BRANCH  29  30
ATOM     30  C   UNL     1      -5.113  -2.922  -2.340  1.00  0.00     0.116 C 
BRANCH  30  31
ATOM     31  N   UNL     1      -6.271  -2.556  -3.141  1.00  0.00    -0.352 N 
ATOM     32  C   UNL     1      -7.481  -3.186  -3.291  1.00  0.00     0.251 C 
ATOM     33  H   UNL     1      -6.172  -1.723  -3.657  1.00  0.00     0.163 HD
ATOM     34  O   UNL     1      -8.244  -2.842  -4.187  1.00  0.00    -0.269 OA
BRANCH  32  35
ATOM     35  C   UNL     1      -7.873  -4.285  -2.382  1.00  0.00     0.039 A 
ATOM     36  C   UNL     1      -8.496  -5.415  -2.920  1.00  0.00     0.014 A 
ATOM     37  C   UNL     1      -7.677  -4.185  -1.002  1.00  0.00     0.014 A 
ATOM     38  C   UNL     1      -8.873  -6.468  -2.082  1.00  0.00     0.010 A 
ATOM     39  C   UNL     1      -7.991  -5.262  -0.176  1.00  0.00     0.010 A 
ATOM     40  C   UNL     1      -8.597  -6.411  -0.706  1.00  0.00    -0.014 A 
BRANCH  40  41
ATOM     41  C   UNL     1      -8.932  -7.545   0.192  1.00  0.00     0.031 A 
ATOM     42  C   UNL     1      -9.951  -7.375   1.284  1.00  0.00     0.074 A 
ATOM     43  C   UNL     1      -8.259  -8.705   0.076  1.00  0.00     0.049 A 
ATOM     44  N   UNL     1     -10.322  -8.221   2.212  1.00  0.00    -0.248 NA
ATOM     45  C   UNL     1     -10.619  -6.068   1.361  1.00  0.00     0.031 C 
ATOM     46  C   UNL     1      -7.203  -8.972  -0.902  1.00  0.00     0.029 A 
ATOM     47  N   UNL     1      -8.346  -9.868   0.800  1.00  0.00    -0.354 N 
ATOM     48  C   UNL     1     -11.248  -7.543   2.993  1.00  0.00     0.074 A 
ATOM     49  C   UNL     1     -11.346  -6.201   2.461  1.00  0.00     0.031 C 
ATOM     50  C   UNL     1      -6.743 -10.220  -0.720  1.00  0.00     0.029 A 
ATOM     51  C   UNL     1      -7.448 -10.828   0.405  1.00  0.00     0.049 A 
ATOM     52  H   UNL     1      -8.990 -10.001   1.532  1.00  0.00     0.167 HD
ATOM     53  C   UNL     1     -11.964  -8.004   4.047  1.00  0.00     0.037 A 
ATOM     54  C   UNL     1      -7.209 -12.057   0.901  1.00  0.00     0.037 A 
ATOM     55  C   UNL     1     -11.880  -9.348   4.557  1.00  0.00     0.049 A 
ATOM     56  C   UNL     1      -8.031 -12.557   2.056  1.00  0.00     0.074 A 
ATOM     57  C   UNL     1     -12.624  -9.939   5.563  1.00  0.00     0.029 A 
ATOM     58  N   UNL     1     -10.987 -10.310   4.104  1.00  0.00    -0.354 N 
ATOM     59  N   UNL     1      -8.969 -11.939   2.732  1.00  0.00    -0.248 NA
ATOM     60  C   UNL     1      -7.770 -13.930   2.510  1.00  0.00     0.031 C 
ATOM     61  C   UNL     1     -12.148 -11.241   5.753  1.00  0.00     0.029 A 
ATOM     62  C   UNL     1     -11.143 -11.481   4.830  1.00  0.00     0.049 A 
ATOM     63  H   UNL     1     -10.339 -10.180   3.374  1.00  0.00     0.167 HD
ATOM     64  C   UNL     1      -9.423 -12.849   3.676  1.00  0.00     0.074 A 
ATOM     65  C   UNL     1      -8.669 -14.069   3.475  1.00  0.00     0.031 C 
ATOM     66  C   UNL     1     -10.380 -12.687   4.623  1.00  0.00     0.037 A 
BRANCH  53  67
ATOM     67  C   UNL     1     -12.897  -7.040   4.723  1.00  0.00     0.064 A 
ATOM     68  C   UNL     1     -14.053  -6.560   4.087  1.00  0.00     0.173 A 
ATOM     69  C   UNL     1     -12.639  -6.598   6.030  1.00  0.00     0.173 A 
ATOM     70  F   UNL     1     -14.343  -6.943   2.834  1.00  0.00    -0.203 F 
ATOM     71  C   UNL     1     -14.890  -5.642   4.717  1.00  0.00     0.198 A 
ATOM     72  C   UNL     1     -13.496  -5.706   6.669  1.00  0.00     0.198 A 
ATOM     73  F   UNL     1     -11.554  -7.032   6.689  1.00  0.00    -0.203 F 
ATOM     74  F   UNL     1     -15.953  -5.150   4.065  1.00  0.00    -0.200 F 
ATOM     75  C   UNL     1     -14.614  -5.220   6.008  1.00  0.00     0.200 A 
ATOM     76  F   UNL     1     -13.236  -5.310   7.922  1.00  0.00    -0.200 F 
ATOM     77  F   UNL     1     -15.420  -4.336   6.612  1.00  0.00    -0.200 F 
ENDBRANCH  53  67
BRANCH  54  78
ATOM     78  C   UNL     1      -6.152 -12.899   0.286  1.00  0.00     0.064 A 
ATOM     79  C   UNL     1      -6.481 -14.016  -0.493  1.00  0.00     0.173 A 
ATOM     80  C   UNL     1      -4.793 -12.584   0.437  1.00  0.00     0.173 A 
ATOM     81  F   UNL     1      -7.765 -14.368  -0.649  1.00  0.00    -0.203 F 
ATOM     82  C   UNL     1      -5.490 -14.793  -1.090  1.00  0.00     0.198 A 
ATOM     83  C   UNL     1      -3.805 -13.346  -0.183  1.00  0.00     0.198 A 
ATOM     84  F   UNL     1      -4.428 -11.521   1.167  1.00  0.00    -0.203 F 
ATOM     85  F   UNL     1      -5.830 -15.875  -1.804  1.00  0.00    -0.200 F 
ATOM     86  C   UNL     1      -4.154 -14.452  -0.942  1.00  0.00     0.200 A 
ATOM     87  F   UNL     1      -2.516 -13.005  -0.050  1.00  0.00    -0.200 F 
ATOM     88  F   UNL     1      -3.203 -15.193  -1.528  1.00  0.00    -0.200 F 
ENDBRANCH  54  78
BRANCH  66  89
ATOM     89  C   UNL     1     -10.680 -13.864   5.506  1.00  0.00     0.064 A 
ATOM     90  C   UNL     1      -9.784 -14.286   6.499  1.00  0.00     0.173 A 
ATOM     91  C   UNL     1     -11.896 -14.553   5.383  1.00  0.00     0.173 A 
ATOM     92  F   UNL     1      -8.601 -13.670   6.647  1.00  0.00    -0.203 F 
ATOM     93  C   UNL     1     -10.085 -15.368   7.322  1.00  0.00     0.198 A 
ATOM     94  C   UNL     1     -12.206 -15.616   6.226  1.00  0.00     0.198 A 
ATOM     95  F   UNL     1     -12.790 -14.186   4.452  1.00  0.00    -0.203 F 
ATOM     96  F   UNL     1      -9.195 -15.782   8.235  1.00  0.00    -0.200 F 
ATOM     97  C   UNL     1     -11.299 -16.027   7.190  1.00  0.00     0.200 A 
ATOM     98  F   UNL     1     -13.385 -16.243   6.106  1.00  0.00    -0.200 F 
ATOM     99  F   UNL     1     -11.590 -17.063   7.988  1.00  0.00    -0.200 F 
ENDBRANCH  66  89
ENDBRANCH  40  41
ENDBRANCH  32  35
ENDBRANCH  30  31
ENDBRANCH  29  30
ENDBRANCH  28  29
ENDBRANCH   1  28
TORSDOF 16
