REMARK SMILES COc1ccc2c(c1)c(CC(=O)NCCCCCCNC(=O)c1ccc(-c3c4nc(c(-c5c(F)c(F)c(F)c(F)c5F)c5ccc([nH]5)c(-c5c(F)c(F)c(F)c(F)c5F)c5nc(c(-c6c(F)c(F)c(F)c(F)c6F)c6ccc3[nH]6)C=C5)C=C4)cc1)c(C)n2Cc1ccc(Br)cc1
REMARK SMILES IDX 16 1 15 2 14 3 13 4 11 5 12 6 10 8 9 9 3 10 4 11 8 12 5 13
REMARK SMILES IDX 7 14 6 15 88 16 86 17 87 18 2 19 1 20 89 21 90 22 91 23
REMARK SMILES IDX 96 24 92 25 95 26 93 27 94 28 17 29 18 30 19 31 20 32 21 33
REMARK SMILES IDX 22 35 23 36 24 37 85 38 25 39 84 40 26 41 27 42 28 43 78 44
REMARK SMILES IDX 29 45 83 46 77 47 79 48 30 49 82 50 76 51 75 52 31 54 63 55
REMARK SMILES IDX 43 56 62 57 44 58 47 59 61 60 80 61 45 62 46 63 60 65 81 66
REMARK SMILES IDX 48 67 32 68 33 69 41 70 34 71 35 72 39 73 42 74 36 75 37 76
REMARK SMILES IDX 40 77 38 78 64 79 65 80 73 81 66 82 67 83 71 84 74 85 68 86
REMARK SMILES IDX 69 87 72 88 70 89 49 90 50 91 58 92 51 93 52 94 56 95 59 96
REMARK SMILES IDX 53 97 54 98 57 99 55 100
REMARK H PARENT 13 7 20 34 79 53 47 64
REMARK Flexibility Score: inf
ROOT
ATOM      1  C   UNL     1       0.452   0.026  -8.354  1.00  0.00     0.002 C 
ENDROOT
BRANCH   1   2
ATOM      2  C   UNL     1       0.518   1.339  -7.564  1.00  0.00     0.021 C 
BRANCH   2   3
ATOM      3  C   UNL     1      -0.804   2.108  -7.536  1.00  0.00     0.116 C 
BRANCH   3   4
ATOM      4  N   UNL     1      -1.788   1.441  -6.703  1.00  0.00    -0.356 N 
ATOM      5  C   UNL     1      -2.269   1.789  -5.473  1.00  0.00     0.224 C 
ATOM      6  O   UNL     1      -3.062   1.020  -4.923  1.00  0.00    -0.275 OA
ATOM      7  H   UNL     1      -2.166   0.614  -7.082  1.00  0.00     0.163 HD
BRANCH   5   8
ATOM      8  C   UNL     1      -1.912   3.129  -4.845  1.00  0.00     0.138 C 
BRANCH   8   9
ATOM      9  C   UNL     1      -0.449   3.294  -4.568  1.00  0.00    -0.010 A 
ATOM     10  C   UNL     1       1.112   0.757  -2.196  1.00  0.00     0.119 A 
ATOM     11  C   UNL     1       2.421   1.204  -2.328  1.00  0.00     0.048 A 
ATOM     12  C   UNL     1       0.086   1.337  -2.941  1.00  0.00     0.057 A 
ATOM     13  C   UNL     1       2.732   2.275  -3.178  1.00  0.00     0.031 A 
ATOM     14  C   UNL     1       0.366   2.449  -3.763  1.00  0.00     0.007 A 
ATOM     15  C   UNL     1       1.684   2.905  -3.875  1.00  0.00     0.049 A 
ATOM     16  N   UNL     1       1.665   3.987  -4.748  1.00  0.00    -0.340 N 
ATOM     17  C   UNL     1       0.348   4.358  -4.970  1.00  0.00     0.020 A 
ATOM     18  C   UNL     1      -0.099   5.646  -5.573  1.00  0.00     0.065 C 
BRANCH  10  19
ATOM     19  O   UNL     1       0.774  -0.299  -1.390  1.00  0.00    -0.497 OA
ATOM     20  C   UNL     1       1.093  -0.053  -0.021  1.00  0.00     0.278 C 
ENDBRANCH  10  19
BRANCH  16  21
ATOM     21  C   UNL     1       2.854   4.701  -5.225  1.00  0.00     0.157 C 
BRANCH  21  22
ATOM     22  C   UNL     1       3.193   4.447  -6.684  1.00  0.00    -0.028 A 
ATOM     23  C   UNL     1       2.450   5.029  -7.724  1.00  0.00     0.007 A 
ATOM     24  C   UNL     1       4.324   3.692  -7.036  1.00  0.00     0.007 A 
ATOM     25  C   UNL     1       2.812   4.870  -9.064  1.00  0.00     0.016 A 
ATOM     26  C   UNL     1       4.707   3.549  -8.378  1.00  0.00     0.016 A 
ATOM     27  C   UNL     1       3.953   4.147  -9.385  1.00  0.00     0.017 A 
ATOM     28  Br  UNL     1       4.501   4.028 -11.190  1.00  0.00    -0.051 Br
ENDBRANCH  21  22
ENDBRANCH  16  21
ENDBRANCH   8   9
ENDBRANCH   5   8
ENDBRANCH   3   4
ENDBRANCH   2   3
ENDBRANCH   1   2
BRANCH   1  29
ATOM     29  C   UNL     1       0.164   0.186  -9.852  1.00  0.00     0.002 C 
BRANCH  29  30
ATOM     30  C   UNL     1       1.172   1.047 -10.622  1.00  0.00     0.021 C 
BRANCH  30  31
ATOM     31  C   UNL     1       2.618   0.557 -10.519  1.00  0.00     0.116 C 
BRANCH  31  32
ATOM     32  N   UNL     1       2.810  -0.785 -11.030  1.00  0.00    -0.352 N 
ATOM     33  C   UNL     1       3.071  -1.314 -12.261  1.00  0.00     0.251 C 
ATOM     34  H   UNL     1       2.735  -1.472 -10.329  1.00  0.00     0.163 HD
ATOM     35  O   UNL     1       3.294  -2.529 -12.295  1.00  0.00    -0.269 OA
BRANCH  33  36
ATOM     36  C   UNL     1       3.043  -0.562 -13.547  1.00  0.00     0.039 A 
ATOM     37  C   UNL     1       2.832   0.809 -13.686  1.00  0.00     0.014 A 
ATOM     38  C   UNL     1       3.175  -1.339 -14.715  1.00  0.00     0.014 A 
ATOM     39  C   UNL     1       2.643   1.371 -14.944  1.00  0.00     0.010 A 
ATOM     40  C   UNL     1       3.010  -0.779 -15.978  1.00  0.00     0.010 A 
ATOM     41  C   UNL     1       2.684   0.568 -16.085  1.00  0.00    -0.014 A 
BRANCH  41  42
ATOM     42  C   UNL     1       2.405   1.205 -17.368  1.00  0.00     0.031 A 
ATOM     43  C   UNL     1       3.314   2.323 -17.753  1.00  0.00     0.074 A 
ATOM     44  C   UNL     1       1.429   0.785 -18.198  1.00  0.00     0.049 A 
ATOM     45  N   UNL     1       3.004   3.552 -18.018  1.00  0.00    -0.248 NA
ATOM     46  C   UNL     1       4.760   2.056 -17.768  1.00  0.00     0.031 C 
ATOM     47  C   UNL     1       0.615  -0.429 -18.106  1.00  0.00     0.029 A 
ATOM     48  N   UNL     1       1.024   1.337 -19.377  1.00  0.00    -0.354 N 
ATOM     49  C   UNL     1       4.194   4.190 -18.367  1.00  0.00     0.074 A 
ATOM     50  C   UNL     1       5.252   3.250 -18.102  1.00  0.00     0.031 C 
ATOM     51  C   UNL     1      -0.009  -0.636 -19.287  1.00  0.00     0.029 A 
ATOM     52  C   UNL     1       0.254   0.493 -20.161  1.00  0.00     0.049 A 
ATOM     53  H   UNL     1       1.258   2.254 -19.647  1.00  0.00     0.167 HD
ATOM     54  C   UNL     1       4.207   5.394 -19.005  1.00  0.00     0.037 A 
ATOM     55  C   UNL     1      -0.073   0.677 -21.464  1.00  0.00     0.037 A 
ATOM     56  C   UNL     1       2.961   6.093 -18.843  1.00  0.00     0.049 A 
ATOM     57  C   UNL     1       0.066   2.125 -21.764  1.00  0.00     0.074 A 
ATOM     58  C   UNL     1       2.267   6.591 -17.758  1.00  0.00     0.029 A 
ATOM     59  N   UNL     1       2.067   6.100 -19.884  1.00  0.00    -0.354 N 
ATOM     60  N   UNL     1      -0.716   3.048 -21.275  1.00  0.00    -0.248 NA
ATOM     61  C   UNL     1       1.352   2.593 -22.258  1.00  0.00     0.031 C 
ATOM     62  C   UNL     1       0.893   6.383 -18.074  1.00  0.00     0.029 A 
ATOM     63  C   UNL     1       0.840   5.815 -19.347  1.00  0.00     0.049 A 
ATOM     64  H   UNL     1       2.269   6.276 -20.832  1.00  0.00     0.167 HD
ATOM     65  C   UNL     1       0.127   4.115 -21.005  1.00  0.00     0.074 A 
ATOM     66  C   UNL     1       1.368   3.812 -21.712  1.00  0.00     0.031 C 
ATOM     67  C   UNL     1      -0.153   5.005 -20.009  1.00  0.00     0.037 A 
BRANCH  54  68
ATOM     68  C   UNL     1       5.229   5.812 -20.033  1.00  0.00     0.064 A 
ATOM     69  C   UNL     1       5.212   7.133 -20.530  1.00  0.00     0.173 A 
ATOM     70  C   UNL     1       6.006   4.896 -20.771  1.00  0.00     0.173 A 
ATOM     71  F   UNL     1       4.498   8.088 -19.914  1.00  0.00    -0.203 F 
ATOM     72  C   UNL     1       5.850   7.482 -21.724  1.00  0.00     0.198 A 
ATOM     73  C   UNL     1       6.683   5.260 -21.934  1.00  0.00     0.198 A 
ATOM     74  F   UNL     1       6.052   3.594 -20.462  1.00  0.00    -0.203 F 
ATOM     75  F   UNL     1       5.696   8.715 -22.224  1.00  0.00    -0.200 F 
ATOM     76  C   UNL     1       6.576   6.542 -22.430  1.00  0.00     0.200 A 
ATOM     77  F   UNL     1       7.371   4.331 -22.613  1.00  0.00    -0.200 F 
ATOM     78  F   UNL     1       7.130   6.855 -23.608  1.00  0.00    -0.200 F 
ENDBRANCH  54  68
BRANCH  55  79
ATOM     79  C   UNL     1      -0.165  -0.362 -22.517  1.00  0.00     0.064 A 
ATOM     80  C   UNL     1      -0.793  -0.107 -23.745  1.00  0.00     0.173 A 
ATOM     81  C   UNL     1       0.589  -1.551 -22.437  1.00  0.00     0.173 A 
ATOM     82  F   UNL     1      -1.484   1.028 -23.927  1.00  0.00    -0.203 F 
ATOM     83  C   UNL     1      -0.665  -0.983 -24.830  1.00  0.00     0.198 A 
ATOM     84  C   UNL     1       0.707  -2.429 -23.514  1.00  0.00     0.198 A 
ATOM     85  F   UNL     1       1.307  -1.841 -21.342  1.00  0.00    -0.203 F 
ATOM     86  F   UNL     1      -1.231  -0.678 -26.006  1.00  0.00    -0.200 F 
ATOM     87  C   UNL     1       0.089  -2.140 -24.715  1.00  0.00     0.200 A 
ATOM     88  F   UNL     1       1.472  -3.523 -23.398  1.00  0.00    -0.200 F 
ATOM     89  F   UNL     1       0.256  -2.951 -25.768  1.00  0.00    -0.200 F 
ENDBRANCH  55  79
BRANCH  67  90
ATOM     90  C   UNL     1      -1.507   4.950 -19.363  1.00  0.00     0.064 A 
ATOM     91  C   UNL     1      -1.971   3.847 -18.626  1.00  0.00     0.173 A 
ATOM     92  C   UNL     1      -2.277   6.121 -19.324  1.00  0.00     0.173 A 
ATOM     93  F   UNL     1      -1.242   2.729 -18.525  1.00  0.00    -0.203 F 
ATOM     94  C   UNL     1      -3.166   3.905 -17.912  1.00  0.00     0.198 A 
ATOM     95  C   UNL     1      -3.452   6.188 -18.580  1.00  0.00     0.198 A 
ATOM     96  F   UNL     1      -1.853   7.226 -19.958  1.00  0.00    -0.203 F 
ATOM     97  F   UNL     1      -3.584   2.839 -17.213  1.00  0.00    -0.200 F 
ATOM     98  C   UNL     1      -3.899   5.079 -17.881  1.00  0.00     0.200 A 
ATOM     99  F   UNL     1      -4.129   7.343 -18.508  1.00  0.00    -0.200 F 
ATOM    100  F   UNL     1      -5.019   5.154 -17.147  1.00  0.00    -0.200 F 
ENDBRANCH  67  90
ENDBRANCH  41  42
ENDBRANCH  33  36
ENDBRANCH  31  32
ENDBRANCH  30  31
ENDBRANCH  29  30
ENDBRANCH   1  29
TORSDOF 17
