REMARK SMILES O=C(NCCCCCCNC(=O)[C@@H](Cc1ccccc1)/N=C1\C(=O)c2ccccc2C(=O)[C@H]1Cl)c1ccc(-c2c3nc(c(-c4c(F)c(F)c(F)c(F)c4F)c4ccc([nH]4)c(-c4c(F)c(F)c(F)c(F)c4F)c4nc(c(-c5c(F)c(F)c(F)c(F)c5F)c5ccc2[nH]5)C=C4)C=C3)cc1
REMARK SMILES IDX 6 1 5 2 4 3 3 4 1 5 2 6 35 8 36 9 97 10 37 11 96 12 38 13
REMARK SMILES IDX 39 14 40 15 90 16 41 17 95 18 89 19 91 20 42 21 94 22 88 23
REMARK SMILES IDX 87 24 43 26 75 27 55 28 74 29 56 30 59 31 73 32 92 33 57 34
REMARK SMILES IDX 58 35 72 37 93 38 60 39 44 40 45 41 53 42 46 43 47 44 51 45
REMARK SMILES IDX 54 46 48 47 49 48 52 49 50 50 76 51 77 52 85 53 78 54 79 55
REMARK SMILES IDX 83 56 86 57 80 58 81 59 84 60 82 61 61 62 62 63 70 64 63 65
REMARK SMILES IDX 64 66 68 67 71 68 65 69 66 70 69 71 67 72 7 73 8 74 9 75
REMARK SMILES IDX 10 76 11 77 12 79 13 80 14 81 15 82 16 83 20 84 17 85 19 86
REMARK SMILES IDX 18 87 21 88 22 89 23 90 33 91 24 92 25 93 31 94 34 95 26 96
REMARK SMILES IDX 30 97 32 98 27 99 29 100 28 101
REMARK H PARENT 3 7 91 25 59 36 10 78
REMARK Flexibility Score: inf
ROOT
ATOM      1  C   UNL     1       3.175   2.572   2.975  1.00  0.00     0.002 C 
ENDROOT
BRANCH   1   2
ATOM      2  C   UNL     1       3.821   1.973   1.720  1.00  0.00     0.021 C 
BRANCH   2   3
ATOM      3  C   UNL     1       3.844   0.450   1.648  1.00  0.00     0.116 C 
BRANCH   3   4
ATOM      4  N   UNL     1       2.529  -0.090   1.374  1.00  0.00    -0.352 N 
ATOM      5  O   UNL     1       0.812  -0.858   0.160  1.00  0.00    -0.269 OA
ATOM      6  C   UNL     1       2.028  -0.699   0.253  1.00  0.00     0.251 C 
ATOM      7  H   UNL     1       1.888  -0.006   2.116  1.00  0.00     0.163 HD
BRANCH   6   8
ATOM      8  C   UNL     1       2.901  -1.185  -0.847  1.00  0.00     0.039 A 
ATOM      9  C   UNL     1       4.114  -1.840  -0.609  1.00  0.00     0.014 A 
ATOM     10  C   UNL     1       2.397  -1.128  -2.154  1.00  0.00     0.014 A 
ATOM     11  C   UNL     1       4.829  -2.406  -1.671  1.00  0.00     0.010 A 
ATOM     12  C   UNL     1       3.088  -1.733  -3.209  1.00  0.00     0.010 A 
ATOM     13  C   UNL     1       4.303  -2.390  -2.973  1.00  0.00    -0.014 A 
BRANCH  13  14
ATOM     14  C   UNL     1       4.928  -3.210  -4.042  1.00  0.00     0.031 A 
ATOM     15  C   UNL     1       5.670  -2.590  -5.186  1.00  0.00     0.074 A 
ATOM     16  C   UNL     1       4.764  -4.547  -4.000  1.00  0.00     0.049 A 
ATOM     17  N   UNL     1       6.287  -3.182  -6.179  1.00  0.00    -0.248 NA
ATOM     18  C   UNL     1       5.724  -1.122  -5.234  1.00  0.00     0.031 C 
ATOM     19  C   UNL     1       4.016  -5.273  -2.972  1.00  0.00     0.029 A 
ATOM     20  N   UNL     1       5.207  -5.531  -4.848  1.00  0.00    -0.354 N 
ATOM     21  C   UNL     1       6.793  -2.165  -6.974  1.00  0.00     0.074 A 
ATOM     22  C   UNL     1       6.401  -0.914  -6.358  1.00  0.00     0.031 C 
ATOM     23  C   UNL     1       4.064  -6.587  -3.240  1.00  0.00     0.029 A 
ATOM     24  C   UNL     1       4.825  -6.793  -4.468  1.00  0.00     0.049 A 
ATOM     25  H   UNL     1       5.746  -5.349  -5.651  1.00  0.00     0.167 HD
ATOM     26  C   UNL     1       7.529  -2.271  -8.106  1.00  0.00     0.037 A 
ATOM     27  C   UNL     1       5.047  -7.986  -5.048  1.00  0.00     0.037 A 
ATOM     28  C   UNL     1       7.966  -3.511  -8.690  1.00  0.00     0.049 A 
ATOM     29  C   UNL     1       5.808  -8.062  -6.335  1.00  0.00     0.074 A 
ATOM     30  C   UNL     1       8.900  -3.718  -9.691  1.00  0.00     0.029 A 
ATOM     31  N   UNL     1       7.471  -4.756  -8.342  1.00  0.00    -0.354 N 
ATOM     32  N   UNL     1       6.394  -7.100  -6.999  1.00  0.00    -0.248 NA
ATOM     33  C   UNL     1       5.919  -9.387  -6.962  1.00  0.00     0.031 C 
ATOM     34  C   UNL     1       8.941  -5.090  -9.977  1.00  0.00     0.029 A 
ATOM     35  C   UNL     1       8.037  -5.731  -9.148  1.00  0.00     0.049 A 
ATOM     36  H   UNL     1       6.816  -4.925  -7.627  1.00  0.00     0.167 HD
ATOM     37  C   UNL     1       6.952  -7.698  -8.117  1.00  0.00     0.074 A 
ATOM     38  C   UNL     1       6.626  -9.108  -8.050  1.00  0.00     0.031 C 
ATOM     39  C   UNL     1       7.682  -7.123  -9.102  1.00  0.00     0.037 A 
BRANCH  26  40
ATOM     40  C   UNL     1       7.931  -1.004  -8.788  1.00  0.00     0.064 A 
ATOM     41  C   UNL     1       9.102  -0.327  -8.425  1.00  0.00     0.173 A 
ATOM     42  C   UNL     1       7.170  -0.496  -9.849  1.00  0.00     0.173 A 
ATOM     43  F   UNL     1       9.855  -0.776  -7.410  1.00  0.00    -0.203 F 
ATOM     44  C   UNL     1       9.498   0.822  -9.104  1.00  0.00     0.198 A 
ATOM     45  C   UNL     1       7.570   0.651 -10.527  1.00  0.00     0.198 A 
ATOM     46  F   UNL     1       6.038  -1.112 -10.224  1.00  0.00    -0.203 F 
ATOM     47  F   UNL     1      10.618   1.462  -8.738  1.00  0.00    -0.200 F 
ATOM     48  C   UNL     1       8.734   1.308 -10.155  1.00  0.00     0.200 A 
ATOM     49  F   UNL     1       6.829   1.125 -11.538  1.00  0.00    -0.200 F 
ATOM     50  F   UNL     1       9.117   2.415 -10.806  1.00  0.00    -0.200 F 
ENDBRANCH  26  40
BRANCH  27  51
ATOM     51  C   UNL     1       4.520  -9.210  -4.408  1.00  0.00     0.064 A 
ATOM     52  C   UNL     1       5.320  -9.963  -3.540  1.00  0.00     0.173 A 
ATOM     53  C   UNL     1       3.200  -9.624  -4.624  1.00  0.00     0.173 A 
ATOM     54  F   UNL     1       6.591  -9.600  -3.317  1.00  0.00    -0.203 F 
ATOM     55  C   UNL     1       4.813 -11.092  -2.905  1.00  0.00     0.198 A 
ATOM     56  C   UNL     1       2.694 -10.752  -3.985  1.00  0.00     0.198 A 
ATOM     57  F   UNL     1       2.407  -8.931  -5.453  1.00  0.00    -0.203 F 
ATOM     58  F   UNL     1       5.595 -11.802  -2.080  1.00  0.00    -0.200 F 
ATOM     59  C   UNL     1       3.500 -11.485  -3.125  1.00  0.00     0.200 A 
ATOM     60  F   UNL     1       1.427 -11.130  -4.200  1.00  0.00    -0.200 F 
ATOM     61  F   UNL     1       3.013 -12.571  -2.510  1.00  0.00    -0.200 F 
ENDBRANCH  27  51
BRANCH  39  62
ATOM     62  C   UNL     1       8.166  -8.017 -10.196  1.00  0.00     0.064 A 
ATOM     63  C   UNL     1       7.356  -8.297 -11.304  1.00  0.00     0.173 A 
ATOM     64  C   UNL     1       9.443  -8.591 -10.143  1.00  0.00     0.173 A 
ATOM     65  F   UNL     1       6.120  -7.784 -11.383  1.00  0.00    -0.203 F 
ATOM     66  C   UNL     1       7.809  -9.129 -12.324  1.00  0.00     0.198 A 
ATOM     67  C   UNL     1       9.896  -9.417 -11.167  1.00  0.00     0.198 A 
ATOM     68  F   UNL     1      10.246  -8.355  -9.094  1.00  0.00    -0.203 F 
ATOM     69  F   UNL     1       7.014  -9.403 -13.367  1.00  0.00    -0.200 F 
ATOM     70  C   UNL     1       9.078  -9.687 -12.255  1.00  0.00     0.200 A 
ATOM     71  F   UNL     1      11.118  -9.961 -11.097  1.00  0.00    -0.200 F 
ATOM     72  F   UNL     1       9.510 -10.493 -13.234  1.00  0.00    -0.200 F 
ENDBRANCH  39  62
ENDBRANCH  13  14
ENDBRANCH   6   8
ENDBRANCH   3   4
ENDBRANCH   2   3
ENDBRANCH   1   2
BRANCH   1  73
ATOM     73  C   UNL     1       3.824   2.222   4.324  1.00  0.00     0.002 C 
BRANCH  73  74
ATOM     74  C   UNL     1       5.355   2.188   4.364  1.00  0.00     0.021 C 
BRANCH  74  75
ATOM     75  C   UNL     1       6.051   3.451   3.869  1.00  0.00     0.116 C 
BRANCH  75  76
ATOM     76  N   UNL     1       6.305   4.410   4.912  1.00  0.00    -0.354 N 
ATOM     77  C   UNL     1       7.445   5.094   5.199  1.00  0.00     0.245 C 
ATOM     78  H   UNL     1       5.541   4.598   5.505  1.00  0.00     0.163 HD
ATOM     79  O   UNL     1       7.309   6.122   5.876  1.00  0.00    -0.273 OA
BRANCH  77  80
ATOM     80  C   UNL     1       8.851   4.616   4.810  1.00  0.00     0.199 C 
BRANCH  80  81
ATOM     81  C   UNL     1       9.259   3.170   5.173  1.00  0.00     0.073 C 
BRANCH  81  82
ATOM     82  C   UNL     1       9.074   2.031   4.191  1.00  0.00    -0.045 A 
ATOM     83  C   UNL     1       9.627   2.058   2.904  1.00  0.00     0.004 A 
ATOM     84  C   UNL     1       8.410   0.864   4.601  1.00  0.00     0.004 A 
ATOM     85  C   UNL     1       9.440   0.991   2.021  1.00  0.00     0.000 A 
ATOM     86  C   UNL     1       8.232  -0.208   3.724  1.00  0.00     0.000 A 
ATOM     87  C   UNL     1       8.733  -0.138   2.428  1.00  0.00     0.000 A 
ENDBRANCH  81  82
ENDBRANCH  80  81
BRANCH  80  88
ATOM     88  N   UNL     1       9.471   5.112   3.580  1.00  0.00    -0.270 NA
ATOM     89  C   UNL     1       9.041   5.540   2.458  1.00  0.00     0.109 C 
ATOM     90  C   UNL     1       7.625   5.603   1.962  1.00  0.00     0.209 C 
ATOM     91  C   UNL     1      10.044   5.877   1.388  1.00  0.00     0.205 C 
ATOM     92  O   UNL     1       6.754   6.182   2.581  1.00  0.00    -0.287 OA
ATOM     93  C   UNL     1       7.379   4.954   0.656  1.00  0.00     0.035 A 
ATOM     94  C   UNL     1       9.843   5.020   0.162  1.00  0.00     0.187 C 
ATOM     95  Cl  UNL     1       9.878   7.584   0.923  1.00  0.00    -0.107 Cl
ATOM     96  C   UNL     1       6.068   4.662   0.264  1.00  0.00     0.013 A 
ATOM     97  C   UNL     1       8.451   4.621  -0.179  1.00  0.00     0.031 A 
ATOM     98  O   UNL     1      10.769   4.675  -0.567  1.00  0.00    -0.292 OA
ATOM     99  C   UNL     1       5.833   3.987  -0.935  1.00  0.00     0.001 A 
ATOM    100  C   UNL     1       8.209   3.942  -1.381  1.00  0.00     0.012 A 
ATOM    101  C   UNL     1       6.903   3.618  -1.750  1.00  0.00     0.001 A 
ENDBRANCH  80  88
ENDBRANCH  77  80
ENDBRANCH  75  76
ENDBRANCH  74  75
ENDBRANCH  73  74
ENDBRANCH   1  73
TORSDOF 16
