REMARK SMILES O=C(CCN1C(=O)[C@@H]2[C@@H](C1=O)[C@H]1c3ccccc3[C@]2(Br)c2ccccc21)NCCCCCCNC(=O)c1ccc(-c2c3nc(c(-c4c(F)c(F)c(F)c(F)c4F)c4ccc([nH]4)c(-c4c(F)c(F)c(F)c(F)c4F)c4nc(c(-c5c(F)c(F)c(F)c(F)c5F)c5ccc2[nH]5)C=C4)C=C3)cc1
REMARK SMILES IDX 30 1 29 2 28 3 27 4 1 5 2 6 3 8 4 9 5 10 6 11 10 12 7 13
REMARK SMILES IDX 8 14 9 15 11 16 19 17 12 18 21 19 20 20 18 21 26 22 13 23
REMARK SMILES IDX 22 24 17 25 25 26 14 27 23 28 16 29 24 30 15 31 31 32 32 33
REMARK SMILES IDX 33 34 34 35 35 36 36 38 37 39 38 40 99 41 39 42 98 43 40 44
REMARK SMILES IDX 41 45 42 46 92 47 43 48 97 49 91 50 93 51 44 52 96 53 90 54
REMARK SMILES IDX 89 55 45 57 77 58 57 59 76 60 58 61 61 62 75 63 94 64 59 65
REMARK SMILES IDX 60 66 74 68 95 69 62 70 46 71 47 72 55 73 48 74 49 75 53 76
REMARK SMILES IDX 56 77 50 78 51 79 54 80 52 81 78 82 79 83 87 84 80 85 81 86
REMARK SMILES IDX 85 87 88 88 82 89 83 90 86 91 84 92 63 93 64 94 72 95 65 96
REMARK SMILES IDX 66 97 70 98 73 99 67 100 68 101 71 102 69 103
REMARK H PARENT 27 7 34 37 93 56 61 67
REMARK Flexibility Score: inf
ROOT
ATOM      1  C   UNL     1       2.794   2.531   2.971  1.00  0.00     0.002 C 
ENDROOT
BRANCH   1   2
ATOM      2  C   UNL     1       1.380   2.087   2.598  1.00  0.00     0.021 C 
BRANCH   2   3
ATOM      3  C   UNL     1       1.208   1.750   1.117  1.00  0.00     0.116 C 
BRANCH   3   4
ATOM      4  N   UNL     1       2.100   0.691   0.693  1.00  0.00    -0.356 N 
ATOM      5  O   UNL     1       0.943   0.146  -1.209  1.00  0.00    -0.275 OA
ATOM      6  C   UNL     1       1.900  -0.020  -0.461  1.00  0.00     0.221 C 
ATOM      7  H   UNL     1       2.879   0.473   1.255  1.00  0.00     0.163 HD
BRANCH   6   8
ATOM      8  C   UNL     1       2.995  -1.017  -0.756  1.00  0.00     0.122 C 
BRANCH   8   9
ATOM      9  C   UNL     1       4.084  -0.399  -1.624  1.00  0.00     0.138 C 
BRANCH   9  10
ATOM     10  N   UNL     1       5.064   0.499  -1.011  1.00  0.00    -0.281 N 
ATOM     11  C   UNL     1       5.377   0.669   0.341  1.00  0.00     0.235 C 
ATOM     12  C   UNL     1       5.895   1.274  -1.824  1.00  0.00     0.234 C 
ATOM     13  O   UNL     1       4.953   0.043   1.294  1.00  0.00    -0.274 OA
ATOM     14  C   UNL     1       6.156   1.956   0.369  1.00  0.00     0.118 C 
ATOM     15  C   UNL     1       6.979   1.739  -0.908  1.00  0.00     0.105 C 
ATOM     16  O   UNL     1       5.851   1.428  -3.025  1.00  0.00    -0.274 OA
ATOM     17  C   UNL     1       7.033   2.743   1.377  1.00  0.00     0.088 C 
ATOM     18  C   UNL     1       7.902   2.936  -1.136  1.00  0.00     0.063 C 
ATOM     19  C   UNL     1       6.854   4.181   0.756  1.00  0.00    -0.022 A 
ATOM     20  Br  UNL     1       6.419   2.533   3.187  1.00  0.00    -0.074 Br
ATOM     21  C   UNL     1       8.540   2.466   1.232  1.00  0.00    -0.022 A 
ATOM     22  C   UNL     1       7.215   4.210  -0.639  1.00  0.00    -0.035 A 
ATOM     23  C   UNL     1       9.019   2.653  -0.104  1.00  0.00    -0.035 A 
ATOM     24  C   UNL     1       6.321   5.326   1.332  1.00  0.00     0.006 A 
ATOM     25  C   UNL     1       9.459   2.248   2.260  1.00  0.00     0.006 A 
ATOM     26  C   UNL     1       6.939   5.313  -1.436  1.00  0.00     0.005 A 
ATOM     27  C   UNL     1      10.380   2.644  -0.384  1.00  0.00     0.005 A 
ATOM     28  C   UNL     1       6.044   6.434   0.522  1.00  0.00     0.000 A 
ATOM     29  C   UNL     1      10.824   2.232   1.970  1.00  0.00     0.000 A 
ATOM     30  C   UNL     1       6.330   6.419  -0.850  1.00  0.00     0.000 A 
ATOM     31  C   UNL     1      11.279   2.437   0.664  1.00  0.00     0.000 A 
ENDBRANCH   9  10
ENDBRANCH   8   9
ENDBRANCH   6   8
ENDBRANCH   3   4
ENDBRANCH   2   3
ENDBRANCH   1   2
BRANCH   1  32
ATOM     32  C   UNL     1       3.208   3.872   2.367  1.00  0.00     0.002 C 
BRANCH  32  33
ATOM     33  C   UNL     1       2.894   5.093   3.215  1.00  0.00     0.021 C 
BRANCH  33  34
ATOM     34  C   UNL     1       3.448   5.090   4.636  1.00  0.00     0.116 C 
BRANCH  34  35
ATOM     35  N   UNL     1       4.899   5.222   4.750  1.00  0.00    -0.352 N 
ATOM     36  C   UNL     1       5.650   6.163   5.430  1.00  0.00     0.251 C 
ATOM     37  H   UNL     1       5.420   4.537   4.272  1.00  0.00     0.163 HD
ATOM     38  O   UNL     1       6.873   6.174   5.347  1.00  0.00    -0.269 OA
BRANCH  36  39
ATOM     39  C   UNL     1       4.951   7.199   6.221  1.00  0.00     0.039 A 
ATOM     40  C   UNL     1       3.872   6.835   7.020  1.00  0.00     0.014 A 
ATOM     41  C   UNL     1       5.284   8.546   6.061  1.00  0.00     0.014 A 
ATOM     42  C   UNL     1       2.951   7.804   7.385  1.00  0.00     0.010 A 
ATOM     43  C   UNL     1       4.432   9.530   6.575  1.00  0.00     0.010 A 
ATOM     44  C   UNL     1       3.210   9.167   7.161  1.00  0.00    -0.014 A 
BRANCH  44  45
ATOM     45  C   UNL     1       2.166  10.166   7.524  1.00  0.00     0.031 A 
ATOM     46  C   UNL     1       1.564  11.079   6.484  1.00  0.00     0.074 A 
ATOM     47  C   UNL     1       1.687  10.179   8.784  1.00  0.00     0.049 A 
ATOM     48  N   UNL     1       0.629  11.988   6.627  1.00  0.00    -0.248 NA
ATOM     49  C   UNL     1       2.073  10.968   5.108  1.00  0.00     0.031 C 
ATOM     50  C   UNL     1       2.167   9.326   9.873  1.00  0.00     0.029 A 
ATOM     51  N   UNL     1       0.668  10.898   9.354  1.00  0.00    -0.354 N 
ATOM     52  C   UNL     1       0.463  12.570   5.376  1.00  0.00     0.074 A 
ATOM     53  C   UNL     1       1.411  11.935   4.488  1.00  0.00     0.031 C 
ATOM     54  C   UNL     1       1.393   9.507  10.950  1.00  0.00     0.029 A 
ATOM     55  C   UNL     1       0.427  10.561  10.663  1.00  0.00     0.049 A 
ATOM     56  H   UNL     1       0.158  11.589   8.872  1.00  0.00     0.167 HD
ATOM     57  C   UNL     1      -0.410  13.536   5.001  1.00  0.00     0.037 A 
ATOM     58  C   UNL     1      -0.456  11.056  11.550  1.00  0.00     0.037 A 
ATOM     59  C   UNL     1      -1.378  14.140   5.881  1.00  0.00     0.049 A 
ATOM     60  C   UNL     1      -1.374  12.163  11.121  1.00  0.00     0.074 A 
ATOM     61  C   UNL     1      -2.316  15.115   5.590  1.00  0.00     0.029 A 
ATOM     62  N   UNL     1      -1.536  13.823   7.222  1.00  0.00    -0.354 N 
ATOM     63  N   UNL     1      -1.509  12.711   9.939  1.00  0.00    -0.248 NA
ATOM     64  C   UNL     1      -2.250  12.732  12.153  1.00  0.00     0.031 C 
ATOM     65  C   UNL     1      -3.007  15.424   6.764  1.00  0.00     0.029 A 
ATOM     66  C   UNL     1      -2.540  14.602   7.777  1.00  0.00     0.049 A 
ATOM     67  H   UNL     1      -1.013  13.145   7.708  1.00  0.00     0.167 HD
ATOM     68  C   UNL     1      -2.491  13.680  10.079  1.00  0.00     0.074 A 
ATOM     69  C   UNL     1      -2.935  13.629  11.457  1.00  0.00     0.031 C 
ATOM     70  C   UNL     1      -2.975  14.538   9.149  1.00  0.00     0.037 A 
BRANCH  57  71
ATOM     71  C   UNL     1      -0.367  14.018   3.577  1.00  0.00     0.064 A 
ATOM     72  C   UNL     1      -0.824  13.225   2.514  1.00  0.00     0.173 A 
ATOM     73  C   UNL     1       0.063  15.322   3.283  1.00  0.00     0.173 A 
ATOM     74  F   UNL     1      -1.237  11.969   2.738  1.00  0.00    -0.203 F 
ATOM     75  C   UNL     1      -0.839  13.714   1.209  1.00  0.00     0.198 A 
ATOM     76  C   UNL     1       0.019  15.818   1.982  1.00  0.00     0.198 A 
ATOM     77  F   UNL     1       0.502  16.127   4.262  1.00  0.00    -0.203 F 
ATOM     78  F   UNL     1      -1.249  12.927   0.205  1.00  0.00    -0.200 F 
ATOM     79  C   UNL     1      -0.428  15.012   0.946  1.00  0.00     0.200 A 
ATOM     80  F   UNL     1       0.400  17.078   1.732  1.00  0.00    -0.200 F 
ATOM     81  F   UNL     1      -0.461  15.487  -0.307  1.00  0.00    -0.200 F 
ENDBRANCH  57  71
BRANCH  58  82
ATOM     82  C   UNL     1      -0.494  10.505  12.929  1.00  0.00     0.064 A 
ATOM     83  C   UNL     1      -1.595   9.766  13.379  1.00  0.00     0.173 A 
ATOM     84  C   UNL     1       0.588  10.668  13.809  1.00  0.00     0.173 A 
ATOM     85  F   UNL     1      -2.661   9.599  12.582  1.00  0.00    -0.203 F 
ATOM     86  C   UNL     1      -1.613   9.210  14.657  1.00  0.00     0.198 A 
ATOM     87  C   UNL     1       0.583  10.083  15.072  1.00  0.00     0.198 A 
ATOM     88  F   UNL     1       1.668  11.363  13.424  1.00  0.00    -0.203 F 
ATOM     89  F   UNL     1      -2.690   8.531  15.074  1.00  0.00    -0.200 F 
ATOM     90  C   UNL     1      -0.520   9.359  15.498  1.00  0.00     0.200 A 
ATOM     91  F   UNL     1       1.651  10.211  15.871  1.00  0.00    -0.200 F 
ATOM     92  F   UNL     1      -0.529   8.805  16.717  1.00  0.00    -0.200 F 
ENDBRANCH  58  82
BRANCH  70  93
ATOM     93  C   UNL     1      -4.057  15.485   9.578  1.00  0.00     0.064 A 
ATOM     94  C   UNL     1      -3.783  16.581  10.408  1.00  0.00     0.173 A 
ATOM     95  C   UNL     1      -5.365  15.335   9.094  1.00  0.00     0.173 A 
ATOM     96  F   UNL     1      -2.551  16.758  10.909  1.00  0.00    -0.203 F 
ATOM     97  C   UNL     1      -4.785  17.485  10.750  1.00  0.00     0.198 A 
ATOM     98  C   UNL     1      -6.356  16.258   9.413  1.00  0.00     0.198 A 
ATOM     99  F   UNL     1      -5.676  14.306   8.290  1.00  0.00    -0.203 F 
ATOM    100  F   UNL     1      -4.510  18.506  11.574  1.00  0.00    -0.200 F 
ATOM    101  C   UNL     1      -6.066  17.330  10.244  1.00  0.00     0.200 A 
ATOM    102  F   UNL     1      -7.590  16.115   8.910  1.00  0.00    -0.200 F 
ATOM    103  F   UNL     1      -7.024  18.212  10.559  1.00  0.00    -0.200 F 
ENDBRANCH  70  93
ENDBRANCH  44  45
ENDBRANCH  36  39
ENDBRANCH  34  35
ENDBRANCH  33  34
ENDBRANCH  32  33
ENDBRANCH   1  32
TORSDOF 15
