REMARK SMILES COc1ccc(F)cc1-c1cc(C(=O)NCCCCCCNC(=O)c2ccc(-c3c4nc(c(-c5c(F)c(F)c(F)c(F)c5F)c5ccc([nH]5)c(-c5c(F)c(F)c(F)c(F)c5F)c5nc(c(-c6c(F)c(F)c(F)c(F)c6F)c6ccc3[nH]6)C=C5)C=C4)cc2)n(C)n1
REMARK SMILES IDX 18 1 17 2 16 3 15 4 13 5 14 6 12 8 10 9 11 10 90 11 88 12
REMARK SMILES IDX 89 13 9 14 3 15 4 16 5 17 8 18 6 19 7 20 2 21 1 22 19 23
REMARK SMILES IDX 20 24 21 25 22 26 23 27 24 29 25 30 26 31 87 32 27 33 86 34
REMARK SMILES IDX 28 35 29 36 30 37 80 38 31 39 85 40 79 41 81 42 32 43 84 44
REMARK SMILES IDX 78 45 77 46 33 48 65 49 45 50 64 51 46 52 49 53 63 54 82 55
REMARK SMILES IDX 47 56 48 57 62 59 83 60 50 61 34 62 35 63 43 64 36 65 37 66
REMARK SMILES IDX 41 67 44 68 38 69 39 70 42 71 40 72 66 73 67 74 75 75 68 76
REMARK SMILES IDX 69 77 73 78 76 79 70 80 71 81 74 82 72 83 51 84 52 85 60 86
REMARK SMILES IDX 53 87 54 88 58 89 61 90 55 91 56 92 59 93 57 94
REMARK H PARENT 15 7 22 28 81 47 49 58
REMARK Flexibility Score: inf
ROOT
ATOM      1  C   UNL     1      -7.913   3.265  -0.602  1.00  0.00     0.002 C 
ENDROOT
BRANCH   1   2
ATOM      2  C   UNL     1      -6.595   3.684   0.060  1.00  0.00     0.021 C 
BRANCH   2   3
ATOM      3  C   UNL     1      -6.277   2.903   1.338  1.00  0.00     0.116 C 
BRANCH   3   4
ATOM      4  N   UNL     1      -5.650   1.654   0.986  1.00  0.00    -0.351 N 
ATOM      5  C   UNL     1      -4.366   1.193   1.009  1.00  0.00     0.269 C 
ATOM      6  O   UNL     1      -4.239   0.051   0.556  1.00  0.00    -0.268 OA
ATOM      7  H   UNL     1      -6.291   0.983   0.656  1.00  0.00     0.163 HD
BRANCH   5   8
ATOM      8  C   UNL     1      -3.236   1.893   1.580  1.00  0.00     0.126 A 
ATOM      9  C   UNL     1      -1.181   2.197   2.456  1.00  0.00     0.097 A 
ATOM     10  C   UNL     1      -2.079   1.228   1.973  1.00  0.00     0.064 A 
ATOM     11  N   UNL     1      -1.765   3.398   2.469  1.00  0.00    -0.172 NA
ATOM     12  N   UNL     1      -2.907   3.216   1.768  1.00  0.00    -0.262 N 
ATOM     13  C   UNL     1      -3.450   4.410   1.168  1.00  0.00     0.174 C 
BRANCH   9  14
ATOM     14  C   UNL     1       0.193   1.995   2.884  1.00  0.00     0.047 A 
ATOM     15  C   UNL     1       1.150   1.449   2.004  1.00  0.00     0.128 A 
ATOM     16  C   UNL     1       2.468   1.264   2.436  1.00  0.00     0.050 A 
ATOM     17  C   UNL     1       2.823   1.596   3.745  1.00  0.00     0.043 A 
ATOM     18  C   UNL     1       0.562   2.336   4.190  1.00  0.00     0.053 A 
ATOM     19  C   UNL     1       1.870   2.127   4.607  1.00  0.00     0.124 A 
ATOM     20  F   UNL     1       2.223   2.448   5.858  1.00  0.00    -0.207 F 
BRANCH  15  21
ATOM     21  O   UNL     1       0.772   1.219   0.704  1.00  0.00    -0.496 OA
ATOM     22  C   UNL     1       1.234  -0.011   0.157  1.00  0.00     0.278 C 
ENDBRANCH  15  21
ENDBRANCH   9  14
ENDBRANCH   5   8
ENDBRANCH   3   4
ENDBRANCH   2   3
ENDBRANCH   1   2
BRANCH   1  23
ATOM     23  C   UNL     1      -9.171   3.622   0.196  1.00  0.00     0.002 C 
BRANCH  23  24
ATOM     24  C   UNL     1      -9.288   5.096   0.594  1.00  0.00     0.021 C 
BRANCH  24  25
ATOM     25  C   UNL     1      -9.265   6.072  -0.580  1.00  0.00     0.116 C 
BRANCH  25  26
ATOM     26  N   UNL     1     -10.424   5.901  -1.440  1.00  0.00    -0.352 N 
ATOM     27  C   UNL     1     -11.388   6.810  -1.785  1.00  0.00     0.251 C 
ATOM     28  H   UNL     1     -10.530   5.004  -1.832  1.00  0.00     0.163 HD
ATOM     29  O   UNL     1     -12.427   6.433  -2.326  1.00  0.00    -0.269 OA
BRANCH  27  30
ATOM     30  C   UNL     1     -11.189   8.248  -1.509  1.00  0.00     0.039 A 
ATOM     31  C   UNL     1     -12.258   8.995  -1.007  1.00  0.00     0.014 A 
ATOM     32  C   UNL     1      -9.968   8.869  -1.790  1.00  0.00     0.014 A 
ATOM     33  C   UNL     1     -12.093  10.358  -0.754  1.00  0.00     0.010 A 
ATOM     34  C   UNL     1      -9.785  10.214  -1.478  1.00  0.00     0.010 A 
ATOM     35  C   UNL     1     -10.850  10.974  -0.972  1.00  0.00    -0.014 A 
BRANCH  35  36
ATOM     36  C   UNL     1     -10.658  12.422  -0.711  1.00  0.00     0.031 A 
ATOM     37  C   UNL     1     -10.386  13.362  -1.853  1.00  0.00     0.074 A 
ATOM     38  C   UNL     1     -10.686  12.883   0.554  1.00  0.00     0.049 A 
ATOM     39  N   UNL     1     -10.126  14.644  -1.825  1.00  0.00    -0.248 NA
ATOM     40  C   UNL     1     -10.382  12.779  -3.204  1.00  0.00     0.031 C 
ATOM     41  C   UNL     1     -10.909  12.064   1.746  1.00  0.00     0.029 A 
ATOM     42  N   UNL     1     -10.522  14.153   1.048  1.00  0.00    -0.354 N 
ATOM     43  C   UNL     1      -9.915  15.016  -3.146  1.00  0.00     0.074 A 
ATOM     44  C   UNL     1     -10.030  13.818  -3.948  1.00  0.00     0.031 C 
ATOM     45  C   UNL     1     -10.892  12.855   2.831  1.00  0.00     0.029 A 
ATOM     46  C   UNL     1     -10.624  14.229   2.416  1.00  0.00     0.049 A 
ATOM     47  H   UNL     1     -10.347  14.935   0.477  1.00  0.00     0.167 HD
ATOM     48  C   UNL     1      -9.672  16.250  -3.646  1.00  0.00     0.037 A 
ATOM     49  C   UNL     1     -10.513  15.289   3.241  1.00  0.00     0.037 A 
ATOM     50  C   UNL     1      -9.597  17.445  -2.849  1.00  0.00     0.049 A 
ATOM     51  C   UNL     1     -10.251  16.651   2.658  1.00  0.00     0.074 A 
ATOM     52  C   UNL     1      -9.399  18.749  -3.269  1.00  0.00     0.029 A 
ATOM     53  N   UNL     1      -9.726  17.483  -1.469  1.00  0.00    -0.354 N 
ATOM     54  N   UNL     1     -10.093  16.995   1.403  1.00  0.00    -0.248 NA
ATOM     55  C   UNL     1     -10.158  17.773   3.603  1.00  0.00     0.031 C 
ATOM     56  C   UNL     1      -9.374  19.572  -2.140  1.00  0.00     0.029 A 
ATOM     57  C   UNL     1      -9.602  18.788  -1.021  1.00  0.00     0.049 A 
ATOM     58  H   UNL     1      -9.882  16.700  -0.893  1.00  0.00     0.167 HD
ATOM     59  C   UNL     1      -9.911  18.371   1.405  1.00  0.00     0.074 A 
ATOM     60  C   UNL     1      -9.987  18.802   2.785  1.00  0.00     0.031 C 
ATOM     61  C   UNL     1      -9.700  19.201   0.355  1.00  0.00     0.037 A 
BRANCH  48  62
ATOM     62  C   UNL     1      -9.489  16.384  -5.128  1.00  0.00     0.064 A 
ATOM     63  C   UNL     1      -8.235  16.714  -5.665  1.00  0.00     0.173 A 
ATOM     64  C   UNL     1     -10.571  16.262  -6.012  1.00  0.00     0.173 A 
ATOM     65  F   UNL     1      -7.169  16.848  -4.861  1.00  0.00    -0.203 F 
ATOM     66  C   UNL     1      -8.076  16.932  -7.031  1.00  0.00     0.198 A 
ATOM     67  C   UNL     1     -10.402  16.454  -7.381  1.00  0.00     0.198 A 
ATOM     68  F   UNL     1     -11.787  15.935  -5.550  1.00  0.00    -0.203 F 
ATOM     69  F   UNL     1      -6.876  17.279  -7.517  1.00  0.00    -0.200 F 
ATOM     70  C   UNL     1      -9.158  16.799  -7.887  1.00  0.00     0.200 A 
ATOM     71  F   UNL     1     -11.444  16.302  -8.210  1.00  0.00    -0.200 F 
ATOM     72  F   UNL     1      -9.002  17.002  -9.203  1.00  0.00    -0.200 F 
ENDBRANCH  48  62
BRANCH  49  73
ATOM     73  C   UNL     1     -10.691  15.104   4.704  1.00  0.00     0.064 A 
ATOM     74  C   UNL     1      -9.739  14.422   5.476  1.00  0.00     0.173 A 
ATOM     75  C   UNL     1     -11.832  15.591   5.354  1.00  0.00     0.173 A 
ATOM     76  F   UNL     1      -8.632  13.932   4.900  1.00  0.00    -0.203 F 
ATOM     77  C   UNL     1      -9.931  14.223   6.842  1.00  0.00     0.198 A 
ATOM     78  C   UNL     1     -12.011  15.414   6.724  1.00  0.00     0.198 A 
ATOM     79  F   UNL     1     -12.761  16.266   4.660  1.00  0.00    -0.203 F 
ATOM     80  F   UNL     1      -9.021  13.543   7.552  1.00  0.00    -0.200 F 
ATOM     81  C   UNL     1     -11.064  14.724   7.466  1.00  0.00     0.200 A 
ATOM     82  F   UNL     1     -13.096  15.919   7.327  1.00  0.00    -0.200 F 
ATOM     83  F   UNL     1     -11.241  14.544   8.782  1.00  0.00    -0.200 F 
ENDBRANCH  49  73
BRANCH  61  84
ATOM     84  C   UNL     1      -9.570  20.668   0.641  1.00  0.00     0.064 A 
ATOM     85  C   UNL     1     -10.583  21.557   0.252  1.00  0.00     0.173 A 
ATOM     86  C   UNL     1      -8.410  21.202   1.219  1.00  0.00     0.173 A 
ATOM     87  F   UNL     1     -11.708  21.094  -0.314  1.00  0.00    -0.203 F 
ATOM     88  C   UNL     1     -10.432  22.930   0.416  1.00  0.00     0.198 A 
ATOM     89  C   UNL     1      -8.273  22.575   1.406  1.00  0.00     0.198 A 
ATOM     90  F   UNL     1      -7.419  20.390   1.617  1.00  0.00    -0.203 F 
ATOM     91  F   UNL     1     -11.397  23.764   0.005  1.00  0.00    -0.200 F 
ATOM     92  C   UNL     1      -9.279  23.438   0.995  1.00  0.00     0.200 A 
ATOM     93  F   UNL     1      -7.168  23.063   1.985  1.00  0.00    -0.200 F 
ATOM     94  F   UNL     1      -9.136  24.760   1.159  1.00  0.00    -0.200 F 
ENDBRANCH  61  84
ENDBRANCH  35  36
ENDBRANCH  27  30
ENDBRANCH  25  26
ENDBRANCH  24  25
ENDBRANCH  23  24
ENDBRANCH   1  23
TORSDOF 15
