REMARK SMILES C=C(C)[C@@H]1CC=C(CN2C[C@@]34C=C[C@@H](O3)[C@H](C(=O)NCCCCCCNC(=O)c3ccc(-c5c6nc(c(-c7c(F)c(F)c(F)c(F)c7F)c7ccc([nH]7)c(-c7c(F)c(F)c(F)c(F)c7F)c7nc(c(-c8c(F)c(F)c(F)c(F)c8F)c8ccc5[nH]8)C=C7)C=C6)cc3)[C@@H]4C2=O)CC1
REMARK SMILES IDX 22 1 21 2 20 3 19 4 17 5 18 6 16 8 9 9 10 10 93 11 11 12
REMARK SMILES IDX 92 13 94 14 12 15 15 16 13 17 14 18 8 19 7 20 4 21 5 22
REMARK SMILES IDX 96 23 6 24 95 25 2 26 1 27 3 28 23 29 24 30 25 31 26 32
REMARK SMILES IDX 27 33 28 35 29 36 30 37 91 38 31 39 90 40 32 41 33 42 34 43
REMARK SMILES IDX 84 44 35 45 89 46 83 47 85 48 36 49 88 50 82 51 81 52 37 54
REMARK SMILES IDX 69 55 49 56 68 57 50 58 53 59 67 60 86 61 51 62 52 63 66 65
REMARK SMILES IDX 87 66 54 67 38 68 39 69 47 70 40 71 41 72 45 73 48 74 42 75
REMARK SMILES IDX 43 76 46 77 44 78 70 79 71 80 79 81 72 82 73 83 77 84 80 85
REMARK SMILES IDX 74 86 75 87 78 88 76 89 55 90 56 91 64 92 57 93 58 94 62 95
REMARK SMILES IDX 65 96 59 97 60 98 63 99 61 100
REMARK H PARENT 19 7 26 34 85 53 53 64
REMARK Flexibility Score: inf
ROOT
ATOM      1  C   UNL     1      -5.066  -1.730   1.079  1.00  0.00     0.002 C 
ENDROOT
BRANCH   1   2
ATOM      2  C   UNL     1      -5.134  -2.232   2.537  1.00  0.00     0.021 C 
BRANCH   2   3
ATOM      3  C   UNL     1      -3.890  -1.949   3.394  1.00  0.00     0.116 C 
BRANCH   3   4
ATOM      4  N   UNL     1      -3.643  -0.526   3.441  1.00  0.00    -0.356 N 
ATOM      5  C   UNL     1      -3.972   0.322   4.442  1.00  0.00     0.227 C 
ATOM      6  O   UNL     1      -4.628   1.321   4.129  1.00  0.00    -0.275 OA
ATOM      7  H   UNL     1      -3.188  -0.133   2.662  1.00  0.00     0.163 HD
BRANCH   5   8
ATOM      8  C   UNL     1      -3.281   0.256   5.786  1.00  0.00     0.127 C 
ATOM      9  N   UNL     1       0.344  -0.632   5.886  1.00  0.00    -0.335 N 
ATOM     10  C   UNL     1       0.045   0.014   7.186  1.00  0.00     0.160 C 
ATOM     11  C   UNL     1      -0.844  -0.902   5.155  1.00  0.00     0.230 C 
ATOM     12  C   UNL     1      -1.465  -0.215   7.261  1.00  0.00     0.117 C 
ATOM     13  C   UNL     1      -1.797   0.065   5.786  1.00  0.00     0.132 C 
ATOM     14  O   UNL     1      -0.974  -1.597   4.183  1.00  0.00    -0.274 OA
ATOM     15  C   UNL     1      -1.959  -1.569   7.709  1.00  0.00     0.009 C 
ATOM     16  O   UNL     1      -2.475   0.586   7.890  1.00  0.00    -0.360 OA
ATOM     17  C   UNL     1      -3.296  -1.521   7.636  1.00  0.00     0.004 C 
ATOM     18  C   UNL     1      -3.655  -0.127   7.214  1.00  0.00     0.155 C 
BRANCH   9  19
ATOM     19  C   UNL     1       1.610  -0.582   5.181  1.00  0.00     0.150 C 
BRANCH  19  20
ATOM     20  C   UNL     1       1.539   0.442   4.049  1.00  0.00    -0.055 C 
ATOM     21  C   UNL     1       1.243   2.107   1.622  1.00  0.00     0.018 C 
ATOM     22  C   UNL     1       0.652   2.556   2.972  1.00  0.00     0.035 C 
ATOM     23  C   UNL     1       2.473   1.206   1.822  1.00  0.00     0.013 C 
ATOM     24  C   UNL     1       0.893   1.623   4.122  1.00  0.00    -0.025 C 
ATOM     25  C   UNL     1       2.166   0.017   2.741  1.00  0.00     0.033 C 
BRANCH  21  26
ATOM     26  C   UNL     1       1.522   3.330   0.750  1.00  0.00    -0.077 C 
ATOM     27  C   UNL     1       0.658   3.727  -0.200  1.00  0.00     0.008 C 
ATOM     28  C   UNL     1       2.776   4.119   1.025  1.00  0.00     0.039 C 
ENDBRANCH  21  26
ENDBRANCH  19  20
ENDBRANCH   9  19
ENDBRANCH   5   8
ENDBRANCH   3   4
ENDBRANCH   2   3
ENDBRANCH   1   2
BRANCH   1  29
ATOM     29  C   UNL     1      -3.894  -2.248   0.238  1.00  0.00     0.002 C 
BRANCH  29  30
ATOM     30  C   UNL     1      -3.744  -3.768   0.197  1.00  0.00     0.021 C 
BRANCH  30  31
ATOM     31  C   UNL     1      -4.987  -4.523  -0.257  1.00  0.00     0.116 C 
BRANCH  31  32
ATOM     32  N   UNL     1      -5.315  -4.286  -1.653  1.00  0.00    -0.352 N 
ATOM     33  C   UNL     1      -5.625  -5.201  -2.631  1.00  0.00     0.251 C 
ATOM     34  H   UNL     1      -5.316  -3.343  -1.936  1.00  0.00     0.163 HD
ATOM     35  O   UNL     1      -5.740  -4.850  -3.801  1.00  0.00    -0.269 OA
BRANCH  33  36
ATOM     36  C   UNL     1      -5.789  -6.627  -2.272  1.00  0.00     0.039 A 
ATOM     37  C   UNL     1      -5.149  -7.596  -3.049  1.00  0.00     0.014 A 
ATOM     38  C   UNL     1      -6.557  -7.006  -1.167  1.00  0.00     0.014 A 
ATOM     39  C   UNL     1      -5.229  -8.941  -2.681  1.00  0.00     0.010 A 
ATOM     40  C   UNL     1      -6.575  -8.337  -0.760  1.00  0.00     0.010 A 
ATOM     41  C   UNL     1      -5.914  -9.319  -1.514  1.00  0.00    -0.014 A 
BRANCH  41  42
ATOM     42  C   UNL     1      -5.955 -10.736  -1.072  1.00  0.00     0.031 A 
ATOM     43  C   UNL     1      -7.265 -11.473  -1.027  1.00  0.00     0.074 A 
ATOM     44  C   UNL     1      -4.825 -11.341  -0.657  1.00  0.00     0.049 A 
ATOM     45  N   UNL     1      -7.519 -12.687  -0.607  1.00  0.00    -0.248 NA
ATOM     46  C   UNL     1      -8.451 -10.739  -1.494  1.00  0.00     0.031 C 
ATOM     47  C   UNL     1      -3.501 -10.720  -0.613  1.00  0.00     0.029 A 
ATOM     48  N   UNL     1      -4.612 -12.612  -0.183  1.00  0.00    -0.354 N 
ATOM     49  C   UNL     1      -8.890 -12.857  -0.753  1.00  0.00     0.074 A 
ATOM     50  C   UNL     1      -9.422 -11.605  -1.243  1.00  0.00     0.031 C 
ATOM     51  C   UNL     1      -2.610 -11.617  -0.159  1.00  0.00     0.029 A 
ATOM     52  C   UNL     1      -3.304 -12.861   0.157  1.00  0.00     0.049 A 
ATOM     53  H   UNL     1      -5.329 -13.281  -0.095  1.00  0.00     0.167 HD
ATOM     54  C   UNL     1      -9.633 -13.967  -0.526  1.00  0.00     0.037 A 
ATOM     55  C   UNL     1      -2.733 -13.966   0.672  1.00  0.00     0.037 A 
ATOM     56  C   UNL     1      -9.099 -15.217  -0.054  1.00  0.00     0.049 A 
ATOM     57  C   UNL     1      -3.587 -15.179   0.936  1.00  0.00     0.074 A 
ATOM     58  C   UNL     1      -9.763 -16.410   0.172  1.00  0.00     0.029 A 
ATOM     59  N   UNL     1      -7.766 -15.435   0.265  1.00  0.00    -0.354 N 
ATOM     60  N   UNL     1      -4.872 -15.347   0.737  1.00  0.00    -0.248 NA
ATOM     61  C   UNL     1      -2.907 -16.358   1.490  1.00  0.00     0.031 C 
ATOM     62  C   UNL     1      -8.841 -17.338   0.666  1.00  0.00     0.029 A 
ATOM     63  C   UNL     1      -7.592 -16.739   0.701  1.00  0.00     0.049 A 
ATOM     64  H   UNL     1      -7.051 -14.763   0.191  1.00  0.00     0.167 HD
ATOM     65  C   UNL     1      -5.148 -16.655   1.110  1.00  0.00     0.074 A 
ATOM     66  C   UNL     1      -3.893 -17.243   1.532  1.00  0.00     0.031 C 
ATOM     67  C   UNL     1      -6.333 -17.312   1.104  1.00  0.00     0.037 A 
BRANCH  54  68
ATOM     68  C   UNL     1     -11.108 -13.880  -0.796  1.00  0.00     0.064 A 
ATOM     69  C   UNL     1     -11.607 -13.775  -2.104  1.00  0.00     0.173 A 
ATOM     70  C   UNL     1     -12.033 -13.938   0.256  1.00  0.00     0.173 A 
ATOM     71  F   UNL     1     -10.764 -13.704  -3.145  1.00  0.00    -0.203 F 
ATOM     72  C   UNL     1     -12.977 -13.703  -2.345  1.00  0.00     0.198 A 
ATOM     73  C   UNL     1     -13.403 -13.896   0.009  1.00  0.00     0.198 A 
ATOM     74  F   UNL     1     -11.610 -14.044   1.525  1.00  0.00    -0.203 F 
ATOM     75  F   UNL     1     -13.428 -13.553  -3.598  1.00  0.00    -0.200 F 
ATOM     76  C   UNL     1     -13.873 -13.771  -1.289  1.00  0.00     0.200 A 
ATOM     77  F   UNL     1     -14.269 -13.976   1.029  1.00  0.00    -0.200 F 
ATOM     78  F   UNL     1     -15.192 -13.709  -1.523  1.00  0.00    -0.200 F 
ENDBRANCH  54  68
BRANCH  55  79
ATOM     79  C   UNL     1      -1.274 -13.991   0.957  1.00  0.00     0.064 A 
ATOM     80  C   UNL     1      -0.408 -14.800   0.208  1.00  0.00     0.173 A 
ATOM     81  C   UNL     1      -0.719 -13.226   1.993  1.00  0.00     0.173 A 
ATOM     82  F   UNL     1      -0.895 -15.567  -0.778  1.00  0.00    -0.203 F 
ATOM     83  C   UNL     1       0.952 -14.865   0.502  1.00  0.00     0.198 A 
ATOM     84  C   UNL     1       0.647 -13.268   2.266  1.00  0.00     0.198 A 
ATOM     85  F   UNL     1      -1.503 -12.431   2.737  1.00  0.00    -0.203 F 
ATOM     86  F   UNL     1       1.747 -15.689  -0.194  1.00  0.00    -0.200 F 
ATOM     87  C   UNL     1       1.479 -14.095   1.528  1.00  0.00     0.200 A 
ATOM     88  F   UNL     1       1.155 -12.512   3.249  1.00  0.00    -0.200 F 
ATOM     89  F   UNL     1       2.787 -14.159   1.812  1.00  0.00    -0.200 F 
ENDBRANCH  55  79
BRANCH  67  90
ATOM     90  C   UNL     1      -6.324 -18.753   1.526  1.00  0.00     0.064 A 
ATOM     91  C   UNL     1      -6.134 -19.128   2.864  1.00  0.00     0.173 A 
ATOM     92  C   UNL     1      -6.546 -19.768   0.583  1.00  0.00     0.173 A 
ATOM     93  F   UNL     1      -5.903 -18.196   3.800  1.00  0.00    -0.203 F 
ATOM     94  C   UNL     1      -6.139 -20.469   3.237  1.00  0.00     0.198 A 
ATOM     95  C   UNL     1      -6.582 -21.106   0.966  1.00  0.00     0.198 A 
ATOM     96  F   UNL     1      -6.740 -19.462  -0.709  1.00  0.00    -0.203 F 
ATOM     97  F   UNL     1      -5.906 -20.808   4.513  1.00  0.00    -0.200 F 
ATOM     98  C   UNL     1      -6.370 -21.456   2.290  1.00  0.00     0.200 A 
ATOM     99  F   UNL     1      -6.819 -22.057   0.051  1.00  0.00    -0.200 F 
ATOM    100  F   UNL     1      -6.382 -22.746   2.654  1.00  0.00    -0.200 F 
ENDBRANCH  67  90
ENDBRANCH  41  42
ENDBRANCH  33  36
ENDBRANCH  31  32
ENDBRANCH  30  31
ENDBRANCH  29  30
ENDBRANCH   1  29
TORSDOF 16
