REMARK SMILES C[C@@H]1[C@H](C(=O)NCCCCCCNC(=O)c2ccc(-c3c4nc(c(-c5c(F)c(F)c(F)c(F)c5F)c5ccc([nH]5)c(-c5c(F)c(F)c(F)c(F)c5F)c5nc(c(-c6c(F)c(F)c(F)c(F)c6F)c6ccc3[nH]6)C=C5)C=C4)cc2)CC[N@@H+]1Cc1cnn(-c2ccccc2)c1
REMARK SMILES IDX 9 1 8 2 7 3 6 4 4 5 5 6 3 8 1 9 2 10 81 11 79 12 80 13 82 15
REMARK SMILES IDX 83 16 84 17 93 18 85 19 86 20 87 21 88 22 92 23 89 24 91 25
REMARK SMILES IDX 90 26 10 27 11 28 12 29 13 30 14 31 15 33 16 34 17 35 78 36
REMARK SMILES IDX 18 37 77 38 19 39 20 40 21 41 71 42 22 43 76 44 70 45 72 46
REMARK SMILES IDX 23 47 75 48 69 49 68 50 24 52 56 53 36 54 55 55 37 56 40 57
REMARK SMILES IDX 54 58 73 59 38 60 39 61 53 63 74 64 41 65 25 66 26 67 34 68
REMARK SMILES IDX 27 69 28 70 32 71 35 72 29 73 30 74 33 75 31 76 57 77 58 78
REMARK SMILES IDX 66 79 59 80 60 81 64 82 67 83 61 84 62 85 65 86 63 87 42 88
REMARK SMILES IDX 43 89 51 90 44 91 45 92 49 93 52 94 46 95 47 96 50 97 48 98
REMARK H PARENT 6 7 81 14 13 32 72 51 40 62
REMARK Flexibility Score: inf
ROOT
ATOM      1  C   UNL     1       3.652   2.860   3.086  1.00  0.00     0.002 C 
ENDROOT
BRANCH   1   2
ATOM      2  C   UNL     1       2.842   1.657   2.585  1.00  0.00     0.021 C 
BRANCH   2   3
ATOM      3  C   UNL     1       1.396   1.937   2.153  1.00  0.00     0.116 C 
BRANCH   3   4
ATOM      4  N   UNL     1       1.341   2.702   0.921  1.00  0.00    -0.356 N 
ATOM      5  C   UNL     1       0.792   2.462  -0.294  1.00  0.00     0.229 C 
ATOM      6  O   UNL     1       0.996   3.327  -1.157  1.00  0.00    -0.275 OA
ATOM      7  H   UNL     1       1.795   3.573   0.980  1.00  0.00     0.163 HD
BRANCH   5   8
ATOM      8  C   UNL     1      -0.039   1.241  -0.662  1.00  0.00     0.142 C 
ATOM      9  C   UNL     1       2.075  -0.283  -0.422  1.00  0.00     0.076 C 
ATOM     10  C   UNL     1       0.640  -0.121  -0.901  1.00  0.00     0.193 C 
ATOM     11  N   UNL     1      -0.357  -1.117  -0.482  1.00  0.00    -0.328 N 
ATOM     12  C   UNL     1      -1.270   0.948   0.183  1.00  0.00     0.081 C 
ATOM     13  C   UNL     1      -1.637  -0.462  -0.252  1.00  0.00     0.263 C 
ATOM     14  H   UNL     1      -0.410  -1.735  -1.291  1.00  0.00     0.348 HD
BRANCH  11  15
ATOM     15  C   UNL     1      -0.026  -2.272   0.332  1.00  0.00     0.302 C 
BRANCH  15  16
ATOM     16  C   UNL     1       0.157  -1.964   1.778  1.00  0.00     0.045 A 
ATOM     17  C   UNL     1      -0.826  -1.632   2.733  1.00  0.00     0.145 A 
ATOM     18  C   UNL     1       1.316  -2.032   2.527  1.00  0.00     0.124 A 
ATOM     19  N   UNL     1      -0.330  -1.450   3.953  1.00  0.00    -0.176 NA
ATOM     20  N   UNL     1       0.992  -1.711   3.825  1.00  0.00    -0.240 N 
BRANCH  20  21
ATOM     21  C   UNL     1       1.846  -1.651   4.953  1.00  0.00     0.065 A 
ATOM     22  C   UNL     1       1.271  -1.506   6.225  1.00  0.00     0.028 A 
ATOM     23  C   UNL     1       3.236  -1.756   4.817  1.00  0.00     0.028 A 
ATOM     24  C   UNL     1       2.071  -1.512   7.357  1.00  0.00     0.002 A 
ATOM     25  C   UNL     1       4.034  -1.756   5.957  1.00  0.00     0.002 A 
ATOM     26  C   UNL     1       3.444  -1.657   7.217  1.00  0.00     0.000 A 
ENDBRANCH  20  21
ENDBRANCH  15  16
ENDBRANCH  11  15
ENDBRANCH   5   8
ENDBRANCH   3   4
ENDBRANCH   2   3
ENDBRANCH   1   2
BRANCH   1  27
ATOM     27  C   UNL     1       3.189   3.497   4.400  1.00  0.00     0.002 C 
BRANCH  27  28
ATOM     28  C   UNL     1       3.075   2.567   5.616  1.00  0.00     0.021 C 
BRANCH  28  29
ATOM     29  C   UNL     1       4.356   1.853   6.067  1.00  0.00     0.116 C 
BRANCH  29  30
ATOM     30  N   UNL     1       5.355   2.746   6.629  1.00  0.00    -0.352 N 
ATOM     31  C   UNL     1       6.155   2.575   7.737  1.00  0.00     0.251 C 
ATOM     32  H   UNL     1       5.478   3.597   6.148  1.00  0.00     0.163 HD
ATOM     33  O   UNL     1       6.894   3.479   8.111  1.00  0.00    -0.269 OA
BRANCH  31  34
ATOM     34  C   UNL     1       6.125   1.310   8.510  1.00  0.00     0.039 A 
ATOM     35  C   UNL     1       5.806   1.349   9.870  1.00  0.00     0.014 A 
ATOM     36  C   UNL     1       6.475   0.094   7.927  1.00  0.00     0.014 A 
ATOM     37  C   UNL     1       5.767   0.164  10.624  1.00  0.00     0.010 A 
ATOM     38  C   UNL     1       6.395  -1.092   8.680  1.00  0.00     0.010 A 
ATOM     39  C   UNL     1       6.008  -1.091  10.035  1.00  0.00    -0.014 A 
BRANCH  39  40
ATOM     40  C   UNL     1       5.807  -2.369  10.817  1.00  0.00     0.031 A 
ATOM     41  C   UNL     1       6.875  -3.442  10.889  1.00  0.00     0.074 A 
ATOM     42  C   UNL     1       4.634  -2.624  11.445  1.00  0.00     0.049 A 
ATOM     43  N   UNL     1       6.859  -4.591  11.528  1.00  0.00    -0.248 NA
ATOM     44  C   UNL     1       8.100  -3.223  10.109  1.00  0.00     0.031 C 
ATOM     45  C   UNL     1       3.440  -1.778  11.405  1.00  0.00     0.029 A 
ATOM     46  N   UNL     1       4.251  -3.678  12.253  1.00  0.00    -0.354 N 
ATOM     47  C   UNL     1       8.049  -5.232  11.204  1.00  0.00     0.074 A 
ATOM     48  C   UNL     1       8.726  -4.383  10.247  1.00  0.00     0.031 C 
ATOM     49  C   UNL     1       2.491  -2.305  12.197  1.00  0.00     0.029 A 
ATOM     50  C   UNL     1       2.986  -3.548  12.783  1.00  0.00     0.049 A 
ATOM     51  H   UNL     1       4.831  -4.453  12.433  1.00  0.00     0.167 HD
ATOM     52  C   UNL     1       8.569  -6.391  11.682  1.00  0.00     0.037 A 
ATOM     53  C   UNL     1       2.299  -4.321  13.651  1.00  0.00     0.037 A 
ATOM     54  C   UNL     1       7.958  -7.227  12.683  1.00  0.00     0.049 A 
ATOM     55  C   UNL     1       2.915  -5.579  14.211  1.00  0.00     0.074 A 
ATOM     56  C   UNL     1       8.479  -8.356  13.296  1.00  0.00     0.029 A 
ATOM     57  N   UNL     1       6.699  -7.029  13.221  1.00  0.00    -0.354 N 
ATOM     58  N   UNL     1       4.096  -6.095  13.987  1.00  0.00    -0.248 NA
ATOM     59  C   UNL     1       2.096  -6.357  15.158  1.00  0.00     0.031 C 
ATOM     60  C   UNL     1       7.519  -8.863  14.178  1.00  0.00     0.029 A 
ATOM     61  C   UNL     1       6.419  -8.025  14.147  1.00  0.00     0.049 A 
ATOM     62  H   UNL     1       6.091  -6.292  12.983  1.00  0.00     0.167 HD
ATOM     63  C   UNL     1       4.175  -7.231  14.786  1.00  0.00     0.074 A 
ATOM     64  C   UNL     1       2.930  -7.323  15.514  1.00  0.00     0.031 C 
ATOM     65  C   UNL     1       5.194  -8.117  14.896  1.00  0.00     0.037 A 
BRANCH  52  66
ATOM     66  C   UNL     1       9.912  -6.813  11.155  1.00  0.00     0.064 A 
ATOM     67  C   UNL     1      11.079  -6.100  11.474  1.00  0.00     0.173 A 
ATOM     68  C   UNL     1      10.043  -7.961  10.360  1.00  0.00     0.173 A 
ATOM     69  F   UNL     1      11.007  -4.994  12.230  1.00  0.00    -0.203 F 
ATOM     70  C   UNL     1      12.318  -6.493  10.980  1.00  0.00     0.198 A 
ATOM     71  C   UNL     1      11.291  -8.373   9.896  1.00  0.00     0.198 A 
ATOM     72  F   UNL     1       8.964  -8.691  10.040  1.00  0.00    -0.203 F 
ATOM     73  F   UNL     1      13.407  -5.760  11.248  1.00  0.00    -0.200 F 
ATOM     74  C   UNL     1      12.424  -7.632  10.196  1.00  0.00     0.200 A 
ATOM     75  F   UNL     1      11.396  -9.484   9.155  1.00  0.00    -0.200 F 
ATOM     76  F   UNL     1      13.619  -8.012   9.724  1.00  0.00    -0.200 F 
ENDBRANCH  52  66
BRANCH  53  77
ATOM     77  C   UNL     1       0.941  -3.912  14.107  1.00  0.00     0.064 A 
ATOM     78  C   UNL     1       0.726  -3.496  15.430  1.00  0.00     0.173 A 
ATOM     79  C   UNL     1      -0.172  -3.985  13.259  1.00  0.00     0.173 A 
ATOM     80  F   UNL     1       1.755  -3.440  16.289  1.00  0.00    -0.203 F 
ATOM     81  C   UNL     1      -0.554  -3.199  15.895  1.00  0.00     0.198 A 
ATOM     82  C   UNL     1      -1.448  -3.660  13.717  1.00  0.00     0.198 A 
ATOM     83  F   UNL     1      -0.021  -4.379  11.986  1.00  0.00    -0.203 F 
ATOM     84  F   UNL     1      -0.737  -2.865  17.179  1.00  0.00    -0.200 F 
ATOM     85  C   UNL     1      -1.639  -3.278  15.036  1.00  0.00     0.200 A 
ATOM     86  F   UNL     1      -2.494  -3.729  12.883  1.00  0.00    -0.200 F 
ATOM     87  F   UNL     1      -2.871  -3.001  15.485  1.00  0.00    -0.200 F 
ENDBRANCH  53  77
BRANCH  65  88
ATOM     88  C   UNL     1       5.041  -9.250  15.872  1.00  0.00     0.064 A 
ATOM     89  C   UNL     1       4.156 -10.313  15.639  1.00  0.00     0.173 A 
ATOM     90  C   UNL     1       5.826  -9.297  17.035  1.00  0.00     0.173 A 
ATOM     91  F   UNL     1       3.372 -10.312  14.551  1.00  0.00    -0.203 F 
ATOM     92  C   UNL     1       4.048 -11.369  16.543  1.00  0.00     0.198 A 
ATOM     93  C   UNL     1       5.737 -10.368  17.922  1.00  0.00     0.198 A 
ATOM     94  F   UNL     1       6.693  -8.310  17.306  1.00  0.00    -0.203 F 
ATOM     95  F   UNL     1       3.165 -12.352  16.319  1.00  0.00    -0.200 F 
ATOM     96  C   UNL     1       4.844 -11.400  17.678  1.00  0.00     0.200 A 
ATOM     97  F   UNL     1       6.516 -10.402  19.011  1.00  0.00    -0.200 F 
ATOM     98  F   UNL     1       4.745 -12.421  18.540  1.00  0.00    -0.200 F 
ENDBRANCH  65  88
ENDBRANCH  39  40
ENDBRANCH  31  34
ENDBRANCH  29  30
ENDBRANCH  28  29
ENDBRANCH  27  28
ENDBRANCH   1  27
TORSDOF 16
