REMARK SMILES Cc1ccc(N2C(=O)[NH+]=C(NCCCCCCNC(=O)c3ccc(-c4c5nc(c(-c6c(F)c(F)c(F)c(F)c6F)c6ccc([nH]6)c(-c6c(F)c(F)c(F)c(F)c6F)c6nc(c(-c7c(F)c(F)c(F)c(F)c7F)c7ccc4[nH]7)C=C6)C=C5)cc3)/C(=C\c3ccccc3OCc3cccc(C(=O)[O-])c3)C2=O)cc1
REMARK SMILES IDX 13 1 12 2 11 3 6 4 7 5 103 6 8 7 9 8 84 9 104 10 10 11 85 13
REMARK SMILES IDX 5 15 1 16 2 17 3 18 106 19 4 20 105 21 86 22 87 23 91 24
REMARK SMILES IDX 88 25 90 26 89 27 92 28 93 29 94 30 95 31 102 32 96 33 98 34
REMARK SMILES IDX 97 35 99 36 100 37 101 38 14 39 15 40 16 41 17 42 18 43
REMARK SMILES IDX 19 44 20 46 21 47 22 48 83 49 23 50 82 51 24 52 25 53 26 54
REMARK SMILES IDX 76 55 27 56 81 57 75 58 77 59 28 60 80 61 74 62 73 63 29 65
REMARK SMILES IDX 61 66 41 67 60 68 42 69 45 70 59 71 78 72 43 73 44 74 58 76
REMARK SMILES IDX 79 77 46 78 30 79 31 80 39 81 32 82 33 83 37 84 40 85 34 86
REMARK SMILES IDX 35 87 38 88 36 89 62 90 63 91 71 92 64 93 65 94 69 95 72 96
REMARK SMILES IDX 66 97 67 98 70 99 68 100 47 101 48 102 56 103 49 104 50 105
REMARK SMILES IDX 54 106 57 107 51 108 52 109 55 110 53 111
REMARK H PARENT 9 12 11 14 18 45 77 64 45 75
REMARK Flexibility Score: inf
ROOT
ATOM      1  C   UNL     1      -9.290   0.660   2.090  1.00  0.00     0.037 C 
ENDROOT
BRANCH   1   2
ATOM      2  C   UNL     1      -7.937   0.102   1.648  1.00  0.00     0.194 C 
BRANCH   2   3
ATOM      3  N   UNL     1      -7.200   1.067   0.845  1.00  0.00    -0.305 N 
ATOM      4  N   UNL     1      -3.085   0.785   0.335  1.00  0.00    -0.155 N 
ATOM      5  C   UNL     1      -3.793   0.098   1.335  1.00  0.00     0.448 C 
ATOM      6  C   UNL     1      -3.708   1.641  -0.570  1.00  0.00     0.328 C 
ATOM      7  O   UNL     1      -3.238  -0.640   2.148  1.00  0.00    -0.212 OA
ATOM      8  N   UNL     1      -5.139   0.290   1.468  1.00  0.00    -0.209 N 
ATOM      9  C   UNL     1      -5.192   1.531  -0.590  1.00  0.00     0.129 C 
ATOM     10  O   UNL     1      -3.143   2.349  -1.405  1.00  0.00    -0.249 OA
ATOM     11  C   UNL     1      -5.849   0.943   0.604  1.00  0.00     0.236 C 
ATOM     12  H   UNL     1      -5.590  -0.086   2.258  1.00  0.00     0.270 HD
ATOM     13  C   UNL     1      -5.775   1.776  -1.784  1.00  0.00     0.034 C 
ATOM     14  H   UNL     1      -7.683   1.834   0.461  1.00  0.00     0.256 HD
BRANCH   4  15
ATOM     15  C   UNL     1      -1.661   0.582   0.233  1.00  0.00     0.111 A 
ATOM     16  C   UNL     1       2.613  -0.058  -0.054  1.00  0.00     0.044 C 
ATOM     17  C   UNL     1       1.135   0.170   0.041  1.00  0.00    -0.051 A 
ATOM     18  C   UNL     1       0.274  -0.907   0.261  1.00  0.00     0.007 A 
ATOM     19  C   UNL     1       0.592   1.449  -0.104  1.00  0.00     0.007 A 
ATOM     20  C   UNL     1      -1.104  -0.701   0.366  1.00  0.00     0.044 A 
ATOM     21  C   UNL     1      -0.789   1.651  -0.017  1.00  0.00     0.044 A 
ENDBRANCH   4  15
BRANCH  13  22
ATOM     22  C   UNL     1      -7.133   1.454  -2.251  1.00  0.00     0.018 A 
ATOM     23  C   UNL     1      -7.848   2.495  -2.871  1.00  0.00     0.012 A 
ATOM     24  C   UNL     1      -7.735   0.185  -2.165  1.00  0.00     0.127 A 
ATOM     25  C   UNL     1      -9.160   2.308  -3.313  1.00  0.00     0.001 A 
ATOM     26  C   UNL     1      -9.050   0.008  -2.614  1.00  0.00     0.047 A 
ATOM     27  C   UNL     1      -9.768   1.067  -3.168  1.00  0.00     0.004 A 
BRANCH  24  28
ATOM     28  O   UNL     1      -7.203  -0.899  -1.516  1.00  0.00    -0.488 OA
BRANCH  28  29
ATOM     29  C   UNL     1      -5.961  -1.383  -2.031  1.00  0.00     0.265 C 
BRANCH  29  30
ATOM     30  C   UNL     1      -5.543  -2.633  -1.286  1.00  0.00    -0.010 A 
ATOM     31  C   UNL     1      -4.179  -2.905  -1.089  1.00  0.00     0.007 A 
ATOM     32  C   UNL     1      -6.487  -3.576  -0.857  1.00  0.00     0.017 A 
ATOM     33  C   UNL     1      -3.766  -4.091  -0.480  1.00  0.00     0.001 A 
ATOM     34  C   UNL     1      -6.076  -4.781  -0.269  1.00  0.00    -0.002 A 
ATOM     35  C   UNL     1      -4.712  -5.034  -0.081  1.00  0.00     0.010 A 
BRANCH  34  36
ATOM     36  C   UNL     1      -7.048  -5.828   0.111  1.00  0.00     0.071 C 
ATOM     37  O   UNL     1      -6.771  -6.972   0.456  1.00  0.00    -0.545 OA
ATOM     38  O   UNL     1      -8.324  -5.421   0.030  1.00  0.00    -0.545 OA
ENDBRANCH  34  36
ENDBRANCH  29  30
ENDBRANCH  28  29
ENDBRANCH  24  28
ENDBRANCH  13  22
ENDBRANCH   2   3
ENDBRANCH   1   2
BRANCH   1  39
ATOM     39  C   UNL     1     -10.285   0.934   0.955  1.00  0.00     0.003 C 
BRANCH  39  40
ATOM     40  C   UNL     1     -10.801  -0.302   0.207  1.00  0.00     0.002 C 
BRANCH  40  41
ATOM     41  C   UNL     1     -11.597  -1.325   1.009  1.00  0.00     0.021 C 
BRANCH  41  42
ATOM     42  C   UNL     1     -12.814  -0.758   1.710  1.00  0.00     0.116 C 
BRANCH  42  43
ATOM     43  N   UNL     1     -13.961  -0.482   0.858  1.00  0.00    -0.352 N 
ATOM     44  C   UNL     1     -15.240  -0.067   1.194  1.00  0.00     0.251 C 
ATOM     45  H   UNL     1     -13.805  -0.611  -0.106  1.00  0.00     0.163 HD
ATOM     46  O   UNL     1     -16.116  -0.078   0.332  1.00  0.00    -0.269 OA
BRANCH  44  47
ATOM     47  C   UNL     1     -15.518   0.587   2.506  1.00  0.00     0.039 A 
ATOM     48  C   UNL     1     -16.474   1.617   2.515  1.00  0.00     0.014 A 
ATOM     49  C   UNL     1     -14.579   0.532   3.518  1.00  0.00     0.014 A 
ATOM     50  C   UNL     1     -16.252   2.740   3.299  1.00  0.00     0.010 A 
ATOM     51  C   UNL     1     -14.201   1.718   4.076  1.00  0.00     0.010 A 
ATOM     52  C   UNL     1     -15.028   2.833   3.937  1.00  0.00    -0.014 A 
BRANCH  52  53
ATOM     53  C   UNL     1     -14.517   3.981   4.643  1.00  0.00     0.031 A 
ATOM     54  C   UNL     1     -14.586   3.918   6.112  1.00  0.00     0.074 A 
ATOM     55  C   UNL     1     -13.718   4.832   3.966  1.00  0.00     0.049 A 
ATOM     56  N   UNL     1     -14.270   4.890   6.881  1.00  0.00    -0.248 NA
ATOM     57  C   UNL     1     -15.051   2.740   6.844  1.00  0.00     0.031 C 
ATOM     58  C   UNL     1     -12.685   5.713   4.500  1.00  0.00     0.029 A 
ATOM     59  N   UNL     1     -13.800   5.189   2.609  1.00  0.00    -0.354 N 
ATOM     60  C   UNL     1     -14.180   4.395   8.163  1.00  0.00     0.074 A 
ATOM     61  C   UNL     1     -14.794   3.095   8.106  1.00  0.00     0.031 C 
ATOM     62  C   UNL     1     -12.447   6.692   3.610  1.00  0.00     0.029 A 
ATOM     63  C   UNL     1     -13.452   6.566   2.571  1.00  0.00     0.049 A 
ATOM     64  H   UNL     1     -14.046   4.611   1.851  1.00  0.00     0.167 HD
ATOM     65  C   UNL     1     -13.469   5.129   9.063  1.00  0.00     0.037 A 
ATOM     66  C   UNL     1     -14.411   7.505   2.295  1.00  0.00     0.037 A 
ATOM     67  C   UNL     1     -13.042   6.385   8.443  1.00  0.00     0.049 A 
ATOM     68  C   UNL     1     -14.695   8.461   3.440  1.00  0.00     0.074 A 
ATOM     69  C   UNL     1     -11.865   6.853   7.885  1.00  0.00     0.029 A 
ATOM     70  N   UNL     1     -14.028   7.254   8.026  1.00  0.00    -0.354 N 
ATOM     71  N   UNL     1     -14.229   8.312   4.650  1.00  0.00    -0.248 NA
ATOM     72  C   UNL     1     -15.583   9.616   3.336  1.00  0.00     0.031 C 
ATOM     73  C   UNL     1     -12.171   8.042   7.153  1.00  0.00     0.029 A 
ATOM     74  C   UNL     1     -13.523   8.298   7.291  1.00  0.00     0.049 A 
ATOM     75  H   UNL     1     -14.984   7.140   8.232  1.00  0.00     0.167 HD
ATOM     76  C   UNL     1     -14.751   9.270   5.479  1.00  0.00     0.074 A 
ATOM     77  C   UNL     1     -15.609  10.055   4.609  1.00  0.00     0.031 C 
ATOM     78  C   UNL     1     -14.460   9.305   6.817  1.00  0.00     0.037 A 
BRANCH  65  79
ATOM     79  C   UNL     1     -12.989   4.709  10.433  1.00  0.00     0.064 A 
ATOM     80  C   UNL     1     -12.085   5.543  11.132  1.00  0.00     0.173 A 
ATOM     81  C   UNL     1     -13.312   3.514  11.104  1.00  0.00     0.173 A 
ATOM     82  F   UNL     1     -11.739   6.750  10.664  1.00  0.00    -0.203 F 
ATOM     83  C   UNL     1     -11.499   5.177  12.345  1.00  0.00     0.198 A 
ATOM     84  C   UNL     1     -12.725   3.147  12.320  1.00  0.00     0.198 A 
ATOM     85  F   UNL     1     -14.218   2.654  10.641  1.00  0.00    -0.203 F 
ATOM     86  F   UNL     1     -10.624   6.003  12.933  1.00  0.00    -0.200 F 
ATOM     87  C   UNL     1     -11.807   3.970  12.933  1.00  0.00     0.200 A 
ATOM     88  F   UNL     1     -13.059   1.979  12.888  1.00  0.00    -0.200 F 
ATOM     89  F   UNL     1     -11.237   3.610  14.089  1.00  0.00    -0.200 F 
ENDBRANCH  65  79
BRANCH  66  90
ATOM     90  C   UNL     1     -15.423   6.968   1.333  1.00  0.00     0.064 A 
ATOM     91  C   UNL     1     -14.954   6.575   0.061  1.00  0.00     0.173 A 
ATOM     92  C   UNL     1     -16.599   6.368   1.802  1.00  0.00     0.173 A 
ATOM     93  F   UNL     1     -13.846   7.139  -0.448  1.00  0.00    -0.203 F 
ATOM     94  C   UNL     1     -15.509   5.484  -0.606  1.00  0.00     0.198 A 
ATOM     95  C   UNL     1     -17.175   5.301   1.108  1.00  0.00     0.198 A 
ATOM     96  F   UNL     1     -17.103   6.707   2.997  1.00  0.00    -0.203 F 
ATOM     97  F   UNL     1     -14.931   5.018  -1.722  1.00  0.00    -0.200 F 
ATOM     98  C   UNL     1     -16.593   4.821  -0.057  1.00  0.00     0.200 A 
ATOM     99  F   UNL     1     -18.235   4.665   1.627  1.00  0.00    -0.200 F 
ATOM    100  F   UNL     1     -17.050   3.696  -0.625  1.00  0.00    -0.200 F 
ENDBRANCH  66  90
BRANCH  78 101
ATOM    101  C   UNL     1     -15.069  10.251   7.829  1.00  0.00     0.064 A 
ATOM    102  C   UNL     1     -15.332  11.598   7.553  1.00  0.00     0.173 A 
ATOM    103  C   UNL     1     -15.333   9.849   9.166  1.00  0.00     0.173 A 
ATOM    104  F   UNL     1     -15.007  12.134   6.368  1.00  0.00    -0.203 F 
ATOM    105  C   UNL     1     -15.907  12.448   8.506  1.00  0.00     0.198 A 
ATOM    106  C   UNL     1     -15.847  10.711  10.129  1.00  0.00     0.198 A 
ATOM    107  F   UNL     1     -15.136   8.596   9.595  1.00  0.00    -0.203 F 
ATOM    108  F   UNL     1     -16.210  13.709   8.170  1.00  0.00    -0.200 F 
ATOM    109  C   UNL     1     -16.162  12.005   9.792  1.00  0.00     0.200 A 
ATOM    110  F   UNL     1     -16.047  10.265  11.378  1.00  0.00    -0.200 F 
ATOM    111  F   UNL     1     -16.707  12.822  10.702  1.00  0.00    -0.200 F 
ENDBRANCH  78 101
ENDBRANCH  52  53
ENDBRANCH  44  47
ENDBRANCH  42  43
ENDBRANCH  41  42
ENDBRANCH  40  41
ENDBRANCH  39  40
ENDBRANCH   1  39
TORSDOF 18
