REMARK SMILES O=C(NCCCCCCNC(=O)[C@H]1[C@H]2CC[C@H](C2)[C@@H]1C(=O)N1CC[NH+](C2CCCCC2)CC1)c1ccc(-c2c3nc(c(-c4c(F)c(F)c(F)c(F)c4F)c4ccc([nH]4)c(-c4c(F)c(F)c(F)c(F)c4F)c4nc(c(-c5c(F)c(F)c(F)c(F)c5F)c5ccc2[nH]5)C=C4)C=C3)cc1
REMARK SMILES IDX 6 1 5 2 4 3 3 4 1 5 2 6 34 8 35 9 96 10 36 11 95 12 37 13
REMARK SMILES IDX 38 14 39 15 89 16 40 17 94 18 88 19 90 20 41 21 93 22 87 23
REMARK SMILES IDX 86 24 42 26 74 27 54 28 73 29 55 30 58 31 72 32 91 33 56 34
REMARK SMILES IDX 57 35 71 37 92 38 59 39 43 40 44 41 52 42 45 43 46 44 50 45
REMARK SMILES IDX 53 46 47 47 48 48 51 49 49 50 75 51 76 52 84 53 77 54 78 55
REMARK SMILES IDX 82 56 85 57 79 58 80 59 83 60 81 61 60 62 61 63 69 64 62 65
REMARK SMILES IDX 63 66 67 67 70 68 64 69 65 70 68 71 66 72 7 73 8 74 9 75
REMARK SMILES IDX 10 76 11 77 12 79 13 80 14 81 19 82 15 83 18 84 17 85 16 86
REMARK SMILES IDX 20 87 21 88 22 89 23 90 33 91 24 92 32 93 25 94 26 96 27 97
REMARK SMILES IDX 31 98 28 99 30 100 29 101
REMARK H PARENT 3 7 90 25 58 36 10 78 25 95
REMARK Flexibility Score: inf
ROOT
ATOM      1  C   UNL     1       7.257  10.232  -2.154  1.00  0.00     0.002 C 
ENDROOT
BRANCH   1   2
ATOM      2  C   UNL     1       6.670  11.138  -3.236  1.00  0.00     0.021 C 
BRANCH   2   3
ATOM      3  C   UNL     1       5.169  11.353  -3.131  1.00  0.00     0.116 C 
BRANCH   3   4
ATOM      4  N   UNL     1       4.796  12.113  -1.950  1.00  0.00    -0.352 N 
ATOM      5  O   UNL     1       3.878  13.836  -0.813  1.00  0.00    -0.269 OA
ATOM      6  C   UNL     1       3.971  13.209  -1.858  1.00  0.00     0.251 C 
ATOM      7  H   UNL     1       5.187  11.801  -1.102  1.00  0.00     0.163 HD
BRANCH   6   8
ATOM      8  C   UNL     1       3.208  13.639  -3.051  1.00  0.00     0.039 A 
ATOM      9  C   UNL     1       2.541  12.699  -3.839  1.00  0.00     0.014 A 
ATOM     10  C   UNL     1       3.164  14.996  -3.385  1.00  0.00     0.014 A 
ATOM     11  C   UNL     1       1.950  13.095  -5.031  1.00  0.00     0.010 A 
ATOM     12  C   UNL     1       2.488  15.405  -4.539  1.00  0.00     0.010 A 
ATOM     13  C   UNL     1       1.896  14.455  -5.383  1.00  0.00    -0.014 A 
BRANCH  13  14
ATOM     14  C   UNL     1       1.133  14.842  -6.596  1.00  0.00     0.031 A 
ATOM     15  C   UNL     1       1.808  15.444  -7.794  1.00  0.00     0.074 A 
ATOM     16  C   UNL     1      -0.189  14.581  -6.619  1.00  0.00     0.049 A 
ATOM     17  N   UNL     1       1.288  15.770  -8.952  1.00  0.00    -0.248 NA
ATOM     18  C   UNL     1       3.246  15.727  -7.683  1.00  0.00     0.031 C 
ATOM     19  C   UNL     1      -0.953  14.022  -5.500  1.00  0.00     0.029 A 
ATOM     20  N   UNL     1      -1.118  14.717  -7.618  1.00  0.00    -0.354 N 
ATOM     21  C   UNL     1       2.329  16.300  -9.703  1.00  0.00     0.074 A 
ATOM     22  C   UNL     1       3.506  16.282  -8.861  1.00  0.00     0.031 C 
ATOM     23  C   UNL     1      -2.216  13.806  -5.892  1.00  0.00     0.029 A 
ATOM     24  C   UNL     1      -2.367  14.268  -7.267  1.00  0.00     0.049 A 
ATOM     25  H   UNL     1      -0.909  15.100  -8.500  1.00  0.00     0.167 HD
ATOM     26  C   UNL     1       2.300  16.752 -10.980  1.00  0.00     0.037 A 
ATOM     27  C   UNL     1      -3.513  14.238  -7.970  1.00  0.00     0.037 A 
ATOM     28  C   UNL     1       1.124  16.760 -11.814  1.00  0.00     0.049 A 
ATOM     29  C   UNL     1      -3.508  14.742  -9.383  1.00  0.00     0.074 A 
ATOM     30  C   UNL     1       0.997  17.188 -13.125  1.00  0.00     0.029 A 
ATOM     31  N   UNL     1      -0.130  16.318 -11.418  1.00  0.00    -0.354 N 
ATOM     32  N   UNL     1      -2.511  15.219 -10.087  1.00  0.00    -0.248 NA
ATOM     33  C   UNL     1      -4.789  14.705 -10.100  1.00  0.00     0.031 C 
ATOM     34  C   UNL     1      -0.340  17.038 -13.510  1.00  0.00     0.029 A 
ATOM     35  C   UNL     1      -1.038  16.475 -12.454  1.00  0.00     0.049 A 
ATOM     36  H   UNL     1      -0.344  15.947 -10.531  1.00  0.00     0.167 HD
ATOM     37  C   UNL     1      -3.040  15.539 -11.327  1.00  0.00     0.074 A 
ATOM     38  C   UNL     1      -4.439  15.163 -11.293  1.00  0.00     0.031 C 
ATOM     39  C   UNL     1      -2.428  16.106 -12.395  1.00  0.00     0.037 A 
BRANCH  26  40
ATOM     40  C   UNL     1       3.577  17.281 -11.566  1.00  0.00     0.064 A 
ATOM     41  C   UNL     1       4.623  16.423 -11.939  1.00  0.00     0.173 A 
ATOM     42  C   UNL     1       3.729  18.651 -11.827  1.00  0.00     0.173 A 
ATOM     43  F   UNL     1       4.532  15.106 -11.701  1.00  0.00    -0.203 F 
ATOM     44  C   UNL     1       5.776  16.919 -12.541  1.00  0.00     0.198 A 
ATOM     45  C   UNL     1       4.873  19.141 -12.451  1.00  0.00     0.198 A 
ATOM     46  F   UNL     1       2.756  19.514 -11.495  1.00  0.00    -0.203 F 
ATOM     47  F   UNL     1       6.774  16.084 -12.865  1.00  0.00    -0.200 F 
ATOM     48  C   UNL     1       5.897  18.276 -12.805  1.00  0.00     0.200 A 
ATOM     49  F   UNL     1       4.983  20.450 -12.716  1.00  0.00    -0.200 F 
ATOM     50  F   UNL     1       7.001  18.748 -13.399  1.00  0.00    -0.200 F 
ENDBRANCH  26  40
BRANCH  27  51
ATOM     51  C   UNL     1      -4.754  13.720  -7.339  1.00  0.00     0.064 A 
ATOM     52  C   UNL     1      -5.344  12.526  -7.773  1.00  0.00     0.173 A 
ATOM     53  C   UNL     1      -5.370  14.409  -6.284  1.00  0.00     0.173 A 
ATOM     54  F   UNL     1      -4.801  11.841  -8.790  1.00  0.00    -0.203 F 
ATOM     55  C   UNL     1      -6.516  12.051  -7.188  1.00  0.00     0.198 A 
ATOM     56  C   UNL     1      -6.523  13.916  -5.678  1.00  0.00     0.198 A 
ATOM     57  F   UNL     1      -4.839  15.553  -5.827  1.00  0.00    -0.203 F 
ATOM     58  F   UNL     1      -7.087  10.931  -7.652  1.00  0.00    -0.200 F 
ATOM     59  C   UNL     1      -7.100  12.742  -6.137  1.00  0.00     0.200 A 
ATOM     60  F   UNL     1      -7.072  14.578  -4.651  1.00  0.00    -0.200 F 
ATOM     61  F   UNL     1      -8.224  12.281  -5.571  1.00  0.00    -0.200 F 
ENDBRANCH  27  51
BRANCH  39  62
ATOM     62  C   UNL     1      -3.278  16.345 -13.607  1.00  0.00     0.064 A 
ATOM     63  C   UNL     1      -4.256  17.351 -13.626  1.00  0.00     0.173 A 
ATOM     64  C   UNL     1      -3.115  15.562 -14.759  1.00  0.00     0.173 A 
ATOM     65  F   UNL     1      -4.461  18.113 -12.541  1.00  0.00    -0.203 F 
ATOM     66  C   UNL     1      -5.065  17.540 -14.742  1.00  0.00     0.198 A 
ATOM     67  C   UNL     1      -3.906  15.773 -15.884  1.00  0.00     0.198 A 
ATOM     68  F   UNL     1      -2.190  14.591 -14.792  1.00  0.00    -0.203 F 
ATOM     69  F   UNL     1      -6.033  18.466 -14.716  1.00  0.00    -0.200 F 
ATOM     70  C   UNL     1      -4.887  16.754 -15.871  1.00  0.00     0.200 A 
ATOM     71  F   UNL     1      -3.728  15.020 -16.978  1.00  0.00    -0.200 F 
ATOM     72  F   UNL     1      -5.671  16.933 -16.943  1.00  0.00    -0.200 F 
ENDBRANCH  39  62
ENDBRANCH  13  14
ENDBRANCH   6   8
ENDBRANCH   3   4
ENDBRANCH   2   3
ENDBRANCH   1   2
BRANCH   1  73
ATOM     73  C   UNL     1       6.648   8.827  -2.082  1.00  0.00     0.002 C 
BRANCH  73  74
ATOM     74  C   UNL     1       6.623   8.058  -3.409  1.00  0.00     0.021 C 
BRANCH  74  75
ATOM     75  C   UNL     1       7.985   7.960  -4.094  1.00  0.00     0.116 C 
BRANCH  75  76
ATOM     76  N   UNL     1       8.908   7.173  -3.300  1.00  0.00    -0.356 N 
ATOM     77  C   UNL     1       9.486   5.972  -3.586  1.00  0.00     0.224 C 
ATOM     78  H   UNL     1       9.152   7.562  -2.428  1.00  0.00     0.163 HD
ATOM     79  O   UNL     1      10.152   5.415  -2.718  1.00  0.00    -0.275 OA
BRANCH  77  80
ATOM     80  C   UNL     1       9.334   5.435  -4.993  1.00  0.00     0.094 C 
ATOM     81  C   UNL     1      10.345   6.095  -5.964  1.00  0.00     0.002 C 
ATOM     82  C   UNL     1       9.624   3.927  -5.153  1.00  0.00     0.094 C 
ATOM     83  C   UNL     1      11.802   5.817  -5.553  1.00  0.00     0.005 C 
ATOM     84  C   UNL     1      10.213   5.175  -7.168  1.00  0.00     0.009 C 
ATOM     85  C   UNL     1      10.572   3.911  -6.373  1.00  0.00     0.002 C 
ATOM     86  C   UNL     1      11.974   4.319  -5.864  1.00  0.00     0.005 C 
BRANCH  82  87
ATOM     87  C   UNL     1       8.306   3.139  -5.152  1.00  0.00     0.227 C 
ATOM     88  O   UNL     1       8.020   2.445  -4.171  1.00  0.00    -0.275 OA
ATOM     89  N   UNL     1       7.350   3.410  -6.112  1.00  0.00    -0.331 N 
ATOM     90  C   UNL     1       5.945   3.393  -5.700  1.00  0.00     0.181 C 
ATOM     91  C   UNL     1       7.548   3.170  -7.535  1.00  0.00     0.181 C 
ATOM     92  C   UNL     1       5.056   4.281  -6.606  1.00  0.00     0.284 C 
ATOM     93  C   UNL     1       6.708   4.150  -8.367  1.00  0.00     0.284 C 
ATOM     94  N   UNL     1       5.266   4.140  -8.063  1.00  0.00    -0.330 N 
ATOM     95  H   UNL     1       4.891   4.967  -8.529  1.00  0.00     0.348 HD
BRANCH  94  96
ATOM     96  C   UNL     1       4.422   3.123  -8.727  1.00  0.00     0.184 C 
ATOM     97  C   UNL     1       4.710   3.025 -10.243  1.00  0.00     0.065 C 
ATOM     98  C   UNL     1       4.383   1.729  -8.066  1.00  0.00     0.065 C 
ATOM     99  C   UNL     1       3.824   2.007 -10.954  1.00  0.00     0.006 C 
ATOM    100  C   UNL     1       3.546   0.711  -8.838  1.00  0.00     0.006 C 
ATOM    101  C   UNL     1       3.957   0.638 -10.301  1.00  0.00     0.000 C 
ENDBRANCH  94  96
ENDBRANCH  82  87
ENDBRANCH  77  80
ENDBRANCH  75  76
ENDBRANCH  74  75
ENDBRANCH  73  74
ENDBRANCH   1  73
TORSDOF 15
