REMARK SMILES C#CC[N@@H+](CC(=O)NCCCCCCNC(=O)c1ccc(-c2c3nc(c(-c4c(F)c(F)c(F)c(F)c4F)c4ccc([nH]4)c(-c4c(F)c(F)c(F)c(F)c4F)c4nc(c(-c5c(F)c(F)c(F)c(F)c5F)c5ccc2[nH]5)C=C4)C=C3)cc1)Cc1cn(CC)c2ccccc12
REMARK SMILES IDX 10 1 9 2 8 3 6 4 7 5 5 7 4 8 3 10 2 11 1 12 81 13 82 14
REMARK SMILES IDX 83 15 92 16 84 17 87 18 91 19 88 20 90 21 89 22 85 23 86 24
REMARK SMILES IDX 11 25 12 26 13 27 14 28 15 29 16 30 17 32 18 33 19 34 80 35
REMARK SMILES IDX 20 36 79 37 21 38 22 39 23 40 73 41 24 42 78 43 72 44 74 45
REMARK SMILES IDX 25 46 77 47 71 48 70 49 26 51 58 52 38 53 57 54 39 55 42 56
REMARK SMILES IDX 56 57 75 58 40 59 41 60 55 62 76 63 43 64 27 65 28 66 36 67
REMARK SMILES IDX 29 68 30 69 34 70 37 71 31 72 32 73 35 74 33 75 59 76 60 77
REMARK SMILES IDX 68 78 61 79 62 80 66 81 69 82 63 83 64 84 67 85 65 86 44 87
REMARK SMILES IDX 45 88 53 89 46 90 47 91 51 92 54 93 48 94 49 95 52 96 50 97
REMARK H PARENT 8 6 4 9 15 31 74 50 42 61
REMARK Flexibility Score: inf
ROOT
ATOM      1  C   UNL     1      -2.434  -2.414  -2.069  1.00  0.00     0.021 C 
ENDROOT
BRANCH   1   2
ATOM      2  C   UNL     1      -3.630  -1.446  -2.008  1.00  0.00     0.116 C 
BRANCH   2   3
ATOM      3  N   UNL     1      -4.467  -1.744  -0.867  1.00  0.00    -0.351 N 
ATOM      4  C   UNL     1      -4.663  -1.148   0.340  1.00  0.00     0.275 C 
ATOM      5  O   UNL     1      -5.434  -1.765   1.082  1.00  0.00    -0.269 OA
ATOM      6  H   UNL     1      -5.013  -2.554  -0.991  1.00  0.00     0.163 HD
BRANCH   4   7
ATOM      7  C   UNL     1      -4.075   0.226   0.738  1.00  0.00     0.364 C 
BRANCH   7   8
ATOM      8  N   UNL     1      -2.645   0.273   1.214  1.00  0.00    -0.313 N 
ATOM      9  H   UNL     1      -2.470   1.202   1.596  1.00  0.00     0.349 HD
BRANCH   8  10
ATOM     10  C   UNL     1      -1.868  -0.061   0.066  1.00  0.00     0.354 C 
BRANCH  10  11
ATOM     11  C   UNL     1      -0.348  -0.061   0.066  1.00  0.00    -0.047 C 
ATOM     12  C   UNL     1       0.956  -0.061   0.066  1.00  0.00     0.010 C 
ENDBRANCH  10  11
ENDBRANCH   8  10
BRANCH   8  13
ATOM     13  C   UNL     1      -2.284  -0.601   2.354  1.00  0.00     0.302 C 
BRANCH  13  14
ATOM     14  C   UNL     1      -3.297  -0.432   3.425  1.00  0.00     0.032 A 
ATOM     15  C   UNL     1      -4.200  -1.393   3.831  1.00  0.00     0.096 A 
ATOM     16  C   UNL     1      -3.723   0.811   3.972  1.00  0.00     0.008 A 
ATOM     17  N   UNL     1      -5.360  -0.703   4.125  1.00  0.00    -0.347 N 
ATOM     18  C   UNL     1      -5.061   0.635   4.340  1.00  0.00     0.048 A 
ATOM     19  C   UNL     1      -3.170   2.108   3.933  1.00  0.00     0.011 A 
ATOM     20  C   UNL     1      -5.867   1.734   4.666  1.00  0.00     0.027 A 
ATOM     21  C   UNL     1      -3.969   3.203   4.252  1.00  0.00     0.001 A 
ATOM     22  C   UNL     1      -5.300   3.014   4.608  1.00  0.00     0.002 A 
BRANCH  17  23
ATOM     23  C   UNL     1      -6.650  -1.219   3.685  1.00  0.00     0.119 C 
ATOM     24  C   UNL     1      -7.741  -1.272   4.725  1.00  0.00     0.027 C 
ENDBRANCH  17  23
ENDBRANCH  13  14
ENDBRANCH   8  13
ENDBRANCH   7   8
ENDBRANCH   4   7
ENDBRANCH   2   3
ENDBRANCH   1   2
BRANCH   1  25
ATOM     25  C   UNL     1      -2.794  -3.822  -2.525  1.00  0.00     0.002 C 
BRANCH  25  26
ATOM     26  C   UNL     1      -3.409  -3.869  -3.916  1.00  0.00     0.002 C 
BRANCH  26  27
ATOM     27  C   UNL     1      -2.623  -3.067  -4.954  1.00  0.00     0.021 C 
BRANCH  27  28
ATOM     28  C   UNL     1      -1.145  -3.430  -5.006  1.00  0.00     0.116 C 
BRANCH  28  29
ATOM     29  N   UNL     1      -0.970  -4.821  -5.382  1.00  0.00    -0.352 N 
ATOM     30  C   UNL     1      -0.378  -5.301  -6.521  1.00  0.00     0.251 C 
ATOM     31  H   UNL     1      -1.313  -5.492  -4.749  1.00  0.00     0.163 HD
ATOM     32  O   UNL     1      -0.542  -6.447  -6.898  1.00  0.00    -0.269 OA
BRANCH  30  33
ATOM     33  C   UNL     1       0.474  -4.365  -7.276  1.00  0.00     0.039 A 
ATOM     34  C   UNL     1       0.234  -4.159  -8.633  1.00  0.00     0.014 A 
ATOM     35  C   UNL     1       1.457  -3.641  -6.593  1.00  0.00     0.014 A 
ATOM     36  C   UNL     1       0.980  -3.197  -9.312  1.00  0.00     0.010 A 
ATOM     37  C   UNL     1       2.133  -2.626  -7.249  1.00  0.00     0.010 A 
ATOM     38  C   UNL     1       1.922  -2.417  -8.621  1.00  0.00    -0.014 A 
BRANCH  38  39
ATOM     39  C   UNL     1       2.764  -1.418  -9.317  1.00  0.00     0.031 A 
ATOM     40  C   UNL     1       4.252  -1.625  -9.355  1.00  0.00     0.074 A 
ATOM     41  C   UNL     1       2.209  -0.311  -9.842  1.00  0.00     0.049 A 
ATOM     42  N   UNL     1       5.190  -0.826  -9.792  1.00  0.00    -0.248 NA
ATOM     43  C   UNL     1       4.755  -2.889  -8.790  1.00  0.00     0.031 C 
ATOM     44  C   UNL     1       0.780   0.006  -9.837  1.00  0.00     0.029 A 
ATOM     45  N   UNL     1       2.787   0.763 -10.469  1.00  0.00    -0.354 N 
ATOM     46  C   UNL     1       6.388  -1.479  -9.533  1.00  0.00     0.074 A 
ATOM     47  C   UNL     1       6.065  -2.708  -8.844  1.00  0.00     0.031 C 
ATOM     48  C   UNL     1       0.592   1.187 -10.450  1.00  0.00     0.029 A 
ATOM     49  C   UNL     1       1.888   1.730 -10.846  1.00  0.00     0.049 A 
ATOM     50  H   UNL     1       3.755   0.835 -10.632  1.00  0.00     0.167 HD
ATOM     51  C   UNL     1       7.643  -1.101  -9.867  1.00  0.00     0.037 A 
ATOM     52  C   UNL     1       2.095   2.924 -11.432  1.00  0.00     0.037 A 
ATOM     53  C   UNL     1       7.949   0.111 -10.578  1.00  0.00     0.049 A 
ATOM     54  C   UNL     1       3.504   3.336 -11.771  1.00  0.00     0.074 A 
ATOM     55  C   UNL     1       9.180   0.571 -11.008  1.00  0.00     0.029 A 
ATOM     56  N   UNL     1       7.008   1.057 -10.961  1.00  0.00    -0.354 N 
ATOM     57  N   UNL     1       4.627   2.688 -11.571  1.00  0.00    -0.248 NA
ATOM     58  C   UNL     1       3.675   4.642 -12.421  1.00  0.00     0.031 C 
ATOM     59  C   UNL     1       8.992   1.822 -11.603  1.00  0.00     0.029 A 
ATOM     60  C   UNL     1       7.635   2.110 -11.605  1.00  0.00     0.049 A 
ATOM     61  H   UNL     1       6.040   0.989 -10.799  1.00  0.00     0.167 HD
ATOM     62  C   UNL     1       5.629   3.485 -12.107  1.00  0.00     0.074 A 
ATOM     63  C   UNL     1       4.981   4.664 -12.644  1.00  0.00     0.031 C 
ATOM     64  C   UNL     1       6.965   3.261 -12.156  1.00  0.00     0.037 A 
BRANCH  51  65
ATOM     65  C   UNL     1       8.772  -2.005  -9.465  1.00  0.00     0.064 A 
ATOM     66  C   UNL     1       8.939  -3.277 -10.034  1.00  0.00     0.173 A 
ATOM     67  C   UNL     1       9.712  -1.587  -8.511  1.00  0.00     0.173 A 
ATOM     68  F   UNL     1       8.061  -3.733 -10.941  1.00  0.00    -0.203 F 
ATOM     69  C   UNL     1       9.983  -4.110  -9.638  1.00  0.00     0.198 A 
ATOM     70  C   UNL     1      10.776  -2.408  -8.144  1.00  0.00     0.198 A 
ATOM     71  F   UNL     1       9.602  -0.380  -7.936  1.00  0.00    -0.203 F 
ATOM     72  F   UNL     1      10.085  -5.343 -10.152  1.00  0.00    -0.200 F 
ATOM     73  C   UNL     1      10.904  -3.671  -8.700  1.00  0.00     0.200 A 
ATOM     74  F   UNL     1      11.674  -1.976  -7.248  1.00  0.00    -0.200 F 
ATOM     75  F   UNL     1      11.912  -4.471  -8.325  1.00  0.00    -0.200 F 
ENDBRANCH  51  65
BRANCH  52  76
ATOM     76  C   UNL     1       0.942   3.806 -11.755  1.00  0.00     0.064 A 
ATOM     77  C   UNL     1       0.584   4.063 -13.086  1.00  0.00     0.173 A 
ATOM     78  C   UNL     1       0.182   4.418 -10.748  1.00  0.00     0.173 A 
ATOM     79  F   UNL     1       1.290   3.515 -14.087  1.00  0.00    -0.203 F 
ATOM     80  C   UNL     1      -0.471   4.918 -13.398  1.00  0.00     0.198 A 
ATOM     81  C   UNL     1      -0.893   5.248 -11.060  1.00  0.00     0.198 A 
ATOM     82  F   UNL     1       0.476   4.200  -9.457  1.00  0.00    -0.203 F 
ATOM     83  F   UNL     1      -0.758   5.186 -14.679  1.00  0.00    -0.200 F 
ATOM     84  C   UNL     1      -1.212   5.506 -12.384  1.00  0.00     0.200 A 
ATOM     85  F   UNL     1      -1.618   5.799 -10.077  1.00  0.00    -0.200 F 
ATOM     86  F   UNL     1      -2.229   6.326 -12.683  1.00  0.00    -0.200 F 
ENDBRANCH  52  76
BRANCH  64  87
ATOM     87  C   UNL     1       7.815   4.272 -12.870  1.00  0.00     0.064 A 
ATOM     88  C   UNL     1       8.069   5.542 -12.331  1.00  0.00     0.173 A 
ATOM     89  C   UNL     1       8.441   3.934 -14.080  1.00  0.00     0.173 A 
ATOM     90  F   UNL     1       7.484   5.918 -11.184  1.00  0.00    -0.203 F 
ATOM     91  C   UNL     1       8.902   6.443 -12.989  1.00  0.00     0.198 A 
ATOM     92  C   UNL     1       9.300   4.824 -14.717  1.00  0.00     0.198 A 
ATOM     93  F   UNL     1       8.237   2.728 -14.633  1.00  0.00    -0.203 F 
ATOM     94  F   UNL     1       9.097   7.666 -12.479  1.00  0.00    -0.200 F 
ATOM     95  C   UNL     1       9.525   6.079 -14.174  1.00  0.00     0.200 A 
ATOM     96  F   UNL     1       9.915   4.463 -15.851  1.00  0.00    -0.200 F 
ATOM     97  F   UNL     1      10.341   6.942 -14.796  1.00  0.00    -0.200 F 
ENDBRANCH  64  87
ENDBRANCH  38  39
ENDBRANCH  30  33
ENDBRANCH  28  29
ENDBRANCH  27  28
ENDBRANCH  26  27
ENDBRANCH  25  26
ENDBRANCH   1  25
TORSDOF 19
