REMARK SMILES O=C(CCC(=O)/[NH+]=C1\S[C@H]2CS(=O)(=O)C[C@@H]2N1c1ccc2c(c1)OCO2)NCCCCCCNC(=O)c1ccc(-c2c3nc(c(-c4c(F)c(F)c(F)c(F)c4F)c4ccc([nH]4)c(-c4c(F)c(F)c(F)c(F)c4F)c4nc(c(-c5c(F)c(F)c(F)c(F)c5F)c5ccc2[nH]5)C=C4)C=C3)cc1
REMARK SMILES IDX 30 1 29 2 28 3 27 4 2 5 1 6 3 8 4 9 5 10 6 11 7 12 8 13 9 15
REMARK SMILES IDX 17 16 10 17 16 18 11 19 15 20 12 21 13 22 14 23 18 24 19 25
REMARK SMILES IDX 23 26 20 27 22 28 21 29 24 30 26 31 25 32 31 33 32 34 33 35
REMARK SMILES IDX 34 36 35 37 36 39 37 40 38 41 99 42 39 43 98 44 40 45 41 46
REMARK SMILES IDX 42 47 92 48 43 49 97 50 91 51 93 52 44 53 96 54 90 55 89 56
REMARK SMILES IDX 45 58 77 59 57 60 76 61 58 62 61 63 75 64 94 65 59 66 60 67
REMARK SMILES IDX 74 69 95 70 62 71 46 72 47 73 55 74 48 75 49 76 53 77 56 78
REMARK SMILES IDX 50 79 51 80 54 81 52 82 78 83 79 84 87 85 80 86 81 87 85 88
REMARK SMILES IDX 88 89 82 90 83 91 86 92 84 93 63 94 64 95 72 96 65 97 66 98
REMARK SMILES IDX 70 99 73 100 67 101 68 102 71 103 69 104
REMARK H PARENT 27 7 7 14 34 38 93 57 61 68
REMARK Flexibility Score: inf
ROOT
ATOM      1  C   UNL     1       2.844   1.362  -3.255  1.00  0.00     0.002 C 
ENDROOT
BRANCH   1   2
ATOM      2  C   UNL     1       1.885   0.564  -2.369  1.00  0.00     0.021 C 
BRANCH   2   3
ATOM      3  C   UNL     1       2.225  -0.924  -2.265  1.00  0.00     0.116 C 
BRANCH   3   4
ATOM      4  N   UNL     1       3.640  -1.174  -2.049  1.00  0.00    -0.356 N 
ATOM      5  C   UNL     1       4.323  -1.489  -0.920  1.00  0.00     0.220 C 
ATOM      6  O   UNL     1       5.552  -1.573  -0.973  1.00  0.00    -0.275 OA
ATOM      7  H   UNL     1       4.197  -1.104  -2.858  1.00  0.00     0.163 HD
BRANCH   5   8
ATOM      8  C   UNL     1       3.580  -1.759   0.360  1.00  0.00     0.112 C 
BRANCH   8   9
ATOM      9  C   UNL     1       3.345  -0.607   1.325  1.00  0.00     0.138 C 
BRANCH   9  10
ATOM     10  C   UNL     1       3.279   0.856   0.893  1.00  0.00     0.308 C 
ATOM     11  O   UNL     1       2.475   1.595   1.462  1.00  0.00    -0.247 OA
ATOM     12  N   UNL     1       4.049   1.329  -0.133  1.00  0.00    -0.204 N 
ATOM     13  C   UNL     1       5.335   1.391  -0.082  1.00  0.00     0.319 C 
ATOM     14  H   UNL     1       3.598   1.637  -0.952  1.00  0.00     0.316 HD
ATOM     15  S   UNL     1       6.326   0.800   1.284  1.00  0.00    -0.029 SA
ATOM     16  N   UNL     1       6.175   1.830  -1.107  1.00  0.00    -0.216 N 
ATOM     17  C   UNL     1       7.845   1.257   0.427  1.00  0.00     0.120 C 
ATOM     18  C   UNL     1       7.475   1.179  -1.059  1.00  0.00     0.212 C 
ATOM     19  C   UNL     1       9.089   0.420   0.553  1.00  0.00     0.156 C 
ATOM     20  C   UNL     1       8.676   1.759  -1.769  1.00  0.00     0.188 C 
ATOM     21  S   UNL     1      10.042   1.030  -0.849  1.00  0.00     0.155 S 
ATOM     22  O   UNL     1      10.896   2.102  -0.388  1.00  0.00    -0.229 OA
ATOM     23  O   UNL     1      10.550  -0.104  -1.592  1.00  0.00    -0.229 OA
BRANCH  16  24
ATOM     24  C   UNL     1       5.838   2.766  -2.088  1.00  0.00     0.132 A 
ATOM     25  C   UNL     1       6.107   2.539  -3.461  1.00  0.00     0.056 A 
ATOM     26  C   UNL     1       5.208   3.970  -1.724  1.00  0.00     0.102 A 
ATOM     27  C   UNL     1       5.743   3.465  -4.447  1.00  0.00     0.055 A 
ATOM     28  C   UNL     1       4.863   4.869  -2.713  1.00  0.00     0.170 A 
ATOM     29  C   UNL     1       5.113   4.617  -4.038  1.00  0.00     0.166 A 
ATOM     30  O   UNL     1       4.235   6.062  -2.524  1.00  0.00    -0.453 OA
ATOM     31  O   UNL     1       4.646   5.600  -4.851  1.00  0.00    -0.454 OA
ATOM     32  C   UNL     1       3.991   6.457  -3.892  1.00  0.00     0.468 C 
ENDBRANCH  16  24
ENDBRANCH   9  10
ENDBRANCH   8   9
ENDBRANCH   5   8
ENDBRANCH   3   4
ENDBRANCH   2   3
ENDBRANCH   1   2
BRANCH   1  33
ATOM     33  C   UNL     1       2.675   1.149  -4.757  1.00  0.00     0.002 C 
BRANCH  33  34
ATOM     34  C   UNL     1       1.294   1.520  -5.283  1.00  0.00     0.021 C 
BRANCH  34  35
ATOM     35  C   UNL     1       0.842   2.922  -4.900  1.00  0.00     0.116 C 
BRANCH  35  36
ATOM     36  N   UNL     1       1.577   3.956  -5.615  1.00  0.00    -0.352 N 
ATOM     37  C   UNL     1       1.066   4.918  -6.453  1.00  0.00     0.251 C 
ATOM     38  H   UNL     1       2.553   3.966  -5.484  1.00  0.00     0.163 HD
ATOM     39  O   UNL     1       1.789   5.623  -7.144  1.00  0.00    -0.269 OA
BRANCH  37  40
ATOM     40  C   UNL     1      -0.400   5.072  -6.511  1.00  0.00     0.039 A 
ATOM     41  C   UNL     1      -1.056   4.959  -7.736  1.00  0.00     0.014 A 
ATOM     42  C   UNL     1      -1.120   5.228  -5.322  1.00  0.00     0.014 A 
ATOM     43  C   UNL     1      -2.451   4.942  -7.762  1.00  0.00     0.010 A 
ATOM     44  C   UNL     1      -2.504   5.118  -5.343  1.00  0.00     0.010 A 
ATOM     45  C   UNL     1      -3.184   4.986  -6.563  1.00  0.00    -0.014 A 
BRANCH  45  46
ATOM     46  C   UNL     1      -4.667   4.913  -6.564  1.00  0.00     0.031 A 
ATOM     47  C   UNL     1      -5.470   6.073  -6.045  1.00  0.00     0.074 A 
ATOM     48  C   UNL     1      -5.285   3.788  -6.974  1.00  0.00     0.049 A 
ATOM     49  N   UNL     1      -6.767   6.191  -5.912  1.00  0.00    -0.248 NA
ATOM     50  C   UNL     1      -4.712   7.248  -5.582  1.00  0.00     0.031 C 
ATOM     51  C   UNL     1      -4.614   2.578  -7.449  1.00  0.00     0.029 A 
ATOM     52  N   UNL     1      -6.621   3.478  -7.050  1.00  0.00    -0.354 N 
ATOM     53  C   UNL     1      -6.975   7.439  -5.340  1.00  0.00     0.074 A 
ATOM     54  C   UNL     1      -5.672   8.015  -5.090  1.00  0.00     0.031 C 
ATOM     55  C   UNL     1      -5.540   1.669  -7.798  1.00  0.00     0.029 A 
ATOM     56  C   UNL     1      -6.867   2.216  -7.533  1.00  0.00     0.049 A 
ATOM     57  H   UNL     1      -7.334   4.101  -6.783  1.00  0.00     0.167 HD
ATOM     58  C   UNL     1      -8.147   8.062  -5.074  1.00  0.00     0.037 A 
ATOM     59  C   UNL     1      -8.034   1.573  -7.734  1.00  0.00     0.037 A 
ATOM     60  C   UNL     1      -9.440   7.494  -5.349  1.00  0.00     0.049 A 
ATOM     61  C   UNL     1      -9.324   2.284  -7.418  1.00  0.00     0.074 A 
ATOM     62  C   UNL     1     -10.687   8.067  -5.179  1.00  0.00     0.029 A 
ATOM     63  N   UNL     1      -9.650   6.216  -5.847  1.00  0.00    -0.354 N 
ATOM     64  N   UNL     1      -9.510   3.496  -6.954  1.00  0.00    -0.248 NA
ATOM     65  C   UNL     1     -10.566   1.537  -7.659  1.00  0.00     0.031 C 
ATOM     66  C   UNL     1     -11.654   7.115  -5.518  1.00  0.00     0.029 A 
ATOM     67  C   UNL     1     -11.009   5.972  -5.962  1.00  0.00     0.049 A 
ATOM     68  H   UNL     1      -8.939   5.578  -6.084  1.00  0.00     0.167 HD
ATOM     69  C   UNL     1     -10.886   3.670  -6.881  1.00  0.00     0.074 A 
ATOM     70  C   UNL     1     -11.487   2.443  -7.362  1.00  0.00     0.031 C 
ATOM     71  C   UNL     1     -11.589   4.748  -6.453  1.00  0.00     0.037 A 
BRANCH  58  72
ATOM     72  C   UNL     1      -8.084   9.428  -4.454  1.00  0.00     0.064 A 
ATOM     73  C   UNL     1      -7.596  10.540  -5.160  1.00  0.00     0.173 A 
ATOM     74  C   UNL     1      -8.545   9.637  -3.145  1.00  0.00     0.173 A 
ATOM     75  F   UNL     1      -7.130  10.395  -6.410  1.00  0.00    -0.203 F 
ATOM     76  C   UNL     1      -7.541  11.799  -4.568  1.00  0.00     0.198 A 
ATOM     77  C   UNL     1      -8.522  10.904  -2.569  1.00  0.00     0.198 A 
ATOM     78  F   UNL     1      -9.026   8.612  -2.426  1.00  0.00    -0.203 F 
ATOM     79  F   UNL     1      -7.019  12.832  -5.243  1.00  0.00    -0.200 F 
ATOM     80  C   UNL     1      -8.012  11.982  -3.277  1.00  0.00     0.200 A 
ATOM     81  F   UNL     1      -8.992  11.082  -1.327  1.00  0.00    -0.200 F 
ATOM     82  F   UNL     1      -7.968  13.196  -2.712  1.00  0.00    -0.200 F 
ENDBRANCH  58  72
BRANCH  59  83
ATOM     83  C   UNL     1      -8.041   0.192  -8.287  1.00  0.00     0.064 A 
ATOM     84  C   UNL     1      -8.549  -0.067  -9.569  1.00  0.00     0.173 A 
ATOM     85  C   UNL     1      -7.558  -0.897  -7.547  1.00  0.00     0.173 A 
ATOM     86  F   UNL     1      -9.041   0.937 -10.310  1.00  0.00    -0.203 F 
ATOM     87  C   UNL     1      -8.596  -1.364 -10.077  1.00  0.00     0.198 A 
ATOM     88  C   UNL     1      -7.577  -2.189  -8.069  1.00  0.00     0.198 A 
ATOM     89  F   UNL     1      -7.057  -0.704  -6.318  1.00  0.00    -0.203 F 
ATOM     90  F   UNL     1      -9.134  -1.589 -11.284  1.00  0.00    -0.200 F 
ATOM     91  C   UNL     1      -8.105  -2.423  -9.329  1.00  0.00     0.200 A 
ATOM     92  F   UNL     1      -7.085  -3.207  -7.349  1.00  0.00    -0.200 F 
ATOM     93  F   UNL     1      -8.148  -3.669  -9.819  1.00  0.00    -0.200 F 
ENDBRANCH  59  83
BRANCH  71  94
ATOM     94  C   UNL     1     -13.087   4.668  -6.527  1.00  0.00     0.064 A 
ATOM     95  C   UNL     1     -13.827   3.835  -5.674  1.00  0.00     0.173 A 
ATOM     96  C   UNL     1     -13.795   5.471  -7.435  1.00  0.00     0.173 A 
ATOM     97  F   UNL     1     -13.198   3.037  -4.797  1.00  0.00    -0.203 F 
ATOM     98  C   UNL     1     -15.216   3.787  -5.749  1.00  0.00     0.198 A 
ATOM     99  C   UNL     1     -15.185   5.447  -7.482  1.00  0.00     0.198 A 
ATOM    100  F   UNL     1     -13.137   6.292  -8.267  1.00  0.00    -0.203 F 
ATOM    101  F   UNL     1     -15.899   2.944  -4.961  1.00  0.00    -0.200 F 
ATOM    102  C   UNL     1     -15.894   4.599  -6.646  1.00  0.00     0.200 A 
ATOM    103  F   UNL     1     -15.839   6.246  -8.337  1.00  0.00    -0.200 F 
ATOM    104  F   UNL     1     -17.232   4.559  -6.709  1.00  0.00    -0.200 F 
ENDBRANCH  71  94
ENDBRANCH  45  46
ENDBRANCH  37  40
ENDBRANCH  35  36
ENDBRANCH  34  35
ENDBRANCH  33  34
ENDBRANCH   1  33
TORSDOF 16
