REMARK SMILES COC(=O)c1c(-c2ccccc2Cl)csc1NC(=O)[C@@H]1[C@@H]2CC[C@@H](C2)[C@@H]1C(=O)NCCCCCCNC(=O)c1ccc(-c2c3nc(c(-c4c(F)c(F)c(F)c(F)c4F)c4ccc([nH]4)c(-c4c(F)c(F)c(F)c(F)c4F)c4nc(c(-c5c(F)c(F)c(F)c(F)c5F)c5ccc2[nH]5)C=C4)C=C3)cc1
REMARK SMILES IDX 31 1 30 2 29 3 27 4 28 5 26 7 20 8 21 9 22 10 25 11 24 12
REMARK SMILES IDX 23 13 18 14 17 15 19 17 16 18 5 19 6 20 14 21 15 22 3 23
REMARK SMILES IDX 4 24 2 25 1 26 7 27 8 28 12 29 9 30 11 31 13 32 10 33 32 34
REMARK SMILES IDX 33 35 34 36 35 37 36 38 37 39 38 41 39 42 40 43 101 44 41 45
REMARK SMILES IDX 100 46 42 47 43 48 44 49 94 50 45 51 99 52 93 53 95 54 46 55
REMARK SMILES IDX 98 56 92 57 91 58 47 60 79 61 59 62 78 63 60 64 63 65 77 66
REMARK SMILES IDX 96 67 61 68 62 69 76 71 97 72 64 73 48 74 49 75 57 76 50 77
REMARK SMILES IDX 51 78 55 79 58 80 52 81 53 82 56 83 54 84 80 85 81 86 89 87
REMARK SMILES IDX 82 88 83 89 87 90 90 91 84 92 85 93 88 94 86 95 65 96 66 97
REMARK SMILES IDX 74 98 67 99 68 100 72 101 75 102 69 103 70 104 73 105 71 106
REMARK H PARENT 29 6 17 16 36 40 95 59 63 70
REMARK Flexibility Score: inf
ROOT
ATOM      1  C   UNL     1       7.335  -6.896   4.117  1.00  0.00     0.021 C 
ENDROOT
BRANCH   1   2
ATOM      2  C   UNL     1       6.149  -7.841   4.302  1.00  0.00     0.116 C 
BRANCH   2   3
ATOM      3  N   UNL     1       5.571  -7.657   5.622  1.00  0.00    -0.356 N 
ATOM      4  C   UNL     1       4.461  -6.971   6.018  1.00  0.00     0.224 C 
ATOM      5  O   UNL     1       4.388  -6.674   7.209  1.00  0.00    -0.275 OA
ATOM      6  H   UNL     1       6.062  -8.101   6.350  1.00  0.00     0.163 HD
BRANCH   4   7
ATOM      7  C   UNL     1       3.347  -6.670   5.022  1.00  0.00     0.094 C 
ATOM      8  C   UNL     1       2.810  -5.220   4.928  1.00  0.00     0.094 C 
ATOM      9  C   UNL     1       1.276  -5.411   5.122  1.00  0.00     0.002 C 
ATOM     10  C   UNL     1       0.873  -5.814   6.545  1.00  0.00     0.005 C 
ATOM     11  C   UNL     1       1.058  -6.750   4.394  1.00  0.00     0.009 C 
ATOM     12  C   UNL     1       2.054  -7.496   5.290  1.00  0.00     0.002 C 
ATOM     13  C   UNL     1       1.439  -7.229   6.678  1.00  0.00     0.005 C 
BRANCH   8  14
ATOM     14  C   UNL     1       3.501  -4.166   5.785  1.00  0.00     0.229 C 
ATOM     15  N   UNL     1       4.731  -3.644   5.501  1.00  0.00    -0.317 N 
ATOM     16  H   UNL     1       5.114  -3.157   6.266  1.00  0.00     0.170 HD
ATOM     17  O   UNL     1       2.962  -3.727   6.807  1.00  0.00    -0.274 OA
BRANCH  15  18
ATOM     18  C   UNL     1       5.571  -3.634   4.399  1.00  0.00     0.110 A 
ATOM     19  C   UNL     1       6.835  -3.045   4.339  1.00  0.00     0.102 A 
ATOM     20  C   UNL     1       7.503  -3.346   3.082  1.00  0.00     0.011 A 
ATOM     21  C   UNL     1       6.654  -4.018   2.225  1.00  0.00     0.076 A 
ATOM     22  S   UNL     1       5.113  -4.264   2.896  1.00  0.00    -0.125 S 
BRANCH  19  23
ATOM     23  C   UNL     1       7.380  -2.266   5.448  1.00  0.00     0.341 C 
ATOM     24  O   UNL     1       7.038  -2.437   6.615  1.00  0.00    -0.246 OA
BRANCH  23  25
ATOM     25  O   UNL     1       8.238  -1.293   5.034  1.00  0.00    -0.465 OA
ATOM     26  C   UNL     1       8.668  -0.398   6.061  1.00  0.00     0.282 C 
ENDBRANCH  23  25
ENDBRANCH  19  23
BRANCH  20  27
ATOM     27  C   UNL     1       8.917  -3.153   2.724  1.00  0.00     0.002 A 
ATOM     28  C   UNL     1       9.895  -3.626   3.621  1.00  0.00     0.010 A 
ATOM     29  C   UNL     1       9.350  -2.579   1.515  1.00  0.00     0.048 A 
ATOM     30  C   UNL     1      11.257  -3.546   3.317  1.00  0.00     0.001 A 
ATOM     31  C   UNL     1      10.717  -2.511   1.211  1.00  0.00     0.021 A 
ATOM     32  Cl  UNL     1       8.262  -1.905   0.350  1.00  0.00    -0.084 Cl
ATOM     33  C   UNL     1      11.668  -2.995   2.108  1.00  0.00     0.002 A 
ENDBRANCH  20  27
ENDBRANCH  15  18
ENDBRANCH   8  14
ENDBRANCH   4   7
ENDBRANCH   2   3
ENDBRANCH   1   2
BRANCH   1  34
ATOM     34  C   UNL     1       8.616  -7.300   4.847  1.00  0.00     0.002 C 
BRANCH  34  35
ATOM     35  C   UNL     1       9.279  -8.574   4.329  1.00  0.00     0.002 C 
BRANCH  35  36
ATOM     36  C   UNL     1       9.582  -8.592   2.829  1.00  0.00     0.021 C 
BRANCH  36  37
ATOM     37  C   UNL     1      10.406  -7.414   2.316  1.00  0.00     0.116 C 
BRANCH  37  38
ATOM     38  N   UNL     1      11.715  -7.340   2.943  1.00  0.00    -0.352 N 
ATOM     39  C   UNL     1      12.964  -7.423   2.381  1.00  0.00     0.251 C 
ATOM     40  H   UNL     1      11.705  -7.210   3.919  1.00  0.00     0.163 HD
ATOM     41  O   UNL     1      13.957  -7.522   3.094  1.00  0.00    -0.269 OA
BRANCH  39  42
ATOM     42  C   UNL     1      13.117  -7.410   0.910  1.00  0.00     0.039 A 
ATOM     43  C   UNL     1      13.966  -8.345   0.312  1.00  0.00     0.014 A 
ATOM     44  C   UNL     1      12.443  -6.472   0.125  1.00  0.00     0.014 A 
ATOM     45  C   UNL     1      14.090  -8.378  -1.079  1.00  0.00     0.010 A 
ATOM     46  C   UNL     1      12.513  -6.550  -1.264  1.00  0.00     0.010 A 
ATOM     47  C   UNL     1      13.337  -7.504  -1.881  1.00  0.00    -0.014 A 
BRANCH  47  48
ATOM     48  C   UNL     1      13.390  -7.590  -3.365  1.00  0.00     0.031 A 
ATOM     49  C   UNL     1      13.918  -6.438  -4.176  1.00  0.00     0.074 A 
ATOM     50  C   UNL     1      12.904  -8.684  -3.985  1.00  0.00     0.049 A 
ATOM     51  N   UNL     1      13.992  -6.308  -5.477  1.00  0.00    -0.248 NA
ATOM     52  C   UNL     1      14.406  -5.267  -3.430  1.00  0.00     0.031 C 
ATOM     53  C   UNL     1      12.321  -9.846  -3.312  1.00  0.00     0.029 A 
ATOM     54  N   UNL     1      12.811  -8.993  -5.320  1.00  0.00    -0.354 N 
ATOM     55  C   UNL     1      14.515  -5.041  -5.703  1.00  0.00     0.074 A 
ATOM     56  C   UNL     1      14.701  -4.423  -4.409  1.00  0.00     0.031 C 
ATOM     57  C   UNL     1      11.947 -10.748  -4.235  1.00  0.00     0.029 A 
ATOM     58  C   UNL     1      12.222 -10.211  -5.564  1.00  0.00     0.049 A 
ATOM     59  H   UNL     1      13.135  -8.399  -6.034  1.00  0.00     0.167 HD
ATOM     60  C   UNL     1      14.825  -4.455  -6.884  1.00  0.00     0.037 A 
ATOM     61  C   UNL     1      11.922 -10.820  -6.728  1.00  0.00     0.037 A 
ATOM     62  C   UNL     1      14.667  -5.086  -8.169  1.00  0.00     0.049 A 
ATOM     63  C   UNL     1      12.275 -10.138  -8.024  1.00  0.00     0.074 A 
ATOM     64  C   UNL     1      15.035  -4.606  -9.414  1.00  0.00     0.029 A 
ATOM     65  N   UNL     1      14.084  -6.327  -8.376  1.00  0.00    -0.354 N 
ATOM     66  N   UNL     1      12.858  -8.980  -8.220  1.00  0.00    -0.248 NA
ATOM     67  C   UNL     1      11.935 -10.852  -9.263  1.00  0.00     0.031 C 
ATOM     68  C   UNL     1      14.611  -5.523 -10.380  1.00  0.00     0.029 A 
ATOM     69  C   UNL     1      14.045  -6.609  -9.732  1.00  0.00     0.049 A 
ATOM     70  H   UNL     1      13.747  -6.919  -7.665  1.00  0.00     0.167 HD
ATOM     71  C   UNL     1      12.985  -8.844  -9.596  1.00  0.00     0.074 A 
ATOM     72  C   UNL     1      12.437 -10.046 -10.187  1.00  0.00     0.031 C 
ATOM     73  C   UNL     1      13.508  -7.815 -10.308  1.00  0.00     0.037 A 
BRANCH  60  74
ATOM     74  C   UNL     1      15.364  -3.052  -6.859  1.00  0.00     0.064 A 
ATOM     75  C   UNL     1      16.646  -2.759  -6.372  1.00  0.00     0.173 A 
ATOM     76  C   UNL     1      14.613  -1.999  -7.405  1.00  0.00     0.173 A 
ATOM     77  F   UNL     1      17.402  -3.726  -5.831  1.00  0.00    -0.203 F 
ATOM     78  C   UNL     1      17.149  -1.460  -6.416  1.00  0.00     0.198 A 
ATOM     79  C   UNL     1      15.132  -0.709  -7.477  1.00  0.00     0.198 A 
ATOM     80  F   UNL     1      13.383  -2.225  -7.890  1.00  0.00    -0.203 F 
ATOM     81  F   UNL     1      18.362  -1.197  -5.910  1.00  0.00    -0.200 F 
ATOM     82  C   UNL     1      16.397  -0.440  -6.978  1.00  0.00     0.200 A 
ATOM     83  F   UNL     1      14.410   0.272  -8.035  1.00  0.00    -0.200 F 
ATOM     84  F   UNL     1      16.891   0.804  -7.037  1.00  0.00    -0.200 F 
ENDBRANCH  60  74
BRANCH  61  85
ATOM     85  C   UNL     1      11.246 -12.146  -6.732  1.00  0.00     0.064 A 
ATOM     86  C   UNL     1      11.891 -13.287  -7.231  1.00  0.00     0.173 A 
ATOM     87  C   UNL     1       9.926 -12.292  -6.279  1.00  0.00     0.173 A 
ATOM     88  F   UNL     1      13.146 -13.198  -7.694  1.00  0.00    -0.203 F 
ATOM     89  C   UNL     1      11.229 -14.511  -7.314  1.00  0.00     0.198 A 
ATOM     90  C   UNL     1       9.279 -13.525  -6.328  1.00  0.00     0.198 A 
ATOM     91  F   UNL     1       9.264 -11.236  -5.785  1.00  0.00    -0.203 F 
ATOM     92  F   UNL     1      11.847 -15.567  -7.862  1.00  0.00    -0.200 F 
ATOM     93  C   UNL     1       9.925 -14.630  -6.859  1.00  0.00     0.200 A 
ATOM     94  F   UNL     1       8.024 -13.639  -5.870  1.00  0.00    -0.200 F 
ATOM     95  F   UNL     1       9.287 -15.805  -6.945  1.00  0.00    -0.200 F 
ENDBRANCH  61  85
BRANCH  73  96
ATOM     96  C   UNL     1      13.556  -7.961 -11.803  1.00  0.00     0.064 A 
ATOM     97  C   UNL     1      12.393  -7.944 -12.587  1.00  0.00     0.173 A 
ATOM     98  C   UNL     1      14.789  -8.083 -12.463  1.00  0.00     0.173 A 
ATOM     99  F   UNL     1      11.187  -7.844 -12.006  1.00  0.00    -0.203 F 
ATOM    100  C   UNL     1      12.461  -8.077 -13.972  1.00  0.00     0.198 A 
ATOM    101  C   UNL     1      14.855  -8.177 -13.850  1.00  0.00     0.198 A 
ATOM    102  F   UNL     1      15.933  -8.096 -11.762  1.00  0.00    -0.203 F 
ATOM    103  F   UNL     1      11.333  -8.117 -14.695  1.00  0.00    -0.200 F 
ATOM    104  C   UNL     1      13.691  -8.184 -14.602  1.00  0.00     0.200 A 
ATOM    105  F   UNL     1      16.047  -8.261 -14.457  1.00  0.00    -0.200 F 
ATOM    106  F   UNL     1      13.755  -8.302 -15.936  1.00  0.00    -0.200 F 
ENDBRANCH  73  96
ENDBRANCH  47  48
ENDBRANCH  39  42
ENDBRANCH  37  38
ENDBRANCH  36  37
ENDBRANCH  35  36
ENDBRANCH  34  35
ENDBRANCH   1  34
TORSDOF 18
