REMARK SMILES CC1=C(C)C[C@@H](C(=O)NCC(=O)c2ccccc2)[C@H](C(=O)NCCCCCCNC(=O)c2ccc(-c3c4nc(c(-c5c(F)c(F)c(F)c(F)c5F)c5ccc([nH]5)c(-c5c(F)c(F)c(F)c(F)c5F)c5nc(c(-c6c(F)c(F)c(F)c(F)c6F)c6ccc3[nH]6)C=C5)C=C4)cc2)C1
REMARK SMILES IDX 24 1 23 2 22 3 20 4 21 5 19 7 1 8 2 9 3 10 95 11 4 12 5 13
REMARK SMILES IDX 6 14 7 15 8 16 9 17 10 19 11 20 12 21 13 22 14 23 18 24
REMARK SMILES IDX 15 25 17 26 16 27 25 28 26 29 27 30 28 31 29 32 30 33 31 35
REMARK SMILES IDX 32 36 33 37 94 38 34 39 93 40 35 41 36 42 37 43 87 44 38 45
REMARK SMILES IDX 92 46 86 47 88 48 39 49 91 50 85 51 84 52 40 54 72 55 52 56
REMARK SMILES IDX 71 57 53 58 56 59 70 60 89 61 54 62 55 63 69 65 90 66 57 67
REMARK SMILES IDX 41 68 42 69 50 70 43 71 44 72 48 73 51 74 45 75 46 76 49 77
REMARK SMILES IDX 47 78 73 79 74 80 82 81 75 82 76 83 80 84 83 85 77 86 78 87
REMARK SMILES IDX 81 88 79 89 58 90 59 91 67 92 60 93 61 94 65 95 68 96 62 97
REMARK SMILES IDX 63 98 66 99 64 100
REMARK H PARENT 22 6 9 18 29 34 88 53 56 64
REMARK Flexibility Score: inf
ROOT
ATOM      1  C   UNL     1       3.748  -3.157  -3.337  1.00  0.00     0.021 C 
ENDROOT
BRANCH   1   2
ATOM      2  C   UNL     1       2.735  -2.047  -3.102  1.00  0.00     0.116 C 
BRANCH   2   3
ATOM      3  N   UNL     1       1.724  -2.001  -4.128  1.00  0.00    -0.356 N 
ATOM      4  C   UNL     1       0.371  -1.968  -4.005  1.00  0.00     0.224 C 
ATOM      5  O   UNL     1      -0.292  -1.891  -5.043  1.00  0.00    -0.275 OA
ATOM      6  H   UNL     1       2.063  -1.991  -5.053  1.00  0.00     0.163 HD
BRANCH   4   7
ATOM      7  C   UNL     1      -0.325  -2.030  -2.641  1.00  0.00     0.095 C 
ATOM      8  C   UNL     1       1.108   0.189   0.281  1.00  0.00     0.039 C 
ATOM      9  C   UNL     1       0.719  -1.071  -0.452  1.00  0.00    -0.074 C 
ATOM     10  C   UNL     1       0.988  -2.307   0.018  1.00  0.00    -0.074 C 
ATOM     11  C   UNL     1       0.024  -0.821  -1.767  1.00  0.00     0.045 C 
ATOM     12  C   UNL     1       1.758  -2.576   1.288  1.00  0.00     0.039 C 
ATOM     13  C   UNL     1       0.581  -3.568  -0.709  1.00  0.00     0.045 C 
ATOM     14  C   UNL     1      -0.222  -3.421  -2.006  1.00  0.00     0.095 C 
BRANCH  14  15
ATOM     15  C   UNL     1      -1.587  -4.097  -1.896  1.00  0.00     0.224 C 
ATOM     16  O   UNL     1      -1.846  -5.077  -2.603  1.00  0.00    -0.275 OA
ATOM     17  N   UNL     1      -2.567  -3.692  -1.052  1.00  0.00    -0.348 N 
ATOM     18  H   UNL     1      -3.394  -4.220  -1.131  1.00  0.00     0.163 HD
BRANCH  17  19
ATOM     19  C   UNL     1      -2.646  -2.642  -0.055  1.00  0.00     0.197 C 
BRANCH  19  20
ATOM     20  C   UNL     1      -3.471  -1.372  -0.306  1.00  0.00     0.181 C 
ATOM     21  O   UNL     1      -3.772  -0.645   0.646  1.00  0.00    -0.292 OA
BRANCH  20  22
ATOM     22  C   UNL     1      -3.739  -0.857  -1.678  1.00  0.00     0.019 A 
ATOM     23  C   UNL     1      -3.637   0.530  -1.871  1.00  0.00     0.012 A 
ATOM     24  C   UNL     1      -4.040  -1.675  -2.769  1.00  0.00     0.012 A 
ATOM     25  C   UNL     1      -3.761   1.081  -3.146  1.00  0.00     0.001 A 
ATOM     26  C   UNL     1      -4.148  -1.122  -4.048  1.00  0.00     0.001 A 
ATOM     27  C   UNL     1      -3.999   0.251  -4.238  1.00  0.00     0.000 A 
ENDBRANCH  20  22
ENDBRANCH  19  20
ENDBRANCH  17  19
ENDBRANCH  14  15
ENDBRANCH   4   7
ENDBRANCH   2   3
ENDBRANCH   1   2
BRANCH   1  28
ATOM     28  C   UNL     1       4.825  -2.802  -4.360  1.00  0.00     0.002 C 
BRANCH  28  29
ATOM     29  C   UNL     1       5.618  -1.528  -4.046  1.00  0.00     0.002 C 
BRANCH  29  30
ATOM     30  C   UNL     1       6.215  -1.456  -2.637  1.00  0.00     0.021 C 
BRANCH  30  31
ATOM     31  C   UNL     1       7.112  -2.631  -2.265  1.00  0.00     0.116 C 
BRANCH  31  32
ATOM     32  N   UNL     1       8.220  -2.786  -3.193  1.00  0.00    -0.352 N 
ATOM     33  C   UNL     1       9.562  -2.853  -2.942  1.00  0.00     0.251 C 
ATOM     34  H   UNL     1       7.966  -2.852  -4.142  1.00  0.00     0.163 HD
ATOM     35  O   UNL     1      10.370  -2.777  -3.870  1.00  0.00    -0.269 OA
BRANCH  33  36
ATOM     36  C   UNL     1      10.048  -3.004  -1.558  1.00  0.00     0.039 A 
ATOM     37  C   UNL     1      11.132  -2.231  -1.136  1.00  0.00     0.014 A 
ATOM     38  C   UNL     1       9.453  -3.921  -0.686  1.00  0.00     0.014 A 
ATOM     39  C   UNL     1      11.591  -2.344   0.176  1.00  0.00     0.010 A 
ATOM     40  C   UNL     1       9.866  -3.982   0.641  1.00  0.00     0.010 A 
ATOM     41  C   UNL     1      10.946  -3.202   1.081  1.00  0.00    -0.014 A 
BRANCH  41  42
ATOM     42  C   UNL     1      11.396  -3.303   2.491  1.00  0.00     0.031 A 
ATOM     43  C   UNL     1      11.969  -4.593   3.009  1.00  0.00     0.074 A 
ATOM     44  C   UNL     1      11.241  -2.249   3.314  1.00  0.00     0.049 A 
ATOM     45  N   UNL     1      12.368  -4.895   4.218  1.00  0.00    -0.248 NA
ATOM     46  C   UNL     1      12.084  -5.699   2.045  1.00  0.00     0.031 C 
ATOM     47  C   UNL     1      10.658  -0.961   2.937  1.00  0.00     0.029 A 
ATOM     48  N   UNL     1      11.554  -2.097   4.641  1.00  0.00    -0.354 N 
ATOM     49  C   UNL     1      12.771  -6.223   4.162  1.00  0.00     0.074 A 
ATOM     50  C   UNL     1      12.514  -6.687   2.816  1.00  0.00     0.031 C 
ATOM     51  C   UNL     1      10.677  -0.142   4.001  1.00  0.00     0.029 A 
ATOM     52  C   UNL     1      11.238  -0.858   5.142  1.00  0.00     0.049 A 
ATOM     53  H   UNL     1      11.966  -2.808   5.183  1.00  0.00     0.167 HD
ATOM     54  C   UNL     1      13.330  -6.978   5.137  1.00  0.00     0.037 A 
ATOM     55  C   UNL     1      11.382  -0.359   6.385  1.00  0.00     0.037 A 
ATOM     56  C   UNL     1      13.602  -6.504   6.469  1.00  0.00     0.049 A 
ATOM     57  C   UNL     1      11.995  -1.224   7.453  1.00  0.00     0.074 A 
ATOM     58  C   UNL     1      14.209  -7.174   7.517  1.00  0.00     0.029 A 
ATOM     59  N   UNL     1      13.281  -5.238   6.936  1.00  0.00    -0.354 N 
ATOM     60  N   UNL     1      12.433  -2.457   7.371  1.00  0.00    -0.248 NA
ATOM     61  C   UNL     1      12.140  -0.623   8.786  1.00  0.00     0.031 C 
ATOM     62  C   UNL     1      14.215  -6.328   8.631  1.00  0.00     0.029 A 
ATOM     63  C   UNL     1      13.659  -5.113   8.264  1.00  0.00     0.049 A 
ATOM     64  H   UNL     1      12.848  -4.532   6.404  1.00  0.00     0.167 HD
ATOM     65  C   UNL     1      12.932  -2.769   8.628  1.00  0.00     0.074 A 
ATOM     66  C   UNL     1      12.758  -1.589   9.450  1.00  0.00     0.031 C 
ATOM     67  C   UNL     1      13.486  -3.927   9.063  1.00  0.00     0.037 A 
BRANCH  54  68
ATOM     68  C   UNL     1      13.689  -8.396   4.798  1.00  0.00     0.064 A 
ATOM     69  C   UNL     1      14.741  -8.697   3.918  1.00  0.00     0.173 A 
ATOM     70  C   UNL     1      12.998  -9.467   5.383  1.00  0.00     0.173 A 
ATOM     71  F   UNL     1      15.426  -7.710   3.322  1.00  0.00    -0.203 F 
ATOM     72  C   UNL     1      15.066 -10.016   3.613  1.00  0.00     0.198 A 
ATOM     73  C   UNL     1      13.347 -10.786   5.100  1.00  0.00     0.198 A 
ATOM     74  F   UNL     1      11.988  -9.237   6.234  1.00  0.00    -0.203 F 
ATOM     75  F   UNL     1      16.040 -10.277   2.731  1.00  0.00    -0.200 F 
ATOM     76  C   UNL     1      14.375 -11.059   4.210  1.00  0.00     0.200 A 
ATOM     77  F   UNL     1      12.686 -11.793   5.688  1.00  0.00    -0.200 F 
ATOM     78  F   UNL     1      14.694 -12.328   3.921  1.00  0.00    -0.200 F 
ENDBRANCH  54  68
BRANCH  55  79
ATOM     79  C   UNL     1      10.963   1.036   6.680  1.00  0.00     0.064 A 
ATOM     80  C   UNL     1      11.913   2.026   6.968  1.00  0.00     0.173 A 
ATOM     81  C   UNL     1       9.611   1.407   6.689  1.00  0.00     0.173 A 
ATOM     82  F   UNL     1      13.218   1.715   6.989  1.00  0.00    -0.203 F 
ATOM     83  C   UNL     1      11.525   3.327   7.279  1.00  0.00     0.198 A 
ATOM     84  C   UNL     1       9.226   2.716   6.971  1.00  0.00     0.198 A 
ATOM     85  F   UNL     1       8.663   0.499   6.414  1.00  0.00    -0.203 F 
ATOM     86  F   UNL     1      12.451   4.241   7.599  1.00  0.00    -0.200 F 
ATOM     87  C   UNL     1      10.182   3.672   7.275  1.00  0.00     0.200 A 
ATOM     88  F   UNL     1       7.928   3.049   6.952  1.00  0.00    -0.200 F 
ATOM     89  F   UNL     1       9.810   4.925   7.573  1.00  0.00    -0.200 F 
ENDBRANCH  55  79
BRANCH  67  90
ATOM     90  C   UNL     1      13.978  -3.963  10.481  1.00  0.00     0.064 A 
ATOM     91  C   UNL     1      13.093  -3.981  11.569  1.00  0.00     0.173 A 
ATOM     92  C   UNL     1      15.354  -4.014  10.752  1.00  0.00     0.173 A 
ATOM     93  F   UNL     1      11.768  -3.918  11.362  1.00  0.00    -0.203 F 
ATOM     94  C   UNL     1      13.568  -4.021  12.877  1.00  0.00     0.198 A 
ATOM     95  C   UNL     1      15.824  -4.085  12.060  1.00  0.00     0.198 A 
ATOM     96  F   UNL     1      16.242  -4.006   9.747  1.00  0.00    -0.203 F 
ATOM     97  F   UNL     1      12.705  -3.986  13.902  1.00  0.00    -0.200 F 
ATOM     98  C   UNL     1      14.932  -4.080  13.121  1.00  0.00     0.200 A 
ATOM     99  F   UNL     1      17.142  -4.157  12.294  1.00  0.00    -0.200 F 
ATOM    100  F   UNL     1      15.387  -4.125  14.381  1.00  0.00    -0.200 F 
ENDBRANCH  67  90
ENDBRANCH  41  42
ENDBRANCH  33  36
ENDBRANCH  31  32
ENDBRANCH  30  31
ENDBRANCH  29  30
ENDBRANCH  28  29
ENDBRANCH   1  28
TORSDOF 17
