REMARK SMILES CCn1cc(CNC(=O)[C@H]2CC=CC[C@@H]2C(=O)NCCCCCCNC(=O)c2ccc(-c3c4nc(c(-c5c(F)c(F)c(F)c(F)c5F)c5ccc([nH]5)c(-c5c(F)c(F)c(F)c(F)c5F)c5nc(c(-c6c(F)c(F)c(F)c(F)c6F)c6ccc3[nH]6)C=C5)C=C4)cc2)cn1
REMARK SMILES IDX 20 1 19 2 18 3 16 4 17 5 15 7 10 8 11 9 12 10 14 11 13 12
REMARK SMILES IDX 8 13 7 14 9 16 6 17 5 18 3 19 4 20 92 21 91 22 2 23 1 24
REMARK SMILES IDX 21 25 22 26 23 27 24 28 25 29 26 30 27 32 28 33 29 34 90 35
REMARK SMILES IDX 30 36 89 37 31 38 32 39 33 40 83 41 34 42 88 43 82 44 84 45
REMARK SMILES IDX 35 46 87 47 81 48 80 49 36 51 68 52 48 53 67 54 49 55 52 56
REMARK SMILES IDX 66 57 85 58 50 59 51 60 65 62 86 63 53 64 37 65 38 66 46 67
REMARK SMILES IDX 39 68 40 69 44 70 47 71 41 72 42 73 45 74 43 75 69 76 70 77
REMARK SMILES IDX 78 78 71 79 72 80 76 81 79 82 73 83 74 84 77 85 75 86 54 87
REMARK SMILES IDX 55 88 63 89 56 90 57 91 61 92 64 93 58 94 59 95 62 96 60 97
REMARK H PARENT 18 6 7 15 25 31 84 50 52 61
REMARK Flexibility Score: inf
ROOT
ATOM      1  C   UNL     1      -1.043   4.285  -6.134  1.00  0.00     0.021 C 
ENDROOT
BRANCH   1   2
ATOM      2  C   UNL     1       0.291   3.906  -6.789  1.00  0.00     0.116 C 
BRANCH   2   3
ATOM      3  N   UNL     1       0.619   4.839  -7.846  1.00  0.00    -0.356 N 
ATOM      4  C   UNL     1       1.512   5.864  -7.911  1.00  0.00     0.224 C 
ATOM      5  O   UNL     1       1.489   6.526  -8.951  1.00  0.00    -0.275 OA
ATOM      6  H   UNL     1       0.099   4.708  -8.671  1.00  0.00     0.163 HD
BRANCH   4   7
ATOM      7  C   UNL     1       2.524   6.122  -6.786  1.00  0.00     0.095 C 
ATOM      8  C   UNL     1       1.863   6.468  -5.434  1.00  0.00     0.095 C 
ATOM      9  C   UNL     1       1.221   7.861  -5.427  1.00  0.00     0.041 C 
ATOM     10  C   UNL     1       2.010   8.905  -6.152  1.00  0.00    -0.030 C 
ATOM     11  C   UNL     1       3.524   7.220  -7.224  1.00  0.00     0.041 C 
ATOM     12  C   UNL     1       3.055   8.620  -6.940  1.00  0.00    -0.030 C 
BRANCH   8  13
ATOM     13  C   UNL     1       2.841   6.292  -4.270  1.00  0.00     0.224 C 
ATOM     14  N   UNL     1       2.374   5.973  -3.031  1.00  0.00    -0.352 N 
ATOM     15  H   UNL     1       3.058   5.973  -2.323  1.00  0.00     0.163 HD
ATOM     16  O   UNL     1       4.058   6.423  -4.393  1.00  0.00    -0.275 OA
BRANCH  14  17
ATOM     17  C   UNL     1       1.043   5.634  -2.582  1.00  0.00     0.155 C 
BRANCH  17  18
ATOM     18  C   UNL     1       1.043   4.227  -2.099  1.00  0.00     0.009 A 
ATOM     19  N   UNL     1       0.785   2.387  -0.903  1.00  0.00    -0.273 N 
ATOM     20  C   UNL     1       0.596   3.744  -0.884  1.00  0.00     0.114 A 
ATOM     21  N   UNL     1       1.294   1.949  -2.067  1.00  0.00    -0.181 NA
ATOM     22  C   UNL     1       1.486   3.065  -2.774  1.00  0.00     0.140 A 
BRANCH  19  23
ATOM     23  C   UNL     1       0.427   1.471   0.166  1.00  0.00     0.141 C 
ATOM     24  C   UNL     1       0.959   0.052   0.028  1.00  0.00     0.029 C 
ENDBRANCH  19  23
ENDBRANCH  17  18
ENDBRANCH  14  17
ENDBRANCH   8  13
ENDBRANCH   4   7
ENDBRANCH   2   3
ENDBRANCH   1   2
BRANCH   1  25
ATOM     25  C   UNL     1      -2.269   4.083  -7.036  1.00  0.00     0.002 C 
BRANCH  25  26
ATOM     26  C   UNL     1      -2.460   2.664  -7.587  1.00  0.00     0.002 C 
BRANCH  26  27
ATOM     27  C   UNL     1      -2.447   1.534  -6.548  1.00  0.00     0.021 C 
BRANCH  27  28
ATOM     28  C   UNL     1      -3.607   1.589  -5.562  1.00  0.00     0.116 C 
BRANCH  28  29
ATOM     29  N   UNL     1      -4.890   1.346  -6.214  1.00  0.00    -0.352 N 
ATOM     30  C   UNL     1      -6.159   1.384  -5.678  1.00  0.00     0.251 C 
ATOM     31  H   UNL     1      -4.842   1.125  -7.172  1.00  0.00     0.163 HD
ATOM     32  O   UNL     1      -7.082   0.803  -6.226  1.00  0.00    -0.269 OA
BRANCH  30  33
ATOM     33  C   UNL     1      -6.396   2.130  -4.428  1.00  0.00     0.039 A 
ATOM     34  C   UNL     1      -7.292   1.636  -3.475  1.00  0.00     0.014 A 
ATOM     35  C   UNL     1      -5.737   3.341  -4.220  1.00  0.00     0.014 A 
ATOM     36  C   UNL     1      -7.458   2.330  -2.280  1.00  0.00     0.010 A 
ATOM     37  C   UNL     1      -5.809   3.963  -2.995  1.00  0.00     0.010 A 
ATOM     38  C   UNL     1      -6.696   3.483  -2.036  1.00  0.00    -0.014 A 
BRANCH  38  39
ATOM     39  C   UNL     1      -6.718   4.107  -0.716  1.00  0.00     0.031 A 
ATOM     40  C   UNL     1      -6.336   3.192   0.396  1.00  0.00     0.074 A 
ATOM     41  C   UNL     1      -6.842   5.438  -0.522  1.00  0.00     0.049 A 
ATOM     42  N   UNL     1      -7.057   2.817   1.400  1.00  0.00    -0.248 NA
ATOM     43  C   UNL     1      -5.032   2.512   0.316  1.00  0.00     0.031 C 
ATOM     44  C   UNL     1      -6.884   6.494  -1.538  1.00  0.00     0.029 A 
ATOM     45  N   UNL     1      -6.843   6.145   0.643  1.00  0.00    -0.354 N 
ATOM     46  C   UNL     1      -6.241   2.000   2.181  1.00  0.00     0.074 A 
ATOM     47  C   UNL     1      -5.083   1.708   1.379  1.00  0.00     0.031 C 
ATOM     48  C   UNL     1      -6.671   7.694  -0.954  1.00  0.00     0.029 A 
ATOM     49  C   UNL     1      -6.640   7.512   0.486  1.00  0.00     0.049 A 
ATOM     50  H   UNL     1      -6.975   5.723   1.523  1.00  0.00     0.167 HD
ATOM     51  C   UNL     1      -6.482   1.847   3.513  1.00  0.00     0.037 A 
ATOM     52  C   UNL     1      -6.428   8.423   1.469  1.00  0.00     0.037 A 
ATOM     53  C   UNL     1      -7.833   2.241   3.831  1.00  0.00     0.049 A 
ATOM     54  C   UNL     1      -6.881   7.814   2.741  1.00  0.00     0.074 A 
ATOM     55  C   UNL     1      -9.091   1.830   3.434  1.00  0.00     0.029 A 
ATOM     56  N   UNL     1      -8.014   3.467   4.420  1.00  0.00    -0.354 N 
ATOM     57  N   UNL     1      -8.128   7.580   3.037  1.00  0.00    -0.248 NA
ATOM     58  C   UNL     1      -5.903   7.083   3.531  1.00  0.00     0.031 C 
ATOM     59  C   UNL     1      -9.871   3.024   3.375  1.00  0.00     0.029 A 
ATOM     60  C   UNL     1      -9.070   4.082   3.805  1.00  0.00     0.049 A 
ATOM     61  H   UNL     1      -7.476   3.840   5.156  1.00  0.00     0.167 HD
ATOM     62  C   UNL     1      -8.103   6.368   3.707  1.00  0.00     0.074 A 
ATOM     63  C   UNL     1      -6.707   6.174   4.088  1.00  0.00     0.031 C 
ATOM     64  C   UNL     1      -9.161   5.511   3.627  1.00  0.00     0.037 A 
BRANCH  51  65
ATOM     65  C   UNL     1      -5.405   1.759   4.581  1.00  0.00     0.064 A 
ATOM     66  C   UNL     1      -5.803   1.643   5.932  1.00  0.00     0.173 A 
ATOM     67  C   UNL     1      -4.050   2.106   4.386  1.00  0.00     0.173 A 
ATOM     68  F   UNL     1      -7.062   1.308   6.249  1.00  0.00    -0.203 F 
ATOM     69  C   UNL     1      -4.953   1.980   6.989  1.00  0.00     0.198 A 
ATOM     70  C   UNL     1      -3.190   2.390   5.447  1.00  0.00     0.198 A 
ATOM     71  F   UNL     1      -3.517   2.290   3.174  1.00  0.00    -0.203 F 
ATOM     72  F   UNL     1      -5.428   2.004   8.242  1.00  0.00    -0.200 F 
ATOM     73  C   UNL     1      -3.651   2.368   6.745  1.00  0.00     0.200 A 
ATOM     74  F   UNL     1      -1.932   2.773   5.185  1.00  0.00    -0.200 F 
ATOM     75  F   UNL     1      -2.856   2.765   7.747  1.00  0.00    -0.200 F 
ENDBRANCH  51  65
BRANCH  52  76
ATOM     76  C   UNL     1      -5.644   9.681   1.452  1.00  0.00     0.064 A 
ATOM     77  C   UNL     1      -5.790  10.631   2.478  1.00  0.00     0.173 A 
ATOM     78  C   UNL     1      -4.530   9.841   0.607  1.00  0.00     0.173 A 
ATOM     79  F   UNL     1      -6.804  10.533   3.350  1.00  0.00    -0.203 F 
ATOM     80  C   UNL     1      -4.852  11.648   2.678  1.00  0.00     0.198 A 
ATOM     81  C   UNL     1      -3.599  10.863   0.802  1.00  0.00     0.198 A 
ATOM     82  F   UNL     1      -4.265   8.949  -0.358  1.00  0.00    -0.203 F 
ATOM     83  F   UNL     1      -4.983  12.483   3.719  1.00  0.00    -0.200 F 
ATOM     84  C   UNL     1      -3.749  11.754   1.849  1.00  0.00     0.200 A 
ATOM     85  F   UNL     1      -2.516  10.933   0.014  1.00  0.00    -0.200 F 
ATOM     86  F   UNL     1      -2.809  12.681   2.085  1.00  0.00    -0.200 F 
ENDBRANCH  52  76
BRANCH  64  87
ATOM     87  C   UNL     1     -10.463   6.052   3.107  1.00  0.00     0.064 A 
ATOM     88  C   UNL     1     -10.652   6.588   1.821  1.00  0.00     0.173 A 
ATOM     89  C   UNL     1     -11.596   5.912   3.921  1.00  0.00     0.173 A 
ATOM     90  F   UNL     1      -9.641   6.663   0.946  1.00  0.00    -0.203 F 
ATOM     91  C   UNL     1     -11.910   7.012   1.396  1.00  0.00     0.198 A 
ATOM     92  C   UNL     1     -12.857   6.296   3.477  1.00  0.00     0.198 A 
ATOM     93  F   UNL     1     -11.484   5.362   5.140  1.00  0.00    -0.203 F 
ATOM     94  F   UNL     1     -12.063   7.544   0.174  1.00  0.00    -0.200 F 
ATOM     95  C   UNL     1     -13.012   6.859   2.221  1.00  0.00     0.200 A 
ATOM     96  F   UNL     1     -13.926   6.100   4.262  1.00  0.00    -0.200 F 
ATOM     97  F   UNL     1     -14.228   7.231   1.798  1.00  0.00    -0.200 F 
ENDBRANCH  64  87
ENDBRANCH  38  39
ENDBRANCH  30  33
ENDBRANCH  28  29
ENDBRANCH  27  28
ENDBRANCH  26  27
ENDBRANCH  25  26
ENDBRANCH   1  25
TORSDOF 17
