REMARK SMILES Cc1ccccc1/C=C1\SC(=O)N(CC(=O)Nc2ccccc2C(=O)NCCCCCCNC(=O)c2ccc(-c3c4nc(c(-c5c(F)c(F)c(F)c(F)c5F)c5ccc([nH]5)c(-c5c(F)c(F)c(F)c(F)c5F)c5nc(c(-c6c(F)c(F)c(F)c(F)c6F)c6ccc3[nH]6)C=C5)C=C4)cc2)C1=O
REMARK SMILES IDX 28 1 27 2 26 3 24 4 25 5 23 7 18 8 19 9 20 10 22 11 21 12
REMARK SMILES IDX 17 13 15 14 16 15 14 17 13 18 8 19 9 20 10 21 99 22 11 23
REMARK SMILES IDX 100 24 12 25 7 26 1 27 2 28 3 29 4 30 6 31 5 32 29 33 30 34
REMARK SMILES IDX 31 35 32 36 33 37 34 38 35 40 36 41 37 42 98 43 38 44 97 45
REMARK SMILES IDX 39 46 40 47 41 48 91 49 42 50 96 51 90 52 92 53 43 54 95 55
REMARK SMILES IDX 89 56 88 57 44 59 76 60 56 61 75 62 57 63 60 64 74 65 93 66
REMARK SMILES IDX 58 67 59 68 73 70 94 71 61 72 45 73 46 74 54 75 47 76 48 77
REMARK SMILES IDX 52 78 55 79 49 80 50 81 53 82 51 83 77 84 78 85 86 86 79 87
REMARK SMILES IDX 80 88 84 89 87 90 81 91 82 92 85 93 83 94 62 95 63 96 71 97
REMARK SMILES IDX 64 98 65 99 69 100 72 101 66 102 67 103 70 104 68 105
REMARK H PARENT 26 6 17 16 33 39 92 58 60 69
REMARK Flexibility Score: inf
ROOT
ATOM      1  C   UNL     1       3.273   0.285  -3.707  1.00  0.00     0.021 C 
ENDROOT
BRANCH   1   2
ATOM      2  C   UNL     1       2.084   1.189  -4.031  1.00  0.00     0.116 C 
BRANCH   2   3
ATOM      3  N   UNL     1       1.779   2.283  -3.118  1.00  0.00    -0.352 N 
ATOM      4  C   UNL     1       1.590   3.640  -3.327  1.00  0.00     0.253 C 
ATOM      5  O   UNL     1       1.121   4.311  -2.411  1.00  0.00    -0.269 OA
ATOM      6  H   UNL     1       1.690   2.006  -2.177  1.00  0.00     0.163 HD
BRANCH   4   7
ATOM      7  C   UNL     1       1.922   4.309  -4.607  1.00  0.00     0.063 A 
ATOM      8  C   UNL     1       2.454   5.613  -4.712  1.00  0.00     0.054 A 
ATOM      9  C   UNL     1       2.588   6.177  -6.002  1.00  0.00     0.027 A 
ATOM     10  C   UNL     1       2.226   5.486  -7.158  1.00  0.00     0.002 A 
ATOM     11  C   UNL     1       1.436   3.694  -5.781  1.00  0.00     0.016 A 
ATOM     12  C   UNL     1       1.628   4.246  -7.046  1.00  0.00     0.001 A 
BRANCH   8  13
ATOM     13  N   UNL     1       2.681   6.557  -3.690  1.00  0.00    -0.324 N 
ATOM     14  C   UNL     1       3.266   6.600  -2.465  1.00  0.00     0.244 C 
ATOM     15  O   UNL     1       3.106   7.648  -1.824  1.00  0.00    -0.273 OA
ATOM     16  H   UNL     1       2.309   7.436  -3.934  1.00  0.00     0.170 HD
BRANCH  14  17
ATOM     17  C   UNL     1       4.265   5.569  -1.971  1.00  0.00     0.230 C 
BRANCH  17  18
ATOM     18  N   UNL     1       3.770   4.423  -1.254  1.00  0.00    -0.259 N 
ATOM     19  C   UNL     1       1.271   2.837   0.663  1.00  0.00     0.029 C 
ATOM     20  C   UNL     1       2.508   3.113   0.214  1.00  0.00     0.083 C 
ATOM     21  S   UNL     1       3.722   2.045  -0.338  1.00  0.00    -0.022 SA
ATOM     22  C   UNL     1       2.910   4.505  -0.174  1.00  0.00     0.268 C 
ATOM     23  C   UNL     1       4.366   3.216  -1.451  1.00  0.00     0.294 C 
ATOM     24  O   UNL     1       2.529   5.510   0.398  1.00  0.00    -0.268 OA
ATOM     25  O   UNL     1       5.254   2.942  -2.255  1.00  0.00    -0.261 OA
BRANCH  19  26
ATOM     26  C   UNL     1       0.530   1.547   0.701  1.00  0.00    -0.021 A 
ATOM     27  C   UNL     1       2.306   0.074   1.850  1.00  0.00     0.045 C 
ATOM     28  C   UNL     1       0.967   0.307   1.211  1.00  0.00    -0.044 A 
ATOM     29  C   UNL     1       0.140  -0.834   1.070  1.00  0.00     0.004 A 
ATOM     30  C   UNL     1      -1.123  -0.754   0.488  1.00  0.00     0.000 A 
ATOM     31  C   UNL     1      -0.769   1.604   0.145  1.00  0.00     0.008 A 
ATOM     32  C   UNL     1      -1.586   0.473   0.042  1.00  0.00     0.001 A 
ENDBRANCH  19  26
ENDBRANCH  17  18
ENDBRANCH  14  17
ENDBRANCH   8  13
ENDBRANCH   4   7
ENDBRANCH   2   3
ENDBRANCH   1   2
BRANCH   1  33
ATOM     33  C   UNL     1       3.274  -0.653  -2.495  1.00  0.00     0.002 C 
BRANCH  33  34
ATOM     34  C   UNL     1       1.950  -0.989  -1.810  1.00  0.00     0.002 C 
BRANCH  34  35
ATOM     35  C   UNL     1       0.967  -1.850  -2.593  1.00  0.00     0.021 C 
BRANCH  35  36
ATOM     36  C   UNL     1       1.433  -3.281  -2.767  1.00  0.00     0.116 C 
BRANCH  36  37
ATOM     37  N   UNL     1       1.027  -4.239  -1.748  1.00  0.00    -0.352 N 
ATOM     38  C   UNL     1       1.312  -5.598  -1.667  1.00  0.00     0.251 C 
ATOM     39  H   UNL     1       0.477  -3.875  -1.016  1.00  0.00     0.163 HD
ATOM     40  O   UNL     1       0.772  -6.290  -0.809  1.00  0.00    -0.269 OA
BRANCH  38  41
ATOM     41  C   UNL     1       2.415  -6.176  -2.491  1.00  0.00     0.039 A 
ATOM     42  C   UNL     1       3.354  -6.954  -1.803  1.00  0.00     0.014 A 
ATOM     43  C   UNL     1       2.772  -5.573  -3.684  1.00  0.00     0.014 A 
ATOM     44  C   UNL     1       4.703  -6.775  -2.079  1.00  0.00     0.010 A 
ATOM     45  C   UNL     1       4.090  -5.224  -3.832  1.00  0.00     0.010 A 
ATOM     46  C   UNL     1       5.046  -5.775  -2.978  1.00  0.00    -0.014 A 
BRANCH  46  47
ATOM     47  C   UNL     1       6.398  -5.335  -3.237  1.00  0.00     0.031 A 
ATOM     48  C   UNL     1       7.073  -5.998  -4.360  1.00  0.00     0.074 A 
ATOM     49  C   UNL     1       6.929  -4.294  -2.561  1.00  0.00     0.049 A 
ATOM     50  N   UNL     1       8.344  -6.052  -4.513  1.00  0.00    -0.248 NA
ATOM     51  C   UNL     1       6.338  -6.747  -5.376  1.00  0.00     0.031 C 
ATOM     52  C   UNL     1       8.142  -3.546  -2.874  1.00  0.00     0.029 A 
ATOM     53  N   UNL     1       6.532  -3.793  -1.311  1.00  0.00    -0.354 N 
ATOM     54  C   UNL     1       8.589  -6.583  -5.760  1.00  0.00     0.074 A 
ATOM     55  C   UNL     1       7.323  -7.108  -6.198  1.00  0.00     0.031 C 
ATOM     56  C   UNL     1       8.566  -2.921  -1.762  1.00  0.00     0.029 A 
ATOM     57  C   UNL     1       7.726  -3.367  -0.667  1.00  0.00     0.049 A 
ATOM     58  H   UNL     1       5.616  -3.746  -0.954  1.00  0.00     0.167 HD
ATOM     59  C   UNL     1       9.818  -6.373  -6.309  1.00  0.00     0.037 A 
ATOM     60  C   UNL     1       8.168  -4.021   0.453  1.00  0.00     0.037 A 
ATOM     61  C   UNL     1      10.689  -5.720  -5.321  1.00  0.00     0.049 A 
ATOM     62  C   UNL     1       9.421  -4.835   0.215  1.00  0.00     0.074 A 
ATOM     63  C   UNL     1      11.044  -4.403  -5.079  1.00  0.00     0.029 A 
ATOM     64  N   UNL     1      10.994  -6.410  -4.159  1.00  0.00    -0.354 N 
ATOM     65  N   UNL     1      10.023  -4.947  -0.938  1.00  0.00    -0.248 NA
ATOM     66  C   UNL     1      10.025  -5.675   1.245  1.00  0.00     0.031 C 
ATOM     67  C   UNL     1      11.538  -4.316  -3.740  1.00  0.00     0.029 A 
ATOM     68  C   UNL     1      11.525  -5.584  -3.185  1.00  0.00     0.049 A 
ATOM     69  H   UNL     1      10.850  -7.377  -4.040  1.00  0.00     0.167 HD
ATOM     70  C   UNL     1      11.046  -5.849  -0.838  1.00  0.00     0.074 A 
ATOM     71  C   UNL     1      10.973  -6.312   0.540  1.00  0.00     0.031 C 
ATOM     72  C   UNL     1      11.864  -6.162  -1.890  1.00  0.00     0.037 A 
BRANCH  59  73
ATOM     73  C   UNL     1      10.160  -6.508  -7.780  1.00  0.00     0.064 A 
ATOM     74  C   UNL     1      11.315  -5.872  -8.288  1.00  0.00     0.173 A 
ATOM     75  C   UNL     1       9.389  -7.166  -8.761  1.00  0.00     0.173 A 
ATOM     76  F   UNL     1      12.197  -5.277  -7.474  1.00  0.00    -0.203 F 
ATOM     77  C   UNL     1      11.610  -5.817  -9.654  1.00  0.00     0.198 A 
ATOM     78  C   UNL     1       9.666  -7.086 -10.130  1.00  0.00     0.198 A 
ATOM     79  F   UNL     1       8.364  -7.960  -8.452  1.00  0.00    -0.203 F 
ATOM     80  F   UNL     1      12.712  -5.178 -10.069  1.00  0.00    -0.200 F 
ATOM     81  C   UNL     1      10.771  -6.401 -10.579  1.00  0.00     0.200 A 
ATOM     82  F   UNL     1       8.846  -7.685 -11.008  1.00  0.00    -0.200 F 
ATOM     83  F   UNL     1      11.037  -6.325 -11.889  1.00  0.00    -0.200 F 
ENDBRANCH  59  73
BRANCH  60  84
ATOM     84  C   UNL     1       7.026  -4.432   1.330  1.00  0.00     0.064 A 
ATOM     85  C   UNL     1       6.165  -3.389   1.722  1.00  0.00     0.173 A 
ATOM     86  C   UNL     1       6.480  -5.713   1.195  1.00  0.00     0.173 A 
ATOM     87  F   UNL     1       6.661  -2.166   1.971  1.00  0.00    -0.203 F 
ATOM     88  C   UNL     1       4.790  -3.542   1.599  1.00  0.00     0.198 A 
ATOM     89  C   UNL     1       5.098  -5.877   1.161  1.00  0.00     0.198 A 
ATOM     90  F   UNL     1       7.264  -6.768   0.934  1.00  0.00    -0.203 F 
ATOM     91  F   UNL     1       3.991  -2.470   1.680  1.00  0.00    -0.200 F 
ATOM     92  C   UNL     1       4.262  -4.774   1.254  1.00  0.00     0.200 A 
ATOM     93  F   UNL     1       4.584  -7.090   0.920  1.00  0.00    -0.200 F 
ATOM     94  F   UNL     1       2.960  -4.879   0.961  1.00  0.00    -0.200 F 
ENDBRANCH  60  84
BRANCH  72  95
ATOM     95  C   UNL     1      13.048  -7.095  -1.774  1.00  0.00     0.064 A 
ATOM     96  C   UNL     1      13.818  -7.201  -0.604  1.00  0.00     0.173 A 
ATOM     97  C   UNL     1      13.508  -7.869  -2.865  1.00  0.00     0.173 A 
ATOM     98  F   UNL     1      13.622  -6.373   0.432  1.00  0.00    -0.203 F 
ATOM     99  C   UNL     1      14.846  -8.136  -0.477  1.00  0.00     0.198 A 
ATOM    100  C   UNL     1      14.576  -8.755  -2.757  1.00  0.00     0.198 A 
ATOM    101  F   UNL     1      12.943  -7.810  -4.077  1.00  0.00    -0.203 F 
ATOM    102  F   UNL     1      15.478  -8.268   0.697  1.00  0.00    -0.200 F 
ATOM    103  C   UNL     1      15.219  -8.920  -1.551  1.00  0.00     0.200 A 
ATOM    104  F   UNL     1      14.966  -9.454  -3.832  1.00  0.00    -0.200 F 
ATOM    105  F   UNL     1      16.204  -9.818  -1.429  1.00  0.00    -0.200 F 
ENDBRANCH  72  95
ENDBRANCH  46  47
ENDBRANCH  38  41
ENDBRANCH  36  37
ENDBRANCH  35  36
ENDBRANCH  34  35
ENDBRANCH  33  34
ENDBRANCH   1  33
TORSDOF 17
