REMARK SMILES [NH3+][C@H]1C=C[C@H](C(=O)N2CC[NH+](CC(=O)NCCCCCCNC(=O)c3ccc(-c4c5nc(c(-c6c(F)c(F)c(F)c(F)c6F)c6ccc([nH]6)c(-c6c(F)c(F)c(F)c(F)c6F)c6nc(c(-c7c(F)c(F)c(F)c(F)c7F)c7ccc4[nH]7)C=C6)C=C5)cc3)CC2)C1
REMARK SMILES IDX 18 1 17 2 16 3 15 4 13 5 14 6 12 8 11 9 6 10 7 11 8 12 9 13
REMARK SMILES IDX 89 14 10 15 88 16 5 18 2 19 3 20 90 21 4 22 1 23 19 27 20 28
REMARK SMILES IDX 21 29 22 30 23 31 24 33 25 34 26 35 87 36 27 37 86 38 28 39
REMARK SMILES IDX 29 40 30 41 80 42 31 43 85 44 79 45 81 46 32 47 84 48 78 49
REMARK SMILES IDX 77 50 33 52 65 53 45 54 64 55 46 56 49 57 63 58 82 59 47 60
REMARK SMILES IDX 48 61 62 63 83 64 50 65 34 66 35 67 43 68 36 69 37 70 41 71
REMARK SMILES IDX 44 72 38 73 39 74 42 75 40 76 66 77 67 78 75 79 68 80 69 81
REMARK SMILES IDX 73 82 76 83 70 84 71 85 74 86 72 87 51 88 52 89 60 90 53 91
REMARK SMILES IDX 54 92 58 93 61 94 55 95 56 96 59 97 57 98
REMARK H PARENT 15 7 11 17 1 24 1 25 1 26 22 32 81 51 49 62
REMARK Flexibility Score: inf
ROOT
ATOM      1  C   UNL     1      -2.271  -4.210   2.727  1.00  0.00     0.002 C 
ENDROOT
BRANCH   1   2
ATOM      2  C   UNL     1      -1.661  -5.522   3.249  1.00  0.00     0.021 C 
BRANCH   2   3
ATOM      3  C   UNL     1      -2.541  -6.771   3.108  1.00  0.00     0.116 C 
BRANCH   3   4
ATOM      4  N   UNL     1      -3.212  -6.886   1.823  1.00  0.00    -0.351 N 
ATOM      5  C   UNL     1      -3.008  -7.694   0.744  1.00  0.00     0.275 C 
ATOM      6  O   UNL     1      -3.775  -7.558  -0.214  1.00  0.00    -0.269 OA
ATOM      7  H   UNL     1      -3.961  -6.258   1.711  1.00  0.00     0.163 HD
BRANCH   5   8
ATOM      8  C   UNL     1      -1.886  -8.726   0.715  1.00  0.00     0.363 C 
BRANCH   8   9
ATOM      9  N   UNL     1      -0.681  -8.346  -0.043  1.00  0.00    -0.324 N 
ATOM     10  C   UNL     1      -0.111  -4.410  -1.786  1.00  0.00     0.230 C 
ATOM     11  O   UNL     1      -0.699  -4.038  -2.801  1.00  0.00    -0.274 OA
ATOM     12  N   UNL     1      -0.352  -5.655  -1.214  1.00  0.00    -0.331 N 
ATOM     13  C   UNL     1      -1.162  -6.642  -1.933  1.00  0.00     0.181 C 
ATOM     14  C   UNL     1      -0.271  -5.877   0.215  1.00  0.00     0.181 C 
ATOM     15  C   UNL     1      -0.871  -8.099  -1.487  1.00  0.00     0.284 C 
ATOM     16  C   UNL     1       0.142  -7.308   0.573  1.00  0.00     0.284 C 
ATOM     17  H   UNL     1      -0.145  -9.212   0.013  1.00  0.00     0.348 HD
BRANCH  10  18
ATOM     18  C   UNL     1       0.974  -3.553  -1.106  1.00  0.00     0.107 C 
ATOM     19  C   UNL     1       0.619  -1.121  -0.970  1.00  0.00     0.205 C 
ATOM     20  C   UNL     1       1.608  -1.482  -2.023  1.00  0.00     0.033 C 
ATOM     21  C   UNL     1       0.413  -2.442  -0.205  1.00  0.00     0.087 C 
ATOM     22  C   UNL     1       1.792  -2.803  -2.110  1.00  0.00    -0.012 C 
BRANCH  19  23
ATOM     23  N   UNL     1       1.136  -0.057  -0.126  1.00  0.00    -0.352 N 
ATOM     24  H   UNL     1       1.253   0.790  -0.681  1.00  0.00     0.345 HD
ATOM     25  H   UNL     1       2.037  -0.337   0.261  1.00  0.00     0.345 HD
ATOM     26  H   UNL     1       0.480   0.122   0.634  1.00  0.00     0.345 HD
ENDBRANCH  19  23
ENDBRANCH  10  18
ENDBRANCH   8   9
ENDBRANCH   5   8
ENDBRANCH   3   4
ENDBRANCH   2   3
ENDBRANCH   1   2
BRANCH   1  27
ATOM     27  C   UNL     1      -2.899  -3.327   3.806  1.00  0.00     0.002 C 
BRANCH  27  28
ATOM     28  C   UNL     1      -1.932  -2.851   4.893  1.00  0.00     0.021 C 
BRANCH  28  29
ATOM     29  C   UNL     1      -0.709  -2.100   4.374  1.00  0.00     0.116 C 
BRANCH  29  30
ATOM     30  N   UNL     1      -1.046  -0.748   3.958  1.00  0.00    -0.352 N 
ATOM     31  C   UNL     1      -0.651   0.432   4.540  1.00  0.00     0.251 C 
ATOM     32  H   UNL     1      -1.625  -0.669   3.165  1.00  0.00     0.163 HD
ATOM     33  O   UNL     1      -1.214   1.490   4.266  1.00  0.00    -0.269 OA
BRANCH  31  34
ATOM     34  C   UNL     1       0.457   0.412   5.515  1.00  0.00     0.039 A 
ATOM     35  C   UNL     1       0.279   0.997   6.769  1.00  0.00     0.014 A 
ATOM     36  C   UNL     1       1.661  -0.221   5.189  1.00  0.00     0.014 A 
ATOM     37  C   UNL     1       1.295   0.897   7.723  1.00  0.00     0.010 A 
ATOM     38  C   UNL     1       2.642  -0.377   6.162  1.00  0.00     0.010 A 
ATOM     39  C   UNL     1       2.471   0.183   7.438  1.00  0.00    -0.014 A 
BRANCH  39  40
ATOM     40  C   UNL     1       3.535   0.009   8.461  1.00  0.00     0.031 A 
ATOM     41  C   UNL     1       4.894   0.613   8.244  1.00  0.00     0.074 A 
ATOM     42  C   UNL     1       3.297  -0.744   9.552  1.00  0.00     0.049 A 
ATOM     43  N   UNL     1       5.972   0.515   8.981  1.00  0.00    -0.248 NA
ATOM     44  C   UNL     1       5.075   1.411   7.021  1.00  0.00     0.031 C 
ATOM     45  C   UNL     1       2.034  -1.417   9.856  1.00  0.00     0.029 A 
ATOM     46  N   UNL     1       4.113  -1.080  10.604  1.00  0.00    -0.354 N 
ATOM     47  C   UNL     1       6.955   1.229   8.309  1.00  0.00     0.074 A 
ATOM     48  C   UNL     1       6.365   1.706   7.077  1.00  0.00     0.031 C 
ATOM     49  C   UNL     1       2.152  -2.069  11.024  1.00  0.00     0.029 A 
ATOM     50  C   UNL     1       3.510  -1.894  11.532  1.00  0.00     0.049 A 
ATOM     51  H   UNL     1       5.043  -0.767  10.686  1.00  0.00     0.167 HD
ATOM     52  C   UNL     1       8.229   1.483   8.695  1.00  0.00     0.037 A 
ATOM     53  C   UNL     1       3.999  -2.445  12.659  1.00  0.00     0.037 A 
ATOM     54  C   UNL     1       8.807   1.022   9.930  1.00  0.00     0.049 A 
ATOM     55  C   UNL     1       5.425  -2.163  13.055  1.00  0.00     0.074 A 
ATOM     56  C   UNL     1      10.069   1.273  10.439  1.00  0.00     0.029 A 
ATOM     57  N   UNL     1       8.161   0.208  10.850  1.00  0.00    -0.354 N 
ATOM     58  N   UNL     1       6.324  -1.430  12.446  1.00  0.00    -0.248 NA
ATOM     59  C   UNL     1       5.900  -2.782  14.301  1.00  0.00     0.031 C 
ATOM     60  C   UNL     1      10.207   0.567  11.638  1.00  0.00     0.029 A 
ATOM     61  C   UNL     1       9.010  -0.075  11.909  1.00  0.00     0.049 A 
ATOM     62  H   UNL     1       7.237  -0.120  10.763  1.00  0.00     0.167 HD
ATOM     63  C   UNL     1       7.458  -1.473  13.246  1.00  0.00     0.074 A 
ATOM     64  C   UNL     1       7.128  -2.292  14.393  1.00  0.00     0.031 C 
ATOM     65  C   UNL     1       8.665  -0.887  13.048  1.00  0.00     0.037 A 
BRANCH  52  66
ATOM     66  C   UNL     1       9.087   2.298   7.771  1.00  0.00     0.064 A 
ATOM     67  C   UNL     1       8.846   3.664   7.553  1.00  0.00     0.173 A 
ATOM     68  C   UNL     1      10.191   1.718   7.127  1.00  0.00     0.173 A 
ATOM     69  F   UNL     1       7.798   4.265   8.136  1.00  0.00    -0.203 F 
ATOM     70  C   UNL     1       9.659   4.410   6.703  1.00  0.00     0.198 A 
ATOM     71  C   UNL     1      11.021   2.475   6.304  1.00  0.00     0.198 A 
ATOM     72  F   UNL     1      10.472   0.418   7.304  1.00  0.00    -0.203 F 
ATOM     73  F   UNL     1       9.378   5.699   6.472  1.00  0.00    -0.200 F 
ATOM     74  C   UNL     1      10.750   3.817   6.086  1.00  0.00     0.200 A 
ATOM     75  F   UNL     1      12.084   1.904   5.720  1.00  0.00    -0.200 F 
ATOM     76  F   UNL     1      11.538   4.539   5.277  1.00  0.00    -0.200 F 
ENDBRANCH  52  66
BRANCH  53  77
ATOM     77  C   UNL     1       3.132  -3.307  13.505  1.00  0.00     0.064 A 
ATOM     78  C   UNL     1       2.725  -2.891  14.780  1.00  0.00     0.173 A 
ATOM     79  C   UNL     1       2.701  -4.567  13.063  1.00  0.00     0.173 A 
ATOM     80  F   UNL     1       3.127  -1.703  15.256  1.00  0.00    -0.203 F 
ATOM     81  C   UNL     1       1.942  -3.711  15.591  1.00  0.00     0.198 A 
ATOM     82  C   UNL     1       1.892  -5.373  13.862  1.00  0.00     0.198 A 
ATOM     83  F   UNL     1       3.057  -5.011  11.849  1.00  0.00    -0.203 F 
ATOM     84  F   UNL     1       1.611  -3.309  16.826  1.00  0.00    -0.200 F 
ATOM     85  C   UNL     1       1.522  -4.949  15.129  1.00  0.00     0.200 A 
ATOM     86  F   UNL     1       1.474  -6.561  13.404  1.00  0.00    -0.200 F 
ATOM     87  F   UNL     1       0.766  -5.735  15.906  1.00  0.00    -0.200 F 
ENDBRANCH  53  77
BRANCH  65  88
ATOM     88  C   UNL     1       9.708  -1.078  14.113  1.00  0.00     0.064 A 
ATOM     89  C   UNL     1      10.335  -2.316  14.318  1.00  0.00     0.173 A 
ATOM     90  C   UNL     1      10.110   0.002  14.912  1.00  0.00     0.173 A 
ATOM     91  F   UNL     1       9.976  -3.384  13.590  1.00  0.00    -0.203 F 
ATOM     92  C   UNL     1      11.307  -2.471  15.303  1.00  0.00     0.198 A 
ATOM     93  C   UNL     1      11.106  -0.148  15.873  1.00  0.00     0.198 A 
ATOM     94  F   UNL     1       9.547   1.209  14.752  1.00  0.00    -0.203 F 
ATOM     95  F   UNL     1      11.856  -3.675  15.516  1.00  0.00    -0.200 F 
ATOM     96  C   UNL     1      11.697  -1.386  16.074  1.00  0.00     0.200 A 
ATOM     97  F   UNL     1      11.492   0.905  16.606  1.00  0.00    -0.200 F 
ATOM     98  F   UNL     1      12.639  -1.535  17.016  1.00  0.00    -0.200 F 
ENDBRANCH  65  88
ENDBRANCH  39  40
ENDBRANCH  31  34
ENDBRANCH  29  30
ENDBRANCH  28  29
ENDBRANCH  27  28
ENDBRANCH   1  27
TORSDOF 16
