REMARK SMILES C[C@H](c1ccccc1)N1C(=O)c2ccc(C(=O)NCCCCCCNC(=O)c3ccc(-c4c5nc(c(-c6c(F)c(F)c(F)c(F)c6F)c6ccc([nH]6)c(-c6c(F)c(F)c(F)c(F)c6F)c6nc(c(-c7c(F)c(F)c(F)c(F)c7F)c7ccc4[nH]7)C=C6)C=C5)cc3)cc2C1=O
REMARK SMILES IDX 21 1 20 2 19 3 18 4 16 5 17 6 15 8 9 9 10 10 93 11 11 12
REMARK SMILES IDX 12 13 92 14 94 15 13 16 91 17 14 18 2 19 1 20 3 21 4 22 8 23
REMARK SMILES IDX 5 24 7 25 6 26 22 27 23 28 24 29 25 30 26 31 27 33 28 34
REMARK SMILES IDX 29 35 90 36 30 37 89 38 31 39 32 40 33 41 83 42 34 43 88 44
REMARK SMILES IDX 82 45 84 46 35 47 87 48 81 49 80 50 36 52 68 53 48 54 67 55
REMARK SMILES IDX 49 56 52 57 66 58 85 59 50 60 51 61 65 63 86 64 53 65 37 66
REMARK SMILES IDX 38 67 46 68 39 69 40 70 44 71 47 72 41 73 42 74 45 75 43 76
REMARK SMILES IDX 69 77 70 78 78 79 71 80 72 81 76 82 79 83 73 84 74 85 77 86
REMARK SMILES IDX 75 87 54 88 55 89 63 90 56 91 57 92 61 93 64 94 58 95 59 96
REMARK SMILES IDX 62 97 60 98
REMARK H PARENT 18 7 25 32 84 51 52 62
REMARK Flexibility Score: inf
ROOT
ATOM      1  C   UNL     1      -9.576   4.398   1.779  1.00  0.00     0.002 C 
ENDROOT
BRANCH   1   2
ATOM      2  C   UNL     1      -8.063   4.392   1.525  1.00  0.00     0.021 C 
BRANCH   2   3
ATOM      3  C   UNL     1      -7.336   3.065   1.747  1.00  0.00     0.116 C 
BRANCH   3   4
ATOM      4  N   UNL     1      -7.885   1.978   0.961  1.00  0.00    -0.352 N 
ATOM      5  C   UNL     1      -7.298   1.143   0.049  1.00  0.00     0.251 C 
ATOM      6  O   UNL     1      -7.987   0.331  -0.563  1.00  0.00    -0.269 OA
ATOM      7  H   UNL     1      -8.844   1.812   1.107  1.00  0.00     0.163 HD
BRANCH   5   8
ATOM      8  C   UNL     1      -5.853   1.225  -0.258  1.00  0.00     0.040 A 
ATOM      9  N   UNL     1      -1.275   1.293   0.166  1.00  0.00    -0.267 N 
ATOM     10  C   UNL     1      -1.765   1.479  -1.098  1.00  0.00     0.262 C 
ATOM     11  C   UNL     1      -2.295   1.234   1.081  1.00  0.00     0.262 C 
ATOM     12  O   UNL     1      -1.204   1.767  -2.136  1.00  0.00    -0.269 OA
ATOM     13  C   UNL     1      -3.214   1.361  -1.010  1.00  0.00     0.053 A 
ATOM     14  C   UNL     1      -3.550   1.259   0.326  1.00  0.00     0.054 A 
ATOM     15  O   UNL     1      -2.246   1.199   2.297  1.00  0.00    -0.269 OA
ATOM     16  C   UNL     1      -4.158   1.346  -2.017  1.00  0.00     0.015 A 
ATOM     17  C   UNL     1      -4.868   1.190   0.742  1.00  0.00     0.028 A 
ATOM     18  C   UNL     1      -5.495   1.262  -1.627  1.00  0.00     0.015 A 
BRANCH   9  19
ATOM     19  C   UNL     1       0.144   1.242   0.531  1.00  0.00     0.121 C 
ATOM     20  C   UNL     1       0.869   2.559   0.243  1.00  0.00     0.037 C 
BRANCH  19  21
ATOM     21  C   UNL     1       0.846   0.028  -0.074  1.00  0.00    -0.025 A 
ATOM     22  C   UNL     1       1.127  -0.065  -1.448  1.00  0.00     0.006 A 
ATOM     23  C   UNL     1       1.203  -1.057   0.743  1.00  0.00     0.006 A 
ATOM     24  C   UNL     1       1.692  -1.217  -1.996  1.00  0.00     0.000 A 
ATOM     25  C   UNL     1       1.796  -2.201   0.197  1.00  0.00     0.000 A 
ATOM     26  C   UNL     1       2.026  -2.287  -1.174  1.00  0.00     0.000 A 
ENDBRANCH  19  21
ENDBRANCH   9  19
ENDBRANCH   5   8
ENDBRANCH   3   4
ENDBRANCH   2   3
ENDBRANCH   1   2
BRANCH   1  27
ATOM     27  C   UNL     1     -10.051   3.845   3.125  1.00  0.00     0.002 C 
BRANCH  27  28
ATOM     28  C   UNL     1      -9.388   4.430   4.373  1.00  0.00     0.021 C 
BRANCH  28  29
ATOM     29  C   UNL     1      -9.463   5.946   4.519  1.00  0.00     0.116 C 
BRANCH  29  30
ATOM     30  N   UNL     1     -10.816   6.432   4.715  1.00  0.00    -0.352 N 
ATOM     31  C   UNL     1     -11.298   7.323   5.644  1.00  0.00     0.251 C 
ATOM     32  H   UNL     1     -11.487   6.070   4.092  1.00  0.00     0.163 HD
ATOM     33  O   UNL     1     -12.507   7.517   5.734  1.00  0.00    -0.269 OA
BRANCH  31  34
ATOM     34  C   UNL     1     -10.376   8.038   6.557  1.00  0.00     0.039 A 
ATOM     35  C   UNL     1     -10.736   8.169   7.903  1.00  0.00     0.014 A 
ATOM     36  C   UNL     1      -9.188   8.614   6.098  1.00  0.00     0.014 A 
ATOM     37  C   UNL     1      -9.889   8.835   8.793  1.00  0.00     0.010 A 
ATOM     38  C   UNL     1      -8.314   9.226   6.998  1.00  0.00     0.010 A 
ATOM     39  C   UNL     1      -8.661   9.352   8.352  1.00  0.00    -0.014 A 
BRANCH  39  40
ATOM     40  C   UNL     1      -7.748  10.061   9.285  1.00  0.00     0.031 A 
ATOM     41  C   UNL     1      -7.498  11.535   9.117  1.00  0.00     0.074 A 
ATOM     42  C   UNL     1      -7.113   9.378  10.257  1.00  0.00     0.049 A 
ATOM     43  N   UNL     1      -6.686  12.321   9.780  1.00  0.00    -0.248 NA
ATOM     44  C   UNL     1      -8.244  12.211   8.044  1.00  0.00     0.031 C 
ATOM     45  C   UNL     1      -7.239   7.941  10.502  1.00  0.00     0.029 A 
ATOM     46  N   UNL     1      -6.224   9.803  11.213  1.00  0.00    -0.354 N 
ATOM     47  C   UNL     1      -6.817  13.576   9.199  1.00  0.00     0.074 A 
ATOM     48  C   UNL     1      -7.748  13.439   8.100  1.00  0.00     0.031 C 
ATOM     49  C   UNL     1      -6.465   7.605  11.547  1.00  0.00     0.029 A 
ATOM     50  C   UNL     1      -5.771   8.796  12.030  1.00  0.00     0.049 A 
ATOM     51  H   UNL     1      -5.939  10.740  11.305  1.00  0.00     0.167 HD
ATOM     52  C   UNL     1      -6.233  14.742   9.564  1.00  0.00     0.037 A 
ATOM     53  C   UNL     1      -4.892   8.830  13.050  1.00  0.00     0.037 A 
ATOM     54  C   UNL     1      -5.324  14.887  10.670  1.00  0.00     0.049 A 
ATOM     55  C   UNL     1      -4.279  10.145  13.451  1.00  0.00     0.074 A 
ATOM     56  C   UNL     1      -4.681  16.027  11.120  1.00  0.00     0.029 A 
ATOM     57  N   UNL     1      -4.939  13.853  11.510  1.00  0.00    -0.354 N 
ATOM     58  N   UNL     1      -4.435  11.329  12.913  1.00  0.00    -0.248 NA
ATOM     59  C   UNL     1      -3.380  10.129  14.614  1.00  0.00     0.031 C 
ATOM     60  C   UNL     1      -3.894  15.680  12.223  1.00  0.00     0.029 A 
ATOM     61  C   UNL     1      -4.074  14.332  12.481  1.00  0.00     0.049 A 
ATOM     62  H   UNL     1      -5.236  12.918  11.429  1.00  0.00     0.167 HD
ATOM     63  C   UNL     1      -3.683  12.202  13.688  1.00  0.00     0.074 A 
ATOM     64  C   UNL     1      -3.080  11.414  14.741  1.00  0.00     0.031 C 
ATOM     65  C   UNL     1      -3.506  13.537  13.538  1.00  0.00     0.037 A 
BRANCH  52  66
ATOM     66  C   UNL     1      -6.576  15.964   8.764  1.00  0.00     0.064 A 
ATOM     67  C   UNL     1      -7.837  16.571   8.867  1.00  0.00     0.173 A 
ATOM     68  C   UNL     1      -5.629  16.556   7.915  1.00  0.00     0.173 A 
ATOM     69  F   UNL     1      -8.782  16.035   9.654  1.00  0.00    -0.203 F 
ATOM     70  C   UNL     1      -8.145  17.712   8.130  1.00  0.00     0.198 A 
ATOM     71  C   UNL     1      -5.932  17.712   7.201  1.00  0.00     0.198 A 
ATOM     72  F   UNL     1      -4.407  16.017   7.785  1.00  0.00    -0.203 F 
ATOM     73  F   UNL     1      -9.370  18.248   8.212  1.00  0.00    -0.200 F 
ATOM     74  C   UNL     1      -7.191  18.285   7.304  1.00  0.00     0.200 A 
ATOM     75  F   UNL     1      -5.006  18.271   6.410  1.00  0.00    -0.200 F 
ATOM     76  F   UNL     1      -7.487  19.387   6.601  1.00  0.00    -0.200 F 
ENDBRANCH  52  66
BRANCH  53  77
ATOM     77  C   UNL     1      -4.559   7.585  13.788  1.00  0.00     0.064 A 
ATOM     78  C   UNL     1      -5.003   7.386  15.103  1.00  0.00     0.173 A 
ATOM     79  C   UNL     1      -3.775   6.580  13.204  1.00  0.00     0.173 A 
ATOM     80  F   UNL     1      -5.738   8.329  15.710  1.00  0.00    -0.203 F 
ATOM     81  C   UNL     1      -4.653   6.242  15.815  1.00  0.00     0.198 A 
ATOM     82  C   UNL     1      -3.446   5.424  13.909  1.00  0.00     0.198 A 
ATOM     83  F   UNL     1      -3.329   6.721  11.947  1.00  0.00    -0.203 F 
ATOM     84  F   UNL     1      -5.048   6.101  17.088  1.00  0.00    -0.200 F 
ATOM     85  C   UNL     1      -3.878   5.260  15.217  1.00  0.00     0.200 A 
ATOM     86  F   UNL     1      -2.706   4.473  13.324  1.00  0.00    -0.200 F 
ATOM     87  F   UNL     1      -3.538   4.161  15.904  1.00  0.00    -0.200 F 
ENDBRANCH  53  77
BRANCH  65  88
ATOM     88  C   UNL     1      -2.671  14.238  14.568  1.00  0.00     0.064 A 
ATOM     89  C   UNL     1      -1.276  14.103  14.602  1.00  0.00     0.173 A 
ATOM     90  C   UNL     1      -3.276  15.080  15.513  1.00  0.00     0.173 A 
ATOM     91  F   UNL     1      -0.655  13.297  13.727  1.00  0.00    -0.203 F 
ATOM     92  C   UNL     1      -0.518  14.765  15.563  1.00  0.00     0.198 A 
ATOM     93  C   UNL     1      -2.513  15.760  16.457  1.00  0.00     0.198 A 
ATOM     94  F   UNL     1      -4.607  15.246  15.517  1.00  0.00    -0.203 F 
ATOM     95  F   UNL     1       0.809  14.587  15.606  1.00  0.00    -0.200 F 
ATOM     96  C   UNL     1      -1.136  15.597  16.486  1.00  0.00     0.200 A 
ATOM     97  F   UNL     1      -3.110  16.570  17.343  1.00  0.00    -0.200 F 
ATOM     98  F   UNL     1      -0.404  16.235  17.410  1.00  0.00    -0.200 F 
ENDBRANCH  65  88
ENDBRANCH  39  40
ENDBRANCH  31  34
ENDBRANCH  29  30
ENDBRANCH  28  29
ENDBRANCH  27  28
ENDBRANCH   1  27
TORSDOF 15
