REMARK SMILES Cc1ccc(C#N)cc1NC(=O)N1CC[C@@H](C(=O)NCCCCCCNC(=O)c2ccc(-c3c4nc(c(-c5c(F)c(F)c(F)c(F)c5F)c5ccc([nH]5)c(-c5c(F)c(F)c(F)c(F)c5F)c5nc(c(-c6c(F)c(F)c(F)c(F)c6F)c6ccc3[nH]6)C=C5)C=C4)cc2)[C@@H]1C
REMARK SMILES IDX 22 1 21 2 20 3 19 4 17 5 18 6 16 8 13 9 14 10 92 11 15 12
REMARK SMILES IDX 93 13 11 14 10 15 12 17 9 18 1 19 2 20 3 21 4 22 8 23 5 24
REMARK SMILES IDX 6 25 7 26 23 27 24 28 25 29 26 30 27 31 28 33 29 34 30 35
REMARK SMILES IDX 91 36 31 37 90 38 32 39 33 40 34 41 84 42 35 43 89 44 83 45
REMARK SMILES IDX 85 46 36 47 88 48 82 49 81 50 37 52 69 53 49 54 68 55 50 56
REMARK SMILES IDX 53 57 67 58 86 59 51 60 52 61 66 63 87 64 54 65 38 66 39 67
REMARK SMILES IDX 47 68 40 69 41 70 45 71 48 72 42 73 43 74 46 75 44 76 70 77
REMARK SMILES IDX 71 78 79 79 72 80 73 81 77 82 80 83 74 84 75 85 78 86 76 87
REMARK SMILES IDX 55 88 56 89 64 90 57 91 58 92 62 93 65 94 59 95 60 96 63 97
REMARK SMILES IDX 61 98
REMARK H PARENT 19 7 10 16 26 32 85 51 53 62
REMARK Flexibility Score: inf
ROOT
ATOM      1  C   UNL     1      -1.785  -3.506   2.302  1.00  0.00     0.002 C 
ENDROOT
BRANCH   1   2
ATOM      2  C   UNL     1      -2.136  -2.023   2.459  1.00  0.00     0.021 C 
BRANCH   2   3
ATOM      3  C   UNL     1      -2.790  -1.601   3.774  1.00  0.00     0.116 C 
BRANCH   3   4
ATOM      4  N   UNL     1      -2.038  -1.931   4.978  1.00  0.00    -0.356 N 
ATOM      5  C   UNL     1      -1.677  -1.239   6.092  1.00  0.00     0.225 C 
ATOM      6  O   UNL     1      -1.173  -1.911   7.000  1.00  0.00    -0.275 OA
ATOM      7  H   UNL     1      -1.720  -2.863   4.986  1.00  0.00     0.163 HD
BRANCH   5   8
ATOM      8  C   UNL     1      -1.761   0.276   6.286  1.00  0.00     0.102 C 
ATOM      9  N   UNL     1      -1.360   1.480   4.334  1.00  0.00    -0.321 N 
ATOM     10  C   UNL     1      -2.714   1.863   4.721  1.00  0.00     0.122 C 
ATOM     11  C   UNL     1      -0.661   1.048   5.538  1.00  0.00     0.096 C 
ATOM     12  C   UNL     1      -3.083   0.923   5.866  1.00  0.00     0.037 C 
ATOM     13  C   UNL     1      -0.134   2.251   6.336  1.00  0.00     0.032 C 
BRANCH   9  14
ATOM     14  C   UNL     1      -0.916   1.815   3.103  1.00  0.00     0.322 C 
ATOM     15  N   UNL     1       0.069   1.207   2.410  1.00  0.00    -0.308 N 
ATOM     16  H   UNL     1       0.351   1.784   1.664  1.00  0.00     0.171 HD
ATOM     17  O   UNL     1      -1.496   2.710   2.471  1.00  0.00    -0.248 OA
BRANCH  15  18
ATOM     18  C   UNL     1       0.830   0.015   2.400  1.00  0.00     0.047 A 
ATOM     19  C   UNL     1       1.455   0.387  -0.086  1.00  0.00     0.046 C 
ATOM     20  C   UNL     1       1.546  -0.344   1.233  1.00  0.00    -0.027 A 
ATOM     21  C   UNL     1       2.258  -1.569   1.188  1.00  0.00     0.007 A 
ATOM     22  C   UNL     1       2.258  -2.455   2.261  1.00  0.00     0.020 A 
ATOM     23  C   UNL     1       0.810  -0.931   3.422  1.00  0.00     0.046 A 
ATOM     24  C   UNL     1       1.509  -2.144   3.381  1.00  0.00     0.054 A 
BRANCH  24  25
ATOM     25  C   UNL     1       1.326  -3.104   4.428  1.00  0.00     0.099 C 
ATOM     26  N   UNL     1       1.128  -3.907   5.247  1.00  0.00    -0.192 NA
ENDBRANCH  24  25
ENDBRANCH  15  18
ENDBRANCH   9  14
ENDBRANCH   5   8
ENDBRANCH   3   4
ENDBRANCH   2   3
ENDBRANCH   1   2
BRANCH   1  27
ATOM     27  C   UNL     1      -2.764  -4.287   1.422  1.00  0.00     0.002 C 
BRANCH  27  28
ATOM     28  C   UNL     1      -3.017  -3.684   0.038  1.00  0.00     0.021 C 
BRANCH  28  29
ATOM     29  C   UNL     1      -1.747  -3.373  -0.747  1.00  0.00     0.116 C 
BRANCH  29  30
ATOM     30  N   UNL     1      -1.183  -4.572  -1.353  1.00  0.00    -0.352 N 
ATOM     31  C   UNL     1      -1.346  -5.025  -2.643  1.00  0.00     0.251 C 
ATOM     32  H   UNL     1      -0.618  -5.127  -0.768  1.00  0.00     0.163 HD
ATOM     33  O   UNL     1      -1.035  -6.163  -2.968  1.00  0.00    -0.269 OA
BRANCH  31  34
ATOM     34  C   UNL     1      -1.942  -4.100  -3.627  1.00  0.00     0.039 A 
ATOM     35  C   UNL     1      -1.409  -2.817  -3.760  1.00  0.00     0.014 A 
ATOM     36  C   UNL     1      -3.095  -4.471  -4.319  1.00  0.00     0.014 A 
ATOM     37  C   UNL     1      -2.144  -1.843  -4.420  1.00  0.00     0.010 A 
ATOM     38  C   UNL     1      -3.773  -3.513  -5.077  1.00  0.00     0.010 A 
ATOM     39  C   UNL     1      -3.334  -2.178  -5.089  1.00  0.00    -0.014 A 
BRANCH  39  40
ATOM     40  C   UNL     1      -4.092  -1.120  -5.806  1.00  0.00     0.031 A 
ATOM     41  C   UNL     1      -5.498  -0.763  -5.406  1.00  0.00     0.074 A 
ATOM     42  C   UNL     1      -3.484  -0.451  -6.804  1.00  0.00     0.049 A 
ATOM     43  N   UNL     1      -6.314   0.107  -5.949  1.00  0.00    -0.248 NA
ATOM     44  C   UNL     1      -6.068  -1.471  -4.249  1.00  0.00     0.031 C 
ATOM     45  C   UNL     1      -2.113  -0.688  -7.261  1.00  0.00     0.029 A 
ATOM     46  N   UNL     1      -3.928   0.571  -7.603  1.00  0.00    -0.354 N 
ATOM     47  C   UNL     1      -7.491   0.041  -5.214  1.00  0.00     0.074 A 
ATOM     48  C   UNL     1      -7.299  -0.978  -4.205  1.00  0.00     0.031 C 
ATOM     49  C   UNL     1      -1.812   0.192  -8.224  1.00  0.00     0.029 A 
ATOM     50  C   UNL     1      -2.993   0.995  -8.516  1.00  0.00     0.049 A 
ATOM     51  H   UNL     1      -4.828   0.963  -7.530  1.00  0.00     0.167 HD
ATOM     52  C   UNL     1      -8.621   0.774  -5.364  1.00  0.00     0.037 A 
ATOM     53  C   UNL     1      -3.083   1.906  -9.501  1.00  0.00     0.037 A 
ATOM     54  C   UNL     1      -8.799   1.794  -6.369  1.00  0.00     0.049 A 
ATOM     55  C   UNL     1      -4.375   2.646  -9.694  1.00  0.00     0.074 A 
ATOM     56  C   UNL     1      -9.906   2.593  -6.598  1.00  0.00     0.029 A 
ATOM     57  N   UNL     1      -7.846   2.155  -7.312  1.00  0.00    -0.354 N 
ATOM     58  N   UNL     1      -5.482   2.570  -8.997  1.00  0.00    -0.248 NA
ATOM     59  C   UNL     1      -4.429   3.598 -10.810  1.00  0.00     0.031 C 
ATOM     60  C   UNL     1      -9.649   3.389  -7.717  1.00  0.00     0.029 A 
ATOM     61  C   UNL     1      -8.351   3.148  -8.138  1.00  0.00     0.049 A 
ATOM     62  H   UNL     1      -6.945   1.764  -7.383  1.00  0.00     0.167 HD
ATOM     63  C   UNL     1      -6.354   3.488  -9.567  1.00  0.00     0.074 A 
ATOM     64  C   UNL     1      -5.639   4.117 -10.658  1.00  0.00     0.031 C 
ATOM     65  C   UNL     1      -7.629   3.780  -9.214  1.00  0.00     0.037 A 
BRANCH  52  66
ATOM     66  C   UNL     1      -9.772   0.507  -4.433  1.00  0.00     0.064 A 
ATOM     67  C   UNL     1      -9.721   0.861  -3.076  1.00  0.00     0.173 A 
ATOM     68  C   UNL     1     -10.977  -0.022  -4.924  1.00  0.00     0.173 A 
ATOM     69  F   UNL     1      -8.593   1.360  -2.550  1.00  0.00    -0.203 F 
ATOM     70  C   UNL     1     -10.827   0.686  -2.246  1.00  0.00     0.198 A 
ATOM     71  C   UNL     1     -12.091  -0.163  -4.100  1.00  0.00     0.198 A 
ATOM     72  F   UNL     1     -11.085  -0.371  -6.215  1.00  0.00    -0.203 F 
ATOM     73  F   UNL     1     -10.743   1.002  -0.946  1.00  0.00    -0.200 F 
ATOM     74  C   UNL     1     -12.014   0.188  -2.761  1.00  0.00     0.200 A 
ATOM     75  F   UNL     1     -13.242  -0.626  -4.606  1.00  0.00    -0.200 F 
ATOM     76  F   UNL     1     -13.084   0.045  -1.967  1.00  0.00    -0.200 F 
ENDBRANCH  52  66
BRANCH  53  77
ATOM     77  C   UNL     1      -1.905   2.162 -10.371  1.00  0.00     0.064 A 
ATOM     78  C   UNL     1      -1.234   3.390 -10.329  1.00  0.00     0.173 A 
ATOM     79  C   UNL     1      -1.405   1.173 -11.233  1.00  0.00     0.173 A 
ATOM     80  F   UNL     1      -1.683   4.372  -9.534  1.00  0.00    -0.203 F 
ATOM     81  C   UNL     1      -0.115   3.625 -11.124  1.00  0.00     0.198 A 
ATOM     82  C   UNL     1      -0.264   1.396 -11.999  1.00  0.00     0.198 A 
ATOM     83  F   UNL     1      -2.006  -0.024 -11.305  1.00  0.00    -0.203 F 
ATOM     84  F   UNL     1       0.485   4.823 -11.093  1.00  0.00    -0.200 F 
ATOM     85  C   UNL     1       0.376   2.625 -11.950  1.00  0.00     0.200 A 
ATOM     86  F   UNL     1       0.221   0.418 -12.775  1.00  0.00    -0.200 F 
ATOM     87  F   UNL     1       1.465   2.845 -12.698  1.00  0.00    -0.200 F 
ENDBRANCH  53  77
BRANCH  65  88
ATOM     88  C   UNL     1      -8.328   4.870  -9.977  1.00  0.00     0.064 A 
ATOM     89  C   UNL     1      -8.708   4.713 -11.318  1.00  0.00     0.173 A 
ATOM     90  C   UNL     1      -8.667   6.074  -9.339  1.00  0.00     0.173 A 
ATOM     91  F   UNL     1      -8.398   3.587 -11.980  1.00  0.00    -0.203 F 
ATOM     92  C   UNL     1      -9.374   5.729 -11.998  1.00  0.00     0.198 A 
ATOM     93  C   UNL     1      -9.368   7.072 -10.010  1.00  0.00     0.198 A 
ATOM     94  F   UNL     1      -8.335   6.276  -8.054  1.00  0.00    -0.203 F 
ATOM     95  F   UNL     1      -9.678   5.577 -13.295  1.00  0.00    -0.200 F 
ATOM     96  C   UNL     1      -9.712   6.903 -11.341  1.00  0.00     0.200 A 
ATOM     97  F   UNL     1      -9.712   8.196  -9.366  1.00  0.00    -0.200 F 
ATOM     98  F   UNL     1     -10.366   7.873 -11.994  1.00  0.00    -0.200 F 
ENDBRANCH  65  88
ENDBRANCH  39  40
ENDBRANCH  31  34
ENDBRANCH  29  30
ENDBRANCH  28  29
ENDBRANCH  27  28
ENDBRANCH   1  27
TORSDOF 16
