REMARK SMILES CC(C)(C)C(=O)N1CCCC[C@@H]1C(=O)NCCCCCCNC(=O)c1ccc(-c2c3nc(c(-c4c(F)c(F)c(F)c(F)c4F)c4ccc([nH]4)c(-c4c(F)c(F)c(F)c(F)c4F)c4nc(c(-c5c(F)c(F)c(F)c(F)c5F)c5ccc2[nH]5)C=C4)C=C3)cc1
REMARK SMILES IDX 18 1 17 2 16 3 15 4 13 5 14 6 12 8 7 9 8 10 9 11 11 12 10 13
REMARK SMILES IDX 5 14 6 15 2 16 1 17 3 18 4 19 19 20 20 21 21 22 22 23 23 24
REMARK SMILES IDX 24 26 25 27 26 28 87 29 27 30 86 31 28 32 29 33 30 34 80 35
REMARK SMILES IDX 31 36 85 37 79 38 81 39 32 40 84 41 78 42 77 43 33 45 65 46
REMARK SMILES IDX 45 47 64 48 46 49 49 50 63 51 82 52 47 53 48 54 62 56 83 57
REMARK SMILES IDX 50 58 34 59 35 60 43 61 36 62 37 63 41 64 44 65 38 66 39 67
REMARK SMILES IDX 42 68 40 69 66 70 67 71 75 72 68 73 69 74 73 75 76 76 70 77
REMARK SMILES IDX 71 78 74 79 72 80 51 81 52 82 60 83 53 84 54 85 58 86 61 87
REMARK SMILES IDX 55 88 56 89 59 90 57 91
REMARK H PARENT 15 7 22 25 81 44 49 55
REMARK Flexibility Score: inf
ROOT
ATOM      1  C   UNL     1      -3.267   2.816  -2.675  1.00  0.00     0.002 C 
ENDROOT
BRANCH   1   2
ATOM      2  C   UNL     1      -2.527   2.179  -3.857  1.00  0.00     0.021 C 
BRANCH   2   3
ATOM      3  C   UNL     1      -1.614   1.024  -3.461  1.00  0.00     0.116 C 
BRANCH   3   4
ATOM      4  N   UNL     1      -2.396  -0.126  -3.051  1.00  0.00    -0.354 N 
ATOM      5  C   UNL     1      -2.125  -1.454  -3.163  1.00  0.00     0.242 C 
ATOM      6  O   UNL     1      -3.023  -2.241  -2.840  1.00  0.00    -0.273 OA
ATOM      7  H   UNL     1      -3.258   0.087  -2.624  1.00  0.00     0.163 HD
BRANCH   5   8
ATOM      8  C   UNL     1      -0.844  -1.976  -3.843  1.00  0.00     0.174 C 
ATOM      9  N   UNL     1       0.434  -1.274  -3.573  1.00  0.00    -0.330 N 
ATOM     10  C   UNL     1       1.504  -1.535  -4.541  1.00  0.00     0.120 C 
ATOM     11  C   UNL     1       1.092  -1.217  -5.963  1.00  0.00     0.022 C 
ATOM     12  C   UNL     1      -1.233  -1.900  -5.356  1.00  0.00     0.035 C 
ATOM     13  C   UNL     1      -0.095  -2.081  -6.348  1.00  0.00     0.004 C 
BRANCH   9  14
ATOM     14  C   UNL     1       0.883  -0.693  -2.395  1.00  0.00     0.228 C 
ATOM     15  O   UNL     1       1.631   0.291  -2.508  1.00  0.00    -0.274 OA
BRANCH  14  16
ATOM     16  C   UNL     1       0.636  -1.284  -0.976  1.00  0.00     0.041 C 
ATOM     17  C   UNL     1       1.370  -0.360   0.034  1.00  0.00     0.021 C 
ATOM     18  C   UNL     1       1.274  -2.677  -0.894  1.00  0.00     0.021 C 
ATOM     19  C   UNL     1      -0.809  -1.360  -0.490  1.00  0.00     0.021 C 
ENDBRANCH  14  16
ENDBRANCH   9  14
ENDBRANCH   5   8
ENDBRANCH   3   4
ENDBRANCH   2   3
ENDBRANCH   1   2
BRANCH   1  20
ATOM     20  C   UNL     1      -2.368   3.484  -1.630  1.00  0.00     0.002 C 
BRANCH  20  21
ATOM     21  C   UNL     1      -1.409   4.542  -2.179  1.00  0.00     0.021 C 
BRANCH  21  22
ATOM     22  C   UNL     1      -2.071   5.625  -3.022  1.00  0.00     0.116 C 
BRANCH  22  23
ATOM     23  N   UNL     1      -3.048   6.403  -2.276  1.00  0.00    -0.352 N 
ATOM     24  C   UNL     1      -3.276   7.759  -2.328  1.00  0.00     0.251 C 
ATOM     25  H   UNL     1      -3.619   5.895  -1.655  1.00  0.00     0.163 HD
ATOM     26  O   UNL     1      -4.045   8.302  -1.558  1.00  0.00    -0.269 OA
BRANCH  24  27
ATOM     27  C   UNL     1      -2.535   8.555  -3.330  1.00  0.00     0.039 A 
ATOM     28  C   UNL     1      -1.795   9.660  -2.904  1.00  0.00     0.014 A 
ATOM     29  C   UNL     1      -2.539   8.172  -4.674  1.00  0.00     0.014 A 
ATOM     30  C   UNL     1      -1.004  10.351  -3.823  1.00  0.00     0.010 A 
ATOM     31  C   UNL     1      -1.704   8.823  -5.573  1.00  0.00     0.010 A 
ATOM     32  C   UNL     1      -0.929   9.918  -5.156  1.00  0.00    -0.014 A 
BRANCH  32  33
ATOM     33  C   UNL     1      -0.061  10.598  -6.149  1.00  0.00     0.031 A 
ATOM     34  C   UNL     1      -0.687  11.297  -7.321  1.00  0.00     0.074 A 
ATOM     35  C   UNL     1       1.278  10.508  -6.045  1.00  0.00     0.049 A 
ATOM     36  N   UNL     1      -0.118  11.818  -8.377  1.00  0.00    -0.248 NA
ATOM     37  C   UNL     1      -2.156  11.394  -7.319  1.00  0.00     0.031 C 
ATOM     38  C   UNL     1       2.002   9.829  -4.969  1.00  0.00     0.029 A 
ATOM     39  N   UNL     1       2.271  10.972  -6.872  1.00  0.00    -0.354 N 
ATOM     40  C   UNL     1      -1.157  12.280  -9.173  1.00  0.00     0.074 A 
ATOM     41  C   UNL     1      -2.392  11.941  -8.502  1.00  0.00     0.031 C 
ATOM     42  C   UNL     1       3.322   9.929  -5.197  1.00  0.00     0.029 A 
ATOM     43  C   UNL     1       3.536  10.640  -6.454  1.00  0.00     0.049 A 
ATOM     44  H   UNL     1       2.092  11.494  -7.688  1.00  0.00     0.167 HD
ATOM     45  C   UNL     1      -1.084  12.945 -10.351  1.00  0.00     0.037 A 
ATOM     46  C   UNL     1       4.731  10.868  -7.031  1.00  0.00     0.037 A 
ATOM     47  C   UNL     1       0.148  13.311 -10.996  1.00  0.00     0.049 A 
ATOM     48  C   UNL     1       4.784  11.605  -8.343  1.00  0.00     0.074 A 
ATOM     49  C   UNL     1       0.330  14.031 -12.163  1.00  0.00     0.029 A 
ATOM     50  N   UNL     1       1.411  12.986 -10.523  1.00  0.00    -0.354 N 
ATOM     51  N   UNL     1       3.798  12.080  -9.065  1.00  0.00    -0.248 NA
ATOM     52  C   UNL     1       6.115  11.840  -8.920  1.00  0.00     0.031 C 
ATOM     53  C   UNL     1       1.703  14.112 -12.416  1.00  0.00     0.029 A 
ATOM     54  C   UNL     1       2.377  13.480 -11.383  1.00  0.00     0.049 A 
ATOM     55  H   UNL     1       1.593  12.480  -9.699  1.00  0.00     0.167 HD
ATOM     56  C   UNL     1       4.389  12.697 -10.159  1.00  0.00     0.074 A 
ATOM     57  C   UNL     1       5.820  12.541 -10.006  1.00  0.00     0.031 C 
ATOM     58  C   UNL     1       3.798  13.336 -11.198  1.00  0.00     0.037 A 
BRANCH  45  59
ATOM     59  C   UNL     1      -2.375  13.324 -11.014  1.00  0.00     0.064 A 
ATOM     60  C   UNL     1      -3.206  14.324 -10.488  1.00  0.00     0.173 A 
ATOM     61  C   UNL     1      -2.770  12.704 -12.209  1.00  0.00     0.173 A 
ATOM     62  F   UNL     1      -2.880  14.938  -9.340  1.00  0.00    -0.203 F 
ATOM     63  C   UNL     1      -4.399  14.670 -11.118  1.00  0.00     0.198 A 
ATOM     64  C   UNL     1      -3.949  13.073 -12.852  1.00  0.00     0.198 A 
ATOM     65  F   UNL     1      -2.009  11.744 -12.757  1.00  0.00    -0.203 F 
ATOM     66  F   UNL     1      -5.200  15.594 -10.570  1.00  0.00    -0.200 F 
ATOM     67  C   UNL     1      -4.765  14.050 -12.303  1.00  0.00     0.200 A 
ATOM     68  F   UNL     1      -4.295  12.481 -14.004  1.00  0.00    -0.200 F 
ATOM     69  F   UNL     1      -5.909  14.389 -12.912  1.00  0.00    -0.200 F 
ENDBRANCH  45  59
BRANCH  46  70
ATOM     70  C   UNL     1       5.979  10.411  -6.366  1.00  0.00     0.064 A 
ATOM     71  C   UNL     1       6.875  11.335  -5.811  1.00  0.00     0.173 A 
ATOM     72  C   UNL     1       6.306   9.050  -6.280  1.00  0.00     0.173 A 
ATOM     73  F   UNL     1       6.615  12.648  -5.889  1.00  0.00    -0.203 F 
ATOM     74  C   UNL     1       8.061  10.917  -5.212  1.00  0.00     0.198 A 
ATOM     75  C   UNL     1       7.481   8.632  -5.657  1.00  0.00     0.198 A 
ATOM     76  F   UNL     1       5.481   8.126  -6.793  1.00  0.00    -0.203 F 
ATOM     77  F   UNL     1       8.922  11.824  -4.731  1.00  0.00    -0.200 F 
ATOM     78  C   UNL     1       8.361   9.565  -5.131  1.00  0.00     0.200 A 
ATOM     79  F   UNL     1       7.762   7.324  -5.571  1.00  0.00    -0.200 F 
ATOM     80  F   UNL     1       9.502   9.163  -4.555  1.00  0.00    -0.200 F 
ENDBRANCH  46  70
BRANCH  58  81
ATOM     81  C   UNL     1       4.694  13.963 -12.224  1.00  0.00     0.064 A 
ATOM     82  C   UNL     1       5.381  13.192 -13.171  1.00  0.00     0.173 A 
ATOM     83  C   UNL     1       4.809  15.360 -12.301  1.00  0.00     0.173 A 
ATOM     84  F   UNL     1       5.314  11.853 -13.129  1.00  0.00    -0.203 F 
ATOM     85  C   UNL     1       6.164  13.796 -14.151  1.00  0.00     0.198 A 
ATOM     86  C   UNL     1       5.570  15.961 -13.298  1.00  0.00     0.198 A 
ATOM     87  F   UNL     1       4.164  16.140 -11.421  1.00  0.00    -0.203 F 
ATOM     88  F   UNL     1       6.839  13.040 -15.027  1.00  0.00    -0.200 F 
ATOM     89  C   UNL     1       6.250  15.180 -14.220  1.00  0.00     0.200 A 
ATOM     90  F   UNL     1       5.642  17.298 -13.370  1.00  0.00    -0.200 F 
ATOM     91  F   UNL     1       6.992  15.759 -15.173  1.00  0.00    -0.200 F 
ENDBRANCH  58  81
ENDBRANCH  32  33
ENDBRANCH  24  27
ENDBRANCH  22  23
ENDBRANCH  21  22
ENDBRANCH  20  21
ENDBRANCH   1  20
TORSDOF 15
