REMARK SMILES Cc1ccc2occ(/C=N/NC(=O)CCC(=O)Nc3ccc(C(=O)NCCCCCCNC(=O)c4ccc(-c5c6nc(c(-c7c(F)c(F)c(F)c(F)c7F)c7ccc([nH]7)c(-c7c(F)c(F)c(F)c(F)c7F)c7nc(c(-c8c(F)c(F)c(F)c(F)c8F)c8ccc5[nH]8)C=C7)C=C6)cc4)cc3)c(=O)c2c1
REMARK SMILES IDX 26 1 25 2 23 3 24 4 22 6 19 7 20 8 99 9 21 10 98 11 18 12
REMARK SMILES IDX 16 13 17 14 15 16 14 17 12 18 11 19 13 21 10 22 9 23 8 24
REMARK SMILES IDX 1 25 2 26 3 27 103 28 4 29 102 30 5 31 100 32 6 33 101 34
REMARK SMILES IDX 7 35 27 36 28 37 29 38 30 39 31 40 32 41 33 42 34 44 35 45
REMARK SMILES IDX 36 46 97 47 37 48 96 49 38 50 39 51 40 52 90 53 41 54 95 55
REMARK SMILES IDX 89 56 91 57 42 58 94 59 88 60 87 61 43 63 75 64 55 65 74 66
REMARK SMILES IDX 56 67 59 68 73 69 92 70 57 71 58 72 72 74 93 75 60 76 44 77
REMARK SMILES IDX 45 78 53 79 46 80 47 81 51 82 54 83 48 84 49 85 52 86 50 87
REMARK SMILES IDX 76 88 77 89 85 90 78 91 79 92 83 93 86 94 80 95 81 96 84 97
REMARK SMILES IDX 82 98 61 99 62 100 70 101 63 102 64 103 68 104 71 105 65 106
REMARK SMILES IDX 66 107 69 108 67 109
REMARK H PARENT 25 5 18 15 11 20 32 43 91 62 59 73
REMARK Flexibility Score: inf
ROOT
ATOM      1  C   UNL     1      10.614   3.818   0.097  1.00  0.00     0.116 C 
ENDROOT
BRANCH   1   2
ATOM      2  N   UNL     1      11.316   2.667  -0.479  1.00  0.00    -0.352 N 
ATOM      3  C   UNL     1      10.912   1.493  -1.085  1.00  0.00     0.251 C 
ATOM      4  O   UNL     1      11.775   0.719  -1.496  1.00  0.00    -0.269 OA
ATOM      5  H   UNL     1      12.295   2.750  -0.422  1.00  0.00     0.163 HD
BRANCH   3   6
ATOM      6  C   UNL     1       9.484   1.168  -1.325  1.00  0.00     0.039 A 
ATOM      7  C   UNL     1       6.760   0.955  -2.049  1.00  0.00     0.041 A 
ATOM      8  C   UNL     1       7.704   0.110  -2.632  1.00  0.00     0.027 A 
ATOM      9  C   UNL     1       7.225   1.853  -1.121  1.00  0.00     0.027 A 
ATOM     10  C   UNL     1       9.076   0.264  -2.318  1.00  0.00     0.016 A 
ATOM     11  C   UNL     1       8.505   1.818  -0.621  1.00  0.00     0.016 A 
BRANCH   7  12
ATOM     12  N   UNL     1       5.384   0.816  -2.296  1.00  0.00    -0.326 N 
ATOM     13  C   UNL     1       4.297   1.530  -1.845  1.00  0.00     0.224 C 
ATOM     14  O   UNL     1       3.181   1.011  -1.976  1.00  0.00    -0.275 OA
ATOM     15  H   UNL     1       5.155   0.073  -2.900  1.00  0.00     0.169 HD
BRANCH  13  16
ATOM     16  C   UNL     1       4.399   2.975  -1.348  1.00  0.00     0.110 C 
BRANCH  16  17
ATOM     17  C   UNL     1       4.359   3.333   0.151  1.00  0.00     0.112 C 
BRANCH  17  18
ATOM     18  C   UNL     1       5.423   2.816   1.134  1.00  0.00     0.240 C 
ATOM     19  N   UNL     1       5.476   1.481   1.474  1.00  0.00    -0.247 N 
ATOM     20  H   UNL     1       6.193   1.200   2.087  1.00  0.00     0.193 HD
ATOM     21  O   UNL     1       6.291   3.576   1.578  1.00  0.00    -0.273 OA
BRANCH  19  22
ATOM     22  N   UNL     1       4.624   0.521   1.033  1.00  0.00    -0.180 NA
ATOM     23  C   UNL     1       3.396   0.765   1.349  1.00  0.00     0.148 C 
BRANCH  23  24
ATOM     24  C   UNL     1       2.226   0.097   0.784  1.00  0.00     0.078 A 
ATOM     25  C   UNL     1      -3.880   0.860  -0.076  1.00  0.00     0.044 C 
ATOM     26  C   UNL     1      -2.575   0.125  -0.060  1.00  0.00    -0.050 A 
ATOM     27  C   UNL     1      -2.506  -1.269  -0.199  1.00  0.00     0.007 A 
ATOM     28  C   UNL     1      -1.395   0.849   0.107  1.00  0.00     0.019 A 
ATOM     29  C   UNL     1      -1.273  -1.934  -0.170  1.00  0.00     0.048 A 
ATOM     30  C   UNL     1      -0.178   0.173   0.177  1.00  0.00     0.066 A 
ATOM     31  C   UNL     1      -0.103  -1.210   0.027  1.00  0.00     0.137 A 
ATOM     32  C   UNL     1       1.032   0.913   0.519  1.00  0.00     0.201 A 
ATOM     33  O   UNL     1       1.082  -1.905   0.095  1.00  0.00    -0.463 OA
ATOM     34  O   UNL     1       1.036   2.133   0.643  1.00  0.00    -0.288 OA
ATOM     35  C   UNL     1       2.191  -1.214   0.534  1.00  0.00     0.209 A 
ENDBRANCH  23  24
ENDBRANCH  19  22
ENDBRANCH  17  18
ENDBRANCH  16  17
ENDBRANCH  13  16
ENDBRANCH   7  12
ENDBRANCH   3   6
ENDBRANCH   1   2
BRANCH   1  36
ATOM     36  C   UNL     1      10.612   3.738   1.632  1.00  0.00     0.021 C 
BRANCH  36  37
ATOM     37  C   UNL     1      11.851   4.408   2.235  1.00  0.00     0.002 C 
BRANCH  37  38
ATOM     38  C   UNL     1      11.875   5.933   2.067  1.00  0.00     0.002 C 
BRANCH  38  39
ATOM     39  C   UNL     1      10.772   6.682   2.819  1.00  0.00     0.021 C 
BRANCH  39  40
ATOM     40  C   UNL     1      10.845   6.545   4.336  1.00  0.00     0.116 C 
BRANCH  40  41
ATOM     41  N   UNL     1      12.092   7.078   4.867  1.00  0.00    -0.352 N 
ATOM     42  C   UNL     1      12.303   8.104   5.755  1.00  0.00     0.251 C 
ATOM     43  H   UNL     1      12.908   6.636   4.539  1.00  0.00     0.163 HD
ATOM     44  O   UNL     1      13.423   8.572   5.904  1.00  0.00    -0.269 OA
BRANCH  42  45
ATOM     45  C   UNL     1      11.165   8.654   6.520  1.00  0.00     0.039 A 
ATOM     46  C   UNL     1      11.043  10.040   6.645  1.00  0.00     0.014 A 
ATOM     47  C   UNL     1      10.226   7.807   7.115  1.00  0.00     0.014 A 
ATOM     48  C   UNL     1       9.935  10.578   7.300  1.00  0.00     0.010 A 
ATOM     49  C   UNL     1       9.085   8.344   7.703  1.00  0.00     0.010 A 
ATOM     50  C   UNL     1       8.924   9.735   7.792  1.00  0.00    -0.014 A 
BRANCH  50  51
ATOM     51  C   UNL     1       7.670  10.293   8.359  1.00  0.00     0.031 A 
ATOM     52  C   UNL     1       7.311  10.057   9.798  1.00  0.00     0.074 A 
ATOM     53  C   UNL     1       6.821  10.954   7.549  1.00  0.00     0.049 A 
ATOM     54  N   UNL     1       6.231  10.409  10.449  1.00  0.00    -0.248 NA
ATOM     55  C   UNL     1       8.282   9.307  10.609  1.00  0.00     0.031 C 
ATOM     56  C   UNL     1       7.039  11.204   6.123  1.00  0.00     0.029 A 
ATOM     57  N   UNL     1       5.600  11.526   7.803  1.00  0.00    -0.354 N 
ATOM     58  C   UNL     1       6.389   9.921  11.738  1.00  0.00     0.074 A 
ATOM     59  C   UNL     1       7.644   9.201  11.766  1.00  0.00     0.031 C 
ATOM     60  C   UNL     1       5.999  11.898   5.634  1.00  0.00     0.029 A 
ATOM     61  C   UNL     1       5.020  12.099   6.697  1.00  0.00     0.049 A 
ATOM     62  H   UNL     1       5.179  11.526   8.693  1.00  0.00     0.167 HD
ATOM     63  C   UNL     1       5.570  10.077  12.806  1.00  0.00     0.037 A 
ATOM     64  C   UNL     1       3.826  12.705   6.552  1.00  0.00     0.037 A 
ATOM     65  C   UNL     1       4.326  10.803  12.773  1.00  0.00     0.049 A 
ATOM     66  C   UNL     1       2.921  12.833   7.747  1.00  0.00     0.074 A 
ATOM     67  C   UNL     1       3.456  11.069  13.815  1.00  0.00     0.029 A 
ATOM     68  N   UNL     1       3.769  11.367  11.634  1.00  0.00    -0.354 N 
ATOM     69  N   UNL     1       3.117  12.437   8.981  1.00  0.00    -0.248 NA
ATOM     70  C   UNL     1       1.629  13.497   7.529  1.00  0.00     0.031 C 
ATOM     71  C   UNL     1       2.343  11.739  13.297  1.00  0.00     0.029 A 
ATOM     72  C   UNL     1       2.548  11.948  11.942  1.00  0.00     0.049 A 
ATOM     73  H   UNL     1       4.180  11.357  10.740  1.00  0.00     0.167 HD
ATOM     74  C   UNL     1       1.987  12.821   9.690  1.00  0.00     0.074 A 
ATOM     75  C   UNL     1       1.120  13.504   8.753  1.00  0.00     0.031 C 
ATOM     76  C   UNL     1       1.693  12.623  10.998  1.00  0.00     0.037 A 
BRANCH  63  77
ATOM     77  C   UNL     1       5.990   9.450  14.105  1.00  0.00     0.064 A 
ATOM     78  C   UNL     1       7.090   9.928  14.834  1.00  0.00     0.173 A 
ATOM     79  C   UNL     1       5.254   8.388  14.653  1.00  0.00     0.173 A 
ATOM     80  F   UNL     1       7.833  10.935  14.352  1.00  0.00    -0.203 F 
ATOM     81  C   UNL     1       7.454   9.348  16.047  1.00  0.00     0.198 A 
ATOM     82  C   UNL     1       5.601   7.832  15.882  1.00  0.00     0.198 A 
ATOM     83  F   UNL     1       4.189   7.896  14.003  1.00  0.00    -0.203 F 
ATOM     84  F   UNL     1       8.537   9.791  16.701  1.00  0.00    -0.200 F 
ATOM     85  C   UNL     1       6.705   8.307  16.574  1.00  0.00     0.200 A 
ATOM     86  F   UNL     1       4.866   6.838  16.398  1.00  0.00    -0.200 F 
ATOM     87  F   UNL     1       7.049   7.758  17.747  1.00  0.00    -0.200 F 
ENDBRANCH  63  77
BRANCH  64  88
ATOM     88  C   UNL     1       3.420  13.240   5.226  1.00  0.00     0.064 A 
ATOM     89  C   UNL     1       3.287  14.620   5.015  1.00  0.00     0.173 A 
ATOM     90  C   UNL     1       3.147  12.387   4.146  1.00  0.00     0.173 A 
ATOM     91  F   UNL     1       3.517  15.476   6.022  1.00  0.00    -0.203 F 
ATOM     92  C   UNL     1       2.874  15.124   3.784  1.00  0.00     0.198 A 
ATOM     93  C   UNL     1       2.767  12.894   2.905  1.00  0.00     0.198 A 
ATOM     94  F   UNL     1       3.263  11.059   4.292  1.00  0.00    -0.203 F 
ATOM     95  F   UNL     1       2.705  16.444   3.626  1.00  0.00    -0.200 F 
ATOM     96  C   UNL     1       2.620  14.262   2.728  1.00  0.00     0.200 A 
ATOM     97  F   UNL     1       2.539  12.058   1.883  1.00  0.00    -0.200 F 
ATOM     98  F   UNL     1       2.227  14.747   1.543  1.00  0.00    -0.200 F 
ENDBRANCH  64  88
BRANCH  76  99
ATOM     99  C   UNL     1       0.388  13.170  11.501  1.00  0.00     0.064 A 
ATOM    100  C   UNL     1      -0.841  12.609  11.122  1.00  0.00     0.173 A 
ATOM    101  C   UNL     1       0.366  14.246  12.402  1.00  0.00     0.173 A 
ATOM    102  F   UNL     1      -0.878  11.589  10.250  1.00  0.00    -0.203 F 
ATOM    103  C   UNL     1      -2.042  13.122  11.604  1.00  0.00     0.198 A 
ATOM    104  C   UNL     1      -0.835  14.734  12.909  1.00  0.00     0.198 A 
ATOM    105  F   UNL     1       1.513  14.816  12.802  1.00  0.00    -0.203 F 
ATOM    106  F   UNL     1      -3.206  12.604  11.186  1.00  0.00    -0.200 F 
ATOM    107  C   UNL     1      -2.038  14.178  12.503  1.00  0.00     0.200 A 
ATOM    108  F   UNL     1      -0.827  15.743  13.791  1.00  0.00    -0.200 F 
ATOM    109  F   UNL     1      -3.195  14.664  12.974  1.00  0.00    -0.200 F 
ENDBRANCH  76  99
ENDBRANCH  50  51
ENDBRANCH  42  45
ENDBRANCH  40  41
ENDBRANCH  39  40
ENDBRANCH  38  39
ENDBRANCH  37  38
ENDBRANCH  36  37
ENDBRANCH   1  36
TORSDOF 19
