REMARK SMILES O=C(COc1ccc(/C=C2\SC(=O)N(Cc3cc4c(cc3Cl)OCO4)C2=O)cc1)NCCCCCCNC(=O)c1ccc(-c2c3nc(c(-c4c(F)c(F)c(F)c(F)c4F)c4ccc([nH]4)c(-c4c(F)c(F)c(F)c(F)c4F)c4nc(c(-c5c(F)c(F)c(F)c(F)c5F)c5ccc2[nH]5)C=C4)C=C3)cc1
REMARK SMILES IDX 32 1 31 2 30 3 1 4 2 5 3 7 4 8 5 9 6 10 29 11 7 12 28 13
REMARK SMILES IDX 8 14 9 15 10 16 11 17 26 18 12 19 14 20 27 21 13 22 15 23
REMARK SMILES IDX 16 24 17 25 21 26 18 27 20 28 22 29 19 30 25 31 23 32 24 33
REMARK SMILES IDX 33 34 34 35 35 36 36 37 37 38 38 39 39 41 40 42 41 43 102 44
REMARK SMILES IDX 42 45 101 46 43 47 44 48 45 49 95 50 46 51 100 52 94 53
REMARK SMILES IDX 96 54 47 55 99 56 93 57 92 58 48 60 80 61 60 62 79 63 61 64
REMARK SMILES IDX 64 65 78 66 97 67 62 68 63 69 77 71 98 72 65 73 49 74 50 75
REMARK SMILES IDX 58 76 51 77 52 78 56 79 59 80 53 81 54 82 57 83 55 84 81 85
REMARK SMILES IDX 82 86 90 87 83 88 84 89 88 90 91 91 85 92 86 93 89 94 87 95
REMARK SMILES IDX 66 96 67 97 75 98 68 99 69 100 73 101 76 102 70 103 71 104
REMARK SMILES IDX 74 105 72 106
REMARK H PARENT 30 6 37 40 96 59 64 70
REMARK Flexibility Score: inf
ROOT
ATOM      1  C   UNL     1       2.893  -2.743  -2.244  1.00  0.00     0.021 C 
ENDROOT
BRANCH   1   2
ATOM      2  C   UNL     1       2.317  -2.232  -0.932  1.00  0.00     0.116 C 
BRANCH   2   3
ATOM      3  N   UNL     1       2.970  -1.026  -0.469  1.00  0.00    -0.353 N 
ATOM      4  O   UNL     1       1.315   0.431  -1.114  1.00  0.00    -0.271 OA
ATOM      5  C   UNL     1       2.353   0.207  -0.498  1.00  0.00     0.257 C 
ATOM      6  H   UNL     1       3.889  -1.089  -0.121  1.00  0.00     0.163 HD
BRANCH   5   7
ATOM      7  C   UNL     1       3.041   1.277   0.365  1.00  0.00     0.329 C 
BRANCH   7   8
ATOM      8  O   UNL     1       3.927   0.830   1.392  1.00  0.00    -0.484 OA
BRANCH   8   9
ATOM      9  C   UNL     1       3.325   0.370   2.534  1.00  0.00     0.120 A 
ATOM     10  C   UNL     1       3.930   0.699   3.752  1.00  0.00     0.047 A 
ATOM     11  C   UNL     1       2.211  -0.465   2.533  1.00  0.00     0.047 A 
ATOM     12  C   UNL     1       3.406   0.219   4.962  1.00  0.00     0.012 A 
ATOM     13  C   UNL     1       1.709  -0.967   3.722  1.00  0.00     0.012 A 
ATOM     14  C   UNL     1       2.294  -0.621   4.939  1.00  0.00    -0.024 A 
BRANCH  14  15
ATOM     15  C   UNL     1       1.588  -1.122   6.106  1.00  0.00     0.029 C 
ATOM     16  C   UNL     1       1.701  -2.356   6.603  1.00  0.00     0.083 C 
ATOM     17  S   UNL     1       2.902  -3.558   6.403  1.00  0.00    -0.022 SA
ATOM     18  C   UNL     1       0.631  -2.877   7.473  1.00  0.00     0.268 C 
ATOM     19  C   UNL     1       2.245  -4.502   7.750  1.00  0.00     0.293 C 
ATOM     20  N   UNL     1       1.127  -3.888   8.243  1.00  0.00    -0.264 N 
ATOM     21  O   UNL     1      -0.534  -2.513   7.401  1.00  0.00    -0.268 OA
ATOM     22  O   UNL     1       2.731  -5.561   8.116  1.00  0.00    -0.261 OA
BRANCH  20  23
ATOM     23  C   UNL     1       0.379  -4.379   9.379  1.00  0.00     0.167 C 
BRANCH  23  24
ATOM     24  C   UNL     1       0.846  -3.772  10.695  1.00  0.00    -0.005 A 
ATOM     25  C   UNL     1       1.378  -4.645  11.668  1.00  0.00     0.057 A 
ATOM     26  C   UNL     1       0.730  -2.392  11.025  1.00  0.00     0.050 A 
ATOM     27  C   UNL     1       1.740  -4.127  12.896  1.00  0.00     0.166 A 
ATOM     28  C   UNL     1       1.170  -1.891  12.255  1.00  0.00     0.071 A 
ATOM     29  Cl  UNL     1      -0.018  -1.216  10.012  1.00  0.00    -0.084 Cl
ATOM     30  C   UNL     1       1.649  -2.786  13.174  1.00  0.00     0.167 A 
ATOM     31  O   UNL     1       2.183  -4.839  13.966  1.00  0.00    -0.454 OA
ATOM     32  O   UNL     1       2.035  -2.484  14.440  1.00  0.00    -0.454 OA
ATOM     33  C   UNL     1       2.211  -3.809  14.979  1.00  0.00     0.468 C 
ENDBRANCH  23  24
ENDBRANCH  20  23
ENDBRANCH  14  15
ENDBRANCH   8   9
ENDBRANCH   7   8
ENDBRANCH   5   7
ENDBRANCH   2   3
ENDBRANCH   1   2
BRANCH   1  34
ATOM     34  C   UNL     1       4.386  -3.083  -2.188  1.00  0.00     0.002 C 
BRANCH  34  35
ATOM     35  C   UNL     1       4.790  -4.131  -1.146  1.00  0.00     0.002 C 
BRANCH  35  36
ATOM     36  C   UNL     1       4.077  -5.481  -1.252  1.00  0.00     0.021 C 
BRANCH  36  37
ATOM     37  C   UNL     1       4.184  -6.171  -2.608  1.00  0.00     0.116 C 
BRANCH  37  38
ATOM     38  N   UNL     1       5.554  -6.498  -2.969  1.00  0.00    -0.352 N 
ATOM     39  C   UNL     1       6.068  -7.667  -3.475  1.00  0.00     0.251 C 
ATOM     40  H   UNL     1       6.208  -5.776  -2.831  1.00  0.00     0.163 HD
ATOM     41  O   UNL     1       7.281  -7.804  -3.598  1.00  0.00    -0.269 OA
BRANCH  39  42
ATOM     42  C   UNL     1       5.164  -8.777  -3.847  1.00  0.00     0.039 A 
ATOM     43  C   UNL     1       5.498 -10.077  -3.452  1.00  0.00     0.014 A 
ATOM     44  C   UNL     1       4.003  -8.549  -4.590  1.00  0.00     0.014 A 
ATOM     45  C   UNL     1       4.637 -11.137  -3.747  1.00  0.00     0.010 A 
ATOM     46  C   UNL     1       3.115  -9.595  -4.829  1.00  0.00     0.010 A 
ATOM     47  C   UNL     1       3.423 -10.899  -4.411  1.00  0.00    -0.014 A 
BRANCH  47  48
ATOM     48  C   UNL     1       2.462 -12.000  -4.680  1.00  0.00     0.031 A 
ATOM     49  C   UNL     1       2.158 -12.406  -6.094  1.00  0.00     0.074 A 
ATOM     50  C   UNL     1       1.810 -12.583  -3.656  1.00  0.00     0.049 A 
ATOM     51  N   UNL     1       1.281 -13.272  -6.538  1.00  0.00    -0.248 NA
ATOM     52  C   UNL     1       2.924 -11.731  -7.154  1.00  0.00     0.031 C 
ATOM     53  C   UNL     1       1.987 -12.251  -2.241  1.00  0.00     0.029 A 
ATOM     54  N   UNL     1       0.854 -13.569  -3.649  1.00  0.00    -0.354 N 
ATOM     55  C   UNL     1       1.376 -13.230  -7.923  1.00  0.00     0.074 A 
ATOM     56  C   UNL     1       2.364 -12.224  -8.249  1.00  0.00     0.031 C 
ATOM     57  C   UNL     1       1.176 -13.027  -1.503  1.00  0.00     0.029 A 
ATOM     58  C   UNL     1       0.398 -13.884  -2.392  1.00  0.00     0.049 A 
ATOM     59  H   UNL     1       0.526 -14.008  -4.467  1.00  0.00     0.167 HD
ATOM     60  C   UNL     1       0.712 -13.976  -8.838  1.00  0.00     0.037 A 
ATOM     61  C   UNL     1      -0.549 -14.759  -2.002  1.00  0.00     0.037 A 
ATOM     62  C   UNL     1      -0.247 -14.998  -8.511  1.00  0.00     0.049 A 
ATOM     63  C   UNL     1      -1.267 -15.579  -3.040  1.00  0.00     0.074 A 
ATOM     64  C   UNL     1      -0.927 -15.848  -9.366  1.00  0.00     0.029 A 
ATOM     65  N   UNL     1      -0.659 -15.311  -7.225  1.00  0.00    -0.354 N 
ATOM     66  N   UNL     1      -1.126 -15.572  -4.343  1.00  0.00    -0.248 NA
ATOM     67  C   UNL     1      -2.273 -16.533  -2.551  1.00  0.00     0.031 C 
ATOM     68  C   UNL     1      -1.779 -16.650  -8.599  1.00  0.00     0.029 A 
ATOM     69  C   UNL     1      -1.597 -16.330  -7.264  1.00  0.00     0.049 A 
ATOM     70  H   UNL     1      -0.334 -14.873  -6.405  1.00  0.00     0.167 HD
ATOM     71  C   UNL     1      -1.999 -16.538  -4.826  1.00  0.00     0.074 A 
ATOM     72  C   UNL     1      -2.659 -17.119  -3.676  1.00  0.00     0.031 C 
ATOM     73  C   UNL     1      -2.232 -16.910  -6.109  1.00  0.00     0.037 A 
BRANCH  60  74
ATOM     74  C   UNL     1       1.004 -13.718 -10.287  1.00  0.00     0.064 A 
ATOM     75  C   UNL     1       2.225 -14.092 -10.868  1.00  0.00     0.173 A 
ATOM     76  C   UNL     1       0.035 -13.130 -11.115  1.00  0.00     0.173 A 
ATOM     77  F   UNL     1       3.188 -14.648 -10.117  1.00  0.00    -0.203 F 
ATOM     78  C   UNL     1       2.475 -13.864 -12.219  1.00  0.00     0.198 A 
ATOM     79  C   UNL     1       0.279 -12.930 -12.471  1.00  0.00     0.198 A 
ATOM     80  F   UNL     1      -1.151 -12.760 -10.611  1.00  0.00    -0.203 F 
ATOM     81  F   UNL     1       3.665 -14.190 -12.742  1.00  0.00    -0.200 F 
ATOM     82  C   UNL     1       1.500 -13.290 -13.020  1.00  0.00     0.200 A 
ATOM     83  F   UNL     1      -0.669 -12.387 -13.248  1.00  0.00    -0.200 F 
ATOM     84  F   UNL     1       1.740 -13.080 -14.322  1.00  0.00    -0.200 F 
ENDBRANCH  60  74
BRANCH  61  85
ATOM     85  C   UNL     1      -0.861 -14.923  -0.559  1.00  0.00     0.064 A 
ATOM     86  C   UNL     1      -0.507 -16.096   0.123  1.00  0.00     0.173 A 
ATOM     87  C   UNL     1      -1.524 -13.921   0.164  1.00  0.00     0.173 A 
ATOM     88  F   UNL     1       0.109 -17.091  -0.532  1.00  0.00    -0.203 F 
ATOM     89  C   UNL     1      -0.826 -16.270   1.468  1.00  0.00     0.198 A 
ATOM     90  C   UNL     1      -1.818 -14.085   1.516  1.00  0.00     0.198 A 
ATOM     91  F   UNL     1      -1.880 -12.779  -0.442  1.00  0.00    -0.203 F 
ATOM     92  F   UNL     1      -0.518 -17.420   2.083  1.00  0.00    -0.200 F 
ATOM     93  C   UNL     1      -1.476 -15.263   2.165  1.00  0.00     0.200 A 
ATOM     94  F   UNL     1      -2.437 -13.105   2.189  1.00  0.00    -0.200 F 
ATOM     95  F   UNL     1      -1.782 -15.430   3.459  1.00  0.00    -0.200 F 
ENDBRANCH  61  85
BRANCH  73  96
ATOM     96  C   UNL     1      -3.208 -18.025  -6.336  1.00  0.00     0.064 A 
ATOM     97  C   UNL     1      -4.589 -17.838  -6.179  1.00  0.00     0.173 A 
ATOM     98  C   UNL     1      -2.758 -19.285  -6.759  1.00  0.00     0.173 A 
ATOM     99  F   UNL     1      -5.067 -16.656  -5.761  1.00  0.00    -0.203 F 
ATOM    100  C   UNL     1      -5.483 -18.878  -6.418  1.00  0.00     0.198 A 
ATOM    101  C   UNL     1      -3.656 -20.314  -7.023  1.00  0.00     0.198 A 
ATOM    102  F   UNL     1      -1.447 -19.512  -6.929  1.00  0.00    -0.203 F 
ATOM    103  F   UNL     1      -6.795 -18.690  -6.222  1.00  0.00    -0.200 F 
ATOM    104  C   UNL     1      -5.017 -20.113  -6.847  1.00  0.00     0.200 A 
ATOM    105  F   UNL     1      -3.205 -21.503  -7.449  1.00  0.00    -0.200 F 
ATOM    106  F   UNL     1      -5.879 -21.110  -7.084  1.00  0.00    -0.200 F 
ENDBRANCH  73  96
ENDBRANCH  47  48
ENDBRANCH  39  42
ENDBRANCH  37  38
ENDBRANCH  36  37
ENDBRANCH  35  36
ENDBRANCH  34  35
ENDBRANCH   1  34
TORSDOF 18
