REMARK SMILES [NH3+][C@]1(C(=O)NCCCCCCNC(=O)c2ccc(-c3c4nc(c(-c5c(F)c(F)c(F)c(F)c5F)c5ccc([nH]5)c(-c5c(F)c(F)c(F)c(F)c5F)c5nc(c(-c6c(F)c(F)c(F)c(F)c6F)c6ccc3[nH]6)C=C5)C=C4)cc2)CC[N@H+](Cc2ccccc2O)C1
REMARK SMILES IDX 8 1 7 2 6 3 5 4 3 5 4 6 2 8 78 9 89 10 79 11 80 12 1 14
REMARK SMILES IDX 81 18 82 19 83 20 87 21 84 22 86 23 85 24 88 25 9 27 10 28
REMARK SMILES IDX 11 29 12 30 13 31 14 33 15 34 16 35 77 36 17 37 76 38 18 39
REMARK SMILES IDX 19 40 20 41 70 42 21 43 75 44 69 45 71 46 22 47 74 48 68 49
REMARK SMILES IDX 67 50 23 52 55 53 35 54 54 55 36 56 39 57 53 58 72 59 37 60
REMARK SMILES IDX 38 61 52 63 73 64 40 65 24 66 25 67 33 68 26 69 27 70 31 71
REMARK SMILES IDX 34 72 28 73 29 74 32 75 30 76 56 77 57 78 65 79 58 80 59 81
REMARK SMILES IDX 63 82 66 83 60 84 61 85 64 86 62 87 41 88 42 89 50 90 43 91
REMARK SMILES IDX 44 92 48 93 51 94 45 95 46 96 49 97 47 98
REMARK H PARENT 5 7 80 13 1 15 1 16 1 17 88 26 12 32 71 51 39 62
REMARK Flexibility Score: inf
ROOT
ATOM      1  C   UNL     1       5.031  -0.707   1.848  1.00  0.00     0.002 C 
ENDROOT
BRANCH   1   2
ATOM      2  C   UNL     1       4.506  -1.007   0.445  1.00  0.00     0.021 C 
BRANCH   2   3
ATOM      3  C   UNL     1       3.049  -1.446   0.389  1.00  0.00     0.116 C 
BRANCH   3   4
ATOM      4  N   UNL     1       2.127  -0.374   0.725  1.00  0.00    -0.350 N 
ATOM      5  C   UNL     1       0.897  -0.079   0.189  1.00  0.00     0.287 C 
ATOM      6  O   UNL     1       0.269   0.861   0.678  1.00  0.00    -0.268 OA
ATOM      7  H   UNL     1       2.429   0.229   1.441  1.00  0.00     0.163 HD
BRANCH   5   8
ATOM      8  C   UNL     1       0.393  -0.873  -1.040  1.00  0.00     0.228 C 
ATOM      9  C   UNL     1       0.266  -2.368  -0.748  1.00  0.00     0.146 C 
ATOM     10  C   UNL     1      -1.080  -0.541  -1.388  1.00  0.00     0.342 C 
ATOM     11  C   UNL     1      -0.769  -2.868  -1.738  1.00  0.00     0.270 C 
ATOM     12  N   UNL     1      -1.653  -1.742  -2.025  1.00  0.00    -0.325 N 
ATOM     13  H   UNL     1      -2.567  -1.907  -1.604  1.00  0.00     0.348 HD
BRANCH   8  14
ATOM     14  N   UNL     1       1.283  -0.579  -2.193  1.00  0.00    -0.340 N 
ATOM     15  H   UNL     1       0.962  -1.097  -3.011  1.00  0.00     0.345 HD
ATOM     16  H   UNL     1       2.237  -0.859  -1.966  1.00  0.00     0.345 HD
ATOM     17  H   UNL     1       1.261   0.421  -2.393  1.00  0.00     0.345 HD
ENDBRANCH   8  14
BRANCH  12  18
ATOM     18  C   UNL     1      -2.077  -1.619  -3.426  1.00  0.00     0.303 C 
BRANCH  18  19
ATOM     19  C   UNL     1      -1.079  -1.079  -4.434  1.00  0.00     0.048 A 
ATOM     20  C   UNL     1      -1.132   0.295  -4.749  1.00  0.00     0.013 A 
ATOM     21  C   UNL     1      -0.086  -1.843  -5.066  1.00  0.00     0.124 A 
ATOM     22  C   UNL     1      -0.193   0.887  -5.598  1.00  0.00     0.001 A 
ATOM     23  C   UNL     1       0.880  -1.246  -5.879  1.00  0.00     0.046 A 
ATOM     24  C   UNL     1       0.831   0.120  -6.141  1.00  0.00     0.004 A 
BRANCH  21  25
ATOM     25  O   UNL     1       0.006  -3.204  -4.973  1.00  0.00    -0.507 OA
ATOM     26  H   UNL     1      -0.605  -3.680  -4.447  1.00  0.00     0.293 HD
ENDBRANCH  21  25
ENDBRANCH  18  19
ENDBRANCH  12  18
ENDBRANCH   5   8
ENDBRANCH   3   4
ENDBRANCH   2   3
ENDBRANCH   1   2
BRANCH   1  27
ATOM     27  C   UNL     1       4.864  -1.841   2.865  1.00  0.00     0.002 C 
BRANCH  27  28
ATOM     28  C   UNL     1       5.425  -3.199   2.437  1.00  0.00     0.021 C 
BRANCH  28  29
ATOM     29  C   UNL     1       6.886  -3.188   2.002  1.00  0.00     0.116 C 
BRANCH  29  30
ATOM     30  N   UNL     1       7.774  -2.708   3.047  1.00  0.00    -0.352 N 
ATOM     31  C   UNL     1       8.904  -3.285   3.564  1.00  0.00     0.251 C 
ATOM     32  H   UNL     1       7.527  -1.840   3.442  1.00  0.00     0.163 HD
ATOM     33  O   UNL     1       9.436  -2.813   4.567  1.00  0.00    -0.269 OA
BRANCH  31  34
ATOM     34  C   UNL     1       9.473  -4.493   2.932  1.00  0.00     0.039 A 
ATOM     35  C   UNL     1       9.883  -5.549   3.748  1.00  0.00     0.014 A 
ATOM     36  C   UNL     1       9.608  -4.584   1.544  1.00  0.00     0.014 A 
ATOM     37  C   UNL     1      10.374  -6.721   3.169  1.00  0.00     0.010 A 
ATOM     38  C   UNL     1      10.024  -5.780   0.965  1.00  0.00     0.010 A 
ATOM     39  C   UNL     1      10.415  -6.859   1.772  1.00  0.00    -0.014 A 
BRANCH  39  40
ATOM     40  C   UNL     1      10.864  -8.126   1.140  1.00  0.00     0.031 A 
ATOM     41  C   UNL     1      12.101  -8.149   0.286  1.00  0.00     0.074 A 
ATOM     42  C   UNL     1      10.130  -9.245   1.295  1.00  0.00     0.049 A 
ATOM     43  N   UNL     1      12.621  -9.140  -0.394  1.00  0.00    -0.248 NA
ATOM     44  C   UNL     1      12.840  -6.883   0.159  1.00  0.00     0.031 C 
ATOM     45  C   UNL     1       8.890  -9.341   2.068  1.00  0.00     0.029 A 
ATOM     46  N   UNL     1      10.314 -10.514   0.805  1.00  0.00    -0.354 N 
ATOM     47  C   UNL     1      13.739  -8.617  -1.030  1.00  0.00     0.074 A 
ATOM     48  C   UNL     1      13.788  -7.208  -0.708  1.00  0.00     0.031 C 
ATOM     49  C   UNL     1       8.441 -10.606   2.023  1.00  0.00     0.029 A 
ATOM     50  C   UNL     1       9.333 -11.398   1.183  1.00  0.00     0.049 A 
ATOM     51  H   UNL     1      11.077 -10.766   0.236  1.00  0.00     0.167 HD
ATOM     52  C   UNL     1      14.657  -9.260  -1.792  1.00  0.00     0.037 A 
ATOM     53  C   UNL     1       9.168 -12.700   0.878  1.00  0.00     0.037 A 
ATOM     54  C   UNL     1      14.610 -10.665  -2.101  1.00  0.00     0.049 A 
ATOM     55  C   UNL     1      10.183 -13.380  -0.002  1.00  0.00     0.074 A 
ATOM     56  C   UNL     1      15.512 -11.419  -2.831  1.00  0.00     0.029 A 
ATOM     57  N   UNL     1      13.600 -11.529  -1.701  1.00  0.00    -0.354 N 
ATOM     58  N   UNL     1      11.271 -12.890  -0.545  1.00  0.00    -0.248 NA
ATOM     59  C   UNL     1       9.948 -14.798  -0.307  1.00  0.00     0.031 C 
ATOM     60  C   UNL     1      15.021 -12.726  -2.918  1.00  0.00     0.029 A 
ATOM     61  C   UNL     1      13.845 -12.802  -2.191  1.00  0.00     0.049 A 
ATOM     62  H   UNL     1      12.824 -11.274  -1.151  1.00  0.00     0.167 HD
ATOM     63  C   UNL     1      11.867 -13.944  -1.225  1.00  0.00     0.074 A 
ATOM     64  C   UNL     1      11.028 -15.104  -1.012  1.00  0.00     0.031 C 
ATOM     65  C   UNL     1      13.006 -13.951  -1.960  1.00  0.00     0.037 A 
BRANCH  52  66
ATOM     66  C   UNL     1      15.795  -8.448  -2.342  1.00  0.00     0.064 A 
ATOM     67  C   UNL     1      16.792  -7.920  -1.507  1.00  0.00     0.173 A 
ATOM     68  C   UNL     1      15.915  -8.228  -3.722  1.00  0.00     0.173 A 
ATOM     69  F   UNL     1      16.721  -8.091  -0.178  1.00  0.00    -0.203 F 
ATOM     70  C   UNL     1      17.848  -7.177  -2.030  1.00  0.00     0.198 A 
ATOM     71  C   UNL     1      16.990  -7.514  -4.245  1.00  0.00     0.198 A 
ATOM     72  F   UNL     1      14.994  -8.716  -4.568  1.00  0.00    -0.203 F 
ATOM     73  F   UNL     1      18.758  -6.638  -1.207  1.00  0.00    -0.200 F 
ATOM     74  C   UNL     1      17.950  -6.982  -3.398  1.00  0.00     0.200 A 
ATOM     75  F   UNL     1      17.096  -7.340  -5.570  1.00  0.00    -0.200 F 
ATOM     76  F   UNL     1      18.972  -6.275  -3.901  1.00  0.00    -0.200 F 
ENDBRANCH  52  66
BRANCH  53  77
ATOM     77  C   UNL     1       8.007 -13.454   1.421  1.00  0.00     0.064 A 
ATOM     78  C   UNL     1       8.192 -14.490   2.348  1.00  0.00     0.173 A 
ATOM     79  C   UNL     1       6.696 -13.175   1.010  1.00  0.00     0.173 A 
ATOM     80  F   UNL     1       9.429 -14.809   2.758  1.00  0.00    -0.203 F 
ATOM     81  C   UNL     1       7.114 -15.236   2.821  1.00  0.00     0.198 A 
ATOM     82  C   UNL     1       5.615 -13.900   1.509  1.00  0.00     0.198 A 
ATOM     83  F   UNL     1       6.462 -12.192   0.130  1.00  0.00    -0.203 F 
ATOM     84  F   UNL     1       7.327 -16.258   3.661  1.00  0.00    -0.200 F 
ATOM     85  C   UNL     1       5.826 -14.938   2.404  1.00  0.00     0.200 A 
ATOM     86  F   UNL     1       4.370 -13.597   1.116  1.00  0.00    -0.200 F 
ATOM     87  F   UNL     1       4.790 -15.656   2.858  1.00  0.00    -0.200 F 
ENDBRANCH  53  77
BRANCH  65  88
ATOM     88  C   UNL     1      13.438 -15.263  -2.551  1.00  0.00     0.064 A 
ATOM     89  C   UNL     1      12.736 -15.866  -3.606  1.00  0.00     0.173 A 
ATOM     90  C   UNL     1      14.592 -15.907  -2.078  1.00  0.00     0.173 A 
ATOM     91  F   UNL     1      11.619 -15.299  -4.085  1.00  0.00    -0.203 F 
ATOM     92  C   UNL     1      13.157 -17.080  -4.144  1.00  0.00     0.198 A 
ATOM     93  C   UNL     1      15.029 -17.102  -2.642  1.00  0.00     0.198 A 
ATOM     94  F   UNL     1      15.304 -15.370  -1.076  1.00  0.00    -0.203 F 
ATOM     95  F   UNL     1      12.440 -17.665  -5.113  1.00  0.00    -0.200 F 
ATOM     96  C   UNL     1      14.306 -17.692  -3.667  1.00  0.00     0.200 A 
ATOM     97  F   UNL     1      16.149 -17.683  -2.192  1.00  0.00    -0.200 F 
ATOM     98  F   UNL     1      14.714 -18.856  -4.192  1.00  0.00    -0.200 F 
ENDBRANCH  65  88
ENDBRANCH  39  40
ENDBRANCH  31  34
ENDBRANCH  29  30
ENDBRANCH  28  29
ENDBRANCH  27  28
ENDBRANCH   1  27
TORSDOF 17
