REMARK SMILES O=C(NCCCCCCNC(=O)[C@H]1C[C@@H]1C(=O)Nc1ccc(Cl)c(Br)c1)c1ccc(-c2c3nc(c(-c4c(F)c(F)c(F)c(F)c4F)c4ccc([nH]4)c(-c4c(F)c(F)c(F)c(F)c4F)c4nc(c(-c5c(F)c(F)c(F)c(F)c5F)c5ccc2[nH]5)C=C4)C=C3)cc1
REMARK SMILES IDX 6 1 5 2 4 3 3 4 1 5 2 6 27 8 28 9 89 10 29 11 88 12 30 13
REMARK SMILES IDX 31 14 32 15 82 16 33 17 87 18 81 19 83 20 34 21 86 22 80 23
REMARK SMILES IDX 79 24 35 26 67 27 47 28 66 29 48 30 51 31 65 32 84 33 49 34
REMARK SMILES IDX 50 35 64 37 85 38 52 39 36 40 37 41 45 42 38 43 39 44 43 45
REMARK SMILES IDX 46 46 40 47 41 48 44 49 42 50 68 51 69 52 77 53 70 54 71 55
REMARK SMILES IDX 75 56 78 57 72 58 73 59 76 60 74 61 53 62 54 63 62 64 55 65
REMARK SMILES IDX 56 66 60 67 63 68 57 69 58 70 61 71 59 72 7 73 8 74 9 75
REMARK SMILES IDX 10 76 11 77 12 79 13 80 14 81 15 82 16 83 17 84 18 85 19 87
REMARK SMILES IDX 20 88 26 89 21 90 24 91 22 92 25 93 23 94
REMARK H PARENT 3 7 83 25 51 36 10 78 18 86
REMARK Flexibility Score: inf
ROOT
ATOM      1  C   UNL     1      12.511   8.034   8.619  1.00  0.00     0.002 C 
ENDROOT
BRANCH   1   2
ATOM      2  C   UNL     1      13.515   8.670   7.656  1.00  0.00     0.021 C 
BRANCH   2   3
ATOM      3  C   UNL     1      13.363  10.174   7.452  1.00  0.00     0.116 C 
BRANCH   3   4
ATOM      4  N   UNL     1      13.609  10.926   8.668  1.00  0.00    -0.352 N 
ATOM      5  O   UNL     1      14.627  12.420  10.008  1.00  0.00    -0.269 OA
ATOM      6  C   UNL     1      14.417  12.015   8.869  1.00  0.00     0.251 C 
ATOM      7  H   UNL     1      13.125  10.608   9.464  1.00  0.00     0.163 HD
BRANCH   6   8
ATOM      8  C   UNL     1      15.050  12.706   7.722  1.00  0.00     0.039 A 
ATOM      9  C   UNL     1      16.383  13.115   7.840  1.00  0.00     0.014 A 
ATOM     10  C   UNL     1      14.325  13.013   6.567  1.00  0.00     0.014 A 
ATOM     11  C   UNL     1      16.996  13.809   6.794  1.00  0.00     0.010 A 
ATOM     12  C   UNL     1      14.953  13.660   5.503  1.00  0.00     0.010 A 
ATOM     13  C   UNL     1      16.288  14.079   5.614  1.00  0.00    -0.014 A 
BRANCH  13  14
ATOM     14  C   UNL     1      16.895  14.867   4.512  1.00  0.00     0.031 A 
ATOM     15  C   UNL     1      16.375  16.247   4.217  1.00  0.00     0.074 A 
ATOM     16  C   UNL     1      17.885  14.345   3.764  1.00  0.00     0.049 A 
ATOM     17  N   UNL     1      16.661  17.048   3.222  1.00  0.00    -0.248 NA
ATOM     18  C   UNL     1      15.390  16.795   5.165  1.00  0.00     0.031 C 
ATOM     19  C   UNL     1      18.496  13.031   3.964  1.00  0.00     0.029 A 
ATOM     20  N   UNL     1      18.549  14.860   2.678  1.00  0.00    -0.354 N 
ATOM     21  C   UNL     1      15.888  18.185   3.419  1.00  0.00     0.074 A 
ATOM     22  C   UNL     1      15.091  17.958   4.605  1.00  0.00     0.031 C 
ATOM     23  C   UNL     1      19.459  12.852   3.046  1.00  0.00     0.029 A 
ATOM     24  C   UNL     1      19.502  14.015   2.164  1.00  0.00     0.049 A 
ATOM     25  H   UNL     1      18.359  15.750   2.303  1.00  0.00     0.167 HD
ATOM     26  C   UNL     1      15.861  19.324   2.687  1.00  0.00     0.037 A 
ATOM     27  C   UNL     1      20.307  14.161   1.094  1.00  0.00     0.037 A 
ATOM     28  C   UNL     1      16.666  19.557   1.518  1.00  0.00     0.049 A 
ATOM     29  C   UNL     1      20.215  15.416   0.267  1.00  0.00     0.074 A 
ATOM     30  C   UNL     1      16.683  20.664   0.687  1.00  0.00     0.029 A 
ATOM     31  N   UNL     1      17.613  18.672   1.025  1.00  0.00    -0.354 N 
ATOM     32  N   UNL     1      19.453  16.468   0.439  1.00  0.00    -0.248 NA
ATOM     33  C   UNL     1      21.095  15.500  -0.908  1.00  0.00     0.031 C 
ATOM     34  C   UNL     1      17.628  20.442  -0.319  1.00  0.00     0.029 A 
ATOM     35  C   UNL     1      18.226  19.213  -0.093  1.00  0.00     0.049 A 
ATOM     36  H   UNL     1      17.818  17.791   1.412  1.00  0.00     0.167 HD
ATOM     37  C   UNL     1      19.788  17.352  -0.578  1.00  0.00     0.074 A 
ATOM     38  C   UNL     1      20.826  16.716  -1.362  1.00  0.00     0.031 C 
ATOM     39  C   UNL     1      19.280  18.580  -0.840  1.00  0.00     0.037 A 
BRANCH  26  40
ATOM     40  C   UNL     1      14.941  20.419   3.136  1.00  0.00     0.064 A 
ATOM     41  C   UNL     1      15.237  21.200   4.262  1.00  0.00     0.173 A 
ATOM     42  C   UNL     1      13.793  20.738   2.396  1.00  0.00     0.173 A 
ATOM     43  F   UNL     1      16.316  20.924   5.010  1.00  0.00    -0.203 F 
ATOM     44  C   UNL     1      14.412  22.257   4.636  1.00  0.00     0.198 A 
ATOM     45  C   UNL     1      12.983  21.811   2.759  1.00  0.00     0.198 A 
ATOM     46  F   UNL     1      13.467  20.022   1.309  1.00  0.00    -0.203 F 
ATOM     47  F   UNL     1      14.700  22.974   5.732  1.00  0.00    -0.200 F 
ATOM     48  C   UNL     1      13.293  22.568   3.879  1.00  0.00     0.200 A 
ATOM     49  F   UNL     1      11.908  22.118   2.021  1.00  0.00    -0.200 F 
ATOM     50  F   UNL     1      12.510  23.598   4.230  1.00  0.00    -0.200 F 
ENDBRANCH  26  40
BRANCH  27  51
ATOM     51  C   UNL     1      21.292  13.104   0.749  1.00  0.00     0.064 A 
ATOM     52  C   UNL     1      22.667  13.333   0.898  1.00  0.00     0.173 A 
ATOM     53  C   UNL     1      20.889  11.859   0.246  1.00  0.00     0.173 A 
ATOM     54  F   UNL     1      23.102  14.518   1.352  1.00  0.00    -0.203 F 
ATOM     55  C   UNL     1      23.602  12.366   0.539  1.00  0.00     0.198 A 
ATOM     56  C   UNL     1      21.824  10.882  -0.088  1.00  0.00     0.198 A 
ATOM     57  F   UNL     1      19.585  11.590   0.083  1.00  0.00    -0.203 F 
ATOM     58  F   UNL     1      24.912  12.629   0.648  1.00  0.00    -0.200 F 
ATOM     59  C   UNL     1      23.180  11.138   0.051  1.00  0.00     0.200 A 
ATOM     60  F   UNL     1      21.412   9.693  -0.551  1.00  0.00    -0.200 F 
ATOM     61  F   UNL     1      24.080  10.207  -0.295  1.00  0.00    -0.200 F 
ENDBRANCH  27  51
BRANCH  39  62
ATOM     62  C   UNL     1      19.878  19.348  -1.981  1.00  0.00     0.064 A 
ATOM     63  C   UNL     1      19.613  19.012  -3.316  1.00  0.00     0.173 A 
ATOM     64  C   UNL     1      20.687  20.467  -1.730  1.00  0.00     0.173 A 
ATOM     65  F   UNL     1      18.855  17.943  -3.604  1.00  0.00    -0.203 F 
ATOM     66  C   UNL     1      20.155  19.756  -4.360  1.00  0.00     0.198 A 
ATOM     67  C   UNL     1      21.206  21.224  -2.777  1.00  0.00     0.198 A 
ATOM     68  F   UNL     1      20.963  20.834  -0.470  1.00  0.00    -0.203 F 
ATOM     69  F   UNL     1      19.921  19.393  -5.629  1.00  0.00    -0.200 F 
ATOM     70  C   UNL     1      20.944  20.864  -4.090  1.00  0.00     0.200 A 
ATOM     71  F   UNL     1      21.958  22.301  -2.514  1.00  0.00    -0.200 F 
ATOM     72  F   UNL     1      21.458  21.583  -5.098  1.00  0.00    -0.200 F 
ENDBRANCH  39  62
ENDBRANCH  13  14
ENDBRANCH   6   8
ENDBRANCH   3   4
ENDBRANCH   2   3
ENDBRANCH   1   2
BRANCH   1  73
ATOM     73  C   UNL     1      11.034   8.287   8.305  1.00  0.00     0.002 C 
BRANCH  73  74
ATOM     74  C   UNL     1      10.586   7.968   6.874  1.00  0.00     0.021 C 
BRANCH  74  75
ATOM     75  C   UNL     1      10.883   6.550   6.393  1.00  0.00     0.116 C 
BRANCH  75  76
ATOM     76  N   UNL     1      10.240   5.567   7.232  1.00  0.00    -0.356 N 
ATOM     77  C   UNL     1       9.248   4.678   6.958  1.00  0.00     0.223 C 
ATOM     78  H   UNL     1      10.575   5.535   8.157  1.00  0.00     0.163 HD
ATOM     79  O   UNL     1       8.710   4.093   7.894  1.00  0.00    -0.275 OA
BRANCH  77  80
ATOM     80  C   UNL     1       8.811   4.380   5.572  1.00  0.00     0.091 C 
ATOM     81  C   UNL     1       9.654   4.355   4.323  1.00  0.00     0.028 C 
ATOM     82  C   UNL     1       9.326   3.060   5.008  1.00  0.00     0.092 C 
BRANCH  82  83
ATOM     83  C   UNL     1       8.416   2.064   4.376  1.00  0.00     0.228 C 
ATOM     84  O   UNL     1       7.739   2.369   3.398  1.00  0.00    -0.274 OA
ATOM     85  N   UNL     1       8.488   0.758   4.814  1.00  0.00    -0.326 N 
ATOM     86  H   UNL     1       8.149   0.072   4.194  1.00  0.00     0.169 HD
BRANCH  85  87
ATOM     87  C   UNL     1       8.987   0.293   6.041  1.00  0.00     0.042 A 
ATOM     88  C   UNL     1       8.812   1.019   7.218  1.00  0.00     0.028 A 
ATOM     89  C   UNL     1       9.658  -0.927   6.085  1.00  0.00     0.043 A 
ATOM     90  C   UNL     1       9.392   0.595   8.414  1.00  0.00     0.024 A 
ATOM     91  C   UNL     1      10.250  -1.357   7.283  1.00  0.00     0.038 A 
ATOM     92  C   UNL     1      10.131  -0.586   8.447  1.00  0.00     0.055 A 
ATOM     93  Br  UNL     1      11.231  -2.983   7.237  1.00  0.00    -0.049 Br
ATOM     94  Cl  UNL     1      10.863  -1.026   9.947  1.00  0.00    -0.083 Cl
ENDBRANCH  85  87
ENDBRANCH  82  83
ENDBRANCH  77  80
ENDBRANCH  75  76
ENDBRANCH  74  75
ENDBRANCH  73  74
ENDBRANCH   1  73
TORSDOF 15
