REMARK SMILES CO[C@H]1C[C@H](C(=O)NCCCCCCNC(=O)c2ccc(-c3c4nc(c(-c5c(F)c(F)c(F)c(F)c5F)c5ccc([nH]5)c(-c5c(F)c(F)c(F)c(F)c5F)c5nc(c(-c6c(F)c(F)c(F)c(F)c6F)c6ccc3[nH]6)C=C5)C=C4)cc2)N(C(=O)CCSCC(N)=O)C1
REMARK SMILES IDX 9 1 8 2 6 3 7 4 5 6 3 7 4 8 91 9 81 10 2 11 1 12 82 13 83 14
REMARK SMILES IDX 84 15 85 16 86 17 87 18 88 19 89 20 90 21 10 24 11 25 12 26
REMARK SMILES IDX 13 27 14 28 15 29 16 30 17 32 18 33 19 34 80 35 20 36 79 37
REMARK SMILES IDX 21 38 22 39 23 40 73 41 24 42 78 43 72 44 74 45 25 46 77 47
REMARK SMILES IDX 71 48 70 49 26 51 58 52 38 53 57 54 39 55 42 56 56 57 75 58
REMARK SMILES IDX 40 59 41 60 55 62 76 63 43 64 27 65 28 66 36 67 29 68 30 69
REMARK SMILES IDX 34 70 37 71 31 72 32 73 35 74 33 75 59 76 60 77 68 78 61 79
REMARK SMILES IDX 62 80 66 81 69 82 63 83 64 84 67 85 65 86 44 87 45 88 53 89
REMARK SMILES IDX 46 90 47 91 51 92 54 93 48 94 49 95 52 96 50 97
REMARK H PARENT 8 5 89 22 89 23 15 31 74 50 42 61
REMARK Flexibility Score: inf
ROOT
ATOM      1  C   UNL     1       1.289   0.211  -0.193  1.00  0.00     0.116 C 
ENDROOT
BRANCH   1   2
ATOM      2  N   UNL     1       2.626   0.741   0.007  1.00  0.00    -0.354 N 
ATOM      3  C   UNL     1       3.536   0.700   1.015  1.00  0.00     0.242 C 
ATOM      4  O   UNL     1       4.589   1.319   0.802  1.00  0.00    -0.273 OA
ATOM      5  H   UNL     1       2.950   1.250  -0.771  1.00  0.00     0.163 HD
BRANCH   3   6
ATOM      6  C   UNL     1       3.300   0.128   2.437  1.00  0.00     0.177 C 
ATOM      7  C   UNL     1       1.049   0.443   3.206  1.00  0.00     0.139 C 
ATOM      8  C   UNL     1       2.438   1.063   3.286  1.00  0.00     0.069 C 
ATOM      9  C   UNL     1       1.349  -1.056   3.197  1.00  0.00     0.152 C 
ATOM     10  N   UNL     1       2.668  -1.183   2.591  1.00  0.00    -0.328 N 
BRANCH   7  11
ATOM     11  O   UNL     1       0.250   0.825   4.315  1.00  0.00    -0.380 OA
ATOM     12  C   UNL     1      -0.895   1.567   3.908  1.00  0.00     0.195 C 
ENDBRANCH   7  11
BRANCH  10  13
ATOM     13  C   UNL     1       3.268  -2.421   2.497  1.00  0.00     0.224 C 
ATOM     14  O   UNL     1       2.626  -3.453   2.714  1.00  0.00    -0.275 OA
BRANCH  13  15
ATOM     15  C   UNL     1       4.732  -2.506   2.102  1.00  0.00     0.111 C 
BRANCH  15  16
ATOM     16  C   UNL     1       4.994  -3.434   0.918  1.00  0.00     0.080 C 
BRANCH  16  17
ATOM     17  S   UNL     1       4.358  -2.820  -0.684  1.00  0.00    -0.152 SA
BRANCH  17  18
ATOM     18  C   UNL     1       2.601  -3.147  -0.425  1.00  0.00     0.169 C 
BRANCH  18  19
ATOM     19  C   UNL     1       1.749  -3.112  -1.675  1.00  0.00     0.227 C 
ATOM     20  N   UNL     1       0.497  -3.639  -1.478  1.00  0.00    -0.369 N 
ATOM     21  O   UNL     1       2.044  -2.608  -2.749  1.00  0.00    -0.274 OA
ATOM     22  H   UNL     1       0.264  -4.043  -0.612  1.00  0.00     0.159 HD
ATOM     23  H   UNL     1      -0.169  -3.611  -2.204  1.00  0.00     0.159 HD
ENDBRANCH  18  19
ENDBRANCH  17  18
ENDBRANCH  16  17
ENDBRANCH  15  16
ENDBRANCH  13  15
ENDBRANCH  10  13
ENDBRANCH   3   6
ENDBRANCH   1   2
BRANCH   1  24
ATOM     24  C   UNL     1       0.236   1.325  -0.301  1.00  0.00     0.021 C 
BRANCH  24  25
ATOM     25  C   UNL     1      -0.213   1.615  -1.739  1.00  0.00     0.002 C 
BRANCH  25  26
ATOM     26  C   UNL     1      -1.037   0.500  -2.400  1.00  0.00     0.002 C 
BRANCH  26  27
ATOM     27  C   UNL     1      -2.352   0.135  -1.703  1.00  0.00     0.021 C 
BRANCH  27  28
ATOM     28  C   UNL     1      -3.328   1.291  -1.490  1.00  0.00     0.116 C 
BRANCH  28  29
ATOM     29  N   UNL     1      -3.737   1.917  -2.737  1.00  0.00    -0.352 N 
ATOM     30  C   UNL     1      -4.995   2.215  -3.198  1.00  0.00     0.251 C 
ATOM     31  H   UNL     1      -3.000   2.165  -3.341  1.00  0.00     0.163 HD
ATOM     32  O   UNL     1      -5.153   2.606  -4.349  1.00  0.00    -0.269 OA
BRANCH  30  33
ATOM     33  C   UNL     1      -6.170   2.048  -2.316  1.00  0.00     0.039 A 
ATOM     34  C   UNL     1      -7.317   1.438  -2.832  1.00  0.00     0.014 A 
ATOM     35  C   UNL     1      -6.155   2.512  -0.998  1.00  0.00     0.014 A 
ATOM     36  C   UNL     1      -8.429   1.242  -2.010  1.00  0.00     0.010 A 
ATOM     37  C   UNL     1      -7.241   2.260  -0.162  1.00  0.00     0.010 A 
ATOM     38  C   UNL     1      -8.389   1.626  -0.660  1.00  0.00    -0.014 A 
BRANCH  38  39
ATOM     39  C   UNL     1      -9.540   1.376   0.243  1.00  0.00     0.031 A 
ATOM     40  C   UNL     1     -10.304   2.529   0.831  1.00  0.00     0.074 A 
ATOM     41  C   UNL     1      -9.857   0.112   0.584  1.00  0.00     0.049 A 
ATOM     42  N   UNL     1     -11.289   2.517   1.694  1.00  0.00    -0.248 NA
ATOM     43  C   UNL     1      -9.888   3.877   0.414  1.00  0.00     0.031 C 
ATOM     44  C   UNL     1      -9.161  -1.088   0.117  1.00  0.00     0.029 A 
ATOM     45  N   UNL     1     -10.836  -0.374   1.413  1.00  0.00    -0.354 N 
ATOM     46  C   UNL     1     -11.597   3.850   1.934  1.00  0.00     0.074 A 
ATOM     47  C   UNL     1     -10.664   4.645   1.165  1.00  0.00     0.031 C 
ATOM     48  C   UNL     1      -9.745  -2.172   0.652  1.00  0.00     0.029 A 
ATOM     49  C   UNL     1     -10.834  -1.743   1.526  1.00  0.00     0.049 A 
ATOM     50  H   UNL     1     -11.480   0.204   1.883  1.00  0.00     0.167 HD
ATOM     51  C   UNL     1     -12.583   4.363   2.708  1.00  0.00     0.037 A 
ATOM     52  C   UNL     1     -11.617  -2.559   2.256  1.00  0.00     0.037 A 
ATOM     53  C   UNL     1     -13.528   3.567   3.447  1.00  0.00     0.049 A 
ATOM     54  C   UNL     1     -12.712  -1.964   3.100  1.00  0.00     0.074 A 
ATOM     55  C   UNL     1     -14.602   3.991   4.210  1.00  0.00     0.029 A 
ATOM     56  N   UNL     1     -13.512   2.182   3.514  1.00  0.00    -0.354 N 
ATOM     57  N   UNL     1     -13.035  -0.705   3.268  1.00  0.00    -0.248 NA
ATOM     58  C   UNL     1     -13.557  -2.905   3.849  1.00  0.00     0.031 C 
ATOM     59  C   UNL     1     -15.211   2.864   4.773  1.00  0.00     0.029 A 
ATOM     60  C   UNL     1     -14.546   1.735   4.321  1.00  0.00     0.049 A 
ATOM     61  H   UNL     1     -12.862   1.602   3.055  1.00  0.00     0.167 HD
ATOM     62  C   UNL     1     -14.133  -0.703   4.117  1.00  0.00     0.074 A 
ATOM     63  C   UNL     1     -14.431  -2.087   4.418  1.00  0.00     0.031 C 
ATOM     64  C   UNL     1     -14.832   0.352   4.604  1.00  0.00     0.037 A 
BRANCH  51  65
ATOM     65  C   UNL     1     -12.694   5.857   2.793  1.00  0.00     0.064 A 
ATOM     66  C   UNL     1     -13.131   6.626   1.703  1.00  0.00     0.173 A 
ATOM     67  C   UNL     1     -12.400   6.527   3.990  1.00  0.00     0.173 A 
ATOM     68  F   UNL     1     -13.414   6.035   0.531  1.00  0.00    -0.203 F 
ATOM     69  C   UNL     1     -13.242   8.010   1.799  1.00  0.00     0.198 A 
ATOM     70  C   UNL     1     -12.540   7.909   4.092  1.00  0.00     0.198 A 
ATOM     71  F   UNL     1     -11.984   5.840   5.065  1.00  0.00    -0.203 F 
ATOM     72  F   UNL     1     -13.614   8.727   0.730  1.00  0.00    -0.200 F 
ATOM     73  C   UNL     1     -12.954   8.650   2.996  1.00  0.00     0.200 A 
ATOM     74  F   UNL     1     -12.273   8.524   5.253  1.00  0.00    -0.200 F 
ATOM     75  F   UNL     1     -13.068   9.982   3.090  1.00  0.00    -0.200 F 
ENDBRANCH  51  65
BRANCH  52  76
ATOM     76  C   UNL     1     -11.411  -4.029   2.201  1.00  0.00     0.064 A 
ATOM     77  C   UNL     1     -12.347  -4.864   1.574  1.00  0.00     0.173 A 
ATOM     78  C   UNL     1     -10.278  -4.630   2.769  1.00  0.00     0.173 A 
ATOM     79  F   UNL     1     -13.456  -4.338   1.033  1.00  0.00    -0.203 F 
ATOM     80  C   UNL     1     -12.168  -6.245   1.536  1.00  0.00     0.198 A 
ATOM     81  C   UNL     1     -10.086  -6.008   2.706  1.00  0.00     0.198 A 
ATOM     82  F   UNL     1      -9.350  -3.874   3.374  1.00  0.00    -0.203 F 
ATOM     83  F   UNL     1     -13.099  -7.024   0.968  1.00  0.00    -0.200 F 
ATOM     84  C   UNL     1     -11.035  -6.816   2.096  1.00  0.00     0.200 A 
ATOM     85  F   UNL     1      -8.983  -6.554   3.235  1.00  0.00    -0.200 F 
ATOM     86  F   UNL     1     -10.860  -8.144   2.054  1.00  0.00    -0.200 F 
ENDBRANCH  52  76
BRANCH  64  87
ATOM     87  C   UNL     1     -16.007   0.049   5.487  1.00  0.00     0.064 A 
ATOM     88  C   UNL     1     -15.841  -0.421   6.797  1.00  0.00     0.173 A 
ATOM     89  C   UNL     1     -17.314   0.272   5.028  1.00  0.00     0.173 A 
ATOM     90  F   UNL     1     -14.611  -0.664   7.276  1.00  0.00    -0.203 F 
ATOM     91  C   UNL     1     -16.942  -0.681   7.609  1.00  0.00     0.198 A 
ATOM     92  C   UNL     1     -18.412   0.039   5.852  1.00  0.00     0.198 A 
ATOM     93  F   UNL     1     -17.526   0.727   3.784  1.00  0.00    -0.203 F 
ATOM     94  F   UNL     1     -16.762  -1.173   8.842  1.00  0.00    -0.200 F 
ATOM     95  C   UNL     1     -18.225  -0.444   7.138  1.00  0.00     0.200 A 
ATOM     96  F   UNL     1     -19.650   0.280   5.400  1.00  0.00    -0.200 F 
ATOM     97  F   UNL     1     -19.284  -0.688   7.923  1.00  0.00    -0.200 F 
ENDBRANCH  64  87
ENDBRANCH  38  39
ENDBRANCH  30  33
ENDBRANCH  28  29
ENDBRANCH  27  28
ENDBRANCH  26  27
ENDBRANCH  25  26
ENDBRANCH  24  25
ENDBRANCH   1  24
TORSDOF 20
