REMARK SMILES CC1(C)[C@]2(C(=O)NCCCCCCNC(=O)c3ccc(-c4c5nc(c(-c6c(F)c(F)c(F)c(F)c6F)c6ccc([nH]6)c(-c6c(F)c(F)c(F)c(F)c6F)c6nc(c(-c7c(F)c(F)c(F)c(F)c7F)c7ccc4[nH]7)C=C6)C=C5)cc3)CC[C@@]1(C)C(=O)C2
REMARK SMILES IDX 11 1 10 2 9 3 8 4 7 5 5 6 6 7 4 9 1 10 2 11 82 12 3 13 80 14
REMARK SMILES IDX 86 15 81 16 84 17 83 18 85 19 12 20 13 21 14 22 15 23 16 25
REMARK SMILES IDX 17 26 18 27 79 28 19 29 78 30 20 31 21 32 22 33 72 34 23 35
REMARK SMILES IDX 77 36 71 37 73 38 24 39 76 40 70 41 69 42 25 44 57 45 37 46
REMARK SMILES IDX 56 47 38 48 41 49 55 50 74 51 39 52 40 53 54 55 75 56 42 57
REMARK SMILES IDX 26 58 27 59 35 60 28 61 29 62 33 63 36 64 30 65 31 66 34 67
REMARK SMILES IDX 32 68 58 69 59 70 67 71 60 72 61 73 65 74 68 75 62 76 63 77
REMARK SMILES IDX 66 78 64 79 43 80 44 81 52 82 45 83 46 84 50 85 53 86 47 87
REMARK SMILES IDX 48 88 51 89 49 90
REMARK H PARENT 7 8 14 24 73 43 41 54
REMARK Flexibility Score: inf
ROOT
ATOM      1  C   UNL     1      -3.630   2.118  -2.896  1.00  0.00     0.002 C 
ENDROOT
BRANCH   1   2
ATOM      2  C   UNL     1      -4.248   1.507  -1.632  1.00  0.00     0.002 C 
BRANCH   2   3
ATOM      3  C   UNL     1      -3.521   0.272  -1.095  1.00  0.00     0.021 C 
BRANCH   3   4
ATOM      4  C   UNL     1      -2.048   0.525  -0.788  1.00  0.00     0.116 C 
BRANCH   4   5
ATOM      5  N   UNL     1      -1.880   1.248   0.456  1.00  0.00    -0.356 N 
ATOM      6  C   UNL     1      -1.387   0.903   1.671  1.00  0.00     0.227 C 
ATOM      7  O   UNL     1      -1.462   1.770   2.547  1.00  0.00    -0.274 OA
ATOM      8  H   UNL     1      -2.188   2.182   0.410  1.00  0.00     0.163 HD
BRANCH   6   9
ATOM      9  C   UNL     1      -0.715  -0.439   1.959  1.00  0.00     0.062 C 
ATOM     10  C   UNL     1       0.908  -0.660  -0.141  1.00  0.00     0.013 C 
ATOM     11  C   UNL     1       0.742  -0.612   1.390  1.00  0.00    -0.008 C 
ATOM     12  C   UNL     1       0.917  -2.005   2.062  1.00  0.00     0.032 C 
ATOM     13  C   UNL     1       1.747   0.458   1.879  1.00  0.00     0.013 C 
ATOM     14  C   UNL     1      -0.461  -0.634   3.499  1.00  0.00     0.019 C 
ATOM     15  C   UNL     1      -1.497  -1.710   1.544  1.00  0.00     0.093 C 
ATOM     16  C   UNL     1       0.620  -1.736   3.553  1.00  0.00     0.016 C 
ATOM     17  C   UNL     1      -0.357  -2.700   1.572  1.00  0.00     0.140 C 
ATOM     18  C   UNL     1       2.194  -2.777   1.799  1.00  0.00     0.020 C 
ATOM     19  O   UNL     1      -0.468  -3.878   1.266  1.00  0.00    -0.299 OA
ENDBRANCH   6   9
ENDBRANCH   4   5
ENDBRANCH   3   4
ENDBRANCH   2   3
ENDBRANCH   1   2
BRANCH   1  20
ATOM     20  C   UNL     1      -3.420   1.138  -4.053  1.00  0.00     0.021 C 
BRANCH  20  21
ATOM     21  C   UNL     1      -4.697   0.468  -4.545  1.00  0.00     0.116 C 
BRANCH  21  22
ATOM     22  N   UNL     1      -5.651   1.437  -5.061  1.00  0.00    -0.352 N 
ATOM     23  C   UNL     1      -6.259   1.488  -6.287  1.00  0.00     0.251 C 
ATOM     24  H   UNL     1      -5.894   2.162  -4.440  1.00  0.00     0.163 HD
ATOM     25  O   UNL     1      -6.867   2.501  -6.635  1.00  0.00    -0.269 OA
BRANCH  23  26
ATOM     26  C   UNL     1      -6.175   0.332  -7.199  1.00  0.00     0.039 A 
ATOM     27  C   UNL     1      -5.919   0.554  -8.554  1.00  0.00     0.014 A 
ATOM     28  C   UNL     1      -6.362  -0.969  -6.721  1.00  0.00     0.014 A 
ATOM     29  C   UNL     1      -5.797  -0.532  -9.421  1.00  0.00     0.010 A 
ATOM     30  C   UNL     1      -6.164  -2.052  -7.569  1.00  0.00     0.010 A 
ATOM     31  C   UNL     1      -5.889  -1.845  -8.929  1.00  0.00    -0.014 A 
BRANCH  31  32
ATOM     32  C   UNL     1      -5.704  -3.014  -9.823  1.00  0.00     0.031 A 
ATOM     33  C   UNL     1      -6.839  -3.967 -10.066  1.00  0.00     0.074 A 
ATOM     34  C   UNL     1      -4.495  -3.250 -10.366  1.00  0.00     0.049 A 
ATOM     35  N   UNL     1      -6.859  -5.071 -10.770  1.00  0.00    -0.248 NA
ATOM     36  C   UNL     1      -8.115  -3.653  -9.405  1.00  0.00     0.031 C 
ATOM     37  C   UNL     1      -3.304  -2.422 -10.168  1.00  0.00     0.029 A 
ATOM     38  N   UNL     1      -4.065  -4.260 -11.189  1.00  0.00    -0.354 N 
ATOM     39  C   UNL     1      -8.140  -5.587 -10.625  1.00  0.00     0.074 A 
ATOM     40  C   UNL     1      -8.849  -4.710  -9.718  1.00  0.00     0.031 C 
ATOM     41  C   UNL     1      -2.288  -2.939 -10.875  1.00  0.00     0.029 A 
ATOM     42  C   UNL     1      -2.742  -4.156 -11.541  1.00  0.00     0.049 A 
ATOM     43  H   UNL     1      -4.649  -4.989 -11.498  1.00  0.00     0.167 HD
ATOM     44  C   UNL     1      -8.683  -6.680 -11.214  1.00  0.00     0.037 A 
ATOM     45  C   UNL     1      -1.981  -4.955 -12.313  1.00  0.00     0.037 A 
ATOM     46  C   UNL     1      -7.975  -7.540 -12.127  1.00  0.00     0.049 A 
ATOM     47  C   UNL     1      -2.600  -6.174 -12.940  1.00  0.00     0.074 A 
ATOM     48  C   UNL     1      -8.449  -8.636 -12.825  1.00  0.00     0.029 A 
ATOM     49  N   UNL     1      -6.634  -7.404 -12.460  1.00  0.00    -0.354 N 
ATOM     50  N   UNL     1      -3.832  -6.614 -12.857  1.00  0.00    -0.248 NA
ATOM     51  C   UNL     1      -1.720  -7.006 -13.772  1.00  0.00     0.031 C 
ATOM     52  C   UNL     1      -7.383  -9.197 -13.536  1.00  0.00     0.029 A 
ATOM     53  C   UNL     1      -6.257  -8.415 -13.330  1.00  0.00     0.049 A 
ATOM     54  H   UNL     1      -6.039  -6.694 -12.127  1.00  0.00     0.167 HD
ATOM     55  C   UNL     1      -3.885  -7.754 -13.647  1.00  0.00     0.074 A 
ATOM     56  C   UNL     1      -2.563  -7.930 -14.212  1.00  0.00     0.031 C 
ATOM     57  C   UNL     1      -4.936  -8.578 -13.886  1.00  0.00     0.037 A 
BRANCH  44  58
ATOM     58  C   UNL     1     -10.111  -7.007 -10.877  1.00  0.00     0.064 A 
ATOM     59  C   UNL     1     -11.173  -6.181 -11.278  1.00  0.00     0.173 A 
ATOM     60  C   UNL     1     -10.423  -8.165 -10.150  1.00  0.00     0.173 A 
ATOM     61  F   UNL     1     -10.931  -5.056 -11.968  1.00  0.00    -0.203 F 
ATOM     62  C   UNL     1     -12.487  -6.478 -10.924  1.00  0.00     0.198 A 
ATOM     63  C   UNL     1     -11.742  -8.478  -9.829  1.00  0.00     0.198 A 
ATOM     64  F   UNL     1      -9.450  -8.996  -9.747  1.00  0.00    -0.203 F 
ATOM     65  F   UNL     1     -13.476  -5.638 -11.260  1.00  0.00    -0.200 F 
ATOM     66  C   UNL     1     -12.771  -7.628 -10.205  1.00  0.00     0.200 A 
ATOM     67  F   UNL     1     -12.016  -9.598  -9.146  1.00  0.00    -0.200 F 
ATOM     68  F   UNL     1     -14.035  -7.912  -9.864  1.00  0.00    -0.200 F 
ENDBRANCH  44  58
BRANCH  45  69
ATOM     69  C   UNL     1      -0.560  -4.600 -12.564  1.00  0.00     0.064 A 
ATOM     70  C   UNL     1      -0.144  -4.165 -13.830  1.00  0.00     0.173 A 
ATOM     71  C   UNL     1       0.403  -4.668 -11.547  1.00  0.00     0.173 A 
ATOM     72  F   UNL     1      -1.026  -4.102 -14.839  1.00  0.00    -0.203 F 
ATOM     73  C   UNL     1       1.184  -3.824 -14.073  1.00  0.00     0.198 A 
ATOM     74  C   UNL     1       1.726  -4.299 -11.784  1.00  0.00     0.198 A 
ATOM     75  F   UNL     1       0.054  -5.071 -10.317  1.00  0.00    -0.203 F 
ATOM     76  F   UNL     1       1.562  -3.446 -15.302  1.00  0.00    -0.200 F 
ATOM     77  C   UNL     1       2.116  -3.883 -13.048  1.00  0.00     0.200 A 
ATOM     78  F   UNL     1       2.620  -4.342 -10.787  1.00  0.00    -0.200 F 
ATOM     79  F   UNL     1       3.392  -3.544 -13.280  1.00  0.00    -0.200 F 
ENDBRANCH  45  69
BRANCH  57  80
ATOM     80  C   UNL     1      -4.709  -9.728 -14.825  1.00  0.00     0.064 A 
ATOM     81  C   UNL     1      -3.919 -10.830 -14.467  1.00  0.00     0.173 A 
ATOM     82  C   UNL     1      -5.323  -9.742 -16.087  1.00  0.00     0.173 A 
ATOM     83  F   UNL     1      -3.298 -10.858 -13.279  1.00  0.00    -0.203 F 
ATOM     84  C   UNL     1      -3.731 -11.892 -15.349  1.00  0.00     0.198 A 
ATOM     85  C   UNL     1      -5.160 -10.821 -16.952  1.00  0.00     0.198 A 
ATOM     86  F   UNL     1      -6.094  -8.716 -16.477  1.00  0.00    -0.203 F 
ATOM     87  F   UNL     1      -2.930 -12.910 -15.005  1.00  0.00    -0.200 F 
ATOM     88  C   UNL     1      -4.357 -11.890 -16.586  1.00  0.00     0.200 A 
ATOM     89  F   UNL     1      -5.778 -10.824 -18.141  1.00  0.00    -0.200 F 
ATOM     90  F   UNL     1      -4.181 -12.917 -17.429  1.00  0.00    -0.200 F 
ENDBRANCH  57  80
ENDBRANCH  31  32
ENDBRANCH  23  26
ENDBRANCH  21  22
ENDBRANCH  20  21
ENDBRANCH   1  20
TORSDOF 13
