REMARK SMILES Cc1oc(CNC(=O)c2ccnn2C)cc1C(=O)NCCCCCCNC(=O)c1ccc(-c2c3nc(c(-c4c(F)c(F)c(F)c(F)c4F)c4ccc([nH]4)c(-c4c(F)c(F)c(F)c(F)c4F)c4nc(c(-c5c(F)c(F)c(F)c(F)c5F)c5ccc2[nH]5)C=C4)C=C3)cc1
REMARK SMILES IDX 22 1 21 2 20 3 19 4 17 5 18 6 16 8 1 9 2 10 3 11 4 12 15 13
REMARK SMILES IDX 5 14 6 15 7 16 8 18 9 19 10 20 13 21 11 22 12 23 14 24 23 25
REMARK SMILES IDX 24 26 25 27 26 28 27 29 28 31 29 32 30 33 91 34 31 35 90 36
REMARK SMILES IDX 32 37 33 38 34 39 84 40 35 41 89 42 83 43 85 44 36 45 88 46
REMARK SMILES IDX 82 47 81 48 37 50 69 51 49 52 68 53 50 54 53 55 67 56 86 57
REMARK SMILES IDX 51 58 52 59 66 61 87 62 54 63 38 64 39 65 47 66 40 67 41 68
REMARK SMILES IDX 45 69 48 70 42 71 43 72 46 73 44 74 70 75 71 76 79 77 72 78
REMARK SMILES IDX 73 79 77 80 80 81 74 82 75 83 78 84 76 85 55 86 56 87 64 88
REMARK SMILES IDX 57 89 58 90 62 91 65 92 59 93 60 94 63 95 61 96
REMARK H PARENT 19 7 6 17 26 30 85 49 53 60
REMARK Flexibility Score: inf
ROOT
ATOM      1  C   UNL     1       4.174  -3.984   1.011  1.00  0.00     0.002 C 
ENDROOT
BRANCH   1   2
ATOM      2  C   UNL     1       3.606  -2.603   0.656  1.00  0.00     0.021 C 
BRANCH   2   3
ATOM      3  C   UNL     1       2.466  -2.632  -0.367  1.00  0.00     0.116 C 
BRANCH   3   4
ATOM      4  N   UNL     1       1.251  -3.145   0.232  1.00  0.00    -0.352 N 
ATOM      5  C   UNL     1       0.024  -2.587   0.460  1.00  0.00     0.254 C 
ATOM      6  O   UNL     1      -0.866  -3.355   0.831  1.00  0.00    -0.269 OA
ATOM      7  H   UNL     1       1.323  -4.079   0.534  1.00  0.00     0.163 HD
BRANCH   5   8
ATOM      8  C   UNL     1      -0.275  -1.182   0.223  1.00  0.00     0.081 A 
ATOM      9  C   UNL     1       1.770   0.302   1.052  1.00  0.00     0.088 C 
ATOM     10  C   UNL     1       0.455  -0.026   0.464  1.00  0.00     0.113 A 
ATOM     11  O   UNL     1      -0.283   1.077   0.146  1.00  0.00    -0.464 OA
ATOM     12  C   UNL     1      -1.525   0.659  -0.215  1.00  0.00     0.124 A 
ATOM     13  C   UNL     1      -1.567  -0.714  -0.199  1.00  0.00     0.061 A 
BRANCH  12  14
ATOM     14  C   UNL     1      -2.529   1.715  -0.495  1.00  0.00     0.191 C 
BRANCH  14  15
ATOM     15  N   UNL     1      -2.662   2.550   0.685  1.00  0.00    -0.343 N 
ATOM     16  C   UNL     1      -2.439   3.893   0.799  1.00  0.00     0.269 C 
ATOM     17  H   UNL     1      -2.950   2.091   1.507  1.00  0.00     0.164 HD
ATOM     18  O   UNL     1      -2.354   4.388   1.923  1.00  0.00    -0.268 OA
BRANCH  16  19
ATOM     19  C   UNL     1      -2.316   4.666  -0.402  1.00  0.00     0.125 A 
ATOM     20  C   UNL     1      -1.246   5.426  -0.837  1.00  0.00     0.055 A 
ATOM     21  N   UNL     1      -3.300   4.868  -1.337  1.00  0.00    -0.263 N 
ATOM     22  C   UNL     1      -1.649   5.955  -2.074  1.00  0.00     0.136 A 
ATOM     23  N   UNL     1      -2.892   5.592  -2.398  1.00  0.00    -0.181 NA
ATOM     24  C   UNL     1      -4.668   4.410  -1.290  1.00  0.00     0.174 C 
ENDBRANCH  16  19
ENDBRANCH  14  15
ENDBRANCH  12  14
ENDBRANCH   5   8
ENDBRANCH   3   4
ENDBRANCH   2   3
ENDBRANCH   1   2
BRANCH   1  25
ATOM     25  C   UNL     1       5.022  -4.647  -0.079  1.00  0.00     0.002 C 
BRANCH  25  26
ATOM     26  C   UNL     1       6.225  -3.836  -0.578  1.00  0.00     0.021 C 
BRANCH  26  27
ATOM     27  C   UNL     1       7.190  -3.347   0.503  1.00  0.00     0.116 C 
BRANCH  27  28
ATOM     28  N   UNL     1       7.848  -4.436   1.200  1.00  0.00    -0.352 N 
ATOM     29  C   UNL     1       9.139  -4.511   1.660  1.00  0.00     0.251 C 
ATOM     30  H   UNL     1       7.291  -5.231   1.367  1.00  0.00     0.163 HD
ATOM     31  O   UNL     1       9.574  -5.566   2.112  1.00  0.00    -0.269 OA
BRANCH  29  32
ATOM     32  C   UNL     1      10.025  -3.327   1.596  1.00  0.00     0.039 A 
ATOM     33  C   UNL     1      11.311  -3.483   1.069  1.00  0.00     0.014 A 
ATOM     34  C   UNL     1       9.619  -2.089   2.104  1.00  0.00     0.014 A 
ATOM     35  C   UNL     1      12.178  -2.389   1.010  1.00  0.00     0.010 A 
ATOM     36  C   UNL     1      10.479  -0.991   2.029  1.00  0.00     0.010 A 
ATOM     37  C   UNL     1      11.764  -1.135   1.482  1.00  0.00    -0.014 A 
BRANCH  37  38
ATOM     38  C   UNL     1      12.671   0.035   1.419  1.00  0.00     0.031 A 
ATOM     39  C   UNL     1      13.391   0.502   2.649  1.00  0.00     0.074 A 
ATOM     40  C   UNL     1      12.816   0.703   0.260  1.00  0.00     0.049 A 
ATOM     41  N   UNL     1      14.167   1.545   2.805  1.00  0.00    -0.248 NA
ATOM     42  C   UNL     1      13.205  -0.302   3.866  1.00  0.00     0.031 C 
ATOM     43  C   UNL     1      12.159   0.360  -1.001  1.00  0.00     0.029 A 
ATOM     44  N   UNL     1      13.558   1.817  -0.038  1.00  0.00    -0.354 N 
ATOM     45  C   UNL     1      14.541   1.539   4.141  1.00  0.00     0.074 A 
ATOM     46  C   UNL     1      13.911   0.387   4.753  1.00  0.00     0.031 C 
ATOM     47  C   UNL     1      12.529   1.247  -1.940  1.00  0.00     0.029 A 
ATOM     48  C   UNL     1      13.435   2.225  -1.342  1.00  0.00     0.049 A 
ATOM     49  H   UNL     1      14.125   2.280   0.621  1.00  0.00     0.167 HD
ATOM     50  C   UNL     1      15.335   2.416   4.798  1.00  0.00     0.037 A 
ATOM     51  C   UNL     1      13.987   3.273  -1.980  1.00  0.00     0.037 A 
ATOM     52  C   UNL     1      15.992   3.545   4.195  1.00  0.00     0.049 A 
ATOM     53  C   UNL     1      14.901   4.205  -1.239  1.00  0.00     0.074 A 
ATOM     54  C   UNL     1      16.842   4.466   4.781  1.00  0.00     0.029 A 
ATOM     55  N   UNL     1      15.874   3.901   2.861  1.00  0.00    -0.354 N 
ATOM     56  N   UNL     1      15.257   4.181   0.020  1.00  0.00    -0.248 NA
ATOM     57  C   UNL     1      15.487   5.311  -2.011  1.00  0.00     0.031 C 
ATOM     58  C   UNL     1      17.233   5.388   3.801  1.00  0.00     0.029 A 
ATOM     59  C   UNL     1      16.633   5.031   2.605  1.00  0.00     0.049 A 
ATOM     60  H   UNL     1      15.330   3.422   2.194  1.00  0.00     0.167 HD
ATOM     61  C   UNL     1      16.111   5.260   0.194  1.00  0.00     0.074 A 
ATOM     62  C   UNL     1      16.226   5.918  -1.091  1.00  0.00     0.031 C 
ATOM     63  C   UNL     1      16.741   5.668   1.321  1.00  0.00     0.037 A 
BRANCH  50  64
ATOM     64  C   UNL     1      15.528   2.193   6.263  1.00  0.00     0.064 A 
ATOM     65  C   UNL     1      16.491   1.295   6.741  1.00  0.00     0.173 A 
ATOM     66  C   UNL     1      14.759   2.903   7.195  1.00  0.00     0.173 A 
ATOM     67  F   UNL     1      17.238   0.586   5.882  1.00  0.00    -0.203 F 
ATOM     68  C   UNL     1      16.673   1.109   8.108  1.00  0.00     0.198 A 
ATOM     69  C   UNL     1      14.949   2.721   8.561  1.00  0.00     0.198 A 
ATOM     70  F   UNL     1      13.823   3.769   6.779  1.00  0.00    -0.203 F 
ATOM     71  F   UNL     1      17.585   0.232   8.549  1.00  0.00    -0.200 F 
ATOM     72  C   UNL     1      15.904   1.823   9.017  1.00  0.00     0.200 A 
ATOM     73  F   UNL     1      14.205   3.409   9.438  1.00  0.00    -0.200 F 
ATOM     74  F   UNL     1      16.079   1.641  10.333  1.00  0.00    -0.200 F 
ENDBRANCH  50  64
BRANCH  51  75
ATOM     75  C   UNL     1      13.692   3.489  -3.414  1.00  0.00     0.064 A 
ATOM     76  C   UNL     1      14.586   3.056  -4.401  1.00  0.00     0.173 A 
ATOM     77  C   UNL     1      12.509   4.117  -3.821  1.00  0.00     0.173 A 
ATOM     78  F   UNL     1      15.738   2.466  -4.049  1.00  0.00    -0.203 F 
ATOM     79  C   UNL     1      14.307   3.248  -5.751  1.00  0.00     0.198 A 
ATOM     80  C   UNL     1      12.227   4.301  -5.172  1.00  0.00     0.198 A 
ATOM     81  F   UNL     1      11.629   4.548  -2.906  1.00  0.00    -0.203 F 
ATOM     82  F   UNL     1      15.183   2.840  -6.679  1.00  0.00    -0.200 F 
ATOM     83  C   UNL     1      13.126   3.868  -6.136  1.00  0.00     0.200 A 
ATOM     84  F   UNL     1      11.085   4.898  -5.541  1.00  0.00    -0.200 F 
ATOM     85  F   UNL     1      12.857   4.051  -7.435  1.00  0.00    -0.200 F 
ENDBRANCH  51  75
BRANCH  63  86
ATOM     86  C   UNL     1      17.618   6.874   1.211  1.00  0.00     0.064 A 
ATOM     87  C   UNL     1      17.086   8.165   1.322  1.00  0.00     0.173 A 
ATOM     88  C   UNL     1      19.000   6.736   1.028  1.00  0.00     0.173 A 
ATOM     89  F   UNL     1      15.766   8.340   1.483  1.00  0.00    -0.203 F 
ATOM     90  C   UNL     1      17.912   9.283   1.249  1.00  0.00     0.198 A 
ATOM     91  C   UNL     1      19.824   7.856   0.961  1.00  0.00     0.198 A 
ATOM     92  F   UNL     1      19.548   5.518   0.910  1.00  0.00    -0.203 F 
ATOM     93  F   UNL     1      17.384  10.512   1.341  1.00  0.00    -0.200 F 
ATOM     94  C   UNL     1      19.279   9.128   1.072  1.00  0.00     0.200 A 
ATOM     95  F   UNL     1      21.144   7.707   0.786  1.00  0.00    -0.200 F 
ATOM     96  F   UNL     1      20.073  10.206   0.999  1.00  0.00    -0.200 F 
ENDBRANCH  63  86
ENDBRANCH  37  38
ENDBRANCH  29  32
ENDBRANCH  27  28
ENDBRANCH  26  27
ENDBRANCH  25  26
ENDBRANCH   1  25
TORSDOF 16
