REMARK SMILES COc1cc(C)cc2c1[C@@H](C)[C@@H](CC(=O)N[C@@H](Cc1c[nH]c3ccccc13)C(=O)NCCCCCCNC(=O)c1ccc(-c3c4nc(c(-c5c(F)c(F)c(F)c(F)c5F)c5ccc([nH]5)c(-c5c(F)c(F)c(F)c(F)c5F)c5nc(c(-c6c(F)c(F)c(F)c(F)c6F)c6ccc3[nH]6)C=C5)C=C4)cc1)C(=O)O2
REMARK SMILES IDX 32 1 31 2 30 3 28 4 29 5 17 7 16 8 14 9 15 10 13 12 12 13
REMARK SMILES IDX 3 14 4 15 9 16 5 17 8 18 10 19 6 20 7 21 105 22 11 23 103 24
REMARK SMILES IDX 104 25 2 26 1 27 18 28 19 29 20 30 27 31 21 32 22 33 26 34
REMARK SMILES IDX 23 36 25 37 24 38 33 39 34 40 35 41 36 42 37 43 38 44 39 46
REMARK SMILES IDX 40 47 41 48 102 49 42 50 101 51 43 52 44 53 45 54 95 55
REMARK SMILES IDX 46 56 100 57 94 58 96 59 47 60 99 61 93 62 92 63 48 65 80 66
REMARK SMILES IDX 60 67 79 68 61 69 64 70 78 71 97 72 62 73 63 74 77 76 98 77
REMARK SMILES IDX 65 78 49 79 50 80 58 81 51 82 52 83 56 84 59 85 53 86 54 87
REMARK SMILES IDX 57 88 55 89 81 90 82 91 90 92 83 93 84 94 88 95 91 96 85 97
REMARK SMILES IDX 86 98 89 99 87 100 66 101 67 102 75 103 68 104 69 105 73 106
REMARK SMILES IDX 76 107 70 108 71 109 74 110 72 111
REMARK H PARENT 30 6 16 11 21 35 37 45 96 64 64 75
REMARK Flexibility Score: inf
ROOT
ATOM      1  C   UNL     1      -3.284   5.623   9.306  1.00  0.00     0.021 C 
ENDROOT
BRANCH   1   2
ATOM      2  C   UNL     1      -2.441   6.375   8.284  1.00  0.00     0.116 C 
BRANCH   2   3
ATOM      3  N   UNL     1      -1.302   5.580   7.916  1.00  0.00    -0.354 N 
ATOM      4  C   UNL     1      -1.254   4.534   7.060  1.00  0.00     0.242 C 
ATOM      5  O   UNL     1      -0.269   3.790   7.155  1.00  0.00    -0.273 OA
ATOM      6  H   UNL     1      -0.450   5.829   8.340  1.00  0.00     0.163 HD
BRANCH   4   7
ATOM      7  C   UNL     1      -2.329   4.259   5.985  1.00  0.00     0.175 C 
BRANCH   7   8
ATOM      8  N   UNL     1      -2.972   2.961   6.005  1.00  0.00    -0.344 N 
ATOM      9  C   UNL     1      -3.170   2.172   4.903  1.00  0.00     0.221 C 
ATOM     10  O   UNL     1      -4.173   1.464   4.843  1.00  0.00    -0.275 OA
ATOM     11  H   UNL     1      -3.290   2.622   6.872  1.00  0.00     0.164 HD
BRANCH   9  12
ATOM     12  C   UNL     1      -2.064   2.085   3.856  1.00  0.00     0.116 C 
BRANCH  12  13
ATOM     13  C   UNL     1      -2.150   2.974   2.587  1.00  0.00     0.116 C 
ATOM     14  C   UNL     1       1.172   1.664   1.286  1.00  0.00     0.126 A 
ATOM     15  C   UNL     1       2.455   1.658   1.859  1.00  0.00     0.050 A 
ATOM     16  C   UNL     1       0.169   2.480   1.813  1.00  0.00     0.041 A 
ATOM     17  C   UNL     1       2.765   2.475   2.958  1.00  0.00    -0.044 A 
ATOM     18  C   UNL     1       0.554   3.397   2.804  1.00  0.00     0.138 A 
ATOM     19  C   UNL     1      -1.300   2.445   1.398  1.00  0.00     0.038 C 
ATOM     20  C   UNL     1       4.125   2.425   3.589  1.00  0.00     0.044 C 
ATOM     21  C   UNL     1       1.812   3.384   3.403  1.00  0.00     0.051 A 
ATOM     22  O   UNL     1      -0.302   4.429   3.216  1.00  0.00    -0.426 OA
ATOM     23  C   UNL     1      -1.853   1.094   0.929  1.00  0.00     0.014 C 
ATOM     24  C   UNL     1      -1.596   4.373   2.741  1.00  0.00     0.315 C 
ATOM     25  O   UNL     1      -2.227   5.391   2.480  1.00  0.00    -0.251 OA
BRANCH  14  26
ATOM     26  O   UNL     1       0.885   0.996   0.129  1.00  0.00    -0.496 OA
ATOM     27  C   UNL     1       1.369  -0.338   0.067  1.00  0.00     0.278 C 
ENDBRANCH  14  26
ENDBRANCH  12  13
ENDBRANCH   9  12
ENDBRANCH   7   8
BRANCH   7  28
ATOM     28  C   UNL     1      -3.204   5.338   5.365  1.00  0.00     0.072 C 
BRANCH  28  29
ATOM     29  C   UNL     1      -4.585   5.786   5.761  1.00  0.00    -0.020 A 
ATOM     30  C   UNL     1      -4.973   7.062   5.371  1.00  0.00     0.087 A 
ATOM     31  C   UNL     1      -5.762   5.176   6.335  1.00  0.00     0.003 A 
ATOM     32  N   UNL     1      -6.329   7.090   5.333  1.00  0.00    -0.361 N 
ATOM     33  C   UNL     1      -6.824   6.059   6.083  1.00  0.00     0.046 A 
ATOM     34  C   UNL     1      -6.103   3.974   6.996  1.00  0.00     0.010 A 
ATOM     35  H   UNL     1      -6.871   7.749   4.843  1.00  0.00     0.166 HD
ATOM     36  C   UNL     1      -8.146   5.840   6.488  1.00  0.00     0.026 A 
ATOM     37  C   UNL     1      -7.419   3.755   7.446  1.00  0.00     0.001 A 
ATOM     38  C   UNL     1      -8.422   4.684   7.208  1.00  0.00     0.002 A 
ENDBRANCH  28  29
ENDBRANCH   7  28
ENDBRANCH   4   7
ENDBRANCH   2   3
ENDBRANCH   1   2
BRANCH   1  39
ATOM     39  C   UNL     1      -2.745   5.810  10.727  1.00  0.00     0.002 C 
BRANCH  39  40
ATOM     40  C   UNL     1      -2.685   7.275  11.178  1.00  0.00     0.002 C 
BRANCH  40  41
ATOM     41  C   UNL     1      -3.994   8.042  10.978  1.00  0.00     0.021 C 
BRANCH  41  42
ATOM     42  C   UNL     1      -5.168   7.420  11.719  1.00  0.00     0.116 C 
BRANCH  42  43
ATOM     43  N   UNL     1      -4.932   7.397  13.155  1.00  0.00    -0.352 N 
ATOM     44  C   UNL     1      -5.649   8.003  14.159  1.00  0.00     0.251 C 
ATOM     45  H   UNL     1      -4.151   6.875  13.448  1.00  0.00     0.163 HD
ATOM     46  O   UNL     1      -5.188   8.118  15.280  1.00  0.00    -0.269 OA
BRANCH  44  47
ATOM     47  C   UNL     1      -6.989   8.529  13.837  1.00  0.00     0.039 A 
ATOM     48  C   UNL     1      -7.869   7.761  13.071  1.00  0.00     0.014 A 
ATOM     49  C   UNL     1      -7.345   9.809  14.264  1.00  0.00     0.014 A 
ATOM     50  C   UNL     1      -9.030   8.338  12.585  1.00  0.00     0.010 A 
ATOM     51  C   UNL     1      -8.566  10.349  13.859  1.00  0.00     0.010 A 
ATOM     52  C   UNL     1      -9.396   9.635  12.980  1.00  0.00    -0.014 A 
BRANCH  52  53
ATOM     53  C   UNL     1     -10.655  10.220  12.459  1.00  0.00     0.031 A 
ATOM     54  C   UNL     1     -10.629  11.436  11.577  1.00  0.00     0.074 A 
ATOM     55  C   UNL     1     -11.820   9.608  12.741  1.00  0.00     0.049 A 
ATOM     56  N   UNL     1     -11.630  12.080  11.030  1.00  0.00    -0.248 NA
ATOM     57  C   UNL     1      -9.309  12.006  11.266  1.00  0.00     0.031 C 
ATOM     58  C   UNL     1     -11.959   8.402  13.559  1.00  0.00     0.029 A 
ATOM     59  N   UNL     1     -13.101   9.893  12.347  1.00  0.00    -0.354 N 
ATOM     60  C   UNL     1     -11.063  13.132  10.323  1.00  0.00     0.074 A 
ATOM     61  C   UNL     1      -9.635  13.069  10.545  1.00  0.00     0.031 C 
ATOM     62  C   UNL     1     -13.240   8.012  13.552  1.00  0.00     0.029 A 
ATOM     63  C   UNL     1     -14.025   8.982  12.796  1.00  0.00     0.049 A 
ATOM     64  H   UNL     1     -13.336  10.673  11.795  1.00  0.00     0.167 HD
ATOM     65  C   UNL     1     -11.680  14.051   9.542  1.00  0.00     0.037 A 
ATOM     66  C   UNL     1     -15.359   8.940  12.630  1.00  0.00     0.037 A 
ATOM     67  C   UNL     1     -13.103  14.102   9.326  1.00  0.00     0.049 A 
ATOM     68  C   UNL     1     -16.027  10.026  11.839  1.00  0.00     0.074 A 
ATOM     69  C   UNL     1     -13.829  15.003   8.566  1.00  0.00     0.029 A 
ATOM     70  N   UNL     1     -14.019  13.212   9.872  1.00  0.00    -0.354 N 
ATOM     71  N   UNL     1     -15.485  11.025  11.186  1.00  0.00    -0.248 NA
ATOM     72  C   UNL     1     -17.493   9.985  11.772  1.00  0.00     0.031 C 
ATOM     73  C   UNL     1     -15.186  14.688   8.692  1.00  0.00     0.029 A 
ATOM     74  C   UNL     1     -15.304  13.555   9.482  1.00  0.00     0.049 A 
ATOM     75  H   UNL     1     -13.789  12.450  10.451  1.00  0.00     0.167 HD
ATOM     76  C   UNL     1     -16.539  11.722  10.614  1.00  0.00     0.074 A 
ATOM     77  C   UNL     1     -17.752  11.019  10.983  1.00  0.00     0.031 C 
ATOM     78  C   UNL     1     -16.503  12.845   9.855  1.00  0.00     0.037 A 
BRANCH  65  79
ATOM     79  C   UNL     1     -10.819  15.084   8.870  1.00  0.00     0.064 A 
ATOM     80  C   UNL     1      -9.942  14.743   7.828  1.00  0.00     0.173 A 
ATOM     81  C   UNL     1     -10.899  16.435   9.241  1.00  0.00     0.173 A 
ATOM     82  F   UNL     1      -9.817  13.465   7.441  1.00  0.00    -0.203 F 
ATOM     83  C   UNL     1      -9.158  15.711   7.204  1.00  0.00     0.198 A 
ATOM     84  C   UNL     1     -10.138  17.405   8.592  1.00  0.00     0.198 A 
ATOM     85  F   UNL     1     -11.725  16.819  10.226  1.00  0.00    -0.203 F 
ATOM     86  F   UNL     1      -8.292  15.352   6.245  1.00  0.00    -0.200 F 
ATOM     87  C   UNL     1      -9.263  17.041   7.580  1.00  0.00     0.200 A 
ATOM     88  F   UNL     1     -10.252  18.692   8.946  1.00  0.00    -0.200 F 
ATOM     89  F   UNL     1      -8.515  17.972   6.971  1.00  0.00    -0.200 F 
ENDBRANCH  65  79
BRANCH  66  90
ATOM     90  C   UNL     1     -16.131   7.812  13.211  1.00  0.00     0.064 A 
ATOM     91  C   UNL     1     -16.718   6.848  12.382  1.00  0.00     0.173 A 
ATOM     92  C   UNL     1     -16.250   7.642  14.599  1.00  0.00     0.173 A 
ATOM     93  F   UNL     1     -16.645   6.978  11.049  1.00  0.00    -0.203 F 
ATOM     94  C   UNL     1     -17.394   5.754  12.918  1.00  0.00     0.198 A 
ATOM     95  C   UNL     1     -16.900   6.532  15.134  1.00  0.00     0.198 A 
ATOM     96  F   UNL     1     -15.700   8.534  15.435  1.00  0.00    -0.203 F 
ATOM     97  F   UNL     1     -17.966   4.858  12.102  1.00  0.00    -0.200 F 
ATOM     98  C   UNL     1     -17.474   5.591  14.293  1.00  0.00     0.200 A 
ATOM     99  F   UNL     1     -16.956   6.368  16.462  1.00  0.00    -0.200 F 
ATOM    100  F   UNL     1     -18.104   4.526  14.808  1.00  0.00    -0.200 F 
ENDBRANCH  66  90
BRANCH  78 101
ATOM    101  C   UNL     1     -17.811  13.377   9.347  1.00  0.00     0.064 A 
ATOM    102  C   UNL     1     -18.735  13.994  10.203  1.00  0.00     0.173 A 
ATOM    103  C   UNL     1     -18.116  13.326   7.978  1.00  0.00     0.173 A 
ATOM    104  F   UNL     1     -18.498  14.054  11.522  1.00  0.00    -0.203 F 
ATOM    105  C   UNL     1     -19.924  14.525   9.709  1.00  0.00     0.198 A 
ATOM    106  C   UNL     1     -19.290  13.887   7.483  1.00  0.00     0.198 A 
ATOM    107  F   UNL     1     -17.263  12.752   7.116  1.00  0.00    -0.203 F 
ATOM    108  F   UNL     1     -20.811  15.074  10.550  1.00  0.00    -0.200 F 
ATOM    109  C   UNL     1     -20.195  14.481   8.349  1.00  0.00     0.200 A 
ATOM    110  F   UNL     1     -19.541  13.858   6.167  1.00  0.00    -0.200 F 
ATOM    111  F   UNL     1     -21.331  15.008   7.874  1.00  0.00    -0.200 F 
ENDBRANCH  78 101
ENDBRANCH  52  53
ENDBRANCH  44  47
ENDBRANCH  42  43
ENDBRANCH  41  42
ENDBRANCH  40  41
ENDBRANCH  39  40
ENDBRANCH   1  39
TORSDOF 19
