REMARK SMILES C[C@H](NC(=O)COc1ccc(C(=O)NCCCCCCNC(=O)c2ccc(-c3c4nc(c(-c5c(F)c(F)c(F)c(F)c5F)c5ccc([nH]5)c(-c5c(F)c(F)c(F)c(F)c5F)c5nc(c(-c6c(F)c(F)c(F)c(F)c6F)c6ccc3[nH]6)C=C5)C=C4)cc2)cc1)C1CC1
REMARK SMILES IDX 16 1 15 2 14 3 12 4 13 5 11 7 8 8 9 9 88 10 10 11 87 12 7 13
REMARK SMILES IDX 6 14 4 15 3 16 5 18 2 19 1 20 89 21 90 22 91 23 17 24 18 25
REMARK SMILES IDX 19 26 20 27 21 28 22 29 23 31 24 32 25 33 86 34 26 35 85 36
REMARK SMILES IDX 27 37 28 38 29 39 79 40 30 41 84 42 78 43 80 44 31 45 83 46
REMARK SMILES IDX 77 47 76 48 32 50 64 51 44 52 63 53 45 54 48 55 62 56 81 57
REMARK SMILES IDX 46 58 47 59 61 61 82 62 49 63 33 64 34 65 42 66 35 67 36 68
REMARK SMILES IDX 40 69 43 70 37 71 38 72 41 73 39 74 65 75 66 76 74 77 67 78
REMARK SMILES IDX 68 79 72 80 75 81 69 82 70 83 73 84 71 85 50 86 51 87 59 88
REMARK SMILES IDX 52 89 53 90 57 91 60 92 54 93 55 94 58 95 56 96
REMARK H PARENT 14 6 3 17 21 30 80 49 48 60
REMARK Flexibility Score: inf
ROOT
ATOM      1  C   UNL     1       5.170  -4.415  -3.707  1.00  0.00     0.021 C 
ENDROOT
BRANCH   1   2
ATOM      2  C   UNL     1       6.266  -3.521  -3.118  1.00  0.00     0.116 C 
BRANCH   2   3
ATOM      3  N   UNL     1       6.725  -2.574  -4.119  1.00  0.00    -0.352 N 
ATOM      4  C   UNL     1       6.508  -1.230  -4.288  1.00  0.00     0.251 C 
ATOM      5  O   UNL     1       7.052  -0.672  -5.240  1.00  0.00    -0.269 OA
ATOM      6  H   UNL     1       7.304  -2.973  -4.807  1.00  0.00     0.163 HD
BRANCH   4   7
ATOM      7  C   UNL     1       5.686  -0.422  -3.349  1.00  0.00     0.040 A 
ATOM      8  C   UNL     1       4.226   1.203  -1.569  1.00  0.00     0.120 A 
ATOM      9  C   UNL     1       5.238   1.754  -2.353  1.00  0.00     0.047 A 
ATOM     10  C   UNL     1       3.927  -0.150  -1.707  1.00  0.00     0.047 A 
ATOM     11  C   UNL     1       5.979   0.943  -3.222  1.00  0.00     0.017 A 
ATOM     12  C   UNL     1       4.611  -0.939  -2.631  1.00  0.00     0.017 A 
BRANCH   8  13
ATOM     13  O   UNL     1       3.465   2.086  -0.853  1.00  0.00    -0.484 OA
BRANCH  13  14
ATOM     14  C   UNL     1       3.057   1.679   0.442  1.00  0.00     0.329 C 
BRANCH  14  15
ATOM     15  C   UNL     1       2.058   0.530   0.639  1.00  0.00     0.258 C 
ATOM     16  N   UNL     1       0.919   0.454  -0.104  1.00  0.00    -0.350 N 
ATOM     17  H   UNL     1       0.382  -0.358   0.046  1.00  0.00     0.163 HD
ATOM     18  O   UNL     1       2.267  -0.355   1.474  1.00  0.00    -0.271 OA
BRANCH  16  19
ATOM     19  C   UNL     1       0.367   1.381  -1.085  1.00  0.00     0.082 C 
ATOM     20  C   UNL     1       0.785   0.999  -2.506  1.00  0.00     0.031 C 
BRANCH  19  21
ATOM     21  C   UNL     1      -1.131   1.367  -0.870  1.00  0.00     0.011 C 
ATOM     22  C   UNL     1      -2.100   1.997  -1.840  1.00  0.00     0.006 C 
ATOM     23  C   UNL     1      -2.067   0.499  -1.681  1.00  0.00     0.006 C 
ENDBRANCH  19  21
ENDBRANCH  16  19
ENDBRANCH  14  15
ENDBRANCH  13  14
ENDBRANCH   8  13
ENDBRANCH   4   7
ENDBRANCH   2   3
ENDBRANCH   1   2
BRANCH   1  24
ATOM     24  C   UNL     1       5.736  -5.591  -4.513  1.00  0.00     0.002 C 
BRANCH  24  25
ATOM     25  C   UNL     1       6.530  -6.605  -3.680  1.00  0.00     0.002 C 
BRANCH  25  26
ATOM     26  C   UNL     1       5.750  -7.240  -2.526  1.00  0.00     0.021 C 
BRANCH  26  27
ATOM     27  C   UNL     1       4.538  -8.054  -2.967  1.00  0.00     0.116 C 
BRANCH  27  28
ATOM     28  N   UNL     1       4.931  -9.209  -3.760  1.00  0.00    -0.352 N 
ATOM     29  C   UNL     1       4.666 -10.537  -3.547  1.00  0.00     0.251 C 
ATOM     30  H   UNL     1       5.462  -9.008  -4.564  1.00  0.00     0.163 HD
ATOM     31  O   UNL     1       5.270 -11.399  -4.176  1.00  0.00    -0.269 OA
BRANCH  29  32
ATOM     32  C   UNL     1       3.650 -10.929  -2.550  1.00  0.00     0.039 A 
ATOM     33  C   UNL     1       3.928 -11.983  -1.676  1.00  0.00     0.014 A 
ATOM     34  C   UNL     1       2.418 -10.272  -2.494  1.00  0.00     0.014 A 
ATOM     35  C   UNL     1       2.987 -12.348  -0.713  1.00  0.00     0.010 A 
ATOM     36  C   UNL     1       1.510 -10.589  -1.489  1.00  0.00     0.010 A 
ATOM     37  C   UNL     1       1.781 -11.636  -0.596  1.00  0.00    -0.014 A 
BRANCH  37  38
ATOM     38  C   UNL     1       0.783 -11.981   0.445  1.00  0.00     0.031 A 
ATOM     39  C   UNL     1      -0.567 -12.506   0.047  1.00  0.00     0.074 A 
ATOM     40  C   UNL     1       1.069 -11.759   1.741  1.00  0.00     0.049 A 
ATOM     41  N   UNL     1      -1.599 -12.796   0.799  1.00  0.00    -0.248 NA
ATOM     42  C   UNL     1      -0.799 -12.704  -1.392  1.00  0.00     0.031 C 
ATOM     43  C   UNL     1       2.329 -11.212   2.246  1.00  0.00     0.029 A 
ATOM     44  N   UNL     1       0.315 -11.956   2.870  1.00  0.00    -0.354 N 
ATOM     45  C   UNL     1      -2.602 -13.194  -0.074  1.00  0.00     0.074 A 
ATOM     46  C   UNL     1      -2.075 -13.056  -1.415  1.00  0.00     0.031 C 
ATOM     47  C   UNL     1       2.270 -11.139   3.586  1.00  0.00     0.029 A 
ATOM     48  C   UNL     1       0.958 -11.598   4.030  1.00  0.00     0.049 A 
ATOM     49  H   UNL     1      -0.599 -12.320   2.851  1.00  0.00     0.167 HD
ATOM     50  C   UNL     1      -3.841 -13.657   0.217  1.00  0.00     0.037 A 
ATOM     51  C   UNL     1       0.531 -11.633   5.306  1.00  0.00     0.037 A 
ATOM     52  C   UNL     1      -4.351 -13.813   1.554  1.00  0.00     0.049 A 
ATOM     53  C   UNL     1      -0.853 -12.142   5.604  1.00  0.00     0.074 A 
ATOM     54  C   UNL     1      -5.570 -14.327   1.959  1.00  0.00     0.029 A 
ATOM     55  N   UNL     1      -3.666 -13.452   2.706  1.00  0.00    -0.354 N 
ATOM     56  N   UNL     1      -1.770 -12.578   4.775  1.00  0.00    -0.248 NA
ATOM     57  C   UNL     1      -1.257 -12.168   7.016  1.00  0.00     0.031 C 
ATOM     58  C   UNL     1      -5.641 -14.235   3.354  1.00  0.00     0.029 A 
ATOM     59  C   UNL     1      -4.446 -13.711   3.821  1.00  0.00     0.049 A 
ATOM     60  H   UNL     1      -2.759 -13.069   2.727  1.00  0.00     0.167 HD
ATOM     61  C   UNL     1      -2.848 -12.957   5.564  1.00  0.00     0.074 A 
ATOM     62  C   UNL     1      -2.465 -12.710   6.939  1.00  0.00     0.031 C 
ATOM     63  C   UNL     1      -4.046 -13.464   5.184  1.00  0.00     0.037 A 
BRANCH  50  64
ATOM     64  C   UNL     1      -4.730 -14.025  -0.937  1.00  0.00     0.064 A 
ATOM     65  C   UNL     1      -4.460 -15.139  -1.748  1.00  0.00     0.173 A 
ATOM     66  C   UNL     1      -5.874 -13.267  -1.226  1.00  0.00     0.173 A 
ATOM     67  F   UNL     1      -3.373 -15.891  -1.522  1.00  0.00    -0.203 F 
ATOM     68  C   UNL     1      -5.282 -15.457  -2.826  1.00  0.00     0.198 A 
ATOM     69  C   UNL     1      -6.711 -13.607  -2.285  1.00  0.00     0.198 A 
ATOM     70  F   UNL     1      -6.182 -12.195  -0.480  1.00  0.00    -0.203 F 
ATOM     71  F   UNL     1      -4.971 -16.490  -3.621  1.00  0.00    -0.200 F 
ATOM     72  C   UNL     1      -6.409 -14.695  -3.090  1.00  0.00     0.200 A 
ATOM     73  F   UNL     1      -7.808 -12.876  -2.532  1.00  0.00    -0.200 F 
ATOM     74  F   UNL     1      -7.200 -15.003  -4.128  1.00  0.00    -0.200 F 
ENDBRANCH  50  64
BRANCH  51  75
ATOM     75  C   UNL     1       1.440 -11.203   6.400  1.00  0.00     0.064 A 
ATOM     76  C   UNL     1       1.979 -12.139   7.292  1.00  0.00     0.173 A 
ATOM     77  C   UNL     1       1.796  -9.857   6.571  1.00  0.00     0.173 A 
ATOM     78  F   UNL     1       1.652 -13.435   7.181  1.00  0.00    -0.203 F 
ATOM     79  C   UNL     1       2.828 -11.745   8.324  1.00  0.00     0.198 A 
ATOM     80  C   UNL     1       2.666  -9.467   7.586  1.00  0.00     0.198 A 
ATOM     81  F   UNL     1       1.310  -8.924   5.739  1.00  0.00    -0.203 F 
ATOM     82  F   UNL     1       3.298 -12.656   9.187  1.00  0.00    -0.200 F 
ATOM     83  C   UNL     1       3.176 -10.410   8.466  1.00  0.00     0.200 A 
ATOM     84  F   UNL     1       3.011  -8.179   7.712  1.00  0.00    -0.200 F 
ATOM     85  F   UNL     1       3.998 -10.032   9.454  1.00  0.00    -0.200 F 
ENDBRANCH  51  75
BRANCH  63  86
ATOM     86  C   UNL     1      -5.018 -13.818   6.271  1.00  0.00     0.064 A 
ATOM     87  C   UNL     1      -5.687 -12.832   7.011  1.00  0.00     0.173 A 
ATOM     88  C   UNL     1      -5.312 -15.162   6.549  1.00  0.00     0.173 A 
ATOM     89  F   UNL     1      -5.429 -11.534   6.794  1.00  0.00    -0.203 F 
ATOM     90  C   UNL     1      -6.597 -13.180   8.006  1.00  0.00     0.198 A 
ATOM     91  C   UNL     1      -6.245 -15.505   7.523  1.00  0.00     0.198 A 
ATOM     92  F   UNL     1      -4.704 -16.143   5.865  1.00  0.00    -0.203 F 
ATOM     93  F   UNL     1      -7.190 -12.222   8.732  1.00  0.00    -0.200 F 
ATOM     94  C   UNL     1      -6.881 -14.514   8.255  1.00  0.00     0.200 A 
ATOM     95  F   UNL     1      -6.528 -16.794   7.754  1.00  0.00    -0.200 F 
ATOM     96  F   UNL     1      -7.764 -14.846   9.208  1.00  0.00    -0.200 F 
ENDBRANCH  63  86
ENDBRANCH  37  38
ENDBRANCH  29  32
ENDBRANCH  27  28
ENDBRANCH  26  27
ENDBRANCH  25  26
ENDBRANCH  24  25
ENDBRANCH   1  24
TORSDOF 18
