REMARK SMILES C[C@H](C(=O)NCCCCCCNC(=O)c1ccc(-c2c3nc(c(-c4c(F)c(F)c(F)c(F)c4F)c4ccc([nH]4)c(-c4c(F)c(F)c(F)c(F)c4F)c4nc(c(-c5c(F)c(F)c(F)c(F)c5F)c5ccc2[nH]5)C=C4)C=C3)cc1)c1ccc2c(c1)OCCO2
REMARK SMILES IDX 9 1 8 2 7 3 6 4 5 5 3 6 4 7 2 9 1 10 78 11 79 12 83 13 80 14
REMARK SMILES IDX 82 15 81 16 84 17 87 18 85 19 86 20 10 21 11 22 12 23 13 24
REMARK SMILES IDX 14 26 15 27 16 28 77 29 17 30 76 31 18 32 19 33 20 34 70 35
REMARK SMILES IDX 21 36 75 37 69 38 71 39 22 40 74 41 68 42 67 43 23 45 55 46
REMARK SMILES IDX 35 47 54 48 36 49 39 50 53 51 72 52 37 53 38 54 52 56 73 57
REMARK SMILES IDX 40 58 24 59 25 60 33 61 26 62 27 63 31 64 34 65 28 66 29 67
REMARK SMILES IDX 32 68 30 69 56 70 57 71 65 72 58 73 59 74 63 75 66 76 60 77
REMARK SMILES IDX 61 78 64 79 62 80 41 81 42 82 50 83 43 84 44 85 48 86 51 87
REMARK SMILES IDX 45 88 46 89 49 90 47 91
REMARK H PARENT 5 8 12 25 71 44 39 55
REMARK Flexibility Score: inf
ROOT
ATOM      1  C   UNL     1       1.764   3.593   3.313  1.00  0.00     0.002 C 
ENDROOT
BRANCH   1   2
ATOM      2  C   UNL     1       2.212   2.139   3.463  1.00  0.00     0.002 C 
BRANCH   2   3
ATOM      3  C   UNL     1       1.088   1.101   3.424  1.00  0.00     0.021 C 
BRANCH   3   4
ATOM      4  C   UNL     1       0.206   1.155   2.180  1.00  0.00     0.116 C 
BRANCH   4   5
ATOM      5  N   UNL     1       0.970   1.084   0.954  1.00  0.00    -0.356 N 
ATOM      6  C   UNL     1       1.212   0.032   0.132  1.00  0.00     0.227 C 
ATOM      7  O   UNL     1       1.869   0.249  -0.891  1.00  0.00    -0.274 OA
ATOM      8  H   UNL     1       1.380   1.933   0.672  1.00  0.00     0.163 HD
BRANCH   6   9
ATOM      9  C   UNL     1       0.734  -1.375   0.463  1.00  0.00     0.105 C 
ATOM     10  C   UNL     1       1.534  -1.966   1.626  1.00  0.00     0.023 C 
BRANCH   9  11
ATOM     11  C   UNL     1      -0.775  -1.592   0.518  1.00  0.00    -0.032 A 
ATOM     12  C   UNL     1      -1.662  -0.789  -0.230  1.00  0.00     0.008 A 
ATOM     13  C   UNL     1      -1.273  -2.756   1.123  1.00  0.00     0.055 A 
ATOM     14  C   UNL     1      -2.973  -1.204  -0.474  1.00  0.00     0.051 A 
ATOM     15  C   UNL     1      -2.536  -3.218   0.793  1.00  0.00     0.161 A 
ATOM     16  C   UNL     1      -3.360  -2.464  -0.041  1.00  0.00     0.161 A 
ATOM     17  O   UNL     1      -2.837  -4.494   1.183  1.00  0.00    -0.486 OA
ATOM     18  O   UNL     1      -4.470  -3.038  -0.612  1.00  0.00    -0.486 OA
ATOM     19  C   UNL     1      -3.699  -5.169   0.256  1.00  0.00     0.271 C 
ATOM     20  C   UNL     1      -4.053  -4.359  -0.990  1.00  0.00     0.271 C 
ENDBRANCH   9  11
ENDBRANCH   6   9
ENDBRANCH   4   5
ENDBRANCH   3   4
ENDBRANCH   2   3
ENDBRANCH   1   2
BRANCH   1  21
ATOM     21  C   UNL     1       0.685   4.043   4.299  1.00  0.00     0.021 C 
BRANCH  21  22
ATOM     22  C   UNL     1       1.038   3.839   5.766  1.00  0.00     0.116 C 
BRANCH  22  23
ATOM     23  N   UNL     1       2.182   4.637   6.180  1.00  0.00    -0.352 N 
ATOM     24  C   UNL     1       2.288   5.509   7.235  1.00  0.00     0.251 C 
ATOM     25  H   UNL     1       2.991   4.538   5.628  1.00  0.00     0.163 HD
ATOM     26  O   UNL     1       3.274   6.231   7.354  1.00  0.00    -0.269 OA
BRANCH  24  27
ATOM     27  C   UNL     1       1.189   5.594   8.218  1.00  0.00     0.039 A 
ATOM     28  C   UNL     1       0.696   6.850   8.579  1.00  0.00     0.014 A 
ATOM     29  C   UNL     1       0.629   4.432   8.757  1.00  0.00     0.014 A 
ATOM     30  C   UNL     1      -0.409   6.939   9.429  1.00  0.00     0.010 A 
ATOM     31  C   UNL     1      -0.516   4.521   9.539  1.00  0.00     0.010 A 
ATOM     32  C   UNL     1      -1.047   5.775   9.883  1.00  0.00    -0.014 A 
BRANCH  32  33
ATOM     33  C   UNL     1      -2.271   5.830  10.722  1.00  0.00     0.031 A 
ATOM     34  C   UNL     1      -2.250   5.262  12.111  1.00  0.00     0.074 A 
ATOM     35  C   UNL     1      -3.422   6.290  10.197  1.00  0.00     0.049 A 
ATOM     36  N   UNL     1      -3.239   5.079  12.949  1.00  0.00    -0.248 NA
ATOM     37  C   UNL     1      -0.945   4.805  12.612  1.00  0.00     0.031 C 
ATOM     38  C   UNL     1      -3.581   6.824   8.845  1.00  0.00     0.029 A 
ATOM     39  N   UNL     1      -4.686   6.353  10.731  1.00  0.00    -0.354 N 
ATOM     40  C   UNL     1      -2.680   4.462  14.060  1.00  0.00     0.074 A 
ATOM     41  C   UNL     1      -1.278   4.256  13.769  1.00  0.00     0.031 C 
ATOM     42  C   UNL     1      -4.867   7.157   8.653  1.00  0.00     0.029 A 
ATOM     43  C   UNL     1      -5.631   6.819   9.850  1.00  0.00     0.049 A 
ATOM     44  H   UNL     1      -4.895   6.088  11.656  1.00  0.00     0.167 HD
ATOM     45  C   UNL     1      -3.280   4.116  15.224  1.00  0.00     0.037 A 
ATOM     46  C   UNL     1      -6.966   6.936   9.982  1.00  0.00     0.037 A 
ATOM     47  C   UNL     1      -4.672   4.345  15.512  1.00  0.00     0.049 A 
ATOM     48  C   UNL     1      -7.617   6.543  11.280  1.00  0.00     0.074 A 
ATOM     49  C   UNL     1      -5.360   4.103  16.688  1.00  0.00     0.029 A 
ATOM     50  N   UNL     1      -5.591   4.858  14.608  1.00  0.00    -0.354 N 
ATOM     51  N   UNL     1      -7.068   6.032  12.356  1.00  0.00    -0.248 NA
ATOM     52  C   UNL     1      -9.068   6.746  11.387  1.00  0.00     0.031 C 
ATOM     53  C   UNL     1      -6.707   4.412  16.475  1.00  0.00     0.029 A 
ATOM     54  C   UNL     1      -6.848   4.909  15.189  1.00  0.00     0.049 A 
ATOM     55  H   UNL     1      -5.381   5.144  13.689  1.00  0.00     0.167 HD
ATOM     56  C   UNL     1      -8.097   5.878  13.275  1.00  0.00     0.074 A 
ATOM     57  C   UNL     1      -9.304   6.354  12.632  1.00  0.00     0.031 C 
ATOM     58  C   UNL     1      -8.042   5.392  14.539  1.00  0.00     0.037 A 
BRANCH  45  59
ATOM     59  C   UNL     1      -2.433   3.436  16.263  1.00  0.00     0.064 A 
ATOM     60  C   UNL     1      -1.387   4.103  16.920  1.00  0.00     0.173 A 
ATOM     61  C   UNL     1      -2.672   2.097  16.607  1.00  0.00     0.173 A 
ATOM     62  F   UNL     1      -1.109   5.382  16.623  1.00  0.00    -0.203 F 
ATOM     63  C   UNL     1      -0.582   3.441  17.843  1.00  0.00     0.198 A 
ATOM     64  C   UNL     1      -1.889   1.450  17.559  1.00  0.00     0.198 A 
ATOM     65  F   UNL     1      -3.665   1.413  16.019  1.00  0.00    -0.203 F 
ATOM     66  F   UNL     1       0.456   4.078  18.403  1.00  0.00    -0.200 F 
ATOM     67  C   UNL     1      -0.837   2.117  18.166  1.00  0.00     0.200 A 
ATOM     68  F   UNL     1      -2.147   0.174  17.882  1.00  0.00    -0.200 F 
ATOM     69  F   UNL     1      -0.060   1.480  19.053  1.00  0.00    -0.200 F 
ENDBRANCH  45  59
BRANCH  46  70
ATOM     70  C   UNL     1      -7.768   7.456   8.843  1.00  0.00     0.064 A 
ATOM     71  C   UNL     1      -8.344   8.732   8.888  1.00  0.00     0.173 A 
ATOM     72  C   UNL     1      -7.938   6.703   7.672  1.00  0.00     0.173 A 
ATOM     73  F   UNL     1      -8.224   9.482   9.993  1.00  0.00    -0.203 F 
ATOM     74  C   UNL     1      -9.067   9.233   7.807  1.00  0.00     0.198 A 
ATOM     75  C   UNL     1      -8.637   7.216   6.581  1.00  0.00     0.198 A 
ATOM     76  F   UNL     1      -7.399   5.479   7.576  1.00  0.00    -0.203 F 
ATOM     77  F   UNL     1      -9.633  10.445   7.887  1.00  0.00    -0.200 F 
ATOM     78  C   UNL     1      -9.205   8.479   6.651  1.00  0.00     0.200 A 
ATOM     79  F   UNL     1      -8.752   6.491   5.460  1.00  0.00    -0.200 F 
ATOM     80  F   UNL     1      -9.885   8.969   5.606  1.00  0.00    -0.200 F 
ENDBRANCH  46  70
BRANCH  58  81
ATOM     81  C   UNL     1      -9.313   5.379  15.338  1.00  0.00     0.064 A 
ATOM     82  C   UNL     1     -10.341   4.462  15.077  1.00  0.00     0.173 A 
ATOM     83  C   UNL     1      -9.466   6.243  16.434  1.00  0.00     0.173 A 
ATOM     84  F   UNL     1     -10.250   3.625  14.033  1.00  0.00    -0.203 F 
ATOM     85  C   UNL     1     -11.478   4.415  15.879  1.00  0.00     0.198 A 
ATOM     86  C   UNL     1     -10.590   6.174  17.251  1.00  0.00     0.198 A 
ATOM     87  F   UNL     1      -8.509   7.136  16.730  1.00  0.00    -0.203 F 
ATOM     88  F   UNL     1     -12.462   3.551  15.595  1.00  0.00    -0.200 F 
ATOM     89  C   UNL     1     -11.597   5.263  16.972  1.00  0.00     0.200 A 
ATOM     90  F   UNL     1     -10.695   6.982  18.315  1.00  0.00    -0.200 F 
ATOM     91  F   UNL     1     -12.682   5.201  17.755  1.00  0.00    -0.200 F 
ENDBRANCH  58  81
ENDBRANCH  32  33
ENDBRANCH  24  27
ENDBRANCH  22  23
ENDBRANCH  21  22
ENDBRANCH   1  21
TORSDOF 14
