REMARK SMILES Cc1ccc(Nc2c(C)cccc2Cl)c(CC(=O)NCCCCCCNC(=O)c2ccc(-c3c4nc(c(-c5c(F)c(F)c(F)c(F)c5F)c5ccc([nH]5)c(-c5c(F)c(F)c(F)c(F)c5F)c5nc(c(-c6c(F)c(F)c(F)c(F)c6F)c6ccc3[nH]6)C=C5)C=C4)cc2)c1
REMARK SMILES IDX 22 1 21 2 20 3 19 4 17 5 18 6 16 8 15 9 1 10 2 11 3 12 92 13
REMARK SMILES IDX 4 14 5 15 6 16 7 18 8 19 13 20 9 21 10 22 12 23 14 24 11 25
REMARK SMILES IDX 23 26 24 27 25 28 26 29 27 30 28 32 29 33 30 34 91 35 31 36
REMARK SMILES IDX 90 37 32 38 33 39 34 40 84 41 35 42 89 43 83 44 85 45 36 46
REMARK SMILES IDX 88 47 82 48 81 49 37 51 69 52 49 53 68 54 50 55 53 56 67 57
REMARK SMILES IDX 86 58 51 59 52 60 66 62 87 63 54 64 38 65 39 66 47 67 40 68
REMARK SMILES IDX 41 69 45 70 48 71 42 72 43 73 46 74 44 75 70 76 71 77 79 78
REMARK SMILES IDX 72 79 73 80 77 81 80 82 74 83 75 84 78 85 76 86 55 87 56 88
REMARK SMILES IDX 64 89 57 90 58 91 62 92 65 93 59 94 60 95 63 96 61 97
REMARK H PARENT 19 7 6 17 26 31 85 50 53 61
REMARK Flexibility Score: inf
ROOT
ATOM      1  C   UNL     1      -1.214   1.536  -4.871  1.00  0.00     0.002 C 
ENDROOT
BRANCH   1   2
ATOM      2  C   UNL     1      -0.564   1.559  -3.479  1.00  0.00     0.021 C 
BRANCH   2   3
ATOM      3  C   UNL     1      -0.824   2.827  -2.659  1.00  0.00     0.116 C 
BRANCH   3   4
ATOM      4  N   UNL     1      -2.199   2.917  -2.220  1.00  0.00    -0.356 N 
ATOM      5  C   UNL     1      -2.716   2.693  -0.979  1.00  0.00     0.224 C 
ATOM      6  O   UNL     1      -3.942   2.696  -0.844  1.00  0.00    -0.275 OA
ATOM      7  H   UNL     1      -2.850   3.175  -2.911  1.00  0.00     0.163 HD
BRANCH   5   8
ATOM      8  C   UNL     1      -1.806   2.430   0.208  1.00  0.00     0.137 C 
BRANCH   8   9
ATOM      9  C   UNL     1      -1.080   1.103   0.146  1.00  0.00    -0.015 A 
ATOM     10  C   UNL     1       2.580  -0.016   0.177  1.00  0.00     0.044 C 
ATOM     11  C   UNL     1       1.083  -0.049   0.117  1.00  0.00    -0.051 A 
ATOM     12  C   UNL     1       0.415  -1.258  -0.064  1.00  0.00     0.005 A 
ATOM     13  C   UNL     1       0.329   1.119   0.244  1.00  0.00     0.009 A 
ATOM     14  C   UNL     1      -0.981  -1.292  -0.115  1.00  0.00     0.026 A 
ATOM     15  C   UNL     1      -1.756  -0.124  -0.014  1.00  0.00     0.042 A 
BRANCH  15  16
ATOM     16  N   UNL     1      -3.166  -0.188   0.001  1.00  0.00    -0.354 N 
ATOM     17  H   UNL     1      -3.630   0.680  -0.018  1.00  0.00     0.167 HD
BRANCH  16  18
ATOM     18  C   UNL     1      -4.008  -1.326   0.040  1.00  0.00     0.060 A 
ATOM     19  C   UNL     1      -3.974  -2.241   1.114  1.00  0.00    -0.026 A 
ATOM     20  C   UNL     1      -4.857  -1.600  -1.055  1.00  0.00     0.064 A 
ATOM     21  C   UNL     1      -3.151  -2.010   2.354  1.00  0.00     0.046 C 
ATOM     22  C   UNL     1      -4.738  -3.420   1.042  1.00  0.00     0.005 A 
ATOM     23  C   UNL     1      -5.626  -2.764  -1.101  1.00  0.00     0.023 A 
ATOM     24  Cl  UNL     1      -4.952  -0.514  -2.402  1.00  0.00    -0.082 Cl
ATOM     25  C   UNL     1      -5.556  -3.681  -0.057  1.00  0.00     0.002 A 
ENDBRANCH  16  18
ENDBRANCH  15  16
ENDBRANCH   8   9
ENDBRANCH   5   8
ENDBRANCH   3   4
ENDBRANCH   2   3
ENDBRANCH   1   2
BRANCH   1  26
ATOM     26  C   UNL     1      -0.976   2.768  -5.759  1.00  0.00     0.002 C 
BRANCH  26  27
ATOM     27  C   UNL     1       0.473   3.248  -5.865  1.00  0.00     0.021 C 
BRANCH  27  28
ATOM     28  C   UNL     1       1.382   2.331  -6.673  1.00  0.00     0.116 C 
BRANCH  28  29
ATOM     29  N   UNL     1       1.542   2.742  -8.060  1.00  0.00    -0.352 N 
ATOM     30  C   UNL     1       2.268   2.164  -9.090  1.00  0.00     0.251 C 
ATOM     31  H   UNL     1       1.057   3.562  -8.307  1.00  0.00     0.163 HD
ATOM     32  O   UNL     1       2.338   2.721 -10.168  1.00  0.00    -0.269 OA
BRANCH  30  33
ATOM     33  C   UNL     1       2.826   0.795  -8.926  1.00  0.00     0.039 A 
ATOM     34  C   UNL     1       2.661  -0.098  -9.995  1.00  0.00     0.014 A 
ATOM     35  C   UNL     1       3.296   0.331  -7.703  1.00  0.00     0.014 A 
ATOM     36  C   UNL     1       2.692  -1.468  -9.754  1.00  0.00     0.010 A 
ATOM     37  C   UNL     1       3.231  -1.022  -7.436  1.00  0.00     0.010 A 
ATOM     38  C   UNL     1       2.837  -1.909  -8.443  1.00  0.00    -0.014 A 
BRANCH  38  39
ATOM     39  C   UNL     1       2.421  -3.228  -7.982  1.00  0.00     0.031 A 
ATOM     40  C   UNL     1       3.410  -4.219  -7.519  1.00  0.00     0.074 A 
ATOM     41  C   UNL     1       1.097  -3.451  -7.810  1.00  0.00     0.049 A 
ATOM     42  N   UNL     1       3.115  -5.438  -7.218  1.00  0.00    -0.248 NA
ATOM     43  C   UNL     1       4.840  -3.938  -7.419  1.00  0.00     0.031 C 
ATOM     44  C   UNL     1       0.460  -4.494  -7.009  1.00  0.00     0.029 A 
ATOM     45  N   UNL     1       0.034  -2.874  -8.529  1.00  0.00    -0.354 N 
ATOM     46  C   UNL     1       4.213  -5.998  -6.618  1.00  0.00     0.074 A 
ATOM     47  C   UNL     1       5.290  -5.083  -6.892  1.00  0.00     0.031 C 
ATOM     48  C   UNL     1      -0.778  -4.705  -7.480  1.00  0.00     0.029 A 
ATOM     49  C   UNL     1      -0.907  -3.922  -8.695  1.00  0.00     0.049 A 
ATOM     50  H   UNL     1      -0.041  -1.945  -8.847  1.00  0.00     0.167 HD
ATOM     51  C   UNL     1       4.033  -7.112  -5.854  1.00  0.00     0.037 A 
ATOM     52  C   UNL     1      -1.155  -4.441  -9.934  1.00  0.00     0.037 A 
ATOM     53  C   UNL     1       2.741  -7.738  -6.141  1.00  0.00     0.049 A 
ATOM     54  C   UNL     1      -0.809  -5.909 -10.094  1.00  0.00     0.074 A 
ATOM     55  C   UNL     1       1.530  -7.865  -5.483  1.00  0.00     0.029 A 
ATOM     56  N   UNL     1       2.516  -8.171  -7.438  1.00  0.00    -0.354 N 
ATOM     57  N   UNL     1      -0.238  -6.639  -9.176  1.00  0.00    -0.248 NA
ATOM     58  C   UNL     1      -0.989  -6.640 -11.351  1.00  0.00     0.031 C 
ATOM     59  C   UNL     1       0.558  -8.304  -6.437  1.00  0.00     0.029 A 
ATOM     60  C   UNL     1       1.189  -8.474  -7.657  1.00  0.00     0.049 A 
ATOM     61  H   UNL     1       3.220  -8.253  -8.121  1.00  0.00     0.167 HD
ATOM     62  C   UNL     1       0.079  -7.861  -9.702  1.00  0.00     0.074 A 
ATOM     63  C   UNL     1      -0.416  -7.821 -11.065  1.00  0.00     0.031 C 
ATOM     64  C   UNL     1       0.767  -8.810  -9.007  1.00  0.00     0.037 A 
BRANCH  51  65
ATOM     65  C   UNL     1       4.963  -7.589  -4.758  1.00  0.00     0.064 A 
ATOM     66  C   UNL     1       4.677  -8.783  -4.060  1.00  0.00     0.173 A 
ATOM     67  C   UNL     1       6.068  -6.867  -4.255  1.00  0.00     0.173 A 
ATOM     68  F   UNL     1       3.649  -9.567  -4.415  1.00  0.00    -0.203 F 
ATOM     69  C   UNL     1       5.422  -9.204  -2.951  1.00  0.00     0.198 A 
ATOM     70  C   UNL     1       6.843  -7.317  -3.182  1.00  0.00     0.198 A 
ATOM     71  F   UNL     1       6.415  -5.666  -4.724  1.00  0.00    -0.203 F 
ATOM     72  F   UNL     1       5.062 -10.314  -2.290  1.00  0.00    -0.200 F 
ATOM     73  C   UNL     1       6.512  -8.477  -2.519  1.00  0.00     0.200 A 
ATOM     74  F   UNL     1       7.895  -6.590  -2.777  1.00  0.00    -0.200 F 
ATOM     75  F   UNL     1       7.224  -8.876  -1.458  1.00  0.00    -0.200 F 
ENDBRANCH  51  65
BRANCH  52  76
ATOM     76  C   UNL     1      -1.048  -3.422 -11.012  1.00  0.00     0.064 A 
ATOM     77  C   UNL     1      -1.917  -2.313 -10.978  1.00  0.00     0.173 A 
ATOM     78  C   UNL     1       0.091  -3.327 -11.819  1.00  0.00     0.173 A 
ATOM     79  F   UNL     1      -3.025  -2.353 -10.220  1.00  0.00    -0.203 F 
ATOM     80  C   UNL     1      -1.594  -1.121 -11.621  1.00  0.00     0.198 A 
ATOM     81  C   UNL     1       0.401  -2.137 -12.478  1.00  0.00     0.198 A 
ATOM     82  F   UNL     1       0.969  -4.339 -11.877  1.00  0.00    -0.203 F 
ATOM     83  F   UNL     1      -2.381  -0.046 -11.473  1.00  0.00    -0.200 F 
ATOM     84  C   UNL     1      -0.421  -1.026 -12.349  1.00  0.00     0.200 A 
ATOM     85  F   UNL     1       1.551  -2.037 -13.160  1.00  0.00    -0.200 F 
ATOM     86  F   UNL     1      -0.058   0.144 -12.892  1.00  0.00    -0.200 F 
ENDBRANCH  52  76
BRANCH  64  87
ATOM     87  C   UNL     1       1.111 -10.144  -9.592  1.00  0.00     0.064 A 
ATOM     88  C   UNL     1       0.138 -10.963 -10.185  1.00  0.00     0.173 A 
ATOM     89  C   UNL     1       2.405 -10.688  -9.472  1.00  0.00     0.173 A 
ATOM     90  F   UNL     1      -1.127 -10.536 -10.315  1.00  0.00    -0.203 F 
ATOM     91  C   UNL     1       0.448 -12.243 -10.649  1.00  0.00     0.198 A 
ATOM     92  C   UNL     1       2.699 -11.983  -9.891  1.00  0.00     0.198 A 
ATOM     93  F   UNL     1       3.418  -9.965  -8.970  1.00  0.00    -0.203 F 
ATOM     94  F   UNL     1      -0.497 -12.979 -11.250  1.00  0.00    -0.200 F 
ATOM     95  C   UNL     1       1.722 -12.758 -10.487  1.00  0.00     0.200 A 
ATOM     96  F   UNL     1       3.935 -12.473  -9.719  1.00  0.00    -0.200 F 
ATOM     97  F   UNL     1       2.011 -13.996 -10.909  1.00  0.00    -0.200 F 
ENDBRANCH  64  87
ENDBRANCH  38  39
ENDBRANCH  30  33
ENDBRANCH  28  29
ENDBRANCH  27  28
ENDBRANCH  26  27
ENDBRANCH   1  26
TORSDOF 16
