REMARK SMILES CC(C)C[C@H](NC(=O)[C@H](Cc1ccccc1)NC(=O)CNC(=O)CNC(=O)OCc1ccccc1)C(=O)NCCCCCCNC(=O)c1ccc(-c2c3nc(c(-c4c(F)c(F)c(F)c(F)c4F)c4ccc([nH]4)c(-c4c(F)c(F)c(F)c(F)c4F)c4nc(c(-c5c(F)c(F)c(F)c(F)c5F)c5ccc2[nH]5)C=C4)C=C3)cc1
REMARK SMILES IDX 36 1 37 2 38 3 5 5 4 6 2 7 1 8 3 9 6 10 7 11 8 13 9 14 17 15
REMARK SMILES IDX 18 16 19 18 20 19 21 20 22 21 23 23 24 24 25 25 26 26 27 28
REMARK SMILES IDX 28 29 29 30 30 31 31 32 35 33 32 34 34 35 33 36 10 37 11 38
REMARK SMILES IDX 12 39 16 40 13 41 15 42 14 43 39 44 40 45 41 46 42 47 43 48
REMARK SMILES IDX 44 49 45 50 46 51 47 53 48 54 49 55 110 56 50 57 109 58
REMARK SMILES IDX 51 59 52 60 53 61 103 62 54 63 108 64 102 65 104 66 55 67
REMARK SMILES IDX 107 68 101 69 100 70 56 72 88 73 68 74 87 75 69 76 72 77
REMARK SMILES IDX 86 78 105 79 70 80 71 81 85 83 106 84 73 85 57 86 58 87
REMARK SMILES IDX 66 88 59 89 60 90 64 91 67 92 61 93 62 94 65 95 63 96 89 97
REMARK SMILES IDX 90 98 98 99 91 100 92 101 96 102 99 103 93 104 94 105 97 106
REMARK SMILES IDX 95 107 74 108 75 109 83 110 76 111 77 112 81 113 84 114
REMARK SMILES IDX 78 115 79 116 82 117 80 118
REMARK H PARENT 38 4 6 12 17 17 21 22 25 27 45 52 104 71 72 82
REMARK Flexibility Score: inf
ROOT
ATOM      1  C   UNL     1      -3.301   1.584  -0.702  1.00  0.00     0.242 C 
ATOM      2  O   UNL     1      -2.093   1.350  -0.599  1.00  0.00    -0.273 OA
ATOM      3  N   UNL     1      -3.678   2.907  -0.885  1.00  0.00    -0.354 N 
ATOM      4  H   UNL     1      -3.448   3.557  -0.183  1.00  0.00     0.163 HD
ENDROOT
BRANCH   1   5
ATOM      5  C   UNL     1      -4.362   0.474  -0.359  1.00  0.00     0.171 C 
BRANCH   5   6
ATOM      6  C   UNL     1      -3.987  -0.949  -0.843  1.00  0.00     0.038 C 
BRANCH   6   7
ATOM      7  C   UNL     1      -4.730  -2.208  -0.267  1.00  0.00    -0.015 C 
ATOM      8  C   UNL     1      -6.226  -2.150   0.054  1.00  0.00     0.007 C 
ATOM      9  C   UNL     1      -4.494  -3.419  -1.193  1.00  0.00     0.007 C 
ENDBRANCH   6   7
ENDBRANCH   5   6
BRANCH   5  10
ATOM     10  N   UNL     1      -5.747   0.818  -0.609  1.00  0.00    -0.343 N 
ATOM     11  C   UNL     1      -6.595   0.340  -1.546  1.00  0.00     0.243 C 
ATOM     12  H   UNL     1      -6.126   1.500  -0.008  1.00  0.00     0.164 HD
ATOM     13  O   UNL     1      -7.752   0.121  -1.162  1.00  0.00    -0.273 OA
BRANCH  11  14
ATOM     14  C   UNL     1      -6.237   0.059  -3.022  1.00  0.00     0.175 C 
BRANCH  14  15
ATOM     15  N   UNL     1      -5.250   0.828  -3.727  1.00  0.00    -0.342 N 
ATOM     16  C   UNL     1      -5.484   1.648  -4.798  1.00  0.00     0.240 C 
ATOM     17  H   UNL     1      -4.320   0.759  -3.412  1.00  0.00     0.164 HD
ATOM     18  O   UNL     1      -4.509   2.162  -5.351  1.00  0.00    -0.273 OA
BRANCH  16  19
ATOM     19  C   UNL     1      -6.911   2.179  -5.038  1.00  0.00     0.216 C 
BRANCH  19  20
ATOM     20  N   UNL     1      -8.094   1.327  -5.085  1.00  0.00    -0.346 N 
ATOM     21  C   UNL     1      -9.176   1.276  -4.233  1.00  0.00     0.239 C 
ATOM     22  H   UNL     1      -8.123   0.693  -5.838  1.00  0.00     0.164 HD
ATOM     23  O   UNL     1      -9.862   0.252  -4.261  1.00  0.00    -0.273 OA
BRANCH  21  24
ATOM     24  C   UNL     1      -9.482   2.417  -3.228  1.00  0.00     0.219 C 
BRANCH  24  25
ATOM     25  N   UNL     1      -9.326   2.095  -1.820  1.00  0.00    -0.312 N 
ATOM     26  C   UNL     1      -9.133   2.928  -0.748  1.00  0.00     0.407 C 
ATOM     27  H   UNL     1      -9.364   1.135  -1.603  1.00  0.00     0.167 HD
ATOM     28  O   UNL     1      -9.144   2.496   0.389  1.00  0.00    -0.225 OA
BRANCH  26  29
ATOM     29  O   UNL     1      -8.884   4.202  -1.106  1.00  0.00    -0.445 OA
BRANCH  29  30
ATOM     30  C   UNL     1      -8.520   5.285  -0.202  1.00  0.00     0.270 C 
BRANCH  30  31
ATOM     31  C   UNL     1      -8.396   5.235   1.306  1.00  0.00    -0.011 A 
ATOM     32  C   UNL     1      -8.919   6.310   2.050  1.00  0.00     0.007 A 
ATOM     33  C   UNL     1      -7.631   4.281   1.987  1.00  0.00     0.007 A 
ATOM     34  C   UNL     1      -8.755   6.383   3.435  1.00  0.00     0.000 A 
ATOM     35  C   UNL     1      -7.490   4.336   3.379  1.00  0.00     0.000 A 
ATOM     36  C   UNL     1      -8.058   5.382   4.102  1.00  0.00     0.000 A 
ENDBRANCH  30  31
ENDBRANCH  29  30
ENDBRANCH  26  29
ENDBRANCH  24  25
ENDBRANCH  21  24
ENDBRANCH  19  20
ENDBRANCH  16  19
ENDBRANCH  14  15
BRANCH  14  37
ATOM     37  C   UNL     1      -6.484  -1.325  -3.654  1.00  0.00     0.070 C 
BRANCH  37  38
ATOM     38  C   UNL     1      -5.392  -2.128  -4.348  1.00  0.00    -0.045 A 
ATOM     39  C   UNL     1      -5.681  -3.481  -4.584  1.00  0.00     0.004 A 
ATOM     40  C   UNL     1      -4.169  -1.648  -4.844  1.00  0.00     0.004 A 
ATOM     41  C   UNL     1      -4.753  -4.329  -5.192  1.00  0.00     0.000 A 
ATOM     42  C   UNL     1      -3.229  -2.495  -5.436  1.00  0.00     0.000 A 
ATOM     43  C   UNL     1      -3.515  -3.841  -5.596  1.00  0.00     0.000 A 
ENDBRANCH  37  38
ENDBRANCH  14  37
ENDBRANCH  11  14
ENDBRANCH   5  10
ENDBRANCH   1   5
BRANCH   3  44
ATOM     44  C   UNL     1      -4.399   3.389  -2.063  1.00  0.00     0.116 C 
BRANCH  44  45
ATOM     45  C   UNL     1      -5.635   4.261  -1.833  1.00  0.00     0.021 C 
BRANCH  45  46
ATOM     46  C   UNL     1      -5.713   5.570  -2.660  1.00  0.00     0.002 C 
BRANCH  46  47
ATOM     47  C   UNL     1      -6.055   5.554  -4.165  1.00  0.00     0.002 C 
BRANCH  47  48
ATOM     48  C   UNL     1      -7.504   5.439  -4.694  1.00  0.00     0.021 C 
BRANCH  48  49
ATOM     49  C   UNL     1      -8.676   5.982  -3.893  1.00  0.00     0.116 C 
BRANCH  49  50
ATOM     50  N   UNL     1      -9.062   7.312  -4.292  1.00  0.00    -0.352 N 
ATOM     51  C   UNL     1     -10.136   7.734  -5.039  1.00  0.00     0.251 C 
ATOM     52  H   UNL     1      -8.463   8.030  -3.982  1.00  0.00     0.163 HD
ATOM     53  O   UNL     1     -10.178   8.906  -5.407  1.00  0.00    -0.269 OA
BRANCH  51  54
ATOM     54  C   UNL     1     -11.230   6.812  -5.449  1.00  0.00     0.039 A 
ATOM     55  C   UNL     1     -11.693   6.899  -6.766  1.00  0.00     0.014 A 
ATOM     56  C   UNL     1     -11.869   5.941  -4.559  1.00  0.00     0.014 A 
ATOM     57  C   UNL     1     -12.760   6.103  -7.199  1.00  0.00     0.010 A 
ATOM     58  C   UNL     1     -12.897   5.098  -5.010  1.00  0.00     0.010 A 
ATOM     59  C   UNL     1     -13.363   5.177  -6.333  1.00  0.00    -0.014 A 
BRANCH  59  60
ATOM     60  C   UNL     1     -14.482   4.313  -6.814  1.00  0.00     0.031 A 
ATOM     61  C   UNL     1     -15.870   4.452  -6.243  1.00  0.00     0.074 A 
ATOM     62  C   UNL     1     -14.254   3.388  -7.769  1.00  0.00     0.049 A 
ATOM     63  N   UNL     1     -16.962   3.789  -6.542  1.00  0.00    -0.248 NA
ATOM     64  C   UNL     1     -16.052   5.456  -5.186  1.00  0.00     0.031 C 
ATOM     65  C   UNL     1     -12.956   3.123  -8.389  1.00  0.00     0.029 A 
ATOM     66  N   UNL     1     -15.102   2.498  -8.383  1.00  0.00    -0.354 N 
ATOM     67  C   UNL     1     -17.954   4.292  -5.708  1.00  0.00     0.074 A 
ATOM     68  C   UNL     1     -17.322   5.276  -4.855  1.00  0.00     0.031 C 
ATOM     69  C   UNL     1     -13.095   2.151  -9.304  1.00  0.00     0.029 A 
ATOM     70  C   UNL     1     -14.483   1.694  -9.310  1.00  0.00     0.049 A 
ATOM     71  H   UNL     1     -16.064   2.441  -8.178  1.00  0.00     0.167 HD
ATOM     72  C   UNL     1     -19.273   3.979  -5.670  1.00  0.00     0.037 A 
ATOM     73  C   UNL     1     -14.968   0.692 -10.070  1.00  0.00     0.037 A 
ATOM     74  C   UNL     1     -19.906   3.004  -6.522  1.00  0.00     0.049 A 
ATOM     75  C   UNL     1     -16.429   0.339  -9.987  1.00  0.00     0.074 A 
ATOM     76  C   UNL     1     -21.245   2.660  -6.595  1.00  0.00     0.029 A 
ATOM     77  N   UNL     1     -19.241   2.206  -7.442  1.00  0.00    -0.354 N 
ATOM     78  N   UNL     1     -17.370   0.877  -9.250  1.00  0.00    -0.248 NA
ATOM     79  C   UNL     1     -16.898  -0.756 -10.848  1.00  0.00     0.031 C 
ATOM     80  C   UNL     1     -21.381   1.610  -7.509  1.00  0.00     0.029 A 
ATOM     81  C   UNL     1     -20.137   1.345  -8.059  1.00  0.00     0.049 A 
ATOM     82  H   UNL     1     -18.275   2.244  -7.629  1.00  0.00     0.167 HD
ATOM     83  C   UNL     1     -18.542   0.204  -9.572  1.00  0.00     0.074 A 
ATOM     84  C   UNL     1     -18.198  -0.769 -10.588  1.00  0.00     0.031 C 
ATOM     85  C   UNL     1     -19.789   0.377  -9.069  1.00  0.00     0.037 A 
BRANCH  72  86
ATOM     86  C   UNL     1     -20.128   4.693  -4.658  1.00  0.00     0.064 A 
ATOM     87  C   UNL     1     -20.406   6.065  -4.761  1.00  0.00     0.173 A 
ATOM     88  C   UNL     1     -20.705   3.990  -3.588  1.00  0.00     0.173 A 
ATOM     89  F   UNL     1     -19.878   6.788  -5.761  1.00  0.00    -0.203 F 
ATOM     90  C   UNL     1     -21.192   6.713  -3.811  1.00  0.00     0.198 A 
ATOM     91  C   UNL     1     -21.520   4.633  -2.661  1.00  0.00     0.198 A 
ATOM     92  F   UNL     1     -20.486   2.674  -3.447  1.00  0.00    -0.203 F 
ATOM     93  F   UNL     1     -21.393   8.035  -3.899  1.00  0.00    -0.200 F 
ATOM     94  C   UNL     1     -21.754   5.996  -2.766  1.00  0.00     0.200 A 
ATOM     95  F   UNL     1     -22.078   3.935  -1.662  1.00  0.00    -0.200 F 
ATOM     96  F   UNL     1     -22.514   6.620  -1.855  1.00  0.00    -0.200 F 
ENDBRANCH  72  86
BRANCH  73  97
ATOM     97  C   UNL     1     -14.056  -0.054 -10.978  1.00  0.00     0.064 A 
ATOM     98  C   UNL     1     -14.175   0.044 -12.371  1.00  0.00     0.173 A 
ATOM     99  C   UNL     1     -13.044  -0.883 -10.469  1.00  0.00     0.173 A 
ATOM    100  F   UNL     1     -15.140   0.804 -12.909  1.00  0.00    -0.203 F 
ATOM    101  C   UNL     1     -13.331  -0.671 -13.219  1.00  0.00     0.198 A 
ATOM    102  C   UNL     1     -12.179  -1.571 -11.317  1.00  0.00     0.198 A 
ATOM    103  F   UNL     1     -12.883  -1.010  -9.144  1.00  0.00    -0.203 F 
ATOM    104  F   UNL     1     -13.496  -0.595 -14.547  1.00  0.00    -0.200 F 
ATOM    105  C   UNL     1     -12.328  -1.471 -12.692  1.00  0.00     0.200 A 
ATOM    106  F   UNL     1     -11.201  -2.328 -10.802  1.00  0.00    -0.200 F 
ATOM    107  F   UNL     1     -11.510  -2.150 -13.507  1.00  0.00    -0.200 F 
ENDBRANCH  73  97
BRANCH  85 108
ATOM    108  C   UNL     1     -20.888  -0.484  -9.627  1.00  0.00     0.064 A 
ATOM    109  C   UNL     1     -20.959  -1.859  -9.357  1.00  0.00     0.173 A 
ATOM    110  C   UNL     1     -21.910   0.084 -10.405  1.00  0.00     0.173 A 
ATOM    111  F   UNL     1     -20.001  -2.455  -8.631  1.00  0.00    -0.203 F 
ATOM    112  C   UNL     1     -21.997  -2.637  -9.866  1.00  0.00     0.198 A 
ATOM    113  C   UNL     1     -22.963  -0.691 -10.883  1.00  0.00     0.198 A 
ATOM    114  F   UNL     1     -21.895   1.395 -10.689  1.00  0.00    -0.203 F 
ATOM    115  F   UNL     1     -22.017  -3.957  -9.636  1.00  0.00    -0.200 F 
ATOM    116  C   UNL     1     -23.002  -2.051 -10.620  1.00  0.00     0.200 A 
ATOM    117  F   UNL     1     -23.942  -0.119 -11.599  1.00  0.00    -0.200 F 
ATOM    118  F   UNL     1     -24.006  -2.799 -11.099  1.00  0.00    -0.200 F 
ENDBRANCH  85 108
ENDBRANCH  59  60
ENDBRANCH  51  54
ENDBRANCH  49  50
ENDBRANCH  48  49
ENDBRANCH  47  48
ENDBRANCH  46  47
ENDBRANCH  45  46
ENDBRANCH  44  45
ENDBRANCH   3  44
TORSDOF 27
