REMARK SMILES O=C(NCCCCCCNC(=O)[C@@]1(CCc2ccccc2)CCC[N@@H+](Cc2cccnc2)C1)c1ccc(-c2c3nc(c(-c4c(F)c(F)c(F)c(F)c4F)c4ccc([nH]4)c(-c4c(F)c(F)c(F)c(F)c4F)c4nc(c(-c5c(F)c(F)c(F)c(F)c5F)c5ccc2[nH]5)C=C4)C=C3)cc1
REMARK SMILES IDX 7 1 6 2 5 3 4 4 3 5 1 6 2 7 34 9 35 10 96 11 36 12 95 13
REMARK SMILES IDX 37 14 38 15 39 16 89 17 40 18 94 19 88 20 90 21 41 22 93 23
REMARK SMILES IDX 87 24 86 25 42 27 74 28 54 29 73 30 55 31 58 32 72 33 91 34
REMARK SMILES IDX 56 35 57 36 71 38 92 39 59 40 43 41 44 42 52 43 45 44 46 45
REMARK SMILES IDX 50 46 53 47 47 48 48 49 51 50 49 51 75 52 76 53 84 54 77 55
REMARK SMILES IDX 78 56 82 57 85 58 79 59 80 60 83 61 81 62 60 63 61 64 69 65
REMARK SMILES IDX 62 66 63 67 67 68 70 69 64 70 65 71 68 72 66 73 8 74 9 75
REMARK SMILES IDX 10 76 11 77 12 79 13 80 22 81 33 82 23 83 25 84 24 85 14 87
REMARK SMILES IDX 15 88 16 89 17 90 21 91 18 92 20 93 19 94 26 95 27 96 28 97
REMARK SMILES IDX 32 98 29 99 31 100 30 101
REMARK H PARENT 3 8 90 26 58 37 10 78 25 86
REMARK Flexibility Score: inf
ROOT
ATOM      1  C   UNL     1      13.135   6.549  -7.989  1.00  0.00     0.002 C 
ENDROOT
BRANCH   1   2
ATOM      2  C   UNL     1      12.953   8.031  -8.343  1.00  0.00     0.002 C 
BRANCH   2   3
ATOM      3  C   UNL     1      13.026   8.996  -7.158  1.00  0.00     0.021 C 
BRANCH   3   4
ATOM      4  C   UNL     1      14.308   8.892  -6.342  1.00  0.00     0.116 C 
BRANCH   4   5
ATOM      5  N   UNL     1      15.467   9.356  -7.087  1.00  0.00    -0.352 N 
ATOM      6  O   UNL     1      17.144  10.773  -7.614  1.00  0.00    -0.269 OA
ATOM      7  C   UNL     1      16.343  10.367  -6.778  1.00  0.00     0.251 C 
ATOM      8  H   UNL     1      15.649   8.879  -7.929  1.00  0.00     0.163 HD
BRANCH   7   9
ATOM      9  C   UNL     1      16.309  10.974  -5.431  1.00  0.00     0.039 A 
ATOM     10  C   UNL     1      16.209  10.165  -4.297  1.00  0.00     0.014 A 
ATOM     11  C   UNL     1      16.400  12.363  -5.298  1.00  0.00     0.014 A 
ATOM     12  C   UNL     1      16.068  10.748  -3.045  1.00  0.00     0.010 A 
ATOM     13  C   UNL     1      16.350  12.945  -4.028  1.00  0.00     0.010 A 
ATOM     14  C   UNL     1      16.163  12.143  -2.893  1.00  0.00    -0.014 A 
BRANCH  14  15
ATOM     15  C   UNL     1      16.158  12.705  -1.519  1.00  0.00     0.031 A 
ATOM     16  C   UNL     1      15.045  13.587  -1.033  1.00  0.00     0.074 A 
ATOM     17  C   UNL     1      17.157  12.350  -0.688  1.00  0.00     0.049 A 
ATOM     18  N   UNL     1      14.854  14.084   0.164  1.00  0.00    -0.248 NA
ATOM     19  C   UNL     1      14.017  13.972  -2.011  1.00  0.00     0.031 C 
ATOM     20  C   UNL     1      18.307  11.524  -1.066  1.00  0.00     0.029 A 
ATOM     21  N   UNL     1      17.354  12.601   0.644  1.00  0.00    -0.354 N 
ATOM     22  C   UNL     1      13.693  14.841   0.084  1.00  0.00     0.074 A 
ATOM     23  C   UNL     1      13.237  14.765  -1.288  1.00  0.00     0.031 C 
ATOM     24  C   UNL     1      19.055  11.286   0.020  1.00  0.00     0.029 A 
ATOM     25  C   UNL     1      18.470  11.987   1.157  1.00  0.00     0.049 A 
ATOM     26  H   UNL     1      16.754  13.168   1.182  1.00  0.00     0.167 HD
ATOM     27  C   UNL     1      13.063  15.524   1.070  1.00  0.00     0.037 A 
ATOM     28  C   UNL     1      18.973  11.990   2.404  1.00  0.00     0.037 A 
ATOM     29  C   UNL     1      13.523  15.591   2.435  1.00  0.00     0.049 A 
ATOM     30  C   UNL     1      18.245  12.746   3.476  1.00  0.00     0.074 A 
ATOM     31  C   UNL     1      12.954  16.255   3.508  1.00  0.00     0.029 A 
ATOM     32  N   UNL     1      14.668  14.969   2.915  1.00  0.00    -0.354 N 
ATOM     33  N   UNL     1      17.134  13.437   3.390  1.00  0.00    -0.248 NA
ATOM     34  C   UNL     1      18.838  12.723   4.819  1.00  0.00     0.031 C 
ATOM     35  C   UNL     1      13.770  16.063   4.628  1.00  0.00     0.029 A 
ATOM     36  C   UNL     1      14.826  15.243   4.265  1.00  0.00     0.049 A 
ATOM     37  H   UNL     1      15.277  14.415   2.376  1.00  0.00     0.167 HD
ATOM     38  C   UNL     1      16.895  13.931   4.662  1.00  0.00     0.074 A 
ATOM     39  C   UNL     1      17.955  13.427   5.512  1.00  0.00     0.031 C 
ATOM     40  C   UNL     1      15.896  14.742   5.088  1.00  0.00     0.037 A 
BRANCH  27  41
ATOM     41  C   UNL     1      11.805  16.262   0.715  1.00  0.00     0.064 A 
ATOM     42  C   UNL     1      10.605  15.582   0.460  1.00  0.00     0.173 A 
ATOM     43  C   UNL     1      11.782  17.665   0.689  1.00  0.00     0.173 A 
ATOM     44  F   UNL     1      10.575  14.241   0.460  1.00  0.00    -0.203 F 
ATOM     45  C   UNL     1       9.432  16.279   0.179  1.00  0.00     0.198 A 
ATOM     46  C   UNL     1      10.602  18.359   0.432  1.00  0.00     0.198 A 
ATOM     47  F   UNL     1      12.901  18.364   0.930  1.00  0.00    -0.203 F 
ATOM     48  F   UNL     1       8.304  15.607  -0.092  1.00  0.00    -0.200 F 
ATOM     49  C   UNL     1       9.429  17.666   0.174  1.00  0.00     0.200 A 
ATOM     50  F   UNL     1      10.599  19.699   0.438  1.00  0.00    -0.200 F 
ATOM     51  F   UNL     1       8.297  18.334  -0.085  1.00  0.00    -0.200 F 
ENDBRANCH  27  41
BRANCH  28  52
ATOM     52  C   UNL     1      20.230  11.254   2.694  1.00  0.00     0.064 A 
ATOM     53  C   UNL     1      20.232  10.109   3.501  1.00  0.00     0.173 A 
ATOM     54  C   UNL     1      21.455  11.676   2.156  1.00  0.00     0.173 A 
ATOM     55  F   UNL     1      19.088   9.676   4.052  1.00  0.00    -0.203 F 
ATOM     56  C   UNL     1      21.414   9.424   3.774  1.00  0.00     0.198 A 
ATOM     57  C   UNL     1      22.631  10.972   2.402  1.00  0.00     0.198 A 
ATOM     58  F   UNL     1      21.505  12.762   1.370  1.00  0.00    -0.203 F 
ATOM     59  F   UNL     1      21.396   8.357   4.583  1.00  0.00    -0.200 F 
ATOM     60  C   UNL     1      22.611   9.852   3.218  1.00  0.00     0.200 A 
ATOM     61  F   UNL     1      23.780  11.378   1.847  1.00  0.00    -0.200 F 
ATOM     62  F   UNL     1      23.746   9.187   3.473  1.00  0.00    -0.200 F 
ENDBRANCH  28  52
BRANCH  40  63
ATOM     63  C   UNL     1      15.913  15.125   6.538  1.00  0.00     0.064 A 
ATOM     64  C   UNL     1      16.864  16.023   7.045  1.00  0.00     0.173 A 
ATOM     65  C   UNL     1      14.971  14.590   7.429  1.00  0.00     0.173 A 
ATOM     66  F   UNL     1      17.797  16.546   6.234  1.00  0.00    -0.203 F 
ATOM     67  C   UNL     1      16.894  16.345   8.398  1.00  0.00     0.198 A 
ATOM     68  C   UNL     1      14.986  14.936   8.777  1.00  0.00     0.198 A 
ATOM     69  F   UNL     1      14.038  13.731   6.992  1.00  0.00    -0.203 F 
ATOM     70  F   UNL     1      17.847  17.159   8.871  1.00  0.00    -0.200 F 
ATOM     71  C   UNL     1      15.953  15.805   9.262  1.00  0.00     0.200 A 
ATOM     72  F   UNL     1      14.071  14.421   9.610  1.00  0.00    -0.200 F 
ATOM     73  F   UNL     1      15.985  16.111  10.566  1.00  0.00    -0.200 F 
ENDBRANCH  40  63
ENDBRANCH  14  15
ENDBRANCH   7   9
ENDBRANCH   4   5
ENDBRANCH   3   4
ENDBRANCH   2   3
ENDBRANCH   1   2
BRANCH   1  74
ATOM     74  C   UNL     1      12.243   6.051  -6.846  1.00  0.00     0.021 C 
BRANCH  74  75
ATOM     75  C   UNL     1      10.761   6.017  -7.224  1.00  0.00     0.116 C 
BRANCH  75  76
ATOM     76  N   UNL     1      10.450   4.726  -7.800  1.00  0.00    -0.355 N 
ATOM     77  C   UNL     1       9.944   3.567  -7.309  1.00  0.00     0.231 C 
ATOM     78  H   UNL     1      10.649   4.679  -8.763  1.00  0.00     0.163 HD
ATOM     79  O   UNL     1      10.257   2.561  -7.960  1.00  0.00    -0.274 OA
BRANCH  77  80
ATOM     80  C   UNL     1       8.967   3.454  -6.108  1.00  0.00     0.098 C 
ATOM     81  C   UNL     1       9.113   1.976  -5.618  1.00  0.00     0.028 C 
ATOM     82  C   UNL     1       9.370   4.373  -4.928  1.00  0.00     0.279 C 
ATOM     83  C   UNL     1       8.486   1.719  -4.255  1.00  0.00     0.063 C 
ATOM     84  N   UNL     1       8.825   4.049  -3.598  1.00  0.00    -0.330 N 
ATOM     85  C   UNL     1       9.078   2.661  -3.216  1.00  0.00     0.262 C 
ATOM     86  H   UNL     1       7.813   4.147  -3.678  1.00  0.00     0.348 HD
BRANCH  80  87
ATOM     87  C   UNL     1       7.472   3.691  -6.523  1.00  0.00     0.027 C 
BRANCH  87  88
ATOM     88  C   UNL     1       7.165   4.609  -7.726  1.00  0.00     0.037 C 
BRANCH  88  89
ATOM     89  C   UNL     1       7.574   4.091  -9.089  1.00  0.00    -0.048 A 
ATOM     90  C   UNL     1       7.393   2.749  -9.456  1.00  0.00     0.004 A 
ATOM     91  C   UNL     1       8.193   4.955 -10.006  1.00  0.00     0.004 A 
ATOM     92  C   UNL     1       7.914   2.263 -10.657  1.00  0.00     0.000 A 
ATOM     93  C   UNL     1       8.715   4.467 -11.207  1.00  0.00     0.000 A 
ATOM     94  C   UNL     1       8.592   3.117 -11.523  1.00  0.00     0.000 A 
ENDBRANCH  88  89
ENDBRANCH  87  88
ENDBRANCH  80  87
BRANCH  84  95
ATOM     95  C   UNL     1       9.241   5.011  -2.554  1.00  0.00     0.300 C 
BRANCH  95  96
ATOM     96  C   UNL     1      10.716   5.069  -2.235  1.00  0.00     0.025 A 
ATOM     97  C   UNL     1      11.607   5.844  -2.986  1.00  0.00     0.013 A 
ATOM     98  C   UNL     1      11.257   4.322  -1.192  1.00  0.00     0.120 A 
ATOM     99  C   UNL     1      12.971   5.799  -2.716  1.00  0.00     0.021 A 
ATOM    100  N   UNL     1      12.576   4.274  -0.893  1.00  0.00    -0.264 NA
ATOM    101  C   UNL     1      13.404   5.002  -1.670  1.00  0.00     0.111 A 
ENDBRANCH  95  96
ENDBRANCH  84  95
ENDBRANCH  77  80
ENDBRANCH  75  76
ENDBRANCH  74  75
ENDBRANCH   1  74
TORSDOF 18
