REMARK SMILES O=C(NCCCCCCNC(=O)c1cc(OCc2ccccc2C(F)(F)F)cs1)c1ccc(-c2c3nc(c(-c4c(F)c(F)c(F)c(F)c4F)c4ccc([nH]4)c(-c4c(F)c(F)c(F)c(F)c4F)c4nc(c(-c5c(F)c(F)c(F)c(F)c5F)c5ccc2[nH]5)C=C4)C=C3)cc1
REMARK SMILES IDX 7 1 6 2 5 3 4 4 3 5 1 6 2 7 30 9 31 10 92 11 32 12 91 13
REMARK SMILES IDX 33 14 34 15 35 16 85 17 36 18 90 19 84 20 86 21 37 22 89 23
REMARK SMILES IDX 83 24 82 25 38 27 70 28 50 29 69 30 51 31 54 32 68 33 87 34
REMARK SMILES IDX 52 35 53 36 67 38 88 39 55 40 39 41 40 42 48 43 41 44 42 45
REMARK SMILES IDX 46 46 49 47 43 48 44 49 47 50 45 51 71 52 72 53 80 54 73 55
REMARK SMILES IDX 74 56 78 57 81 58 75 59 76 60 79 61 77 62 56 63 57 64 65 65
REMARK SMILES IDX 58 66 59 67 63 68 66 69 60 70 61 71 64 72 62 73 8 74 9 75
REMARK SMILES IDX 10 76 11 77 12 79 13 80 14 81 29 82 15 83 28 84 16 85 17 86
REMARK SMILES IDX 18 87 19 88 23 89 20 90 22 91 21 92 24 93 25 94 26 95 27 96
REMARK H PARENT 3 8 86 26 54 37 10 78
REMARK Flexibility Score: inf
ROOT
ATOM      1  C   UNL     1       4.242  -4.306   1.949  1.00  0.00     0.002 C 
ENDROOT
BRANCH   1   2
ATOM      2  C   UNL     1       4.102  -2.973   2.701  1.00  0.00     0.002 C 
BRANCH   2   3
ATOM      3  C   UNL     1       4.709  -1.703   2.091  1.00  0.00     0.021 C 
BRANCH   3   4
ATOM      4  C   UNL     1       4.341  -1.330   0.659  1.00  0.00     0.116 C 
BRANCH   4   5
ATOM      5  N   UNL     1       2.920  -1.127   0.451  1.00  0.00    -0.352 N 
ATOM      6  O   UNL     1       0.995  -0.075  -0.047  1.00  0.00    -0.269 OA
ATOM      7  C   UNL     1       2.230  -0.051  -0.049  1.00  0.00     0.251 C 
ATOM      8  H   UNL     1       2.354  -1.889   0.712  1.00  0.00     0.163 HD
BRANCH   7   9
ATOM      9  C   UNL     1       2.920   1.155  -0.567  1.00  0.00     0.039 A 
ATOM     10  C   UNL     1       4.049   1.072  -1.385  1.00  0.00     0.014 A 
ATOM     11  C   UNL     1       2.374   2.412  -0.275  1.00  0.00     0.014 A 
ATOM     12  C   UNL     1       4.699   2.236  -1.804  1.00  0.00     0.010 A 
ATOM     13  C   UNL     1       2.986   3.576  -0.752  1.00  0.00     0.010 A 
ATOM     14  C   UNL     1       4.173   3.501  -1.497  1.00  0.00    -0.014 A 
BRANCH  14  15
ATOM     15  C   UNL     1       4.840   4.738  -1.984  1.00  0.00     0.031 A 
ATOM     16  C   UNL     1       5.431   5.726  -1.016  1.00  0.00     0.074 A 
ATOM     17  C   UNL     1       4.895   4.985  -3.307  1.00  0.00     0.049 A 
ATOM     18  N   UNL     1       5.999   6.883  -1.253  1.00  0.00    -0.248 NA
ATOM     19  C   UNL     1       5.368   5.370   0.408  1.00  0.00     0.031 C 
ATOM     20  C   UNL     1       4.355   4.111  -4.348  1.00  0.00     0.029 A 
ATOM     21  N   UNL     1       5.420   6.046  -4.003  1.00  0.00    -0.354 N 
ATOM     22  C   UNL     1       6.342   7.401  -0.011  1.00  0.00     0.074 A 
ATOM     23  C   UNL     1       5.891   6.446   0.980  1.00  0.00     0.031 C 
ATOM     24  C   UNL     1       4.588   4.661  -5.549  1.00  0.00     0.029 A 
ATOM     25  C   UNL     1       5.239   5.954  -5.361  1.00  0.00     0.049 A 
ATOM     26  H   UNL     1       5.881   6.801  -3.570  1.00  0.00     0.167 HD
ATOM     27  C   UNL     1       6.981   8.563   0.276  1.00  0.00     0.037 A 
ATOM     28  C   UNL     1       5.534   6.824  -6.346  1.00  0.00     0.037 A 
ATOM     29  C   UNL     1       7.424   9.511  -0.716  1.00  0.00     0.049 A 
ATOM     30  C   UNL     1       6.197   8.129  -6.001  1.00  0.00     0.074 A 
ATOM     31  C   UNL     1       8.110  10.699  -0.529  1.00  0.00     0.029 A 
ATOM     32  N   UNL     1       7.209   9.387  -2.082  1.00  0.00    -0.354 N 
ATOM     33  N   UNL     1       6.555   8.589  -4.827  1.00  0.00    -0.248 NA
ATOM     34  C   UNL     1       6.498   9.034  -7.118  1.00  0.00     0.031 C 
ATOM     35  C   UNL     1       8.253  11.323  -1.773  1.00  0.00     0.029 A 
ATOM     36  C   UNL     1       7.723  10.491  -2.746  1.00  0.00     0.049 A 
ATOM     37  H   UNL     1       6.758   8.627  -2.516  1.00  0.00     0.167 HD
ATOM     38  C   UNL     1       7.151   9.820  -5.064  1.00  0.00     0.074 A 
ATOM     39  C   UNL     1       7.112  10.032  -6.497  1.00  0.00     0.031 C 
ATOM     40  C   UNL     1       7.689  10.690  -4.174  1.00  0.00     0.037 A 
BRANCH  27  41
ATOM     41  C   UNL     1       7.210   8.891   1.726  1.00  0.00     0.064 A 
ATOM     42  C   UNL     1       8.099   8.152   2.523  1.00  0.00     0.173 A 
ATOM     43  C   UNL     1       6.547   9.975   2.323  1.00  0.00     0.173 A 
ATOM     44  F   UNL     1       8.756   7.102   2.007  1.00  0.00    -0.203 F 
ATOM     45  C   UNL     1       8.283   8.460   3.869  1.00  0.00     0.198 A 
ATOM     46  C   UNL     1       6.760  10.302   3.660  1.00  0.00     0.198 A 
ATOM     47  F   UNL     1       5.694  10.724   1.607  1.00  0.00    -0.203 F 
ATOM     48  F   UNL     1       9.090   7.701   4.624  1.00  0.00    -0.200 F 
ATOM     49  C   UNL     1       7.617   9.537   4.435  1.00  0.00     0.200 A 
ATOM     50  F   UNL     1       6.129  11.354   4.200  1.00  0.00    -0.200 F 
ATOM     51  F   UNL     1       7.796   9.832   5.730  1.00  0.00    -0.200 F 
ENDBRANCH  27  41
BRANCH  28  52
ATOM     52  C   UNL     1       5.197   6.479  -7.751  1.00  0.00     0.064 A 
ATOM     53  C   UNL     1       6.201   6.199  -8.688  1.00  0.00     0.173 A 
ATOM     54  C   UNL     1       3.863   6.394  -8.179  1.00  0.00     0.173 A 
ATOM     55  F   UNL     1       7.491   6.286  -8.332  1.00  0.00    -0.203 F 
ATOM     56  C   UNL     1       5.884   5.857 -10.001  1.00  0.00     0.198 A 
ATOM     57  C   UNL     1       3.547   6.022  -9.483  1.00  0.00     0.198 A 
ATOM     58  F   UNL     1       2.865   6.647  -7.320  1.00  0.00    -0.203 F 
ATOM     59  F   UNL     1       6.864   5.629 -10.886  1.00  0.00    -0.200 F 
ATOM     60  C   UNL     1       4.558   5.760 -10.395  1.00  0.00     0.200 A 
ATOM     61  F   UNL     1       2.264   5.910  -9.854  1.00  0.00    -0.200 F 
ATOM     62  F   UNL     1       4.254   5.416 -11.654  1.00  0.00    -0.200 F 
ENDBRANCH  28  52
BRANCH  40  63
ATOM     63  C   UNL     1       8.331  11.933  -4.721  1.00  0.00     0.064 A 
ATOM     64  C   UNL     1       7.578  12.979  -5.272  1.00  0.00     0.173 A 
ATOM     65  C   UNL     1       9.723  12.099  -4.641  1.00  0.00     0.173 A 
ATOM     66  F   UNL     1       6.246  12.866  -5.387  1.00  0.00    -0.203 F 
ATOM     67  C   UNL     1       8.196  14.136  -5.742  1.00  0.00     0.198 A 
ATOM     68  C   UNL     1      10.334  13.269  -5.080  1.00  0.00     0.198 A 
ATOM     69  F   UNL     1      10.491  11.130  -4.118  1.00  0.00    -0.203 F 
ATOM     70  F   UNL     1       7.461  15.104  -6.306  1.00  0.00    -0.200 F 
ATOM     71  C   UNL     1       9.571  14.284  -5.637  1.00  0.00     0.200 A 
ATOM     72  F   UNL     1      11.661  13.416  -4.963  1.00  0.00    -0.200 F 
ATOM     73  F   UNL     1      10.162  15.404  -6.076  1.00  0.00    -0.200 F 
ENDBRANCH  40  63
ENDBRANCH  14  15
ENDBRANCH   7   9
ENDBRANCH   4   5
ENDBRANCH   3   4
ENDBRANCH   2   3
ENDBRANCH   1   2
BRANCH   1  74
ATOM     74  C   UNL     1       5.642  -4.842   1.621  1.00  0.00     0.021 C 
BRANCH  74  75
ATOM     75  C   UNL     1       6.641  -5.077   2.757  1.00  0.00     0.116 C 
BRANCH  75  76
ATOM     76  N   UNL     1       6.588  -6.245   3.609  1.00  0.00    -0.351 N 
ATOM     77  C   UNL     1       7.596  -6.636   4.509  1.00  0.00     0.261 C 
ATOM     78  H   UNL     1       5.784  -6.810   3.555  1.00  0.00     0.163 HD
ATOM     79  O   UNL     1       7.270  -7.391   5.426  1.00  0.00    -0.268 OA
BRANCH  77  80
ATOM     80  C   UNL     1       8.970  -6.146   4.345  1.00  0.00     0.096 A 
ATOM     81  C   UNL     1       9.713  -5.215   5.079  1.00  0.00     0.072 A 
ATOM     82  S   UNL     1       9.969  -6.879   3.156  1.00  0.00    -0.135 S 
ATOM     83  C   UNL     1      10.883  -4.783   4.356  1.00  0.00     0.131 A 
ATOM     84  C   UNL     1      11.218  -5.734   3.415  1.00  0.00     0.112 A 
BRANCH  83  85
ATOM     85  O   UNL     1      11.692  -3.684   4.459  1.00  0.00    -0.488 OA
BRANCH  85  86
ATOM     86  C   UNL     1      11.227  -2.479   5.100  1.00  0.00     0.266 C 
BRANCH  86  87
ATOM     87  C   UNL     1      10.649  -1.386   4.176  1.00  0.00     0.001 A 
ATOM     88  C   UNL     1      11.268  -0.139   4.003  1.00  0.00     0.008 A 
ATOM     89  C   UNL     1       9.413  -1.522   3.530  1.00  0.00     0.062 A 
ATOM     90  C   UNL     1      10.729   0.838   3.137  1.00  0.00     0.000 A 
ATOM     91  C   UNL     1       8.977  -0.637   2.525  1.00  0.00     0.013 A 
ATOM     92  C   UNL     1       9.623   0.563   2.344  1.00  0.00     0.001 A 
BRANCH  89  93
ATOM     93  C   UNL     1       8.451  -2.571   3.915  1.00  0.00     0.416 C 
ATOM     94  F   UNL     1       7.161  -2.214   3.687  1.00  0.00    -0.166 F 
ATOM     95  F   UNL     1       8.684  -3.667   3.178  1.00  0.00    -0.166 F 
ATOM     96  F   UNL     1       8.472  -2.897   5.229  1.00  0.00    -0.166 F 
ENDBRANCH  89  93
ENDBRANCH  86  87
ENDBRANCH  85  86
ENDBRANCH  83  85
ENDBRANCH  77  80
ENDBRANCH  75  76
ENDBRANCH  74  75
ENDBRANCH   1  74
TORSDOF 17
