REMARK SMILES C[C@H]1[C@@H](C(=O)NCCCCCCNC(=O)c2ccc(-c3c4nc(c(-c5c(F)c(F)c(F)c(F)c5F)c5ccc([nH]5)c(-c5c(F)c(F)c(F)c(F)c5F)c5nc(c(-c6c(F)c(F)c(F)c(F)c6F)c6ccc3[nH]6)C=C5)C=C4)cc2)CC[N@@H+]1CC(=O)NNC(=O)c1cccs1
REMARK SMILES IDX 8 1 7 2 6 3 4 4 5 5 3 7 1 8 2 9 81 10 79 11 80 12 82 14
REMARK SMILES IDX 83 15 84 16 85 17 86 19 87 20 88 22 89 23 90 24 93 25 91 26
REMARK SMILES IDX 92 27 9 28 10 29 11 30 12 31 13 32 14 33 15 35 16 36 17 37
REMARK SMILES IDX 78 38 18 39 77 40 19 41 20 42 21 43 71 44 22 45 76 46 70 47
REMARK SMILES IDX 72 48 23 49 75 50 69 51 68 52 24 54 56 55 36 56 55 57 37 58
REMARK SMILES IDX 40 59 54 60 73 61 38 62 39 63 53 65 74 66 41 67 25 68 26 69
REMARK SMILES IDX 34 70 27 71 28 72 32 73 35 74 29 75 30 76 33 77 31 78 57 79
REMARK SMILES IDX 58 80 66 81 59 82 60 83 64 84 67 85 61 86 62 87 65 88 63 89
REMARK SMILES IDX 42 90 43 91 51 92 44 93 45 94 49 95 52 96 46 97 47 98 50 99
REMARK SMILES IDX 48 100
REMARK H PARENT 6 6 81 13 85 18 86 21 13 34 72 53 40 64
REMARK Flexibility Score: inf
ROOT
ATOM      1  C   UNL     1       3.563   0.652  -2.101  1.00  0.00     0.021 C 
ENDROOT
BRANCH   1   2
ATOM      2  C   UNL     1       2.830   1.665  -1.217  1.00  0.00     0.116 C 
BRANCH   2   3
ATOM      3  N   UNL     1       1.568   1.992  -1.843  1.00  0.00    -0.356 N 
ATOM      4  C   UNL     1       0.322   1.502  -1.604  1.00  0.00     0.229 C 
ATOM      5  O   UNL     1      -0.513   1.687  -2.493  1.00  0.00    -0.275 OA
ATOM      6  H   UNL     1       1.619   2.675  -2.550  1.00  0.00     0.163 HD
BRANCH   4   7
ATOM      7  C   UNL     1      -0.047   0.902  -0.244  1.00  0.00     0.142 C 
ATOM      8  C   UNL     1       1.357  -1.299  -0.726  1.00  0.00     0.076 C 
ATOM      9  C   UNL     1       0.537  -0.447   0.231  1.00  0.00     0.194 C 
ATOM     10  N   UNL     1      -0.596  -1.294   0.621  1.00  0.00    -0.324 N 
ATOM     11  C   UNL     1      -1.572   0.713  -0.122  1.00  0.00     0.081 C 
ATOM     12  C   UNL     1      -1.773  -0.787  -0.073  1.00  0.00     0.263 C 
ATOM     13  H   UNL     1      -0.415  -2.251   0.315  1.00  0.00     0.348 HD
BRANCH  10  14
ATOM     14  C   UNL     1      -0.748  -1.579   2.054  1.00  0.00     0.365 C 
BRANCH  14  15
ATOM     15  C   UNL     1      -1.392  -0.471   2.885  1.00  0.00     0.293 C 
ATOM     16  O   UNL     1      -2.619  -0.379   2.993  1.00  0.00    -0.267 OA
ATOM     17  N   UNL     1      -0.618   0.444   3.551  1.00  0.00    -0.262 N 
ATOM     18  H   UNL     1      -1.081   1.080   4.143  1.00  0.00     0.191 HD
BRANCH  17  19
ATOM     19  N   UNL     1       0.770   0.551   3.463  1.00  0.00    -0.263 N 
ATOM     20  C   UNL     1       1.429   1.764   3.299  1.00  0.00     0.279 C 
ATOM     21  H   UNL     1       1.309  -0.271   3.520  1.00  0.00     0.191 HD
ATOM     22  O   UNL     1       2.513   1.745   2.709  1.00  0.00    -0.266 OA
BRANCH  20  23
ATOM     23  C   UNL     1       0.822   2.962   3.856  1.00  0.00     0.094 A 
ATOM     24  C   UNL     1       0.099   3.118   5.026  1.00  0.00     0.026 A 
ATOM     25  S   UNL     1       1.048   4.466   3.065  1.00  0.00    -0.139 S 
ATOM     26  C   UNL     1      -0.302   4.467   5.248  1.00  0.00     0.012 A 
ATOM     27  C   UNL     1       0.152   5.306   4.256  1.00  0.00     0.065 A 
ENDBRANCH  20  23
ENDBRANCH  17  19
ENDBRANCH  14  15
ENDBRANCH  10  14
ENDBRANCH   4   7
ENDBRANCH   2   3
ENDBRANCH   1   2
BRANCH   1  28
ATOM     28  C   UNL     1       4.399   1.268  -3.221  1.00  0.00     0.002 C 
BRANCH  28  29
ATOM     29  C   UNL     1       5.668   1.972  -2.740  1.00  0.00     0.002 C 
BRANCH  29  30
ATOM     30  C   UNL     1       6.571   1.132  -1.831  1.00  0.00     0.021 C 
BRANCH  30  31
ATOM     31  C   UNL     1       6.936  -0.245  -2.382  1.00  0.00     0.116 C 
BRANCH  31  32
ATOM     32  N   UNL     1       7.639  -0.150  -3.650  1.00  0.00    -0.352 N 
ATOM     33  C   UNL     1       8.939  -0.463  -3.952  1.00  0.00     0.251 C 
ATOM     34  H   UNL     1       7.103   0.190  -4.403  1.00  0.00     0.163 HD
ATOM     35  O   UNL     1       9.440  -0.086  -5.005  1.00  0.00    -0.269 OA
BRANCH  33  36
ATOM     36  C   UNL     1       9.742  -1.254  -2.997  1.00  0.00     0.039 A 
ATOM     37  C   UNL     1      11.051  -0.854  -2.722  1.00  0.00     0.014 A 
ATOM     38  C   UNL     1       9.212  -2.399  -2.396  1.00  0.00     0.014 A 
ATOM     39  C   UNL     1      11.813  -1.575  -1.802  1.00  0.00     0.010 A 
ATOM     40  C   UNL     1       9.946  -3.073  -1.425  1.00  0.00     0.010 A 
ATOM     41  C   UNL     1      11.257  -2.673  -1.125  1.00  0.00    -0.014 A 
BRANCH  41  42
ATOM     42  C   UNL     1      12.036  -3.415  -0.102  1.00  0.00     0.031 A 
ATOM     43  C   UNL     1      12.397  -4.857  -0.326  1.00  0.00     0.074 A 
ATOM     44  C   UNL     1      12.368  -2.805   1.051  1.00  0.00     0.049 A 
ATOM     45  N   UNL     1      13.025  -5.687   0.469  1.00  0.00    -0.248 NA
ATOM     46  C   UNL     1      11.975  -5.454  -1.602  1.00  0.00     0.031 C 
ATOM     47  C   UNL     1      12.035  -1.423   1.402  1.00  0.00     0.029 A 
ATOM     48  N   UNL     1      13.054  -3.269   2.146  1.00  0.00    -0.354 N 
ATOM     49  C   UNL     1      13.063  -6.900  -0.205  1.00  0.00     0.074 A 
ATOM     50  C   UNL     1      12.345  -6.717  -1.447  1.00  0.00     0.031 C 
ATOM     51  C   UNL     1      12.538  -1.145   2.615  1.00  0.00     0.029 A 
ATOM     52  C   UNL     1      13.192  -2.337   3.144  1.00  0.00     0.049 A 
ATOM     53  H   UNL     1      13.413  -4.184   2.209  1.00  0.00     0.167 HD
ATOM     54  C   UNL     1      13.665  -8.055   0.168  1.00  0.00     0.037 A 
ATOM     55  C   UNL     1      13.774  -2.436   4.355  1.00  0.00     0.037 A 
ATOM     56  C   UNL     1      14.393  -8.226   1.398  1.00  0.00     0.049 A 
ATOM     57  C   UNL     1      14.416  -3.738   4.753  1.00  0.00     0.074 A 
ATOM     58  C   UNL     1      15.087  -9.338   1.843  1.00  0.00     0.029 A 
ATOM     59  N   UNL     1      14.515  -7.258   2.385  1.00  0.00    -0.354 N 
ATOM     60  N   UNL     1      14.509  -4.857   4.078  1.00  0.00    -0.248 NA
ATOM     61  C   UNL     1      15.040  -3.787   6.083  1.00  0.00     0.031 C 
ATOM     62  C   UNL     1      15.581  -9.061   3.123  1.00  0.00     0.029 A 
ATOM     63  C   UNL     1      15.248  -7.757   3.450  1.00  0.00     0.049 A 
ATOM     64  H   UNL     1      14.137  -6.350   2.335  1.00  0.00     0.167 HD
ATOM     65  C   UNL     1      15.223  -5.733   4.885  1.00  0.00     0.074 A 
ATOM     66  C   UNL     1      15.555  -5.008   6.094  1.00  0.00     0.031 C 
ATOM     67  C   UNL     1      15.572  -7.021   4.646  1.00  0.00     0.037 A 
BRANCH  54  68
ATOM     68  C   UNL     1      13.560  -9.227  -0.767  1.00  0.00     0.064 A 
ATOM     69  C   UNL     1      14.209  -9.238  -2.011  1.00  0.00     0.173 A 
ATOM     70  C   UNL     1      12.827 -10.366  -0.402  1.00  0.00     0.173 A 
ATOM     71  F   UNL     1      14.915  -8.171  -2.415  1.00  0.00    -0.203 F 
ATOM     72  C   UNL     1      14.101 -10.331  -2.868  1.00  0.00     0.198 A 
ATOM     73  C   UNL     1      12.749 -11.471  -1.246  1.00  0.00     0.198 A 
ATOM     74  F   UNL     1      12.192 -10.413   0.779  1.00  0.00    -0.203 F 
ATOM     75  F   UNL     1      14.685 -10.295  -4.074  1.00  0.00    -0.200 F 
ATOM     76  C   UNL     1      13.378 -11.449  -2.482  1.00  0.00     0.200 A 
ATOM     77  F   UNL     1      12.062 -12.557  -0.865  1.00  0.00    -0.200 F 
ATOM     78  F   UNL     1      13.280 -12.502  -3.304  1.00  0.00    -0.200 F 
ENDBRANCH  54  68
BRANCH  55  79
ATOM     79  C   UNL     1      13.794  -1.263   5.268  1.00  0.00     0.064 A 
ATOM     80  C   UNL     1      14.995  -0.606   5.569  1.00  0.00     0.173 A 
ATOM     81  C   UNL     1      12.620  -0.778   5.861  1.00  0.00     0.173 A 
ATOM     82  F   UNL     1      16.148  -1.045   5.043  1.00  0.00    -0.203 F 
ATOM     83  C   UNL     1      15.024   0.477   6.445  1.00  0.00     0.198 A 
ATOM     84  C   UNL     1      12.645   0.324   6.712  1.00  0.00     0.198 A 
ATOM     85  F   UNL     1      11.443  -1.368   5.602  1.00  0.00    -0.203 F 
ATOM     86  F   UNL     1      16.193   1.055   6.753  1.00  0.00    -0.200 F 
ATOM     87  C   UNL     1      13.848   0.945   7.011  1.00  0.00     0.200 A 
ATOM     88  F   UNL     1      11.504   0.783   7.245  1.00  0.00    -0.200 F 
ATOM     89  F   UNL     1      13.875   1.989   7.850  1.00  0.00    -0.200 F 
ENDBRANCH  55  79
BRANCH  67  90
ATOM     90  C   UNL     1      16.381  -7.721   5.701  1.00  0.00     0.064 A 
ATOM     91  C   UNL     1      15.823  -8.091   6.934  1.00  0.00     0.173 A 
ATOM     92  C   UNL     1      17.721  -8.061   5.459  1.00  0.00     0.173 A 
ATOM     93  F   UNL     1      14.550  -7.777   7.221  1.00  0.00    -0.203 F 
ATOM     94  C   UNL     1      16.584  -8.750   7.896  1.00  0.00     0.198 A 
ATOM     95  C   UNL     1      18.469  -8.749   6.409  1.00  0.00     0.198 A 
ATOM     96  F   UNL     1      18.301  -7.737   4.294  1.00  0.00    -0.203 F 
ATOM     97  F   UNL     1      16.045  -9.047   9.086  1.00  0.00    -0.200 F 
ATOM     98  C   UNL     1      17.904  -9.085   7.630  1.00  0.00     0.200 A 
ATOM     99  F   UNL     1      19.739  -9.087   6.144  1.00  0.00    -0.200 F 
ATOM    100  F   UNL     1      18.632  -9.727   8.553  1.00  0.00    -0.200 F 
ENDBRANCH  67  90
ENDBRANCH  41  42
ENDBRANCH  33  36
ENDBRANCH  31  32
ENDBRANCH  30  31
ENDBRANCH  29  30
ENDBRANCH  28  29
ENDBRANCH   1  28
TORSDOF 17
