REMARK SMILES Cc1cc(CS(=O)(=O)N[C@@H]2C=C[C@H](C(=O)NCCCCCCNC(=O)c3ccc(-c4c5nc(c(-c6c(F)c(F)c(F)c(F)c6F)c6ccc([nH]6)c(-c6c(F)c(F)c(F)c(F)c6F)c6nc(c(-c7c(F)c(F)c(F)c(F)c7F)c7ccc4[nH]7)C=C6)C=C5)cc3)C2)no1
REMARK SMILES IDX 18 1 17 2 16 3 14 4 15 5 13 7 10 8 11 9 89 10 12 11 9 12
REMARK SMILES IDX 6 14 7 15 8 16 5 17 4 18 1 19 2 20 3 21 91 22 90 23 19 24
REMARK SMILES IDX 20 25 21 26 22 27 23 28 24 29 25 31 26 32 27 33 88 34 28 35
REMARK SMILES IDX 87 36 29 37 30 38 31 39 81 40 32 41 86 42 80 43 82 44 33 45
REMARK SMILES IDX 85 46 79 47 78 48 34 50 66 51 46 52 65 53 47 54 50 55 64 56
REMARK SMILES IDX 83 57 48 58 49 59 63 61 84 62 51 63 35 64 36 65 44 66 37 67
REMARK SMILES IDX 38 68 42 69 45 70 39 71 40 72 43 73 41 74 67 75 68 76 76 77
REMARK SMILES IDX 69 78 70 79 74 80 77 81 71 82 72 83 75 84 73 85 52 86 53 87
REMARK SMILES IDX 61 88 54 89 55 90 59 91 62 92 56 93 57 94 60 95 58 96
REMARK H PARENT 16 6 9 13 23 30 82 49 50 60
REMARK Flexibility Score: inf
ROOT
ATOM      1  C   UNL     1       2.092   3.546   3.945  1.00  0.00     0.021 C 
ENDROOT
BRANCH   1   2
ATOM      2  C   UNL     1       1.501   2.336   3.219  1.00  0.00     0.116 C 
BRANCH   2   3
ATOM      3  N   UNL     1       2.092   1.102   3.707  1.00  0.00    -0.356 N 
ATOM      4  C   UNL     1       1.648   0.085   4.486  1.00  0.00     0.226 C 
ATOM      5  O   UNL     1       2.497  -0.754   4.814  1.00  0.00    -0.274 OA
ATOM      6  H   UNL     1       3.020   0.976   3.404  1.00  0.00     0.163 HD
BRANCH   4   7
ATOM      7  C   UNL     1       0.190  -0.137   4.909  1.00  0.00     0.103 C 
ATOM      8  C   UNL     1      -1.549  -0.785   3.266  1.00  0.00     0.093 C 
ATOM      9  C   UNL     1      -1.660   0.632   3.717  1.00  0.00    -0.011 C 
ATOM     10  C   UNL     1      -0.397  -1.327   4.116  1.00  0.00     0.042 C 
ATOM     11  C   UNL     1      -0.790   0.953   4.674  1.00  0.00    -0.016 C 
BRANCH   8  12
ATOM     12  N   UNL     1      -1.264  -0.766   1.829  1.00  0.00    -0.208 NA
ATOM     13  H   UNL     1      -1.332   0.203   1.519  1.00  0.00     0.141 HD
BRANCH  12  14
ATOM     14  S   UNL     1      -2.251  -1.688   0.816  1.00  0.00     0.218 S 
ATOM     15  O   UNL     1      -2.506  -2.947   1.475  1.00  0.00    -0.212 OA
ATOM     16  O   UNL     1      -1.556  -1.672  -0.459  1.00  0.00    -0.212 OA
BRANCH  14  17
ATOM     17  C   UNL     1      -3.774  -0.728   0.598  1.00  0.00     0.213 C 
BRANCH  17  18
ATOM     18  C   UNL     1      -4.472  -0.377   1.857  1.00  0.00     0.100 A 
ATOM     19  C   UNL     1      -5.276   1.491   4.896  1.00  0.00     0.091 C 
ATOM     20  C   UNL     1      -5.117   0.664   3.686  1.00  0.00     0.133 A 
ATOM     21  C   UNL     1      -4.698   0.913   2.401  1.00  0.00     0.073 A 
ATOM     22  O   UNL     1      -5.322  -0.671   3.835  1.00  0.00    -0.361 OA
ATOM     23  N   UNL     1      -4.960  -1.323   2.670  1.00  0.00    -0.084 NA
ENDBRANCH  17  18
ENDBRANCH  14  17
ENDBRANCH  12  14
ENDBRANCH   8  12
ENDBRANCH   4   7
ENDBRANCH   2   3
ENDBRANCH   1   2
BRANCH   1  24
ATOM     24  C   UNL     1       3.525   3.873   3.511  1.00  0.00     0.002 C 
BRANCH  24  25
ATOM     25  C   UNL     1       3.696   4.144   2.011  1.00  0.00     0.002 C 
BRANCH  25  26
ATOM     26  C   UNL     1       2.772   5.224   1.442  1.00  0.00     0.021 C 
BRANCH  26  27
ATOM     27  C   UNL     1       2.935   6.592   2.094  1.00  0.00     0.116 C 
BRANCH  27  28
ATOM     28  N   UNL     1       4.270   7.131   1.892  1.00  0.00    -0.352 N 
ATOM     29  C   UNL     1       4.652   8.323   1.333  1.00  0.00     0.251 C 
ATOM     30  H   UNL     1       5.007   6.556   2.202  1.00  0.00     0.163 HD
ATOM     31  O   UNL     1       5.825   8.521   1.036  1.00  0.00    -0.269 OA
BRANCH  29  32
ATOM     32  C   UNL     1       3.640   9.368   1.075  1.00  0.00     0.039 A 
ATOM     33  C   UNL     1       3.675  10.058  -0.139  1.00  0.00     0.014 A 
ATOM     34  C   UNL     1       2.670   9.675   2.034  1.00  0.00     0.014 A 
ATOM     35  C   UNL     1       2.702  11.021  -0.413  1.00  0.00     0.010 A 
ATOM     36  C   UNL     1       1.657  10.578   1.728  1.00  0.00     0.010 A 
ATOM     37  C   UNL     1       1.667  11.265   0.504  1.00  0.00    -0.014 A 
BRANCH  37  38
ATOM     38  C   UNL     1       0.589  12.239   0.202  1.00  0.00     0.031 A 
ATOM     39  C   UNL     1       0.422  13.469   1.050  1.00  0.00     0.074 A 
ATOM     40  C   UNL     1      -0.278  11.982  -0.795  1.00  0.00     0.049 A 
ATOM     41  N   UNL     1      -0.496  14.400   0.987  1.00  0.00    -0.248 NA
ATOM     42  C   UNL     1       1.399  13.662   2.132  1.00  0.00     0.031 C 
ATOM     43  C   UNL     1      -0.249  10.797  -1.654  1.00  0.00     0.029 A 
ATOM     44  N   UNL     1      -1.361  12.693  -1.247  1.00  0.00    -0.354 N 
ATOM     45  C   UNL     1      -0.213  15.280   2.023  1.00  0.00     0.074 A 
ATOM     46  C   UNL     1       0.922  14.739   2.738  1.00  0.00     0.031 C 
ATOM     47  C   UNL     1      -1.255  10.871  -2.540  1.00  0.00     0.029 A 
ATOM     48  C   UNL     1      -2.023  12.086  -2.286  1.00  0.00     0.049 A 
ATOM     49  H   UNL     1      -1.637  13.557  -0.863  1.00  0.00     0.167 HD
ATOM     50  C   UNL     1      -0.829  16.446   2.334  1.00  0.00     0.037 A 
ATOM     51  C   UNL     1      -3.133  12.461  -2.950  1.00  0.00     0.037 A 
ATOM     52  C   UNL     1      -1.949  16.986   1.608  1.00  0.00     0.049 A 
ATOM     53  C   UNL     1      -3.806  13.755  -2.579  1.00  0.00     0.074 A 
ATOM     54  C   UNL     1      -2.608  18.186   1.804  1.00  0.00     0.029 A 
ATOM     55  N   UNL     1      -2.582  16.352   0.548  1.00  0.00    -0.354 N 
ATOM     56  N   UNL     1      -3.485  14.617  -1.645  1.00  0.00    -0.248 NA
ATOM     57  C   UNL     1      -4.992  14.132  -3.361  1.00  0.00     0.031 C 
ATOM     58  C   UNL     1      -3.675  18.252   0.903  1.00  0.00     0.029 A 
ATOM     59  C   UNL     1      -3.643  17.123   0.100  1.00  0.00     0.049 A 
ATOM     60  H   UNL     1      -2.317  15.482   0.169  1.00  0.00     0.167 HD
ATOM     61  C   UNL     1      -4.409  15.649  -1.744  1.00  0.00     0.074 A 
ATOM     62  C   UNL     1      -5.293  15.313  -2.840  1.00  0.00     0.031 C 
ATOM     63  C   UNL     1      -4.515  16.774  -0.994  1.00  0.00     0.037 A 
BRANCH  50  64
ATOM     64  C   UNL     1      -0.305  17.213   3.515  1.00  0.00     0.064 A 
ATOM     65  C   UNL     1       0.962  17.818   3.501  1.00  0.00     0.173 A 
ATOM     66  C   UNL     1      -1.088  17.366   4.670  1.00  0.00     0.173 A 
ATOM     67  F   UNL     1       1.757  17.696   2.428  1.00  0.00    -0.203 F 
ATOM     68  C   UNL     1       1.440  18.511   4.611  1.00  0.00     0.198 A 
ATOM     69  C   UNL     1      -0.622  18.090   5.764  1.00  0.00     0.198 A 
ATOM     70  F   UNL     1      -2.309  16.815   4.737  1.00  0.00    -0.203 F 
ATOM     71  F   UNL     1       2.677  19.026   4.595  1.00  0.00    -0.200 F 
ATOM     72  C   UNL     1       0.645  18.652   5.738  1.00  0.00     0.200 A 
ATOM     73  F   UNL     1      -1.397  18.238   6.847  1.00  0.00    -0.200 F 
ATOM     74  F   UNL     1       1.105  19.323   6.804  1.00  0.00    -0.200 F 
ENDBRANCH  50  64
BRANCH  51  75
ATOM     75  C   UNL     1      -3.665  11.605  -4.043  1.00  0.00     0.064 A 
ATOM     76  C   UNL     1      -3.619  12.024  -5.379  1.00  0.00     0.173 A 
ATOM     77  C   UNL     1      -4.228  10.348  -3.773  1.00  0.00     0.173 A 
ATOM     78  F   UNL     1      -3.107  13.226  -5.686  1.00  0.00    -0.203 F 
ATOM     79  C   UNL     1      -4.134  11.230  -6.402  1.00  0.00     0.198 A 
ATOM     80  C   UNL     1      -4.713   9.541  -4.799  1.00  0.00     0.198 A 
ATOM     81  F   UNL     1      -4.290   9.896  -2.512  1.00  0.00    -0.203 F 
ATOM     82  F   UNL     1      -4.119  11.675  -7.665  1.00  0.00    -0.200 F 
ATOM     83  C   UNL     1      -4.674   9.986  -6.112  1.00  0.00     0.200 A 
ATOM     84  F   UNL     1      -5.217   8.332  -4.516  1.00  0.00    -0.200 F 
ATOM     85  F   UNL     1      -5.163   9.219  -7.096  1.00  0.00    -0.200 F 
ENDBRANCH  51  75
BRANCH  63  86
ATOM     86  C   UNL     1      -5.606  17.742  -1.354  1.00  0.00     0.064 A 
ATOM     87  C   UNL     1      -6.959  17.449  -1.125  1.00  0.00     0.173 A 
ATOM     88  C   UNL     1      -5.290  18.996  -1.899  1.00  0.00     0.173 A 
ATOM     89  F   UNL     1      -7.316  16.259  -0.619  1.00  0.00    -0.203 F 
ATOM     90  C   UNL     1      -7.955  18.364  -1.454  1.00  0.00     0.198 A 
ATOM     91  C   UNL     1      -6.286  19.922  -2.195  1.00  0.00     0.198 A 
ATOM     92  F   UNL     1      -4.012  19.330  -2.132  1.00  0.00    -0.203 F 
ATOM     93  F   UNL     1      -9.244  18.042  -1.275  1.00  0.00    -0.200 F 
ATOM     94  C   UNL     1      -7.618  19.602  -1.980  1.00  0.00     0.200 A 
ATOM     95  F   UNL     1      -5.957  21.124  -2.688  1.00  0.00    -0.200 F 
ATOM     96  F   UNL     1      -8.578  20.485  -2.288  1.00  0.00    -0.200 F 
ENDBRANCH  63  86
ENDBRANCH  37  38
ENDBRANCH  29  32
ENDBRANCH  27  28
ENDBRANCH  26  27
ENDBRANCH  25  26
ENDBRANCH  24  25
ENDBRANCH   1  24
TORSDOF 17
