REMARK SMILES O=C(NCCCCCCNC(=O)C1(NC(=O)c2ccncc2Cl)CCCCC1)c1ccc(-c2c3nc(c(-c4c(F)c(F)c(F)c(F)c4F)c4ccc([nH]4)c(-c4c(F)c(F)c(F)c(F)c4F)c4nc(c(-c5c(F)c(F)c(F)c(F)c5F)c5ccc2[nH]5)C=C4)C=C3)cc1
REMARK SMILES IDX 6 1 5 2 4 3 3 4 1 5 2 6 29 8 30 9 91 10 31 11 90 12 32 13
REMARK SMILES IDX 33 14 34 15 84 16 35 17 89 18 83 19 85 20 36 21 88 22 82 23
REMARK SMILES IDX 81 24 37 26 69 27 49 28 68 29 50 30 53 31 67 32 86 33 51 34
REMARK SMILES IDX 52 35 66 37 87 38 54 39 38 40 39 41 47 42 40 43 41 44 45 45
REMARK SMILES IDX 48 46 42 47 43 48 46 49 44 50 70 51 71 52 79 53 72 54 73 55
REMARK SMILES IDX 77 56 80 57 74 58 75 59 78 60 76 61 55 62 56 63 64 64 57 65
REMARK SMILES IDX 58 66 62 67 65 68 59 69 60 70 63 71 61 72 7 73 8 74 9 75
REMARK SMILES IDX 10 76 11 77 12 79 13 80 24 81 28 82 25 83 27 84 26 85 14 86
REMARK SMILES IDX 15 87 16 89 17 90 18 91 22 92 19 93 21 94 23 95 20 96
REMARK H PARENT 3 7 85 25 53 36 10 78 14 88
REMARK Flexibility Score: inf
ROOT
ATOM      1  C   UNL     1       3.822  -3.672  -0.668  1.00  0.00     0.002 C 
ENDROOT
BRANCH   1   2
ATOM      2  C   UNL     1       4.240  -2.544   0.277  1.00  0.00     0.021 C 
BRANCH   2   3
ATOM      3  C   UNL     1       4.150  -1.144  -0.314  1.00  0.00     0.116 C 
BRANCH   3   4
ATOM      4  N   UNL     1       2.783  -0.734  -0.576  1.00  0.00    -0.352 N 
ATOM      5  O   UNL     1       0.917   0.512  -0.312  1.00  0.00    -0.269 OA
ATOM      6  C   UNL     1       2.117   0.383  -0.128  1.00  0.00     0.251 C 
ATOM      7  H   UNL     1       2.261  -1.338  -1.153  1.00  0.00     0.163 HD
BRANCH   6   8
ATOM      8  C   UNL     1       2.870   1.419   0.613  1.00  0.00     0.039 A 
ATOM      9  C   UNL     1       4.090   1.896   0.128  1.00  0.00     0.014 A 
ATOM     10  C   UNL     1       2.354   1.898   1.820  1.00  0.00     0.014 A 
ATOM     11  C   UNL     1       4.863   2.738   0.919  1.00  0.00     0.010 A 
ATOM     12  C   UNL     1       3.095   2.811   2.574  1.00  0.00     0.010 A 
ATOM     13  C   UNL     1       4.372   3.210   2.149  1.00  0.00    -0.014 A 
BRANCH  13  14
ATOM     14  C   UNL     1       5.200   4.145   2.952  1.00  0.00     0.031 A 
ATOM     15  C   UNL     1       5.731   3.750   4.302  1.00  0.00     0.074 A 
ATOM     16  C   UNL     1       5.496   5.353   2.437  1.00  0.00     0.049 A 
ATOM     17  N   UNL     1       6.492   4.432   5.122  1.00  0.00    -0.248 NA
ATOM     18  C   UNL     1       5.354   2.420   4.804  1.00  0.00     0.031 C 
ATOM     19  C   UNL     1       5.027   5.852   1.143  1.00  0.00     0.029 A 
ATOM     20  N   UNL     1       6.275   6.371   2.923  1.00  0.00    -0.354 N 
ATOM     21  C   UNL     1       6.659   3.631   6.244  1.00  0.00     0.074 A 
ATOM     22  C   UNL     1       5.905   2.418   6.010  1.00  0.00     0.031 C 
ATOM     23  C   UNL     1       5.569   7.057   0.913  1.00  0.00     0.029 A 
ATOM     24  C   UNL     1       6.375   7.440   2.067  1.00  0.00     0.049 A 
ATOM     25  H   UNL     1       6.719   6.340   3.801  1.00  0.00     0.167 HD
ATOM     26  C   UNL     1       7.381   3.885   7.363  1.00  0.00     0.037 A 
ATOM     27  C   UNL     1       7.039   8.603   2.197  1.00  0.00     0.037 A 
ATOM     28  C   UNL     1       8.152   5.083   7.578  1.00  0.00     0.049 A 
ATOM     29  C   UNL     1       7.831   8.854   3.448  1.00  0.00     0.074 A 
ATOM     30  C   UNL     1       8.953   5.413   8.658  1.00  0.00     0.029 A 
ATOM     31  N   UNL     1       8.216   6.151   6.695  1.00  0.00    -0.354 N 
ATOM     32  N   UNL     1       8.014   8.072   4.483  1.00  0.00    -0.248 NA
ATOM     33  C   UNL     1       8.510  10.153   3.546  1.00  0.00     0.031 C 
ATOM     34  C   UNL     1       9.466   6.698   8.448  1.00  0.00     0.029 A 
ATOM     35  C   UNL     1       9.027   7.149   7.214  1.00  0.00     0.049 A 
ATOM     36  H   UNL     1       7.753   6.195   5.827  1.00  0.00     0.167 HD
ATOM     37  C   UNL     1       8.849   8.769   5.344  1.00  0.00     0.074 A 
ATOM     38  C   UNL     1       9.148  10.033   4.702  1.00  0.00     0.031 C 
ATOM     39  C   UNL     1       9.324   8.396   6.557  1.00  0.00     0.037 A 
BRANCH  26  40
ATOM     40  C   UNL     1       7.358   2.855   8.457  1.00  0.00     0.064 A 
ATOM     41  C   UNL     1       8.017   1.623   8.328  1.00  0.00     0.173 A 
ATOM     42  C   UNL     1       6.701   3.123   9.668  1.00  0.00     0.173 A 
ATOM     43  F   UNL     1       8.650   1.311   7.188  1.00  0.00    -0.203 F 
ATOM     44  C   UNL     1       7.996   0.688   9.361  1.00  0.00     0.198 A 
ATOM     45  C   UNL     1       6.706   2.198  10.708  1.00  0.00     0.198 A 
ATOM     46  F   UNL     1       6.062   4.289   9.846  1.00  0.00    -0.203 F 
ATOM     47  F   UNL     1       8.594  -0.501   9.198  1.00  0.00    -0.200 F 
ATOM     48  C   UNL     1       7.347   0.978  10.552  1.00  0.00     0.200 A 
ATOM     49  F   UNL     1       6.088   2.486  11.863  1.00  0.00    -0.200 F 
ATOM     50  F   UNL     1       7.333   0.080  11.546  1.00  0.00    -0.200 F 
ENDBRANCH  26  40
BRANCH  27  51
ATOM     51  C   UNL     1       6.996   9.602   1.101  1.00  0.00     0.064 A 
ATOM     52  C   UNL     1       8.135   9.870   0.329  1.00  0.00     0.173 A 
ATOM     53  C   UNL     1       5.818  10.296   0.791  1.00  0.00     0.173 A 
ATOM     54  F   UNL     1       9.290   9.244   0.599  1.00  0.00    -0.203 F 
ATOM     55  C   UNL     1       8.100  10.806  -0.703  1.00  0.00     0.198 A 
ATOM     56  C   UNL     1       5.776  11.210  -0.259  1.00  0.00     0.198 A 
ATOM     57  F   UNL     1       4.700  10.069   1.496  1.00  0.00    -0.203 F 
ATOM     58  F   UNL     1       9.212  11.072  -1.400  1.00  0.00    -0.200 F 
ATOM     59  C   UNL     1       6.919  11.469  -1.000  1.00  0.00     0.200 A 
ATOM     60  F   UNL     1       4.629  11.836  -0.555  1.00  0.00    -0.200 F 
ATOM     61  F   UNL     1       6.884  12.362  -1.999  1.00  0.00    -0.200 F 
ENDBRANCH  27  51
BRANCH  39  62
ATOM     62  C   UNL     1      10.255   9.350   7.246  1.00  0.00     0.064 A 
ATOM     63  C   UNL     1       9.800  10.552   7.806  1.00  0.00     0.173 A 
ATOM     64  C   UNL     1      11.621   9.046   7.358  1.00  0.00     0.173 A 
ATOM     65  F   UNL     1       8.507  10.894   7.709  1.00  0.00    -0.203 F 
ATOM     66  C   UNL     1      10.683  11.430   8.428  1.00  0.00     0.198 A 
ATOM     67  C   UNL     1      12.496   9.913   8.006  1.00  0.00     0.198 A 
ATOM     68  F   UNL     1      12.105   7.906   6.843  1.00  0.00    -0.203 F 
ATOM     69  F   UNL     1      10.236  12.599   8.908  1.00  0.00    -0.200 F 
ATOM     70  C   UNL     1      12.029  11.108   8.532  1.00  0.00     0.200 A 
ATOM     71  F   UNL     1      13.793   9.595   8.115  1.00  0.00    -0.200 F 
ATOM     72  F   UNL     1      12.877  11.955   9.130  1.00  0.00    -0.200 F 
ENDBRANCH  39  62
ENDBRANCH  13  14
ENDBRANCH   6   8
ENDBRANCH   3   4
ENDBRANCH   2   3
ENDBRANCH   1   2
BRANCH   1  73
ATOM     73  C   UNL     1       4.529  -3.689  -2.027  1.00  0.00     0.002 C 
BRANCH  73  74
ATOM     74  C   UNL     1       6.051  -3.541  -1.977  1.00  0.00     0.021 C 
BRANCH  74  75
ATOM     75  C   UNL     1       6.772  -4.609  -1.169  1.00  0.00     0.116 C 
BRANCH  75  76
ATOM     76  N   UNL     1       6.692  -5.922  -1.777  1.00  0.00    -0.354 N 
ATOM     77  C   UNL     1       7.590  -6.857  -2.169  1.00  0.00     0.245 C 
ATOM     78  H   UNL     1       5.763  -6.201  -1.944  1.00  0.00     0.163 HD
ATOM     79  O   UNL     1       7.084  -7.975  -2.364  1.00  0.00    -0.272 OA
BRANCH  77  80
ATOM     80  C   UNL     1       9.117  -6.646  -2.484  1.00  0.00     0.119 C 
ATOM     81  C   UNL     1       9.719  -5.356  -1.893  1.00  0.00     0.038 C 
ATOM     82  C   UNL     1       9.812  -7.868  -1.804  1.00  0.00     0.038 C 
ATOM     83  C   UNL     1      11.245  -5.293  -1.890  1.00  0.00     0.003 C 
ATOM     84  C   UNL     1      11.337  -7.785  -1.706  1.00  0.00     0.003 C 
ATOM     85  C   UNL     1      11.813  -6.468  -1.111  1.00  0.00     0.000 C 
BRANCH  80  86
ATOM     86  N   UNL     1       9.454  -6.658  -3.944  1.00  0.00    -0.338 N 
ATOM     87  C   UNL     1       8.847  -7.173  -5.059  1.00  0.00     0.253 C 
ATOM     88  H   UNL     1      10.298  -6.193  -4.147  1.00  0.00     0.164 HD
ATOM     89  O   UNL     1       9.529  -7.499  -6.028  1.00  0.00    -0.269 OA
BRANCH  87  90
ATOM     90  C   UNL     1       7.390  -7.239  -5.188  1.00  0.00     0.061 A 
ATOM     91  C   UNL     1       6.792  -8.494  -5.303  1.00  0.00     0.035 A 
ATOM     92  C   UNL     1       6.621  -6.084  -5.302  1.00  0.00     0.072 A 
ATOM     93  C   UNL     1       5.415  -8.544  -5.424  1.00  0.00     0.112 A 
ATOM     94  C   UNL     1       5.249  -6.245  -5.413  1.00  0.00     0.132 A 
ATOM     95  Cl  UNL     1       7.299  -4.505  -5.396  1.00  0.00    -0.082 Cl
ATOM     96  N   UNL     1       4.625  -7.447  -5.462  1.00  0.00    -0.263 NA
ENDBRANCH  87  90
ENDBRANCH  80  86
ENDBRANCH  77  80
ENDBRANCH  75  76
ENDBRANCH  74  75
ENDBRANCH  73  74
ENDBRANCH   1  73
TORSDOF 15
