REMARK SMILES Cc1ccccc1OCC(=O)N[C@@H](Cc1c[nH]c2ccccc12)C(=O)NCCCCCCNC(=O)c1ccc(-c2c3nc(c(-c4c(F)c(F)c(F)c(F)c4F)c4ccc([nH]4)c(-c4c(F)c(F)c(F)c(F)c4F)c4nc(c(-c5c(F)c(F)c(F)c(F)c5F)c5ccc2[nH]5)C=C4)C=C3)cc1
REMARK SMILES IDX 28 1 27 2 26 3 24 4 25 5 13 7 12 8 10 9 11 10 9 12 8 13 7 14
REMARK SMILES IDX 1 15 2 16 3 17 4 18 6 19 5 20 14 21 15 22 16 23 23 24 17 25
REMARK SMILES IDX 18 26 22 27 19 29 21 30 20 31 29 32 30 33 31 34 32 35 33 36
REMARK SMILES IDX 34 37 35 39 36 40 37 41 98 42 38 43 97 44 39 45 40 46 41 47
REMARK SMILES IDX 91 48 42 49 96 50 90 51 92 52 43 53 95 54 89 55 88 56 44 58
REMARK SMILES IDX 76 59 56 60 75 61 57 62 60 63 74 64 93 65 58 66 59 67 73 69
REMARK SMILES IDX 94 70 61 71 45 72 46 73 54 74 47 75 48 76 52 77 55 78 49 79
REMARK SMILES IDX 50 80 53 81 51 82 77 83 78 84 86 85 79 86 80 87 84 88 87 89
REMARK SMILES IDX 81 90 82 91 85 92 83 93 62 94 63 95 71 96 64 97 65 98 69 99
REMARK SMILES IDX 72 100 66 101 67 102 70 103 68 104
REMARK H PARENT 26 6 12 11 17 28 33 38 92 57 60 68
REMARK Flexibility Score: inf
ROOT
ATOM      1  C   UNL     1       4.630   2.718   6.003  1.00  0.00     0.021 C 
ENDROOT
BRANCH   1   2
ATOM      2  C   UNL     1       3.274   3.066   5.396  1.00  0.00     0.116 C 
BRANCH   2   3
ATOM      3  N   UNL     1       3.272   4.169   4.461  1.00  0.00    -0.354 N 
ATOM      4  C   UNL     1       2.360   4.454   3.479  1.00  0.00     0.242 C 
ATOM      5  O   UNL     1       2.210   5.648   3.194  1.00  0.00    -0.273 OA
ATOM      6  H   UNL     1       4.024   4.798   4.541  1.00  0.00     0.163 HD
BRANCH   4   7
ATOM      7  C   UNL     1       1.481   3.380   2.779  1.00  0.00     0.175 C 
BRANCH   7   8
ATOM      8  N   UNL     1       2.236   2.163   2.485  1.00  0.00    -0.341 N 
ATOM      9  C   UNL     1       2.928   1.895   1.341  1.00  0.00     0.258 C 
ATOM     10  O   UNL     1       3.931   1.183   1.418  1.00  0.00    -0.271 OA
ATOM     11  H   UNL     1       2.245   1.468   3.182  1.00  0.00     0.164 HD
BRANCH   9  12
ATOM     12  C   UNL     1       2.445   2.474   0.008  1.00  0.00     0.329 C 
BRANCH  12  13
ATOM     13  O   UNL     1       1.092   2.289  -0.367  1.00  0.00    -0.484 OA
BRANCH  13  14
ATOM     14  C   UNL     1       0.466   1.081  -0.241  1.00  0.00     0.122 A 
ATOM     15  C   UNL     1       2.420  -0.585  -0.605  1.00  0.00     0.048 C 
ATOM     16  C   UNL     1       0.993  -0.217  -0.319  1.00  0.00    -0.009 A 
ATOM     17  C   UNL     1       0.121  -1.312  -0.117  1.00  0.00     0.007 A 
ATOM     18  C   UNL     1      -1.246  -1.136   0.086  1.00  0.00     0.001 A 
ATOM     19  C   UNL     1      -0.921   1.239  -0.063  1.00  0.00     0.047 A 
ATOM     20  C   UNL     1      -1.773   0.145   0.098  1.00  0.00     0.004 A 
ENDBRANCH  13  14
ENDBRANCH  12  13
ENDBRANCH   9  12
ENDBRANCH   7   8
BRANCH   7  21
ATOM     21  C   UNL     1       0.105   3.148   3.424  1.00  0.00     0.072 C 
BRANCH  21  22
ATOM     22  C   UNL     1       0.087   2.575   4.807  1.00  0.00    -0.020 A 
ATOM     23  C   UNL     1      -0.078   3.291   5.978  1.00  0.00     0.087 A 
ATOM     24  C   UNL     1       0.197   1.195   5.180  1.00  0.00     0.003 A 
ATOM     25  N   UNL     1      -0.014   2.420   7.031  1.00  0.00    -0.361 N 
ATOM     26  C   UNL     1       0.189   1.139   6.575  1.00  0.00     0.046 A 
ATOM     27  C   UNL     1       0.324  -0.011   4.461  1.00  0.00     0.010 A 
ATOM     28  H   UNL     1      -0.100   2.674   7.978  1.00  0.00     0.166 HD
ATOM     29  C   UNL     1       0.351  -0.055   7.288  1.00  0.00     0.026 A 
ATOM     30  C   UNL     1       0.466  -1.217   5.159  1.00  0.00     0.001 A 
ATOM     31  C   UNL     1       0.491  -1.234   6.551  1.00  0.00     0.002 A 
ENDBRANCH  21  22
ENDBRANCH   7  21
ENDBRANCH   4   7
ENDBRANCH   2   3
ENDBRANCH   1   2
BRANCH   1  32
ATOM     32  C   UNL     1       5.143   3.652   7.105  1.00  0.00     0.002 C 
BRANCH  32  33
ATOM     33  C   UNL     1       4.162   4.059   8.219  1.00  0.00     0.002 C 
BRANCH  33  34
ATOM     34  C   UNL     1       3.292   2.961   8.838  1.00  0.00     0.021 C 
BRANCH  34  35
ATOM     35  C   UNL     1       4.049   1.883   9.595  1.00  0.00     0.116 C 
BRANCH  35  36
ATOM     36  N   UNL     1       3.991   2.009  11.047  1.00  0.00    -0.352 N 
ATOM     37  C   UNL     1       4.635   1.232  11.998  1.00  0.00     0.251 C 
ATOM     38  H   UNL     1       3.424   2.736  11.394  1.00  0.00     0.163 HD
ATOM     39  O   UNL     1       4.495   1.441  13.188  1.00  0.00    -0.269 OA
BRANCH  37  40
ATOM     40  C   UNL     1       5.601   0.215  11.519  1.00  0.00     0.039 A 
ATOM     41  C   UNL     1       6.929   0.333  11.938  1.00  0.00     0.014 A 
ATOM     42  C   UNL     1       5.252  -0.650  10.484  1.00  0.00     0.014 A 
ATOM     43  C   UNL     1       7.934  -0.225  11.154  1.00  0.00     0.010 A 
ATOM     44  C   UNL     1       6.251  -1.129   9.657  1.00  0.00     0.010 A 
ATOM     45  C   UNL     1       7.589  -0.855   9.955  1.00  0.00    -0.014 A 
BRANCH  45  46
ATOM     46  C   UNL     1       8.571  -1.125   8.911  1.00  0.00     0.031 A 
ATOM     47  C   UNL     1       9.100  -2.486   8.705  1.00  0.00     0.074 A 
ATOM     48  C   UNL     1       9.012  -0.116   8.125  1.00  0.00     0.049 A 
ATOM     49  N   UNL     1      10.310  -2.740   8.329  1.00  0.00    -0.248 NA
ATOM     50  C   UNL     1       8.301  -3.682   8.936  1.00  0.00     0.031 C 
ATOM     51  C   UNL     1       9.863  -0.230   6.944  1.00  0.00     0.029 A 
ATOM     52  N   UNL     1       8.936   1.266   8.373  1.00  0.00    -0.354 N 
ATOM     53  C   UNL     1      10.379  -4.079   8.023  1.00  0.00     0.074 A 
ATOM     54  C   UNL     1       9.122  -4.633   8.479  1.00  0.00     0.031 C 
ATOM     55  C   UNL     1      10.480   0.945   6.744  1.00  0.00     0.029 A 
ATOM     56  C   UNL     1      10.131   1.813   7.855  1.00  0.00     0.049 A 
ATOM     57  H   UNL     1       8.203   1.751   8.815  1.00  0.00     0.167 HD
ATOM     58  C   UNL     1      11.429  -4.556   7.292  1.00  0.00     0.037 A 
ATOM     59  C   UNL     1      11.022   2.477   8.644  1.00  0.00     0.037 A 
ATOM     60  C   UNL     1      12.354  -3.489   6.927  1.00  0.00     0.049 A 
ATOM     61  C   UNL     1      12.404   1.874   8.649  1.00  0.00     0.074 A 
ATOM     62  C   UNL     1      12.475  -2.728   5.775  1.00  0.00     0.029 A 
ATOM     63  N   UNL     1      13.118  -2.855   7.901  1.00  0.00    -0.354 N 
ATOM     64  N   UNL     1      12.660   0.650   8.281  1.00  0.00    -0.248 NA
ATOM     65  C   UNL     1      13.595   2.582   9.110  1.00  0.00     0.031 C 
ATOM     66  C   UNL     1      13.292  -1.613   6.066  1.00  0.00     0.029 A 
ATOM     67  C   UNL     1      13.679  -1.699   7.391  1.00  0.00     0.049 A 
ATOM     68  H   UNL     1      13.241  -3.182   8.821  1.00  0.00     0.167 HD
ATOM     69  C   UNL     1      13.993   0.389   8.470  1.00  0.00     0.074 A 
ATOM     70  C   UNL     1      14.539   1.635   8.971  1.00  0.00     0.031 C 
ATOM     71  C   UNL     1      14.525  -0.840   8.202  1.00  0.00     0.037 A 
BRANCH  58  72
ATOM     72  C   UNL     1      11.429  -5.919   6.636  1.00  0.00     0.064 A 
ATOM     73  C   UNL     1      12.043  -6.129   5.382  1.00  0.00     0.173 A 
ATOM     74  C   UNL     1      10.791  -7.050   7.176  1.00  0.00     0.173 A 
ATOM     75  F   UNL     1      12.801  -5.189   4.803  1.00  0.00    -0.203 F 
ATOM     76  C   UNL     1      11.899  -7.320   4.665  1.00  0.00     0.198 A 
ATOM     77  C   UNL     1      10.599  -8.223   6.438  1.00  0.00     0.198 A 
ATOM     78  F   UNL     1      10.370  -7.063   8.448  1.00  0.00    -0.203 F 
ATOM     79  F   UNL     1      12.489  -7.452   3.469  1.00  0.00    -0.200 F 
ATOM     80  C   UNL     1      11.138  -8.351   5.174  1.00  0.00     0.200 A 
ATOM     81  F   UNL     1       9.881  -9.228   6.961  1.00  0.00    -0.200 F 
ATOM     82  F   UNL     1      10.949  -9.470   4.462  1.00  0.00    -0.200 F 
ENDBRANCH  58  72
BRANCH  59  83
ATOM     83  C   UNL     1      10.394   3.173   9.795  1.00  0.00     0.064 A 
ATOM     84  C   UNL     1       9.502   4.229   9.530  1.00  0.00     0.173 A 
ATOM     85  C   UNL     1      10.369   2.607  11.074  1.00  0.00     0.173 A 
ATOM     86  F   UNL     1       9.487   4.805   8.316  1.00  0.00    -0.203 F 
ATOM     87  C   UNL     1       8.550   4.626  10.465  1.00  0.00     0.198 A 
ATOM     88  C   UNL     1       9.422   3.018  12.015  1.00  0.00     0.198 A 
ATOM     89  F   UNL     1      11.181   1.586  11.381  1.00  0.00    -0.203 F 
ATOM     90  F   UNL     1       7.645   5.560  10.142  1.00  0.00    -0.200 F 
ATOM     91  C   UNL     1       8.494   4.000  11.699  1.00  0.00     0.200 A 
ATOM     92  F   UNL     1       9.354   2.400  13.203  1.00  0.00    -0.200 F 
ATOM     93  F   UNL     1       7.524   4.319  12.567  1.00  0.00    -0.200 F 
ENDBRANCH  59  83
BRANCH  71  94
ATOM     94  C   UNL     1      15.915  -1.307   8.561  1.00  0.00     0.064 A 
ATOM     95  C   UNL     1      16.642  -0.830   9.663  1.00  0.00     0.173 A 
ATOM     96  C   UNL     1      16.513  -2.380   7.856  1.00  0.00     0.173 A 
ATOM     97  F   UNL     1      16.133   0.098  10.485  1.00  0.00    -0.203 F 
ATOM     98  C   UNL     1      17.902  -1.338   9.994  1.00  0.00     0.198 A 
ATOM     99  C   UNL     1      17.744  -2.922   8.222  1.00  0.00     0.198 A 
ATOM    100  F   UNL     1      15.909  -2.952   6.804  1.00  0.00    -0.203 F 
ATOM    101  F   UNL     1      18.575  -0.818  11.030  1.00  0.00    -0.200 F 
ATOM    102  C   UNL     1      18.448  -2.389   9.281  1.00  0.00     0.200 A 
ATOM    103  F   UNL     1      18.234  -3.975   7.553  1.00  0.00    -0.200 F 
ATOM    104  F   UNL     1      19.637  -2.900   9.628  1.00  0.00    -0.200 F 
ENDBRANCH  71  94
ENDBRANCH  45  46
ENDBRANCH  37  40
ENDBRANCH  35  36
ENDBRANCH  34  35
ENDBRANCH  33  34
ENDBRANCH  32  33
ENDBRANCH   1  32
TORSDOF 19
