REMARK SMILES O=C(NCCCCCCNC(=O)c1[nH]ncc1C[N@H+]1CCC[C@H](C(=O)c2ccc3ccccc3c2)C1)c1ccc(-c2c3nc(c(-c4c(F)c(F)c(F)c(F)c4F)c4ccc([nH]4)c(-c4c(F)c(F)c(F)c(F)c4F)c4nc(c(-c5c(F)c(F)c(F)c(F)c5F)c5ccc2[nH]5)C=C4)C=C3)cc1
REMARK SMILES IDX 7 1 6 2 5 3 4 4 3 5 1 6 2 7 37 9 38 10 99 11 39 12 98 13
REMARK SMILES IDX 40 14 41 15 42 16 92 17 43 18 97 19 91 20 93 21 44 22 96 23
REMARK SMILES IDX 90 24 89 25 45 27 77 28 57 29 76 30 58 31 61 32 75 33 94 34
REMARK SMILES IDX 59 35 60 36 74 38 95 39 62 40 46 41 47 42 55 43 48 44 49 45
REMARK SMILES IDX 53 46 56 47 50 48 51 49 54 50 52 51 78 52 79 53 87 54 80 55
REMARK SMILES IDX 81 56 85 57 88 58 82 59 83 60 86 61 84 62 63 63 64 64 72 65
REMARK SMILES IDX 65 66 66 67 70 68 73 69 67 70 68 71 71 72 69 73 8 74 9 75
REMARK SMILES IDX 10 76 11 77 12 79 13 80 14 81 17 82 15 83 16 85 18 86 19 87
REMARK SMILES IDX 20 88 36 89 21 91 23 92 22 93 24 94 25 95 26 96 27 97 35 98
REMARK SMILES IDX 28 99 34 100 29 101 33 102 30 103 32 104 31 105
REMARK H PARENT 3 8 93 26 61 37 10 78 14 84 19 90
REMARK Flexibility Score: inf
ROOT
ATOM      1  C   UNL     1       4.638  -3.723  -2.201  1.00  0.00     0.002 C 
ENDROOT
BRANCH   1   2
ATOM      2  C   UNL     1       3.979  -3.991  -0.844  1.00  0.00     0.002 C 
BRANCH   2   3
ATOM      3  C   UNL     1       4.376  -3.073   0.318  1.00  0.00     0.021 C 
BRANCH   3   4
ATOM      4  C   UNL     1       4.296  -1.571   0.058  1.00  0.00     0.116 C 
BRANCH   4   5
ATOM      5  N   UNL     1       2.963  -1.105  -0.271  1.00  0.00    -0.352 N 
ATOM      6  O   UNL     1       1.199   0.294  -0.290  1.00  0.00    -0.269 OA
ATOM      7  C   UNL     1       2.377   0.107   0.004  1.00  0.00     0.251 C 
ATOM      8  H   UNL     1       2.400  -1.746  -0.761  1.00  0.00     0.163 HD
BRANCH   7   9
ATOM      9  C   UNL     1       3.133   1.180   0.696  1.00  0.00     0.039 A 
ATOM     10  C   UNL     1       4.442   1.519   0.343  1.00  0.00     0.014 A 
ATOM     11  C   UNL     1       2.488   1.893   1.712  1.00  0.00     0.014 A 
ATOM     12  C   UNL     1       5.133   2.492   1.069  1.00  0.00     0.010 A 
ATOM     13  C   UNL     1       3.167   2.892   2.416  1.00  0.00     0.010 A 
ATOM     14  C   UNL     1       4.507   3.174   2.121  1.00  0.00    -0.014 A 
BRANCH  14  15
ATOM     15  C   UNL     1       5.269   4.171   2.908  1.00  0.00     0.031 A 
ATOM     16  C   UNL     1       5.798   3.820   4.269  1.00  0.00     0.074 A 
ATOM     17  C   UNL     1       5.518   5.386   2.387  1.00  0.00     0.049 A 
ATOM     18  N   UNL     1       6.553   4.531   5.069  1.00  0.00    -0.248 NA
ATOM     19  C   UNL     1       5.432   2.500   4.804  1.00  0.00     0.031 C 
ATOM     20  C   UNL     1       5.042   5.862   1.088  1.00  0.00     0.029 A 
ATOM     21  N   UNL     1       6.251   6.433   2.882  1.00  0.00    -0.354 N 
ATOM     22  C   UNL     1       6.735   3.757   6.205  1.00  0.00     0.074 A 
ATOM     23  C   UNL     1       6.013   2.518   5.997  1.00  0.00     0.031 C 
ATOM     24  C   UNL     1       5.525   7.097   0.871  1.00  0.00     0.029 A 
ATOM     25  C   UNL     1       6.338   7.495   2.019  1.00  0.00     0.049 A 
ATOM     26  H   UNL     1       6.673   6.424   3.772  1.00  0.00     0.167 HD
ATOM     27  C   UNL     1       7.442   4.050   7.322  1.00  0.00     0.037 A 
ATOM     28  C   UNL     1       7.016   8.651   2.134  1.00  0.00     0.037 A 
ATOM     29  C   UNL     1       8.188   5.259   7.536  1.00  0.00     0.049 A 
ATOM     30  C   UNL     1       7.838   8.929   3.356  1.00  0.00     0.074 A 
ATOM     31  C   UNL     1       8.955   5.621   8.632  1.00  0.00     0.029 A 
ATOM     32  N   UNL     1       8.265   6.302   6.629  1.00  0.00    -0.354 N 
ATOM     33  N   UNL     1       8.023   8.176   4.410  1.00  0.00    -0.248 NA
ATOM     34  C   UNL     1       8.551  10.215   3.396  1.00  0.00     0.031 C 
ATOM     35  C   UNL     1       9.498   6.889   8.385  1.00  0.00     0.029 A 
ATOM     36  C   UNL     1       9.068   7.309   7.137  1.00  0.00     0.049 A 
ATOM     37  H   UNL     1       7.815   6.325   5.754  1.00  0.00     0.167 HD
ATOM     38  C   UNL     1       8.877   8.888   5.237  1.00  0.00     0.074 A 
ATOM     39  C   UNL     1       9.178  10.134   4.563  1.00  0.00     0.031 C 
ATOM     40  C   UNL     1       9.365   8.535   6.450  1.00  0.00     0.037 A 
BRANCH  27  41
ATOM     41  C   UNL     1       7.440   3.029   8.411  1.00  0.00     0.064 A 
ATOM     42  C   UNL     1       8.375   1.986   8.427  1.00  0.00     0.173 A 
ATOM     43  C   UNL     1       6.519   3.107   9.463  1.00  0.00     0.173 A 
ATOM     44  F   UNL     1       9.268   1.864   7.435  1.00  0.00    -0.203 F 
ATOM     45  C   UNL     1       8.384   1.054   9.462  1.00  0.00     0.198 A 
ATOM     46  C   UNL     1       6.536   2.175  10.497  1.00  0.00     0.198 A 
ATOM     47  F   UNL     1       5.599   4.083   9.485  1.00  0.00    -0.203 F 
ATOM     48  F   UNL     1       9.277   0.056   9.452  1.00  0.00    -0.200 F 
ATOM     49  C   UNL     1       7.468   1.149  10.498  1.00  0.00     0.200 A 
ATOM     50  F   UNL     1       5.646   2.266  11.493  1.00  0.00    -0.200 F 
ATOM     51  F   UNL     1       7.476   0.247  11.490  1.00  0.00    -0.200 F 
ENDBRANCH  27  41
BRANCH  28  52
ATOM     52  C   UNL     1       6.976   9.622   1.020  1.00  0.00     0.064 A 
ATOM     53  C   UNL     1       7.959   9.606   0.024  1.00  0.00     0.173 A 
ATOM     54  C   UNL     1       5.952  10.569   0.918  1.00  0.00     0.173 A 
ATOM     55  F   UNL     1       8.965   8.722   0.088  1.00  0.00    -0.203 F 
ATOM     56  C   UNL     1       7.918  10.508  -1.037  1.00  0.00     0.198 A 
ATOM     57  C   UNL     1       5.912  11.466  -0.148  1.00  0.00     0.198 A 
ATOM     58  F   UNL     1       4.995  10.628   1.855  1.00  0.00    -0.203 F 
ATOM     59  F   UNL     1       8.876  10.480  -1.973  1.00  0.00    -0.200 F 
ATOM     60  C   UNL     1       6.894  11.437  -1.126  1.00  0.00     0.200 A 
ATOM     61  F   UNL     1       4.922  12.363  -0.227  1.00  0.00    -0.200 F 
ATOM     62  F   UNL     1       6.856  12.304  -2.148  1.00  0.00    -0.200 F 
ENDBRANCH  28  52
BRANCH  40  63
ATOM     63  C   UNL     1      10.284   9.504   7.117  1.00  0.00     0.064 A 
ATOM     64  C   UNL     1       9.785  10.523   7.938  1.00  0.00     0.173 A 
ATOM     65  C   UNL     1      11.672   9.398   6.965  1.00  0.00     0.173 A 
ATOM     66  F   UNL     1       8.463  10.670   8.106  1.00  0.00    -0.203 F 
ATOM     67  C   UNL     1      10.649  11.405   8.582  1.00  0.00     0.198 A 
ATOM     68  C   UNL     1      12.531  10.281   7.615  1.00  0.00     0.198 A 
ATOM     69  F   UNL     1      12.195   8.444   6.182  1.00  0.00    -0.203 F 
ATOM     70  F   UNL     1      10.153  12.381   9.353  1.00  0.00    -0.200 F 
ATOM     71  C   UNL     1      12.021  11.284   8.424  1.00  0.00     0.200 A 
ATOM     72  F   UNL     1      13.855  10.165   7.454  1.00  0.00    -0.200 F 
ATOM     73  F   UNL     1      12.849  12.138   9.042  1.00  0.00    -0.200 F 
ENDBRANCH  40  63
ENDBRANCH  14  15
ENDBRANCH   7   9
ENDBRANCH   4   5
ENDBRANCH   3   4
ENDBRANCH   2   3
ENDBRANCH   1   2
BRANCH   1  74
ATOM     74  C   UNL     1       6.165  -3.598  -2.220  1.00  0.00     0.021 C 
BRANCH  74  75
ATOM     75  C   UNL     1       6.940  -4.742  -1.569  1.00  0.00     0.116 C 
BRANCH  75  76
ATOM     76  N   UNL     1       6.796  -5.998  -2.280  1.00  0.00    -0.351 N 
ATOM     77  C   UNL     1       7.767  -6.842  -2.754  1.00  0.00     0.269 C 
ATOM     78  H   UNL     1       5.869  -6.286  -2.445  1.00  0.00     0.163 HD
ATOM     79  O   UNL     1       7.429  -7.757  -3.505  1.00  0.00    -0.268 OA
BRANCH  77  80
ATOM     80  C   UNL     1       9.144  -6.596  -2.429  1.00  0.00     0.131 A 
ATOM     81  N   UNL     1      10.113  -6.628  -3.396  1.00  0.00    -0.272 N 
ATOM     82  C   UNL     1       9.822  -6.378  -1.233  1.00  0.00     0.057 A 
ATOM     83  N   UNL     1      11.327  -6.262  -2.959  1.00  0.00    -0.183 NA
ATOM     84  H   UNL     1       9.935  -6.895  -4.327  1.00  0.00     0.190 HD
ATOM     85  C   UNL     1      11.152  -6.121  -1.645  1.00  0.00     0.145 A 
BRANCH  82  86
ATOM     86  C   UNL     1       9.275  -6.373   0.157  1.00  0.00     0.303 C 
BRANCH  86  87
ATOM     87  N   UNL     1       9.791  -7.429   1.031  1.00  0.00    -0.330 N 
ATOM     88  C   UNL     1       9.671  -8.779   0.480  1.00  0.00     0.262 C 
ATOM     89  C   UNL     1      11.116  -7.172   1.590  1.00  0.00     0.274 C 
ATOM     90  H   UNL     1       9.154  -7.395   1.827  1.00  0.00     0.348 HD
ATOM     91  C   UNL     1       9.880  -9.816   1.582  1.00  0.00     0.062 C 
ATOM     92  C   UNL     1      11.464  -8.149   2.718  1.00  0.00     0.116 C 
ATOM     93  C   UNL     1      11.187  -9.609   2.345  1.00  0.00     0.023 C 
BRANCH  92  94
ATOM     94  C   UNL     1      10.900  -7.739   4.080  1.00  0.00     0.171 C 
ATOM     95  O   UNL     1      11.627  -7.540   5.052  1.00  0.00    -0.294 OA
BRANCH  94  96
ATOM     96  C   UNL     1       9.445  -7.591   4.274  1.00  0.00     0.019 A 
ATOM     97  C   UNL     1       8.708  -8.672   4.755  1.00  0.00     0.012 A 
ATOM     98  C   UNL     1       8.837  -6.351   4.063  1.00  0.00     0.020 A 
ATOM     99  C   UNL     1       7.334  -8.531   4.959  1.00  0.00     0.009 A 
ATOM    100  C   UNL     1       7.457  -6.196   4.271  1.00  0.00    -0.018 A 
ATOM    101  C   UNL     1       6.695  -7.304   4.715  1.00  0.00    -0.018 A 
ATOM    102  C   UNL     1       6.816  -4.965   4.055  1.00  0.00     0.009 A 
ATOM    103  C   UNL     1       5.315  -7.149   4.916  1.00  0.00     0.009 A 
ATOM    104  C   UNL     1       5.443  -4.826   4.264  1.00  0.00     0.001 A 
ATOM    105  C   UNL     1       4.694  -5.918   4.691  1.00  0.00     0.001 A 
ENDBRANCH  94  96
ENDBRANCH  92  94
ENDBRANCH  86  87
ENDBRANCH  82  86
ENDBRANCH  77  80
ENDBRANCH  75  76
ENDBRANCH  74  75
ENDBRANCH   1  74
TORSDOF 17
