REMARK SMILES O=C(NCCCCCCNC(=O)[C@@H]1[C@H](C(=O)NCc2ccncc2)[C@H]2C=C[C@@H]1O2)c1ccc(-c2c3nc(c(-c4c(F)c(F)c(F)c(F)c4F)c4ccc([nH]4)c(-c4c(F)c(F)c(F)c(F)c4F)c4nc(c(-c5c(F)c(F)c(F)c(F)c5F)c5ccc2[nH]5)C=C4)C=C3)cc1
REMARK SMILES IDX 7 1 6 2 5 3 4 4 3 5 1 6 2 7 30 9 31 10 92 11 32 12 91 13
REMARK SMILES IDX 33 14 34 15 35 16 85 17 36 18 90 19 84 20 86 21 37 22 89 23
REMARK SMILES IDX 83 24 82 25 38 27 70 28 50 29 69 30 51 31 54 32 68 33 87 34
REMARK SMILES IDX 52 35 53 36 67 38 88 39 55 40 39 41 40 42 48 43 41 44 42 45
REMARK SMILES IDX 46 46 49 47 43 48 44 49 47 50 45 51 71 52 72 53 80 54 73 55
REMARK SMILES IDX 74 56 78 57 81 58 75 59 76 60 79 61 77 62 56 63 57 64 65 65
REMARK SMILES IDX 58 66 59 67 63 68 66 69 60 70 61 71 64 72 62 73 8 74 9 75
REMARK SMILES IDX 10 76 11 77 12 79 13 80 14 81 28 82 25 83 27 84 29 85 26 86
REMARK SMILES IDX 15 87 16 88 17 89 18 91 19 92 20 93 24 94 21 95 23 96 22 97
REMARK H PARENT 3 8 86 26 54 37 10 78 17 90
REMARK Flexibility Score: inf
ROOT
ATOM      1  C   UNL     1       4.917  -3.508   2.246  1.00  0.00     0.002 C 
ENDROOT
BRANCH   1   2
ATOM      2  C   UNL     1       4.235  -2.302   2.899  1.00  0.00     0.002 C 
BRANCH   2   3
ATOM      3  C   UNL     1       4.622  -0.951   2.297  1.00  0.00     0.021 C 
BRANCH   3   4
ATOM      4  C   UNL     1       4.380  -0.845   0.796  1.00  0.00     0.116 C 
BRANCH   4   5
ATOM      5  N   UNL     1       2.966  -0.906   0.467  1.00  0.00    -0.352 N 
ATOM      6  O   UNL     1       0.969  -0.096  -0.209  1.00  0.00    -0.269 OA
ATOM      7  C   UNL     1       2.194   0.017  -0.186  1.00  0.00     0.251 C 
ATOM      8  H   UNL     1       2.499  -1.724   0.753  1.00  0.00     0.163 HD
BRANCH   7   9
ATOM      9  C   UNL     1       2.837   1.169  -0.849  1.00  0.00     0.039 A 
ATOM     10  C   UNL     1       3.962   0.989  -1.661  1.00  0.00     0.014 A 
ATOM     11  C   UNL     1       2.299   2.443  -0.661  1.00  0.00     0.014 A 
ATOM     12  C   UNL     1       4.620   2.096  -2.186  1.00  0.00     0.010 A 
ATOM     13  C   UNL     1       2.916   3.546  -1.252  1.00  0.00     0.010 A 
ATOM     14  C   UNL     1       4.095   3.383  -1.998  1.00  0.00    -0.014 A 
BRANCH  14  15
ATOM     15  C   UNL     1       4.750   4.557  -2.624  1.00  0.00     0.031 A 
ATOM     16  C   UNL     1       5.349   5.641  -1.778  1.00  0.00     0.074 A 
ATOM     17  C   UNL     1       4.766   4.657  -3.966  1.00  0.00     0.049 A 
ATOM     18  N   UNL     1       5.872   6.784  -2.144  1.00  0.00    -0.248 NA
ATOM     19  C   UNL     1       5.353   5.416  -0.325  1.00  0.00     0.031 C 
ATOM     20  C   UNL     1       4.215   3.664  -4.890  1.00  0.00     0.029 A 
ATOM     21  N   UNL     1       5.248   5.645  -4.786  1.00  0.00    -0.354 N 
ATOM     22  C   UNL     1       6.243   7.425  -0.970  1.00  0.00     0.074 A 
ATOM     23  C   UNL     1       5.862   6.555   0.123  1.00  0.00     0.031 C 
ATOM     24  C   UNL     1       4.395   4.089  -6.148  1.00  0.00     0.029 A 
ATOM     25  C   UNL     1       5.013   5.410  -6.117  1.00  0.00     0.049 A 
ATOM     26  H   UNL     1       5.716   6.444  -4.452  1.00  0.00     0.167 HD
ATOM     27  C   UNL     1       6.848   8.629  -0.823  1.00  0.00     0.037 A 
ATOM     28  C   UNL     1       5.236   6.187  -7.193  1.00  0.00     0.037 A 
ATOM     29  C   UNL     1       7.222   9.485  -1.920  1.00  0.00     0.049 A 
ATOM     30  C   UNL     1       5.864   7.538  -7.003  1.00  0.00     0.074 A 
ATOM     31  C   UNL     1       7.871  10.706  -1.881  1.00  0.00     0.029 A 
ATOM     32  N   UNL     1       6.965   9.213  -3.258  1.00  0.00    -0.354 N 
ATOM     33  N   UNL     1       6.243   8.122  -5.893  1.00  0.00    -0.248 NA
ATOM     34  C   UNL     1       6.097   8.336  -8.213  1.00  0.00     0.031 C 
ATOM     35  C   UNL     1       7.952  11.201  -3.186  1.00  0.00     0.029 A 
ATOM     36  C   UNL     1       7.417  10.258  -4.049  1.00  0.00     0.049 A 
ATOM     37  H   UNL     1       6.526   8.399  -3.594  1.00  0.00     0.167 HD
ATOM     38  C   UNL     1       6.788   9.341  -6.269  1.00  0.00     0.074 A 
ATOM     39  C   UNL     1       6.691   9.412  -7.713  1.00  0.00     0.031 C 
ATOM     40  C   UNL     1       7.326  10.309  -5.488  1.00  0.00     0.037 A 
BRANCH  27  41
ATOM     41  C   UNL     1       7.109   9.107   0.578  1.00  0.00     0.064 A 
ATOM     42  C   UNL     1       8.051   8.486   1.413  1.00  0.00     0.173 A 
ATOM     43  C   UNL     1       6.416  10.216   1.090  1.00  0.00     0.173 A 
ATOM     44  F   UNL     1       8.737   7.417   0.979  1.00  0.00    -0.203 F 
ATOM     45  C   UNL     1       8.258   8.929   2.717  1.00  0.00     0.198 A 
ATOM     46  C   UNL     1       6.651  10.678   2.382  1.00  0.00     0.198 A 
ATOM     47  F   UNL     1       5.511  10.856   0.334  1.00  0.00    -0.203 F 
ATOM     48  F   UNL     1       9.117   8.279   3.515  1.00  0.00    -0.200 F 
ATOM     49  C   UNL     1       7.562  10.027   3.199  1.00  0.00     0.200 A 
ATOM     50  F   UNL     1       5.988  11.749   2.840  1.00  0.00    -0.200 F 
ATOM     51  F   UNL     1       7.761  10.451   4.455  1.00  0.00    -0.200 F 
ENDBRANCH  27  41
BRANCH  28  52
ATOM     52  C   UNL     1       4.848   5.692  -8.538  1.00  0.00     0.064 A 
ATOM     53  C   UNL     1       5.819   5.322  -9.477  1.00  0.00     0.173 A 
ATOM     54  C   UNL     1       3.500   5.533  -8.893  1.00  0.00     0.173 A 
ATOM     55  F   UNL     1       7.120   5.471  -9.189  1.00  0.00    -0.203 F 
ATOM     56  C   UNL     1       5.456   4.817 -10.724  1.00  0.00     0.198 A 
ATOM     57  C   UNL     1       3.139   5.000 -10.128  1.00  0.00     0.198 A 
ATOM     58  F   UNL     1       2.533   5.864  -8.024  1.00  0.00    -0.203 F 
ATOM     59  F   UNL     1       6.404   4.497 -11.616  1.00  0.00    -0.200 F 
ATOM     60  C   UNL     1       4.117   4.647 -11.044  1.00  0.00     0.200 A 
ATOM     61  F   UNL     1       1.845   4.819 -10.425  1.00  0.00    -0.200 F 
ATOM     62  F   UNL     1       3.770   4.145 -12.237  1.00  0.00    -0.200 F 
ENDBRANCH  28  52
BRANCH  40  63
ATOM     63  C   UNL     1       7.908  11.511  -6.175  1.00  0.00     0.064 A 
ATOM     64  C   UNL     1       7.100  12.489  -6.772  1.00  0.00     0.173 A 
ATOM     65  C   UNL     1       9.297  11.714  -6.178  1.00  0.00     0.173 A 
ATOM     66  F   UNL     1       5.768  12.333  -6.811  1.00  0.00    -0.203 F 
ATOM     67  C   UNL     1       7.662  13.620  -7.358  1.00  0.00     0.198 A 
ATOM     68  C   UNL     1       9.853  12.860  -6.737  1.00  0.00     0.198 A 
ATOM     69  F   UNL     1      10.113  10.809  -5.617  1.00  0.00    -0.203 F 
ATOM     70  F   UNL     1       6.875  14.525  -7.956  1.00  0.00    -0.200 F 
ATOM     71  C   UNL     1       9.036  13.810  -7.330  1.00  0.00     0.200 A 
ATOM     72  F   UNL     1      11.179  13.048  -6.696  1.00  0.00    -0.200 F 
ATOM     73  F   UNL     1       9.574  14.908  -7.880  1.00  0.00    -0.200 F 
ENDBRANCH  40  63
ENDBRANCH  14  15
ENDBRANCH   7   9
ENDBRANCH   4   5
ENDBRANCH   3   4
ENDBRANCH   2   3
ENDBRANCH   1   2
BRANCH   1  74
ATOM     74  C   UNL     1       6.451  -3.436   2.194  1.00  0.00     0.021 C 
BRANCH  74  75
ATOM     75  C   UNL     1       7.111  -3.237   3.560  1.00  0.00     0.116 C 
BRANCH  75  76
ATOM     76  N   UNL     1       6.772  -4.340   4.433  1.00  0.00    -0.356 N 
ATOM     77  C   UNL     1       7.481  -5.497   4.545  1.00  0.00     0.227 C 
ATOM     78  H   UNL     1       5.965  -4.247   4.990  1.00  0.00     0.163 HD
ATOM     79  O   UNL     1       6.857  -6.552   4.454  1.00  0.00    -0.275 OA
BRANCH  77  80
ATOM     80  C   UNL     1       8.986  -5.427   4.622  1.00  0.00     0.127 C 
ATOM     81  C   UNL     1       9.689  -6.669   5.236  1.00  0.00     0.127 C 
ATOM     82  C   UNL     1       9.541  -4.302   5.521  1.00  0.00     0.155 C 
ATOM     83  C   UNL     1      10.577  -6.043   6.313  1.00  0.00     0.155 C 
ATOM     84  C   UNL     1      10.996  -4.096   5.202  1.00  0.00     0.004 C 
ATOM     85  O   UNL     1       9.709  -4.981   6.787  1.00  0.00    -0.365 OA
ATOM     86  C   UNL     1      11.633  -5.177   5.677  1.00  0.00     0.004 C 
BRANCH  81  87
ATOM     87  C   UNL     1       8.877  -7.859   5.733  1.00  0.00     0.227 C 
ATOM     88  O   UNL     1       9.051  -8.950   5.168  1.00  0.00    -0.275 OA
ATOM     89  N   UNL     1       7.992  -7.875   6.756  1.00  0.00    -0.352 N 
ATOM     90  H   UNL     1       7.546  -8.748   6.848  1.00  0.00     0.163 HD
BRANCH  89  91
ATOM     91  C   UNL     1       7.538  -6.920   7.752  1.00  0.00     0.151 C 
BRANCH  91  92
ATOM     92  C   UNL     1       6.179  -6.326   7.477  1.00  0.00    -0.026 A 
ATOM     93  C   UNL     1       5.975  -4.944   7.575  1.00  0.00     0.025 A 
ATOM     94  C   UNL     1       5.075  -7.127   7.167  1.00  0.00     0.025 A 
ATOM     95  C   UNL     1       4.708  -4.431   7.330  1.00  0.00     0.111 A 
ATOM     96  C   UNL     1       3.848  -6.520   6.937  1.00  0.00     0.111 A 
ATOM     97  N   UNL     1       3.641  -5.187   7.004  1.00  0.00    -0.265 NA
ENDBRANCH  91  92
ENDBRANCH  89  91
ENDBRANCH  81  87
ENDBRANCH  77  80
ENDBRANCH  75  76
ENDBRANCH  74  75
ENDBRANCH   1  74
TORSDOF 16
