REMARK SMILES NNS(=O)(=O)c1ccc(O)c(C(=O)NCCCCCCNC(=O)c2ccc(-c3c4nc(c(-c5c(F)c(F)c(F)c(F)c5F)c5ccc([nH]5)c(-c5c(F)c(F)c(F)c(F)c5F)c5nc(c(-c6c(F)c(F)c(F)c(F)c6F)c6ccc3[nH]6)C=C5)C=C4)cc2)c1
REMARK SMILES IDX 17 1 16 2 15 3 14 4 12 5 13 6 11 8 6 9 7 10 87 11 8 12 9 13
REMARK SMILES IDX 3 14 4 15 5 16 2 17 1 19 10 22 18 24 19 25 20 26 21 27 22 28
REMARK SMILES IDX 23 30 24 31 25 32 86 33 26 34 85 35 27 36 28 37 29 38 79 39
REMARK SMILES IDX 30 40 84 41 78 42 80 43 31 44 83 45 77 46 76 47 32 49 64 50
REMARK SMILES IDX 44 51 63 52 45 53 48 54 62 55 81 56 46 57 47 58 61 60 82 61
REMARK SMILES IDX 49 62 33 63 34 64 42 65 35 66 36 67 40 68 43 69 37 70 38 71
REMARK SMILES IDX 41 72 39 73 65 74 66 75 74 76 67 77 68 78 72 79 75 80 69 81
REMARK SMILES IDX 70 82 73 83 71 84 50 85 51 86 59 87 52 88 53 89 57 90 60 91
REMARK SMILES IDX 54 92 55 93 58 94 56 95
REMARK H PARENT 14 7 2 18 1 20 1 21 10 23 21 29 80 48 48 59
REMARK Flexibility Score: inf
ROOT
ATOM      1  C   UNL     1      -5.356   2.835   7.433  1.00  0.00     0.002 C 
ENDROOT
BRANCH   1   2
ATOM      2  C   UNL     1      -4.509   2.938   6.159  1.00  0.00     0.021 C 
BRANCH   2   3
ATOM      3  C   UNL     1      -3.278   2.024   6.166  1.00  0.00     0.116 C 
BRANCH   3   4
ATOM      4  N   UNL     1      -3.648   0.702   5.714  1.00  0.00    -0.352 N 
ATOM      5  C   UNL     1      -3.567   0.082   4.497  1.00  0.00     0.255 C 
ATOM      6  O   UNL     1      -4.065  -1.047   4.435  1.00  0.00    -0.269 OA
ATOM      7  H   UNL     1      -4.034   0.136   6.421  1.00  0.00     0.163 HD
BRANCH   5   8
ATOM      8  C   UNL     1      -2.869   0.611   3.285  1.00  0.00     0.082 A 
ATOM      9  C   UNL     1      -1.721  -0.063   1.233  1.00  0.00     0.084 A 
ATOM     10  C   UNL     1      -1.600   1.268   0.840  1.00  0.00     0.025 A 
ATOM     11  C   UNL     1      -2.341  -0.392   2.442  1.00  0.00     0.039 A 
ATOM     12  C   UNL     1      -2.104   2.270   1.660  1.00  0.00     0.048 A 
ATOM     13  C   UNL     1      -2.760   1.945   2.857  1.00  0.00     0.128 A 
BRANCH   9  14
ATOM     14  S   UNL     1      -1.202  -1.336   0.107  1.00  0.00     0.253 S 
ATOM     15  O   UNL     1      -1.436  -0.861  -1.244  1.00  0.00    -0.206 OA
ATOM     16  O   UNL     1      -1.743  -2.595   0.559  1.00  0.00    -0.206 OA
BRANCH  14  17
ATOM     17  N   UNL     1       0.507  -1.416   0.404  1.00  0.00    -0.150 NA
ATOM     18  H   UNL     1       0.666  -1.414   1.412  1.00  0.00     0.160 HD
BRANCH  17  19
ATOM     19  N   UNL     1       1.198  -0.324  -0.167  1.00  0.00    -0.257 NA
ATOM     20  H   UNL     1       2.195  -0.411   0.031  1.00  0.00     0.138 HD
ATOM     21  H   UNL     1       0.847   0.547   0.231  1.00  0.00     0.138 HD
ENDBRANCH  17  19
ENDBRANCH  14  17
ENDBRANCH   9  14
BRANCH  13  22
ATOM     22  O   UNL     1      -3.344   2.981   3.526  1.00  0.00    -0.507 OA
ATOM     23  H   UNL     1      -3.249   3.857   3.208  1.00  0.00     0.293 HD
ENDBRANCH  13  22
ENDBRANCH   5   8
ENDBRANCH   3   4
ENDBRANCH   2   3
ENDBRANCH   1   2
BRANCH   1  24
ATOM     24  C   UNL     1      -4.660   3.333   8.704  1.00  0.00     0.002 C 
BRANCH  24  25
ATOM     25  C   UNL     1      -4.117   4.762   8.624  1.00  0.00     0.021 C 
BRANCH  25  26
ATOM     26  C   UNL     1      -5.187   5.820   8.382  1.00  0.00     0.116 C 
BRANCH  26  27
ATOM     27  N   UNL     1      -6.088   5.937   9.519  1.00  0.00    -0.352 N 
ATOM     28  C   UNL     1      -6.364   7.039  10.288  1.00  0.00     0.251 C 
ATOM     29  H   UNL     1      -6.565   5.113   9.770  1.00  0.00     0.163 HD
ATOM     30  O   UNL     1      -6.953   6.926  11.357  1.00  0.00    -0.269 OA
BRANCH  28  31
ATOM     31  C   UNL     1      -5.939   8.372   9.817  1.00  0.00     0.039 A 
ATOM     32  C   UNL     1      -5.314   9.248  10.707  1.00  0.00     0.014 A 
ATOM     33  C   UNL     1      -6.171   8.753   8.492  1.00  0.00     0.014 A 
ATOM     34  C   UNL     1      -4.876  10.495  10.255  1.00  0.00     0.010 A 
ATOM     35  C   UNL     1      -5.673   9.963   8.027  1.00  0.00     0.010 A 
ATOM     36  C   UNL     1      -5.032  10.851   8.906  1.00  0.00    -0.014 A 
BRANCH  36  37
ATOM     37  C   UNL     1      -4.581  12.163   8.383  1.00  0.00     0.031 A 
ATOM     38  C   UNL     1      -5.599  13.129   7.847  1.00  0.00     0.074 A 
ATOM     39  C   UNL     1      -3.267  12.443   8.302  1.00  0.00     0.049 A 
ATOM     40  N   UNL     1      -5.419  14.248   7.192  1.00  0.00    -0.248 NA
ATOM     41  C   UNL     1      -7.013  12.769   8.044  1.00  0.00     0.031 C 
ATOM     42  C   UNL     1      -2.185  11.574   8.768  1.00  0.00     0.029 A 
ATOM     43  N   UNL     1      -2.616  13.530   7.775  1.00  0.00    -0.354 N 
ATOM     44  C   UNL     1      -6.692  14.706   6.876  1.00  0.00     0.074 A 
ATOM     45  C   UNL     1      -7.632  13.723   7.367  1.00  0.00     0.031 C 
ATOM     46  C   UNL     1      -1.007  12.165   8.512  1.00  0.00     0.029 A 
ATOM     47  C   UNL     1      -1.248  13.431   7.824  1.00  0.00     0.049 A 
ATOM     48  H   UNL     1      -3.087  14.309   7.397  1.00  0.00     0.167 HD
ATOM     49  C   UNL     1      -7.042  15.854   6.250  1.00  0.00     0.037 A 
ATOM     50  C   UNL     1      -0.297  14.258   7.349  1.00  0.00     0.037 A 
ATOM     51  C   UNL     1      -6.100  16.842   5.795  1.00  0.00     0.049 A 
ATOM     52  C   UNL     1      -0.712  15.525   6.647  1.00  0.00     0.074 A 
ATOM     53  C   UNL     1      -6.352  18.061   5.194  1.00  0.00     0.029 A 
ATOM     54  N   UNL     1      -4.722  16.721   5.899  1.00  0.00    -0.354 N 
ATOM     55  N   UNL     1      -1.918  15.971   6.390  1.00  0.00    -0.248 NA
ATOM     56  C   UNL     1       0.365  16.404   6.171  1.00  0.00     0.031 C 
ATOM     57  C   UNL     1      -5.125  18.660   4.892  1.00  0.00     0.029 A 
ATOM     58  C   UNL     1      -4.110  17.839   5.358  1.00  0.00     0.049 A 
ATOM     59  H   UNL     1      -4.250  15.955   6.298  1.00  0.00     0.167 HD
ATOM     60  C   UNL     1      -1.747  17.199   5.766  1.00  0.00     0.074 A 
ATOM     61  C   UNL     1      -0.320  17.428   5.678  1.00  0.00     0.031 C 
ATOM     62  C   UNL     1      -2.688  18.062   5.311  1.00  0.00     0.037 A 
BRANCH  49  63
ATOM     63  C   UNL     1      -8.505  16.102   6.017  1.00  0.00     0.064 A 
ATOM     64  C   UNL     1      -9.385  16.372   7.076  1.00  0.00     0.173 A 
ATOM     65  C   UNL     1      -9.028  16.101   4.715  1.00  0.00     0.173 A 
ATOM     66  F   UNL     1      -8.938  16.373   8.341  1.00  0.00    -0.203 F 
ATOM     67  C   UNL     1     -10.739  16.599   6.843  1.00  0.00     0.198 A 
ATOM     68  C   UNL     1     -10.376  16.362   4.483  1.00  0.00     0.198 A 
ATOM     69  F   UNL     1      -8.230  15.854   3.665  1.00  0.00    -0.203 F 
ATOM     70  F   UNL     1     -11.569  16.801   7.876  1.00  0.00    -0.200 F 
ATOM     71  C   UNL     1     -11.231  16.602   5.547  1.00  0.00     0.200 A 
ATOM     72  F   UNL     1     -10.847  16.378   3.229  1.00  0.00    -0.200 F 
ATOM     73  F   UNL     1     -12.533  16.828   5.324  1.00  0.00    -0.200 F 
ENDBRANCH  49  63
BRANCH  50  74
ATOM     74  C   UNL     1       1.139  13.927   7.537  1.00  0.00     0.064 A 
ATOM     75  C   UNL     1       1.944  14.683   8.400  1.00  0.00     0.173 A 
ATOM     76  C   UNL     1       1.739  12.855   6.859  1.00  0.00     0.173 A 
ATOM     77  F   UNL     1       1.421  15.729   9.057  1.00  0.00    -0.203 F 
ATOM     78  C   UNL     1       3.298  14.395   8.562  1.00  0.00     0.198 A 
ATOM     79  C   UNL     1       3.087  12.550   7.043  1.00  0.00     0.198 A 
ATOM     80  F   UNL     1       1.013  12.096   6.025  1.00  0.00    -0.203 F 
ATOM     81  F   UNL     1       4.053  15.164   9.358  1.00  0.00    -0.200 F 
ATOM     82  C   UNL     1       3.867  13.326   7.887  1.00  0.00     0.200 A 
ATOM     83  F   UNL     1       3.629  11.506   6.401  1.00  0.00    -0.200 F 
ATOM     84  F   UNL     1       5.168  13.047   8.045  1.00  0.00    -0.200 F 
ENDBRANCH  50  74
BRANCH  62  85
ATOM     85  C   UNL     1      -2.218  19.368   4.740  1.00  0.00     0.064 A 
ATOM     86  C   UNL     1      -1.613  19.450   3.479  1.00  0.00     0.173 A 
ATOM     87  C   UNL     1      -2.453  20.563   5.439  1.00  0.00     0.173 A 
ATOM     88  F   UNL     1      -1.355  18.335   2.780  1.00  0.00    -0.203 F 
ATOM     89  C   UNL     1      -1.249  20.682   2.942  1.00  0.00     0.198 A 
ATOM     90  C   UNL     1      -2.115  21.794   4.886  1.00  0.00     0.198 A 
ATOM     91  F   UNL     1      -3.036  20.536   6.647  1.00  0.00    -0.203 F 
ATOM     92  F   UNL     1      -0.642  20.737   1.748  1.00  0.00    -0.200 F 
ATOM     93  C   UNL     1      -1.510  21.853   3.640  1.00  0.00     0.200 A 
ATOM     94  F   UNL     1      -2.382  22.924   5.556  1.00  0.00    -0.200 F 
ATOM     95  F   UNL     1      -1.177  23.038   3.112  1.00  0.00    -0.200 F 
ENDBRANCH  62  85
ENDBRANCH  36  37
ENDBRANCH  28  31
ENDBRANCH  26  27
ENDBRANCH  25  26
ENDBRANCH  24  25
ENDBRANCH   1  24
TORSDOF 17
