REMARK SMILES Cc1ccc(-c2nn(CCC(=O)NCCCCCCNC(=O)c3ccc(-c4c5nc(c(-c6c(F)c(F)c(F)c(F)c6F)c6ccc([nH]6)c(-c6c(F)c(F)c(F)c(F)c6F)c6nc(c(-c7c(F)c(F)c(F)c(F)c7F)c7ccc4[nH]7)C=C6)C=C5)cc3)c(=O)c3noc(C)c23)cc1C
REMARK SMILES IDX 16 1 15 2 14 3 13 4 11 5 12 6 10 8 9 9 8 10 6 11 7 12 93 13
REMARK SMILES IDX 88 14 91 15 86 16 89 17 90 18 92 19 87 20 5 21 1 22 2 23
REMARK SMILES IDX 3 24 95 25 4 26 94 27 96 28 17 29 18 30 19 31 20 32 21 33
REMARK SMILES IDX 22 35 23 36 24 37 85 38 25 39 84 40 26 41 27 42 28 43 78 44
REMARK SMILES IDX 29 45 83 46 77 47 79 48 30 49 82 50 76 51 75 52 31 54 63 55
REMARK SMILES IDX 43 56 62 57 44 58 47 59 61 60 80 61 45 62 46 63 60 65 81 66
REMARK SMILES IDX 48 67 32 68 33 69 41 70 34 71 35 72 39 73 42 74 36 75 37 76
REMARK SMILES IDX 40 77 38 78 64 79 65 80 73 81 66 82 67 83 71 84 74 85 68 86
REMARK SMILES IDX 69 87 72 88 70 89 49 90 50 91 58 92 51 93 52 94 56 95 59 96
REMARK SMILES IDX 53 97 54 98 57 99 55 100
REMARK H PARENT 13 7 20 34 79 53 47 64
REMARK Flexibility Score: inf
ROOT
ATOM      1  C   UNL     1      -5.399  -5.371   2.148  1.00  0.00     0.002 C 
ENDROOT
BRANCH   1   2
ATOM      2  C   UNL     1      -5.378  -4.399   0.969  1.00  0.00     0.021 C 
BRANCH   2   3
ATOM      3  C   UNL     1      -5.199  -4.980  -0.436  1.00  0.00     0.116 C 
BRANCH   3   4
ATOM      4  N   UNL     1      -6.437  -4.910  -1.194  1.00  0.00    -0.356 N 
ATOM      5  C   UNL     1      -6.813  -4.076  -2.204  1.00  0.00     0.221 C 
ATOM      6  O   UNL     1      -7.975  -4.140  -2.611  1.00  0.00    -0.275 OA
ATOM      7  H   UNL     1      -7.116  -5.574  -0.934  1.00  0.00     0.163 HD
BRANCH   5   8
ATOM      8  C   UNL     1      -5.826  -3.127  -2.851  1.00  0.00     0.124 C 
BRANCH   8   9
ATOM      9  C   UNL     1      -5.936  -1.699  -2.324  1.00  0.00     0.158 C 
BRANCH   9  10
ATOM     10  N   UNL     1      -5.093  -1.437  -1.155  1.00  0.00    -0.227 N 
ATOM     11  C   UNL     1      -2.899  -0.985  -0.425  1.00  0.00     0.104 A 
ATOM     12  N   UNL     1      -3.718  -1.197  -1.418  1.00  0.00    -0.169 NA
ATOM     13  C   UNL     1      -3.369  -1.106   0.923  1.00  0.00     0.078 A 
ATOM     14  C   UNL     1      -4.739  -1.163   1.190  1.00  0.00     0.183 A 
ATOM     15  C   UNL     1      -2.759  -1.222   2.147  1.00  0.00     0.143 A 
ATOM     16  C   UNL     1      -5.710  -1.272   0.114  1.00  0.00     0.296 A 
ATOM     17  N   UNL     1      -4.984  -1.238   2.504  1.00  0.00    -0.074 NA
ATOM     18  O   UNL     1      -3.731  -1.272   3.105  1.00  0.00    -0.360 OA
ATOM     19  C   UNL     1      -1.368  -1.352   2.625  1.00  0.00     0.091 C 
ATOM     20  O   UNL     1      -6.919  -1.294   0.297  1.00  0.00    -0.265 OA
BRANCH  11  21
ATOM     21  C   UNL     1      -1.557  -0.408  -0.605  1.00  0.00     0.003 A 
ATOM     22  C   UNL     1       2.195   1.587   0.051  1.00  0.00     0.044 C 
ATOM     23  C   UNL     1       0.910   0.855  -0.233  1.00  0.00    -0.048 A 
ATOM     24  C   UNL     1      -0.269   1.609  -0.331  1.00  0.00     0.004 A 
ATOM     25  C   UNL     1       0.852  -0.552  -0.369  1.00  0.00    -0.048 A 
ATOM     26  C   UNL     1      -1.495   0.984  -0.514  1.00  0.00     0.011 A 
ATOM     27  C   UNL     1      -0.395  -1.179  -0.568  1.00  0.00     0.014 A 
ATOM     28  C   UNL     1       2.067  -1.426  -0.196  1.00  0.00     0.044 C 
ENDBRANCH  11  21
ENDBRANCH   9  10
ENDBRANCH   8   9
ENDBRANCH   5   8
ENDBRANCH   3   4
ENDBRANCH   2   3
ENDBRANCH   1   2
BRANCH   1  29
ATOM     29  C   UNL     1      -4.081  -6.100   2.444  1.00  0.00     0.002 C 
BRANCH  29  30
ATOM     30  C   UNL     1      -2.824  -5.240   2.699  1.00  0.00     0.021 C 
BRANCH  30  31
ATOM     31  C   UNL     1      -2.744  -4.453   4.024  1.00  0.00     0.116 C 
BRANCH  31  32
ATOM     32  N   UNL     1      -2.739  -5.324   5.183  1.00  0.00    -0.352 N 
ATOM     33  C   UNL     1      -1.997  -5.370   6.331  1.00  0.00     0.251 C 
ATOM     34  H   UNL     1      -3.416  -6.037   5.132  1.00  0.00     0.163 HD
ATOM     35  O   UNL     1      -2.148  -6.359   7.054  1.00  0.00    -0.269 OA
BRANCH  33  36
ATOM     36  C   UNL     1      -1.022  -4.340   6.781  1.00  0.00     0.039 A 
ATOM     37  C   UNL     1       0.116  -4.824   7.447  1.00  0.00     0.014 A 
ATOM     38  C   UNL     1      -1.272  -2.963   6.796  1.00  0.00     0.014 A 
ATOM     39  C   UNL     1       0.975  -3.964   8.135  1.00  0.00     0.010 A 
ATOM     40  C   UNL     1      -0.397  -2.092   7.487  1.00  0.00     0.010 A 
ATOM     41  C   UNL     1       0.724  -2.588   8.175  1.00  0.00    -0.014 A 
BRANCH  41  42
ATOM     42  C   UNL     1       1.737  -1.748   8.860  1.00  0.00     0.031 A 
ATOM     43  C   UNL     1       2.234  -0.564   8.092  1.00  0.00     0.074 A 
ATOM     44  C   UNL     1       1.874  -1.720  10.207  1.00  0.00     0.049 A 
ATOM     45  N   UNL     1       1.610   0.578   8.048  1.00  0.00    -0.248 NA
ATOM     46  C   UNL     1       3.354  -0.654   7.155  1.00  0.00     0.031 C 
ATOM     47  C   UNL     1       0.753  -1.767  11.151  1.00  0.00     0.029 A 
ATOM     48  N   UNL     1       2.969  -1.443  11.004  1.00  0.00    -0.354 N 
ATOM     49  C   UNL     1       2.228   1.354   7.083  1.00  0.00     0.074 A 
ATOM     50  C   UNL     1       3.300   0.543   6.548  1.00  0.00     0.031 C 
ATOM     51  C   UNL     1       1.187  -1.365  12.365  1.00  0.00     0.029 A 
ATOM     52  C   UNL     1       2.637  -1.169  12.332  1.00  0.00     0.049 A 
ATOM     53  H   UNL     1       3.894  -1.440  10.668  1.00  0.00     0.167 HD
ATOM     54  C   UNL     1       1.840   2.627   6.802  1.00  0.00     0.037 A 
ATOM     55  C   UNL     1       3.307  -0.299  13.143  1.00  0.00     0.037 A 
ATOM     56  C   UNL     1       0.779   3.138   7.619  1.00  0.00     0.049 A 
ATOM     57  C   UNL     1       2.922   1.022  12.520  1.00  0.00     0.074 A 
ATOM     58  C   UNL     1      -0.591   3.272   7.561  1.00  0.00     0.029 A 
ATOM     59  N   UNL     1       1.120   3.640   8.853  1.00  0.00    -0.354 N 
ATOM     60  N   UNL     1       1.779   1.639  12.664  1.00  0.00    -0.248 NA
ATOM     61  C   UNL     1       3.725   1.474  11.382  1.00  0.00     0.031 C 
ATOM     62  C   UNL     1      -1.016   3.386   8.925  1.00  0.00     0.029 A 
ATOM     63  C   UNL     1       0.124   3.276   9.718  1.00  0.00     0.049 A 
ATOM     64  H   UNL     1       1.926   4.162   9.071  1.00  0.00     0.167 HD
ATOM     65  C   UNL     1       1.597   2.354  11.478  1.00  0.00     0.074 A 
ATOM     66  C   UNL     1       2.835   2.215  10.739  1.00  0.00     0.031 C 
ATOM     67  C   UNL     1       0.398   2.862  11.073  1.00  0.00     0.037 A 
BRANCH  54  68
ATOM     68  C   UNL     1       2.536   3.578   5.909  1.00  0.00     0.064 A 
ATOM     69  C   UNL     1       3.284   4.604   6.510  1.00  0.00     0.173 A 
ATOM     70  C   UNL     1       2.250   3.682   4.546  1.00  0.00     0.173 A 
ATOM     71  F   UNL     1       3.580   4.538   7.819  1.00  0.00    -0.203 F 
ATOM     72  C   UNL     1       3.664   5.733   5.796  1.00  0.00     0.198 A 
ATOM     73  C   UNL     1       2.653   4.808   3.824  1.00  0.00     0.198 A 
ATOM     74  F   UNL     1       1.534   2.732   3.926  1.00  0.00    -0.203 F 
ATOM     75  F   UNL     1       4.304   6.730   6.421  1.00  0.00    -0.200 F 
ATOM     76  C   UNL     1       3.336   5.841   4.456  1.00  0.00     0.200 A 
ATOM     77  F   UNL     1       2.342   4.916   2.525  1.00  0.00    -0.200 F 
ATOM     78  F   UNL     1       3.663   6.949   3.776  1.00  0.00    -0.200 F 
ENDBRANCH  54  68
BRANCH  55  79
ATOM     79  C   UNL     1       4.720  -0.661  13.498  1.00  0.00     0.064 A 
ATOM     80  C   UNL     1       4.974  -1.963  13.979  1.00  0.00     0.173 A 
ATOM     81  C   UNL     1       5.839   0.181  13.402  1.00  0.00     0.173 A 
ATOM     82  F   UNL     1       3.954  -2.794  14.241  1.00  0.00    -0.203 F 
ATOM     83  C   UNL     1       6.270  -2.438  14.187  1.00  0.00     0.198 A 
ATOM     84  C   UNL     1       7.140  -0.301  13.581  1.00  0.00     0.198 A 
ATOM     85  F   UNL     1       5.706   1.483  13.116  1.00  0.00    -0.203 F 
ATOM     86  F   UNL     1       6.462  -3.700  14.593  1.00  0.00    -0.200 F 
ATOM     87  C   UNL     1       7.356  -1.617  13.947  1.00  0.00     0.200 A 
ATOM     88  F   UNL     1       8.185   0.510  13.365  1.00  0.00    -0.200 F 
ATOM     89  F   UNL     1       8.603  -2.090  14.071  1.00  0.00    -0.200 F 
ENDBRANCH  55  79
BRANCH  67  90
ATOM     90  C   UNL     1      -0.722   2.757  12.047  1.00  0.00     0.064 A 
ATOM     91  C   UNL     1      -0.736   3.558  13.195  1.00  0.00     0.173 A 
ATOM     92  C   UNL     1      -1.823   1.921  11.809  1.00  0.00     0.173 A 
ATOM     93  F   UNL     1       0.290   4.383  13.459  1.00  0.00    -0.203 F 
ATOM     94  C   UNL     1      -1.828   3.546  14.057  1.00  0.00     0.198 A 
ATOM     95  C   UNL     1      -2.925   1.933  12.657  1.00  0.00     0.198 A 
ATOM     96  F   UNL     1      -1.854   1.115  10.735  1.00  0.00    -0.203 F 
ATOM     97  F   UNL     1      -1.830   4.331  15.143  1.00  0.00    -0.200 F 
ATOM     98  C   UNL     1      -2.928   2.748  13.778  1.00  0.00     0.200 A 
ATOM     99  F   UNL     1      -3.996   1.179  12.373  1.00  0.00    -0.200 F 
ATOM    100  F   UNL     1      -4.000   2.778  14.581  1.00  0.00    -0.200 F 
ENDBRANCH  67  90
ENDBRANCH  41  42
ENDBRANCH  33  36
ENDBRANCH  31  32
ENDBRANCH  30  31
ENDBRANCH  29  30
ENDBRANCH   1  29
TORSDOF 16
