REMARK SMILES O=C(NCCCCCCNC(=O)[C@H]1CCCC[NH+]1Cc1ccc([N+](=O)[O-])o1)c1ccc(-c2c3nc(c(-c4c(F)c(F)c(F)c(F)c4F)c4ccc([nH]4)c(-c4c(F)c(F)c(F)c(F)c4F)c4nc(c(-c5c(F)c(F)c(F)c(F)c5F)c5ccc2[nH]5)C=C4)C=C3)cc1
REMARK SMILES IDX 7 1 6 2 5 3 4 4 3 5 1 6 2 7 28 9 29 10 90 11 30 12 89 13
REMARK SMILES IDX 31 14 32 15 33 16 83 17 34 18 88 19 82 20 84 21 35 22 87 23
REMARK SMILES IDX 81 24 80 25 36 27 68 28 48 29 67 30 49 31 52 32 66 33 85 34
REMARK SMILES IDX 50 35 51 36 65 38 86 39 53 40 37 41 38 42 46 43 39 44 40 45
REMARK SMILES IDX 44 46 47 47 41 48 42 49 45 50 43 51 69 52 70 53 78 54 71 55
REMARK SMILES IDX 72 56 76 57 79 58 73 59 74 60 77 61 75 62 54 63 55 64 63 65
REMARK SMILES IDX 56 66 57 67 61 68 64 69 58 70 59 71 62 72 60 73 8 74 9 75
REMARK SMILES IDX 10 76 11 77 12 79 13 80 14 81 18 82 15 83 17 84 16 86 19 87
REMARK SMILES IDX 20 88 21 89 27 90 22 91 23 92 24 93 25 94 26 95
REMARK H PARENT 3 8 84 26 52 37 10 78 18 85
REMARK Flexibility Score: inf
ROOT
ATOM      1  C   UNL     1      14.201   7.091  -7.201  1.00  0.00     0.002 C 
ENDROOT
BRANCH   1   2
ATOM      2  C   UNL     1      13.737   8.378  -7.901  1.00  0.00     0.002 C 
BRANCH   2   3
ATOM      3  C   UNL     1      13.527   9.585  -6.986  1.00  0.00     0.021 C 
BRANCH   3   4
ATOM      4  C   UNL     1      14.770  10.001  -6.220  1.00  0.00     0.116 C 
BRANCH   4   5
ATOM      5  N   UNL     1      15.864  10.368  -7.108  1.00  0.00    -0.352 N 
ATOM      6  O   UNL     1      17.407  11.748  -8.016  1.00  0.00    -0.269 OA
ATOM      7  C   UNL     1      16.650  11.491  -7.086  1.00  0.00     0.251 C 
ATOM      8  H   UNL     1      16.066   9.721  -7.823  1.00  0.00     0.163 HD
BRANCH   7   9
ATOM      9  C   UNL     1      16.573  12.390  -5.920  1.00  0.00     0.039 A 
ATOM     10  C   UNL     1      16.521  11.849  -4.635  1.00  0.00     0.014 A 
ATOM     11  C   UNL     1      16.555  13.775  -6.108  1.00  0.00     0.014 A 
ATOM     12  C   UNL     1      16.304  12.679  -3.551  1.00  0.00     0.010 A 
ATOM     13  C   UNL     1      16.459  14.619  -4.999  1.00  0.00     0.010 A 
ATOM     14  C   UNL     1      16.323  14.075  -3.713  1.00  0.00    -0.014 A 
BRANCH  14  15
ATOM     15  C   UNL     1      16.322  14.912  -2.491  1.00  0.00     0.031 A 
ATOM     16  C   UNL     1      15.200  15.855  -2.182  1.00  0.00     0.074 A 
ATOM     17  C   UNL     1      17.340  14.739  -1.624  1.00  0.00     0.049 A 
ATOM     18  N   UNL     1      15.033  16.609  -1.125  1.00  0.00    -0.248 NA
ATOM     19  C   UNL     1      14.132  15.982  -3.185  1.00  0.00     0.031 C 
ATOM     20  C   UNL     1      18.491  13.857  -1.849  1.00  0.00     0.029 A 
ATOM     21  N   UNL     1      17.557  15.248  -0.372  1.00  0.00    -0.354 N 
ATOM     22  C   UNL     1      13.855  17.310  -1.340  1.00  0.00     0.074 A 
ATOM     23  C   UNL     1      13.356  16.910  -2.639  1.00  0.00     0.031 C 
ATOM     24  C   UNL     1      19.246  13.824  -0.745  1.00  0.00     0.029 A 
ATOM     25  C   UNL     1      18.685  14.747   0.231  1.00  0.00     0.049 A 
ATOM     26  H   UNL     1      16.964  15.908   0.054  1.00  0.00     0.167 HD
ATOM     27  C   UNL     1      13.250  18.201  -0.517  1.00  0.00     0.037 A 
ATOM     28  C   UNL     1      19.224  15.018   1.433  1.00  0.00     0.037 A 
ATOM     29  C   UNL     1      13.760  18.579   0.778  1.00  0.00     0.049 A 
ATOM     30  C   UNL     1      18.526  16.009   2.316  1.00  0.00     0.074 A 
ATOM     31  C   UNL     1      13.226  19.473   1.690  1.00  0.00     0.029 A 
ATOM     32  N   UNL     1      14.924  18.078   1.346  1.00  0.00    -0.354 N 
ATOM     33  N   UNL     1      17.410  16.662   2.102  1.00  0.00    -0.248 NA
ATOM     34  C   UNL     1      19.165  16.307   3.602  1.00  0.00     0.031 C 
ATOM     35  C   UNL     1      14.086  19.541   2.792  1.00  0.00     0.029 A 
ATOM     36  C   UNL     1      15.130  18.653   2.591  1.00  0.00     0.049 A 
ATOM     37  H   UNL     1      15.516  17.413   0.927  1.00  0.00     0.167 HD
ATOM     38  C   UNL     1      17.213  17.452   3.223  1.00  0.00     0.074 A 
ATOM     39  C   UNL     1      18.302  17.160   4.134  1.00  0.00     0.031 C 
ATOM     40  C   UNL     1      16.230  18.352   3.471  1.00  0.00     0.037 A 
BRANCH  27  41
ATOM     41  C   UNL     1      11.977  18.841  -0.991  1.00  0.00     0.064 A 
ATOM     42  C   UNL     1      10.773  18.126  -1.054  1.00  0.00     0.173 A 
ATOM     43  C   UNL     1      11.947  20.205  -1.323  1.00  0.00     0.173 A 
ATOM     44  F   UNL     1      10.748  16.817  -0.759  1.00  0.00    -0.203 F 
ATOM     45  C   UNL     1       9.588  18.748  -1.442  1.00  0.00     0.198 A 
ATOM     46  C   UNL     1      10.757  20.830  -1.686  1.00  0.00     0.198 A 
ATOM     47  F   UNL     1      13.070  20.937  -1.275  1.00  0.00    -0.203 F 
ATOM     48  F   UNL     1       8.455  18.038  -1.523  1.00  0.00    -0.200 F 
ATOM     49  C   UNL     1       9.579  20.101  -1.749  1.00  0.00     0.200 A 
ATOM     50  F   UNL     1      10.748  22.140  -1.969  1.00  0.00    -0.200 F 
ATOM     51  F   UNL     1       8.435  20.701  -2.106  1.00  0.00    -0.200 F 
ENDBRANCH  27  41
BRANCH  28  52
ATOM     52  C   UNL     1      20.495  14.366   1.842  1.00  0.00     0.064 A 
ATOM     53  C   UNL     1      20.539  13.466   2.914  1.00  0.00     0.173 A 
ATOM     54  C   UNL     1      21.693  14.625   1.158  1.00  0.00     0.173 A 
ATOM     55  F   UNL     1      19.425  13.196   3.610  1.00  0.00    -0.203 F 
ATOM     56  C   UNL     1      21.737  12.867   3.301  1.00  0.00     0.198 A 
ATOM     57  C   UNL     1      22.881  13.997   1.521  1.00  0.00     0.198 A 
ATOM     58  F   UNL     1      21.704  15.472   0.118  1.00  0.00    -0.203 F 
ATOM     59  F   UNL     1      21.762  12.049   4.361  1.00  0.00    -0.200 F 
ATOM     60  C   UNL     1      22.905  13.127   2.599  1.00  0.00     0.200 A 
ATOM     61  F   UNL     1      24.001  14.235   0.824  1.00  0.00    -0.200 F 
ATOM     62  F   UNL     1      24.054  12.544   2.966  1.00  0.00    -0.200 F 
ENDBRANCH  28  52
BRANCH  40  63
ATOM     63  C   UNL     1      16.301  19.069   4.786  1.00  0.00     0.064 A 
ATOM     64  C   UNL     1      17.286  20.036   5.039  1.00  0.00     0.173 A 
ATOM     65  C   UNL     1      15.383  18.779   5.805  1.00  0.00     0.173 A 
ATOM     66  F   UNL     1      18.198  20.332   4.101  1.00  0.00    -0.203 F 
ATOM     67  C   UNL     1      17.373  20.658   6.281  1.00  0.00     0.198 A 
ATOM     68  C   UNL     1      15.453  19.426   7.035  1.00  0.00     0.198 A 
ATOM     69  F   UNL     1      14.421  17.865   5.610  1.00  0.00    -0.203 F 
ATOM     70  F   UNL     1      18.362  21.529   6.524  1.00  0.00    -0.200 F 
ATOM     71  C   UNL     1      16.455  20.355   7.276  1.00  0.00     0.200 A 
ATOM     72  F   UNL     1      14.560  19.141   7.992  1.00  0.00    -0.200 F 
ATOM     73  F   UNL     1      16.544  20.950   8.473  1.00  0.00    -0.200 F 
ENDBRANCH  40  63
ENDBRANCH  14  15
ENDBRANCH   7   9
ENDBRANCH   4   5
ENDBRANCH   3   4
ENDBRANCH   2   3
ENDBRANCH   1   2
BRANCH   1  74
ATOM     74  C   UNL     1      13.382   6.673  -5.977  1.00  0.00     0.021 C 
BRANCH  74  75
ATOM     75  C   UNL     1      11.891   6.562  -6.261  1.00  0.00     0.116 C 
BRANCH  75  76
ATOM     76  N   UNL     1      11.486   5.253  -6.714  1.00  0.00    -0.351 N 
ATOM     77  C   UNL     1      10.330   4.556  -6.557  1.00  0.00     0.278 C 
ATOM     78  H   UNL     1      12.175   4.776  -7.232  1.00  0.00     0.163 HD
ATOM     79  O   UNL     1      10.143   3.665  -7.401  1.00  0.00    -0.268 OA
BRANCH  77  80
ATOM     80  C   UNL     1       9.300   4.711  -5.405  1.00  0.00     0.274 C 
ATOM     81  C   UNL     1       9.315   3.421  -4.572  1.00  0.00     0.076 C 
ATOM     82  N   UNL     1       9.401   5.910  -4.584  1.00  0.00    -0.318 N 
ATOM     83  C   UNL     1      10.511   3.391  -3.640  1.00  0.00     0.012 C 
ATOM     84  C   UNL     1      10.174   5.908  -3.349  1.00  0.00     0.263 C 
ATOM     85  H   UNL     1       9.711   5.159  -5.201  1.00  0.00     0.349 HD
ATOM     86  C   UNL     1      10.399   4.552  -2.668  1.00  0.00     0.062 C 
BRANCH  82  87
ATOM     87  C   UNL     1       8.714   7.143  -4.981  1.00  0.00     0.339 C 
BRANCH  87  88
ATOM     88  C   UNL     1       8.704   7.434  -6.459  1.00  0.00     0.165 A 
ATOM     89  C   UNL     1       8.102   6.832  -7.553  1.00  0.00     0.059 A 
ATOM     90  O   UNL     1       9.458   8.501  -6.887  1.00  0.00    -0.400 OA
ATOM     91  C   UNL     1       8.603   7.471  -8.714  1.00  0.00     0.134 A 
ATOM     92  C   UNL     1       9.394   8.491  -8.249  1.00  0.00     0.433 A 
BRANCH  92  93
ATOM     93  N   UNL     1      10.199   9.449  -8.935  1.00  0.00     0.102 N 
ATOM     94  O   UNL     1      10.549  10.458  -8.312  1.00  0.00    -0.256 OA
ATOM     95  O   UNL     1      10.492   9.181 -10.109  1.00  0.00    -0.256 OA
ENDBRANCH  92  93
ENDBRANCH  87  88
ENDBRANCH  82  87
ENDBRANCH  77  80
ENDBRANCH  75  76
ENDBRANCH  74  75
ENDBRANCH   1  74
TORSDOF 16
