REMARK SMILES Cc1ccc(NC(=O)c2ccccc2NC(=O)[C@H]2CCCC[C@H]2C(=O)NCCCCCCNC(=O)c2ccc(-c3c4nc(c(-c5c(F)c(F)c(F)c(F)c5F)c5ccc([nH]5)c(-c5c(F)c(F)c(F)c(F)c5F)c5nc(c(-c6c(F)c(F)c(F)c(F)c6F)c6ccc3[nH]6)C=C5)C=C4)cc2)cc1
REMARK SMILES IDX 28 1 27 2 26 3 24 4 25 5 23 7 18 8 19 9 20 10 22 11 21 12
REMARK SMILES IDX 16 13 15 14 17 16 14 17 9 18 10 19 11 20 13 21 12 22 7 23
REMARK SMILES IDX 6 24 8 26 5 27 1 28 2 29 3 30 100 31 4 32 99 33 29 34 30 35
REMARK SMILES IDX 31 36 32 37 33 38 34 39 35 41 36 42 37 43 98 44 38 45 97 46
REMARK SMILES IDX 39 47 40 48 41 49 91 50 42 51 96 52 90 53 92 54 43 55 95 56
REMARK SMILES IDX 89 57 88 58 44 60 76 61 56 62 75 63 57 64 60 65 74 66 93 67
REMARK SMILES IDX 58 68 59 69 73 71 94 72 61 73 45 74 46 75 54 76 47 77 48 78
REMARK SMILES IDX 52 79 55 80 49 81 50 82 53 83 51 84 77 85 78 86 86 87 79 88
REMARK SMILES IDX 80 89 84 90 87 91 81 92 82 93 85 94 83 95 62 96 63 97 71 98
REMARK SMILES IDX 64 99 65 100 69 101 72 102 66 103 67 104 70 105 68 106
REMARK H PARENT 26 6 15 15 6 25 33 40 92 59 60 70
REMARK Flexibility Score: inf
ROOT
ATOM      1  C   UNL     1       1.701   0.050   6.681  1.00  0.00     0.021 C 
ENDROOT
BRANCH   1   2
ATOM      2  C   UNL     1       0.483  -0.775   7.117  1.00  0.00     0.116 C 
BRANCH   2   3
ATOM      3  N   UNL     1      -0.753  -0.254   6.562  1.00  0.00    -0.356 N 
ATOM      4  C   UNL     1      -1.678  -0.745   5.703  1.00  0.00     0.223 C 
ATOM      5  O   UNL     1      -2.621   0.014   5.440  1.00  0.00    -0.275 OA
ATOM      6  H   UNL     1      -0.965   0.654   6.878  1.00  0.00     0.163 HD
BRANCH   4   7
ATOM      7  C   UNL     1      -1.617  -2.101   4.992  1.00  0.00     0.091 C 
ATOM      8  C   UNL     1      -0.809  -2.041   3.680  1.00  0.00     0.091 C 
ATOM      9  C   UNL     1      -0.898  -3.364   2.898  1.00  0.00     0.014 C 
ATOM     10  C   UNL     1      -0.680  -4.609   3.764  1.00  0.00     0.001 C 
ATOM     11  C   UNL     1      -1.395  -3.352   5.841  1.00  0.00     0.014 C 
ATOM     12  C   UNL     1      -1.575  -4.618   5.000  1.00  0.00     0.001 C 
BRANCH   8  13
ATOM     13  C   UNL     1       0.644  -1.714   3.925  1.00  0.00     0.228 C 
ATOM     14  N   UNL     1       1.295  -0.659   3.385  1.00  0.00    -0.325 N 
ATOM     15  H   UNL     1       2.132  -0.483   3.873  1.00  0.00     0.169 HD
ATOM     16  O   UNL     1       1.313  -2.416   4.693  1.00  0.00    -0.274 OA
BRANCH  14  17
ATOM     17  C   UNL     1       1.133   0.263   2.335  1.00  0.00     0.054 A 
ATOM     18  C   UNL     1       2.110   1.279   2.159  1.00  0.00     0.063 A 
ATOM     19  C   UNL     1       1.923   2.272   1.177  1.00  0.00     0.016 A 
ATOM     20  C   UNL     1       0.815   2.245   0.337  1.00  0.00     0.001 A 
ATOM     21  C   UNL     1       0.072   0.214   1.426  1.00  0.00     0.027 A 
ATOM     22  C   UNL     1      -0.098   1.206   0.452  1.00  0.00     0.002 A 
BRANCH  18  23
ATOM     23  C   UNL     1       3.293   1.510   3.034  1.00  0.00     0.257 C 
ATOM     24  N   UNL     1       4.156   0.538   3.484  1.00  0.00    -0.322 N 
ATOM     25  H   UNL     1       4.807   0.881   4.138  1.00  0.00     0.170 HD
ATOM     26  O   UNL     1       3.472   2.655   3.460  1.00  0.00    -0.269 OA
BRANCH  24  27
ATOM     27  C   UNL     1       4.321  -0.829   3.223  1.00  0.00     0.041 A 
ATOM     28  C   UNL     1       3.973  -5.109   3.143  1.00  0.00     0.044 C 
ATOM     29  C   UNL     1       4.217  -3.629   3.130  1.00  0.00    -0.051 A 
ATOM     30  C   UNL     1       3.866  -2.863   2.009  1.00  0.00     0.005 A 
ATOM     31  C   UNL     1       4.714  -2.984   4.264  1.00  0.00     0.005 A 
ATOM     32  C   UNL     1       3.925  -1.464   2.050  1.00  0.00     0.026 A 
ATOM     33  C   UNL     1       4.782  -1.593   4.301  1.00  0.00     0.026 A 
ENDBRANCH  24  27
ENDBRANCH  18  23
ENDBRANCH  14  17
ENDBRANCH   8  13
ENDBRANCH   4   7
ENDBRANCH   2   3
ENDBRANCH   1   2
BRANCH   1  34
ATOM     34  C   UNL     1       2.184   1.115   7.673  1.00  0.00     0.002 C 
BRANCH  34  35
ATOM     35  C   UNL     1       2.503   0.641   9.099  1.00  0.00     0.002 C 
BRANCH  35  36
ATOM     36  C   UNL     1       3.325  -0.644   9.216  1.00  0.00     0.021 C 
BRANCH  36  37
ATOM     37  C   UNL     1       4.788  -0.493   8.815  1.00  0.00     0.116 C 
BRANCH  37  38
ATOM     38  N   UNL     1       5.676  -0.229   9.943  1.00  0.00    -0.352 N 
ATOM     39  C   UNL     1       7.036   0.025   9.950  1.00  0.00     0.251 C 
ATOM     40  H   UNL     1       5.244  -0.232  10.827  1.00  0.00     0.163 HD
ATOM     41  O   UNL     1       7.630   0.221  10.997  1.00  0.00    -0.269 OA
BRANCH  39  42
ATOM     42  C   UNL     1       7.742   0.169   8.657  1.00  0.00     0.039 A 
ATOM     43  C   UNL     1       8.515   1.317   8.449  1.00  0.00     0.014 A 
ATOM     44  C   UNL     1       7.511  -0.723   7.614  1.00  0.00     0.014 A 
ATOM     45  C   UNL     1       8.848   1.688   7.148  1.00  0.00     0.010 A 
ATOM     46  C   UNL     1       7.779  -0.322   6.319  1.00  0.00     0.010 A 
ATOM     47  C   UNL     1       8.375   0.920   6.083  1.00  0.00    -0.014 A 
BRANCH  47  48
ATOM     48  C   UNL     1       8.347   1.403   4.708  1.00  0.00     0.031 A 
ATOM     49  C   UNL     1       9.308   0.899   3.706  1.00  0.00     0.074 A 
ATOM     50  C   UNL     1       7.400   2.292   4.332  1.00  0.00     0.049 A 
ATOM     51  N   UNL     1       9.717   1.591   2.695  1.00  0.00    -0.248 NA
ATOM     52  C   UNL     1       9.908  -0.430   3.778  1.00  0.00     0.031 C 
ATOM     53  C   UNL     1       7.088   2.718   2.970  1.00  0.00     0.029 A 
ATOM     54  N   UNL     1       6.658   3.165   5.150  1.00  0.00    -0.354 N 
ATOM     55  C   UNL     1      10.402   0.741   1.863  1.00  0.00     0.074 A 
ATOM     56  C   UNL     1      10.551  -0.490   2.607  1.00  0.00     0.031 C 
ATOM     57  C   UNL     1       6.510   3.927   3.021  1.00  0.00     0.029 A 
ATOM     58  C   UNL     1       6.543   4.363   4.405  1.00  0.00     0.049 A 
ATOM     59  H   UNL     1       6.296   2.982   6.047  1.00  0.00     0.167 HD
ATOM     60  C   UNL     1      10.659   1.103   0.576  1.00  0.00     0.037 A 
ATOM     61  C   UNL     1       7.050   5.547   4.847  1.00  0.00     0.037 A 
ATOM     62  C   UNL     1      10.146   2.429   0.266  1.00  0.00     0.049 A 
ATOM     63  C   UNL     1       8.014   6.186   3.882  1.00  0.00     0.074 A 
ATOM     64  C   UNL     1       8.966   2.854  -0.323  1.00  0.00     0.029 A 
ATOM     65  N   UNL     1      10.711   3.549   0.868  1.00  0.00    -0.354 N 
ATOM     66  N   UNL     1       8.655   5.524   2.960  1.00  0.00    -0.248 NA
ATOM     67  C   UNL     1       8.353   7.605   3.894  1.00  0.00     0.031 C 
ATOM     68  C   UNL     1       8.799   4.228  -0.038  1.00  0.00     0.029 A 
ATOM     69  C   UNL     1       9.889   4.647   0.705  1.00  0.00     0.049 A 
ATOM     70  H   UNL     1      11.574   3.557   1.342  1.00  0.00     0.167 HD
ATOM     71  C   UNL     1       9.464   6.384   2.264  1.00  0.00     0.074 A 
ATOM     72  C   UNL     1       9.237   7.676   2.883  1.00  0.00     0.031 C 
ATOM     73  C   UNL     1      10.248   5.952   1.233  1.00  0.00     0.037 A 
BRANCH  60  74
ATOM     74  C   UNL     1      11.106   0.097  -0.448  1.00  0.00     0.064 A 
ATOM     75  C   UNL     1      10.524   0.038  -1.730  1.00  0.00     0.173 A 
ATOM     76  C   UNL     1      12.077  -0.884  -0.177  1.00  0.00     0.173 A 
ATOM     77  F   UNL     1       9.632   0.950  -2.136  1.00  0.00    -0.203 F 
ATOM     78  C   UNL     1      10.818  -0.984  -2.634  1.00  0.00     0.198 A 
ATOM     79  C   UNL     1      12.336  -1.935  -1.063  1.00  0.00     0.198 A 
ATOM     80  F   UNL     1      12.792  -0.845   0.958  1.00  0.00    -0.203 F 
ATOM     81  F   UNL     1      10.221  -1.003  -3.834  1.00  0.00    -0.200 F 
ATOM     82  C   UNL     1      11.697  -1.990  -2.287  1.00  0.00     0.200 A 
ATOM     83  F   UNL     1      13.192  -2.905  -0.713  1.00  0.00    -0.200 F 
ATOM     84  F   UNL     1      11.932  -3.004  -3.131  1.00  0.00    -0.200 F 
ENDBRANCH  60  74
BRANCH  61  85
ATOM     85  C   UNL     1       7.118   5.649   6.326  1.00  0.00     0.064 A 
ATOM     86  C   UNL     1       5.911   5.623   7.053  1.00  0.00     0.173 A 
ATOM     87  C   UNL     1       8.301   5.392   7.026  1.00  0.00     0.173 A 
ATOM     88  F   UNL     1       4.748   5.868   6.430  1.00  0.00    -0.203 F 
ATOM     89  C   UNL     1       5.879   5.236   8.391  1.00  0.00     0.198 A 
ATOM     90  C   UNL     1       8.266   5.021   8.373  1.00  0.00     0.198 A 
ATOM     91  F   UNL     1       9.479   5.384   6.387  1.00  0.00    -0.203 F 
ATOM     92  F   UNL     1       4.704   5.111   9.024  1.00  0.00    -0.200 F 
ATOM     93  C   UNL     1       7.056   4.908   9.042  1.00  0.00     0.200 A 
ATOM     94  F   UNL     1       9.402   4.679   8.998  1.00  0.00    -0.200 F 
ATOM     95  F   UNL     1       7.021   4.447  10.300  1.00  0.00    -0.200 F 
ENDBRANCH  61  85
BRANCH  73  96
ATOM     96  C   UNL     1      11.329   6.743   0.539  1.00  0.00     0.064 A 
ATOM     97  C   UNL     1      12.073   7.760   1.157  1.00  0.00     0.173 A 
ATOM     98  C   UNL     1      11.752   6.385  -0.765  1.00  0.00     0.173 A 
ATOM     99  F   UNL     1      11.851   8.111   2.431  1.00  0.00    -0.203 F 
ATOM    100  C   UNL     1      13.121   8.412   0.500  1.00  0.00     0.198 A 
ATOM    101  C   UNL     1      12.832   7.000  -1.396  1.00  0.00     0.198 A 
ATOM    102  F   UNL     1      11.148   5.409  -1.458  1.00  0.00    -0.203 F 
ATOM    103  F   UNL     1      13.775   9.404   1.120  1.00  0.00    -0.200 F 
ATOM    104  C   UNL     1      13.507   8.025  -0.770  1.00  0.00     0.200 A 
ATOM    105  F   UNL     1      13.225   6.576  -2.606  1.00  0.00    -0.200 F 
ATOM    106  F   UNL     1      14.540   8.623  -1.377  1.00  0.00    -0.200 F 
ENDBRANCH  73  96
ENDBRANCH  47  48
ENDBRANCH  39  42
ENDBRANCH  37  38
ENDBRANCH  36  37
ENDBRANCH  35  36
ENDBRANCH  34  35
ENDBRANCH   1  34
TORSDOF 17
