REMARK SMILES C[N@@H+]1CC[C@H]2CN(C(=O)c3csc(-c4ccncc4)n3)C[C@@]2(C(=O)NCCCCCCNC(=O)c2ccc(-c3c4nc(c(-c5c(F)c(F)c(F)c(F)c5F)c5ccc([nH]5)c(-c5c(F)c(F)c(F)c(F)c5F)c5nc(c(-c6c(F)c(F)c(F)c(F)c6F)c6ccc3[nH]6)C=C5)C=C4)cc2)C1
REMARK SMILES IDX 28 1 27 2 26 3 25 4 23 5 24 6 22 8 1 9 2 10 3 11 98 12 4 14
REMARK SMILES IDX 5 15 21 16 6 17 7 18 8 19 9 20 10 21 11 22 20 23 12 24 13 25
REMARK SMILES IDX 14 26 15 27 19 28 16 29 18 30 17 31 29 32 30 33 31 34 32 35
REMARK SMILES IDX 33 36 34 38 35 39 36 40 97 41 37 42 96 43 38 44 39 45 40 46
REMARK SMILES IDX 90 47 41 48 95 49 89 50 91 51 42 52 94 53 88 54 87 55 43 57
REMARK SMILES IDX 75 58 55 59 74 60 56 61 59 62 73 63 92 64 57 65 58 66 72 68
REMARK SMILES IDX 93 69 60 70 44 71 45 72 53 73 46 74 47 75 51 76 54 77 48 78
REMARK SMILES IDX 49 79 52 80 50 81 76 82 77 83 85 84 78 85 79 86 83 87 86 88
REMARK SMILES IDX 80 89 81 90 84 91 82 92 61 93 62 94 70 95 63 96 64 97 68 98
REMARK SMILES IDX 71 99 65 100 66 101 69 102 67 103
REMARK H PARENT 25 7 2 13 32 37 91 56 59 67
REMARK Flexibility Score: inf
ROOT
ATOM      1  C   UNL     1       3.571   2.855   4.411  1.00  0.00     0.002 C 
ENDROOT
BRANCH   1   2
ATOM      2  C   UNL     1       2.854   3.769   3.415  1.00  0.00     0.021 C 
BRANCH   2   3
ATOM      3  C   UNL     1       3.599   4.029   2.104  1.00  0.00     0.116 C 
BRANCH   3   4
ATOM      4  N   UNL     1       3.455   3.057   1.008  1.00  0.00    -0.355 N 
ATOM      5  C   UNL     1       2.654   2.957  -0.117  1.00  0.00     0.234 C 
ATOM      6  O   UNL     1       3.081   2.250  -1.034  1.00  0.00    -0.274 OA
ATOM      7  H   UNL     1       4.075   2.297   1.096  1.00  0.00     0.163 HD
BRANCH   5   8
ATOM      8  C   UNL     1       1.231   3.553  -0.166  1.00  0.00     0.120 C 
ATOM      9  C   UNL     1       0.619   0.182   0.388  1.00  0.00     0.332 C 
ATOM     10  N   UNL     1      -0.184   1.394   0.226  1.00  0.00    -0.336 N 
ATOM     11  C   UNL     1      -0.651   1.477  -1.159  1.00  0.00     0.262 C 
ATOM     12  C   UNL     1       0.411   2.635   0.791  1.00  0.00     0.281 C 
ATOM     13  H   UNL     1      -1.009   1.313   0.821  1.00  0.00     0.347 HD
ATOM     14  C   UNL     1      -0.849   2.905  -1.594  1.00  0.00     0.068 C 
ATOM     15  C   UNL     1       0.493   3.640  -1.556  1.00  0.00     0.037 C 
ATOM     16  C   UNL     1       1.397   5.043   0.179  1.00  0.00     0.143 C 
ATOM     17  C   UNL     1       0.192   5.115  -1.841  1.00  0.00     0.125 C 
ATOM     18  N   UNL     1       1.099   5.816  -1.001  1.00  0.00    -0.336 N 
BRANCH  18  19
ATOM     19  C   UNL     1       1.565   7.082  -1.334  1.00  0.00     0.273 C 
ATOM     20  O   UNL     1       0.949   7.816  -2.103  1.00  0.00    -0.267 OA
BRANCH  19  21
ATOM     21  C   UNL     1       2.855   7.503  -0.760  1.00  0.00     0.139 A 
ATOM     22  C   UNL     1       3.084   8.761  -0.236  1.00  0.00     0.101 A 
ATOM     23  N   UNL     1       3.997   6.690  -0.811  1.00  0.00    -0.231 NA
ATOM     24  S   UNL     1       4.725   8.925   0.231  1.00  0.00    -0.122 S 
ATOM     25  C   UNL     1       5.050   7.346  -0.372  1.00  0.00     0.124 A 
BRANCH  25  26
ATOM     26  C   UNL     1       6.432   6.862  -0.426  1.00  0.00     0.013 A 
ATOM     27  C   UNL     1       7.033   6.615  -1.664  1.00  0.00     0.031 A 
ATOM     28  C   UNL     1       7.179   6.649   0.735  1.00  0.00     0.031 A 
ATOM     29  C   UNL     1       8.352   6.192  -1.688  1.00  0.00     0.111 A 
ATOM     30  C   UNL     1       8.489   6.215   0.607  1.00  0.00     0.111 A 
ATOM     31  N   UNL     1       9.093   5.989  -0.578  1.00  0.00    -0.265 NA
ENDBRANCH  25  26
ENDBRANCH  19  21
ENDBRANCH  18  19
ENDBRANCH   5   8
ENDBRANCH   3   4
ENDBRANCH   2   3
ENDBRANCH   1   2
BRANCH   1  32
ATOM     32  C   UNL     1       5.066   3.130   4.621  1.00  0.00     0.002 C 
BRANCH  32  33
ATOM     33  C   UNL     1       5.454   4.580   4.938  1.00  0.00     0.021 C 
BRANCH  33  34
ATOM     34  C   UNL     1       4.893   5.129   6.244  1.00  0.00     0.116 C 
BRANCH  34  35
ATOM     35  N   UNL     1       5.415   4.423   7.399  1.00  0.00    -0.352 N 
ATOM     36  C   UNL     1       6.150   4.894   8.460  1.00  0.00     0.251 C 
ATOM     37  H   UNL     1       5.212   3.460   7.427  1.00  0.00     0.163 HD
ATOM     38  O   UNL     1       6.686   4.106   9.232  1.00  0.00    -0.269 OA
BRANCH  36  39
ATOM     39  C   UNL     1       6.309   6.350   8.671  1.00  0.00     0.039 A 
ATOM     40  C   UNL     1       7.561   6.843   9.051  1.00  0.00     0.014 A 
ATOM     41  C   UNL     1       5.226   7.222   8.536  1.00  0.00     0.014 A 
ATOM     42  C   UNL     1       7.736   8.214   9.249  1.00  0.00     0.010 A 
ATOM     43  C   UNL     1       5.420   8.596   8.659  1.00  0.00     0.010 A 
ATOM     44  C   UNL     1       6.673   9.105   9.030  1.00  0.00    -0.014 A 
BRANCH  44  45
ATOM     45  C   UNL     1       6.849  10.569   9.211  1.00  0.00     0.031 A 
ATOM     46  C   UNL     1       6.088  11.293  10.288  1.00  0.00     0.074 A 
ATOM     47  C   UNL     1       7.654  11.254   8.376  1.00  0.00     0.049 A 
ATOM     48  N   UNL     1       6.066  12.572  10.571  1.00  0.00    -0.248 NA
ATOM     49  C   UNL     1       5.212  10.476  11.142  1.00  0.00     0.031 C 
ATOM     50  C   UNL     1       8.410  10.673   7.266  1.00  0.00     0.029 A 
ATOM     51  N   UNL     1       7.966  12.590   8.327  1.00  0.00    -0.354 N 
ATOM     52  C   UNL     1       5.169  12.711  11.622  1.00  0.00     0.074 A 
ATOM     53  C   UNL     1       4.622  11.398  11.888  1.00  0.00     0.031 C 
ATOM     54  C   UNL     1       9.115  11.642   6.660  1.00  0.00     0.029 A 
ATOM     55  C   UNL     1       8.836  12.915   7.316  1.00  0.00     0.049 A 
ATOM     56  H   UNL     1       7.599  13.252   8.957  1.00  0.00     0.167 HD
ATOM     57  C   UNL     1       4.849  13.827  12.320  1.00  0.00     0.037 A 
ATOM     58  C   UNL     1       9.348  14.108   6.958  1.00  0.00     0.037 A 
ATOM     59  C   UNL     1       5.416  15.126  12.070  1.00  0.00     0.049 A 
ATOM     60  C   UNL     1       8.977  15.334   7.750  1.00  0.00     0.074 A 
ATOM     61  C   UNL     1       5.203  16.308  12.758  1.00  0.00     0.029 A 
ATOM     62  N   UNL     1       6.309  15.414  11.048  1.00  0.00    -0.354 N 
ATOM     63  N   UNL     1       8.181  15.441   8.786  1.00  0.00    -0.248 NA
ATOM     64  C   UNL     1       9.583  16.603   7.327  1.00  0.00     0.031 C 
ATOM     65  C   UNL     1       5.930  17.321  12.124  1.00  0.00     0.029 A 
ATOM     66  C   UNL     1       6.639  16.760  11.074  1.00  0.00     0.049 A 
ATOM     67  H   UNL     1       6.657  14.759  10.401  1.00  0.00     0.167 HD
ATOM     68  C   UNL     1       8.213  16.778   9.157  1.00  0.00     0.074 A 
ATOM     69  C   UNL     1       9.121  17.441   8.244  1.00  0.00     0.031 C 
ATOM     70  C   UNL     1       7.551  17.402  10.162  1.00  0.00     0.037 A 
BRANCH  57  71
ATOM     71  C   UNL     1       3.841  13.690  13.426  1.00  0.00     0.064 A 
ATOM     72  C   UNL     1       4.134  12.992  14.607  1.00  0.00     0.173 A 
ATOM     73  C   UNL     1       2.578  14.290  13.317  1.00  0.00     0.173 A 
ATOM     74  F   UNL     1       5.323  12.388  14.758  1.00  0.00    -0.203 F 
ATOM     75  C   UNL     1       3.189  12.872  15.623  1.00  0.00     0.198 A 
ATOM     76  C   UNL     1       1.647  14.196  14.349  1.00  0.00     0.198 A 
ATOM     77  F   UNL     1       2.246  14.975  12.212  1.00  0.00    -0.203 F 
ATOM     78  F   UNL     1       3.474  12.154  16.719  1.00  0.00    -0.200 F 
ATOM     79  C   UNL     1       1.950  13.480  15.497  1.00  0.00     0.200 A 
ATOM     80  F   UNL     1       0.454  14.796  14.230  1.00  0.00    -0.200 F 
ATOM     81  F   UNL     1       1.044  13.369  16.478  1.00  0.00    -0.200 F 
ENDBRANCH  57  71
BRANCH  58  82
ATOM     82  C   UNL     1      10.291  14.199   5.812  1.00  0.00     0.064 A 
ATOM     83  C   UNL     1      11.644  14.505   6.015  1.00  0.00     0.173 A 
ATOM     84  C   UNL     1       9.860  13.992   4.494  1.00  0.00     0.173 A 
ATOM     85  F   UNL     1      12.100  14.731   7.256  1.00  0.00    -0.203 F 
ATOM     86  C   UNL     1      12.525  14.623   4.942  1.00  0.00     0.198 A 
ATOM     87  C   UNL     1      10.749  14.081   3.424  1.00  0.00     0.198 A 
ATOM     88  F   UNL     1       8.577  13.691   4.245  1.00  0.00    -0.203 F 
ATOM     89  F   UNL     1      13.802  14.964   5.162  1.00  0.00    -0.200 F 
ATOM     90  C   UNL     1      12.078  14.406   3.648  1.00  0.00     0.200 A 
ATOM     91  F   UNL     1      10.316  13.855   2.176  1.00  0.00    -0.200 F 
ATOM     92  F   UNL     1      12.926  14.517   2.617  1.00  0.00    -0.200 F 
ENDBRANCH  58  82
BRANCH  70  93
ATOM     93  C   UNL     1       7.812  18.869  10.351  1.00  0.00     0.064 A 
ATOM     94  C   UNL     1       7.337  19.826   9.442  1.00  0.00     0.173 A 
ATOM     95  C   UNL     1       8.517  19.324  11.476  1.00  0.00     0.173 A 
ATOM     96  F   UNL     1       6.670  19.440   8.343  1.00  0.00    -0.203 F 
ATOM     97  C   UNL     1       7.584  21.182   9.637  1.00  0.00     0.198 A 
ATOM     98  C   UNL     1       8.733  20.683  11.684  1.00  0.00     0.198 A 
ATOM     99  F   UNL     1       8.986  18.451  12.380  1.00  0.00    -0.203 F 
ATOM    100  F   UNL     1       7.166  22.074   8.728  1.00  0.00    -0.200 F 
ATOM    101  C   UNL     1       8.275  21.610  10.761  1.00  0.00     0.200 A 
ATOM    102  F   UNL     1       9.388  21.096  12.778  1.00  0.00    -0.200 F 
ATOM    103  F   UNL     1       8.505  22.916  10.950  1.00  0.00    -0.200 F 
ENDBRANCH  70  93
ENDBRANCH  44  45
ENDBRANCH  36  39
ENDBRANCH  34  35
ENDBRANCH  33  34
ENDBRANCH  32  33
ENDBRANCH   1  32
TORSDOF 16
