REMARK SMILES Cc1cccc(O[C@H](C)C(=O)N2CCC[C@@H](C(=O)NCCCCCCNC(=O)c3ccc(-c4c5nc(c(-c6c(F)c(F)c(F)c(F)c6F)c6ccc([nH]6)c(-c6c(F)c(F)c(F)c(F)c6F)c6nc(c(-c7c(F)c(F)c(F)c(F)c7F)c7ccc4[nH]7)C=C6)C=C5)cc3)C2)c1
REMARK SMILES IDX 21 1 20 2 19 3 17 4 18 5 16 7 12 8 13 9 92 10 14 11 15 12
REMARK SMILES IDX 10 13 11 14 8 15 9 16 7 17 6 18 1 19 2 20 3 21 93 22 4 23
REMARK SMILES IDX 5 24 22 25 23 26 24 27 25 28 26 29 27 30 28 32 29 33 30 34
REMARK SMILES IDX 91 35 31 36 90 37 32 38 33 39 34 40 84 41 35 42 89 43 83 44
REMARK SMILES IDX 85 45 36 46 88 47 82 48 81 49 37 51 69 52 49 53 68 54 50 55
REMARK SMILES IDX 53 56 67 57 86 58 51 59 52 60 66 62 87 63 54 64 38 65 39 66
REMARK SMILES IDX 47 67 40 68 41 69 45 70 48 71 42 72 43 73 46 74 44 75 70 76
REMARK SMILES IDX 71 77 79 78 72 79 73 80 77 81 80 82 74 83 75 84 78 85 76 86
REMARK SMILES IDX 55 87 56 88 64 89 57 90 58 91 62 92 65 93 59 94 60 95 63 96
REMARK SMILES IDX 61 97
REMARK H PARENT 19 6 26 31 85 50 53 61
REMARK Flexibility Score: inf
ROOT
ATOM      1  C   UNL     1       0.708  -1.674   0.730  1.00  0.00     0.021 C 
ENDROOT
BRANCH   1   2
ATOM      2  C   UNL     1       1.478  -1.802  -0.582  1.00  0.00     0.116 C 
BRANCH   2   3
ATOM      3  N   UNL     1       0.570  -1.875  -1.706  1.00  0.00    -0.356 N 
ATOM      4  C   UNL     1       0.066  -0.914  -2.520  1.00  0.00     0.224 C 
ATOM      5  O   UNL     1      -0.814  -1.265  -3.313  1.00  0.00    -0.275 OA
ATOM      6  H   UNL     1       0.262  -2.786  -1.918  1.00  0.00     0.163 HD
BRANCH   4   7
ATOM      7  C   UNL     1       0.571   0.523  -2.540  1.00  0.00     0.098 C 
ATOM      8  N   UNL     1       0.853   2.699  -1.406  1.00  0.00    -0.339 N 
ATOM      9  C   UNL     1       2.191   2.863  -1.988  1.00  0.00     0.119 C 
ATOM     10  C   UNL     1       0.426   1.307  -1.230  1.00  0.00     0.133 C 
ATOM     11  C   UNL     1       2.367   2.091  -3.292  1.00  0.00     0.022 C 
ATOM     12  C   UNL     1       1.987   0.624  -3.116  1.00  0.00     0.017 C 
BRANCH   8  13
ATOM     13  C   UNL     1       0.181   3.849  -1.020  1.00  0.00     0.263 C 
ATOM     14  O   UNL     1       0.549   4.948  -1.467  1.00  0.00    -0.271 OA
BRANCH  13  15
ATOM     15  C   UNL     1      -0.982   3.857   0.016  1.00  0.00     0.259 C 
ATOM     16  C   UNL     1      -2.292   3.165  -0.337  1.00  0.00     0.064 C 
BRANCH  15  17
ATOM     17  O   UNL     1      -0.619   3.873   1.397  1.00  0.00    -0.481 OA
BRANCH  17  18
ATOM     18  C   UNL     1      -0.172   2.772   2.052  1.00  0.00     0.120 A 
ATOM     19  C   UNL     1       2.566   2.173   4.650  1.00  0.00     0.044 C 
ATOM     20  C   UNL     1       1.393   1.953   3.739  1.00  0.00    -0.047 A 
ATOM     21  C   UNL     1       0.715   0.734   3.754  1.00  0.00     0.003 A 
ATOM     22  C   UNL     1       0.951   2.961   2.869  1.00  0.00     0.049 A 
ATOM     23  C   UNL     1      -0.430   0.559   2.981  1.00  0.00     0.004 A 
ATOM     24  C   UNL     1      -0.877   1.579   2.138  1.00  0.00     0.046 A 
ENDBRANCH  17  18
ENDBRANCH  15  17
ENDBRANCH  13  15
ENDBRANCH   8  13
ENDBRANCH   4   7
ENDBRANCH   2   3
ENDBRANCH   1   2
BRANCH   1  25
ATOM     25  C   UNL     1      -0.005  -2.945   1.211  1.00  0.00     0.002 C 
BRANCH  25  26
ATOM     26  C   UNL     1       0.886  -4.160   1.501  1.00  0.00     0.002 C 
BRANCH  26  27
ATOM     27  C   UNL     1       2.088  -3.900   2.409  1.00  0.00     0.021 C 
BRANCH  27  28
ATOM     28  C   UNL     1       1.738  -3.595   3.863  1.00  0.00     0.116 C 
BRANCH  28  29
ATOM     29  N   UNL     1       1.746  -4.772   4.724  1.00  0.00    -0.352 N 
ATOM     30  C   UNL     1       1.506  -4.897   6.083  1.00  0.00     0.251 C 
ATOM     31  H   UNL     1       1.958  -5.616   4.264  1.00  0.00     0.163 HD
ATOM     32  O   UNL     1       1.584  -5.987   6.616  1.00  0.00    -0.269 OA
BRANCH  30  33
ATOM     33  C   UNL     1       1.038  -3.724   6.865  1.00  0.00     0.039 A 
ATOM     34  C   UNL     1      -0.007  -3.906   7.781  1.00  0.00     0.014 A 
ATOM     35  C   UNL     1       1.522  -2.445   6.617  1.00  0.00     0.014 A 
ATOM     36  C   UNL     1      -0.713  -2.799   8.255  1.00  0.00     0.010 A 
ATOM     37  C   UNL     1       0.774  -1.356   7.013  1.00  0.00     0.010 A 
ATOM     38  C   UNL     1      -0.385  -1.536   7.771  1.00  0.00    -0.014 A 
BRANCH  38  39
ATOM     39  C   UNL     1      -1.248  -0.368   7.881  1.00  0.00     0.031 A 
ATOM     40  C   UNL     1      -0.896   0.773   8.751  1.00  0.00     0.074 A 
ATOM     41  C   UNL     1      -2.310  -0.257   7.050  1.00  0.00     0.049 A 
ATOM     42  N   UNL     1      -1.767   1.599   9.226  1.00  0.00    -0.248 NA
ATOM     43  C   UNL     1       0.470   1.071   9.169  1.00  0.00     0.031 C 
ATOM     44  C   UNL     1      -3.073   0.953   6.752  1.00  0.00     0.029 A 
ATOM     45  N   UNL     1      -3.031  -1.285   6.421  1.00  0.00    -0.354 N 
ATOM     46  C   UNL     1      -1.079   2.667   9.746  1.00  0.00     0.074 A 
ATOM     47  C   UNL     1       0.309   2.262   9.756  1.00  0.00     0.031 C 
ATOM     48  C   UNL     1      -4.277   0.602   6.276  1.00  0.00     0.029 A 
ATOM     49  C   UNL     1      -4.374  -0.841   6.389  1.00  0.00     0.049 A 
ATOM     50  H   UNL     1      -2.676  -2.136   6.074  1.00  0.00     0.167 HD
ATOM     51  C   UNL     1      -1.725   3.843   9.982  1.00  0.00     0.037 A 
ATOM     52  C   UNL     1      -5.372  -1.507   7.037  1.00  0.00     0.037 A 
ATOM     53  C   UNL     1      -3.127   3.781   9.596  1.00  0.00     0.049 A 
ATOM     54  C   UNL     1      -6.132  -0.666   8.031  1.00  0.00     0.074 A 
ATOM     55  C   UNL     1      -3.799   4.196   8.457  1.00  0.00     0.029 A 
ATOM     56  N   UNL     1      -4.000   2.948  10.284  1.00  0.00    -0.354 N 
ATOM     57  N   UNL     1      -5.659   0.422   8.569  1.00  0.00    -0.248 NA
ATOM     58  C   UNL     1      -7.468  -0.992   8.515  1.00  0.00     0.031 C 
ATOM     59  C   UNL     1      -5.088   3.618   8.465  1.00  0.00     0.029 A 
ATOM     60  C   UNL     1      -5.202   2.852   9.611  1.00  0.00     0.049 A 
ATOM     61  H   UNL     1      -3.792   2.492  11.131  1.00  0.00     0.167 HD
ATOM     62  C   UNL     1      -6.579   0.942   9.446  1.00  0.00     0.074 A 
ATOM     63  C   UNL     1      -7.700   0.025   9.364  1.00  0.00     0.031 C 
ATOM     64  C   UNL     1      -6.314   2.084  10.152  1.00  0.00     0.037 A 
BRANCH  51  65
ATOM     65  C   UNL     1      -0.986   5.120  10.283  1.00  0.00     0.064 A 
ATOM     66  C   UNL     1      -1.379   6.352   9.722  1.00  0.00     0.173 A 
ATOM     67  C   UNL     1       0.156   5.169  11.103  1.00  0.00     0.173 A 
ATOM     68  F   UNL     1      -2.491   6.468   8.987  1.00  0.00    -0.203 F 
ATOM     69  C   UNL     1      -0.626   7.518   9.880  1.00  0.00     0.198 A 
ATOM     70  C   UNL     1       0.936   6.323  11.221  1.00  0.00     0.198 A 
ATOM     71  F   UNL     1       0.535   4.099  11.817  1.00  0.00    -0.203 F 
ATOM     72  F   UNL     1      -1.040   8.658   9.310  1.00  0.00    -0.200 F 
ATOM     73  C   UNL     1       0.550   7.495  10.600  1.00  0.00     0.200 A 
ATOM     74  F   UNL     1       2.073   6.288  11.931  1.00  0.00    -0.200 F 
ATOM     75  F   UNL     1       1.301   8.599  10.704  1.00  0.00    -0.200 F 
ENDBRANCH  51  65
BRANCH  52  76
ATOM     76  C   UNL     1      -5.105  -2.962   7.170  1.00  0.00     0.064 A 
ATOM     77  C   UNL     1      -5.045  -3.733   5.994  1.00  0.00     0.173 A 
ATOM     78  C   UNL     1      -4.508  -3.486   8.323  1.00  0.00     0.173 A 
ATOM     79  F   UNL     1      -5.599  -3.269   4.861  1.00  0.00    -0.203 F 
ATOM     80  C   UNL     1      -4.306  -4.912   5.940  1.00  0.00     0.198 A 
ATOM     81  C   UNL     1      -3.780  -4.676   8.267  1.00  0.00     0.198 A 
ATOM     82  F   UNL     1      -4.515  -2.788   9.468  1.00  0.00    -0.203 F 
ATOM     83  F   UNL     1      -4.162  -5.557   4.774  1.00  0.00    -0.200 F 
ATOM     84  C   UNL     1      -3.648  -5.365   7.070  1.00  0.00     0.200 A 
ATOM     85  F   UNL     1      -3.117  -5.102   9.352  1.00  0.00    -0.200 F 
ATOM     86  F   UNL     1      -2.848  -6.439   6.995  1.00  0.00    -0.200 F 
ENDBRANCH  52  76
BRANCH  64  87
ATOM     87  C   UNL     1      -7.089   2.678  11.315  1.00  0.00     0.064 A 
ATOM     88  C   UNL     1      -8.022   1.981  12.098  1.00  0.00     0.173 A 
ATOM     89  C   UNL     1      -6.799   3.994  11.770  1.00  0.00     0.173 A 
ATOM     90  F   UNL     1      -8.314   0.696  11.867  1.00  0.00    -0.203 F 
ATOM     91  C   UNL     1      -8.653   2.566  13.204  1.00  0.00     0.198 A 
ATOM     92  C   UNL     1      -7.384   4.551  12.906  1.00  0.00     0.198 A 
ATOM     93  F   UNL     1      -5.911   4.782  11.146  1.00  0.00    -0.203 F 
ATOM     94  F   UNL     1      -9.566   1.864  13.890  1.00  0.00    -0.200 F 
ATOM     95  C   UNL     1      -8.325   3.842  13.616  1.00  0.00     0.200 A 
ATOM     96  F   UNL     1      -7.010   5.772  13.316  1.00  0.00    -0.200 F 
ATOM     97  F   UNL     1      -8.895   4.376  14.704  1.00  0.00    -0.200 F 
ENDBRANCH  64  87
ENDBRANCH  38  39
ENDBRANCH  30  33
ENDBRANCH  28  29
ENDBRANCH  27  28
ENDBRANCH  26  27
ENDBRANCH  25  26
ENDBRANCH   1  25
TORSDOF 17
