REMARK SMILES O=C(NCCCCCCNC(=O)[C@H]1C[C@](O)(c2ccccc2Cl)[C@@H](c2ccccc2Cl)O1)c1ccc(-c2c3nc(c(-c4c(F)c(F)c(F)c(F)c4F)c4ccc([nH]4)c(-c4c(F)c(F)c(F)c(F)c4F)c4nc(c(-c5c(F)c(F)c(F)c(F)c5F)c5ccc2[nH]5)C=C4)C=C3)cc1
REMARK SMILES IDX 6 1 5 2 4 3 3 4 1 5 2 6 33 8 34 9 95 10 35 11 94 12 36 13
REMARK SMILES IDX 37 14 38 15 88 16 39 17 93 18 87 19 89 20 40 21 92 22 86 23
REMARK SMILES IDX 85 24 41 26 73 27 53 28 72 29 54 30 57 31 71 32 90 33 55 34
REMARK SMILES IDX 56 35 70 37 91 38 58 39 42 40 43 41 51 42 44 43 45 44 49 45
REMARK SMILES IDX 52 46 46 47 47 48 50 49 48 50 74 51 75 52 83 53 76 54 77 55
REMARK SMILES IDX 81 56 84 57 78 58 79 59 82 60 80 61 59 62 60 63 68 64 61 65
REMARK SMILES IDX 62 66 66 67 69 68 63 69 64 70 67 71 65 72 7 73 8 74 9 75
REMARK SMILES IDX 10 76 11 77 12 79 13 80 14 81 32 82 15 83 24 84 17 85 18 86
REMARK SMILES IDX 22 87 19 88 21 89 23 90 20 91 16 92 25 94 26 95 30 96 27 97
REMARK SMILES IDX 29 98 31 99 28 100
REMARK H PARENT 3 7 89 25 57 36 10 78 16 93
REMARK Flexibility Score: inf
ROOT
ATOM      1  C   UNL     1       7.920  10.862  -2.276  1.00  0.00     0.002 C 
ENDROOT
BRANCH   1   2
ATOM      2  C   UNL     1       7.033  11.981  -1.732  1.00  0.00     0.021 C 
BRANCH   2   3
ATOM      3  C   UNL     1       7.705  13.342  -1.646  1.00  0.00     0.116 C 
BRANCH   3   4
ATOM      4  N   UNL     1       7.968  13.916  -2.955  1.00  0.00    -0.352 N 
ATOM      5  O   UNL     1       7.723  15.385  -4.652  1.00  0.00    -0.269 OA
ATOM      6  C   UNL     1       7.560  15.125  -3.468  1.00  0.00     0.251 C 
ATOM      7  H   UNL     1       8.514  13.362  -3.559  1.00  0.00     0.163 HD
BRANCH   6   8
ATOM      8  C   UNL     1       6.906  16.110  -2.578  1.00  0.00     0.039 A 
ATOM      9  C   UNL     1       7.423  16.371  -1.307  1.00  0.00     0.014 A 
ATOM     10  C   UNL     1       5.774  16.795  -3.028  1.00  0.00     0.014 A 
ATOM     11  C   UNL     1       6.741  17.216  -0.442  1.00  0.00     0.010 A 
ATOM     12  C   UNL     1       5.140  17.718  -2.189  1.00  0.00     0.010 A 
ATOM     13  C   UNL     1       5.613  17.926  -0.884  1.00  0.00    -0.014 A 
BRANCH  13  14
ATOM     14  C   UNL     1       5.027  18.966  -0.003  1.00  0.00     0.031 A 
ATOM     15  C   UNL     1       3.634  18.845   0.542  1.00  0.00     0.074 A 
ATOM     16  C   UNL     1       5.792  20.032   0.309  1.00  0.00     0.049 A 
ATOM     17  N   UNL     1       2.984  19.670   1.325  1.00  0.00    -0.248 NA
ATOM     18  C   UNL     1       2.863  17.652   0.160  1.00  0.00     0.031 C 
ATOM     19  C   UNL     1       7.154  20.260  -0.182  1.00  0.00     0.029 A 
ATOM     20  N   UNL     1       5.547  21.113   1.115  1.00  0.00    -0.354 N 
ATOM     21  C   UNL     1       1.728  19.109   1.516  1.00  0.00     0.074 A 
ATOM     22  C   UNL     1       1.697  17.879   0.752  1.00  0.00     0.031 C 
ATOM     23  C   UNL     1       7.636  21.386   0.360  1.00  0.00     0.029 A 
ATOM     24  C   UNL     1       6.597  21.997   1.178  1.00  0.00     0.049 A 
ATOM     25  H   UNL     1       4.701  21.244   1.602  1.00  0.00     0.167 HD
ATOM     26  C   UNL     1       0.703  19.582   2.264  1.00  0.00     0.037 A 
ATOM     27  C   UNL     1       6.702  23.185   1.800  1.00  0.00     0.037 A 
ATOM     28  C   UNL     1       0.754  20.800   3.035  1.00  0.00     0.049 A 
ATOM     29  C   UNL     1       5.534  23.691   2.596  1.00  0.00     0.074 A 
ATOM     30  C   UNL     1      -0.213  21.330   3.873  1.00  0.00     0.029 A 
ATOM     31  N   UNL     1       1.824  21.683   3.054  1.00  0.00    -0.354 N 
ATOM     32  N   UNL     1       4.375  23.120   2.817  1.00  0.00    -0.248 NA
ATOM     33  C   UNL     1       5.685  25.009   3.226  1.00  0.00     0.031 C 
ATOM     34  C   UNL     1       0.247  22.561   4.350  1.00  0.00     0.029 A 
ATOM     35  C   UNL     1       1.524  22.771   3.859  1.00  0.00     0.049 A 
ATOM     36  H   UNL     1       2.670  21.555   2.567  1.00  0.00     0.167 HD
ATOM     37  C   UNL     1       3.666  23.999   3.622  1.00  0.00     0.074 A 
ATOM     38  C   UNL     1       4.537  25.127   3.876  1.00  0.00     0.031 C 
ATOM     39  C   UNL     1       2.403  23.887   4.101  1.00  0.00     0.037 A 
BRANCH  26  40
ATOM     40  C   UNL     1      -0.580  18.802   2.289  1.00  0.00     0.064 A 
ATOM     41  C   UNL     1      -0.695  17.593   2.990  1.00  0.00     0.173 A 
ATOM     42  C   UNL     1      -1.736  19.326   1.690  1.00  0.00     0.173 A 
ATOM     43  F   UNL     1       0.381  17.046   3.575  1.00  0.00    -0.203 F 
ATOM     44  C   UNL     1      -1.920  16.935   3.086  1.00  0.00     0.198 A 
ATOM     45  C   UNL     1      -2.964  18.678   1.809  1.00  0.00     0.198 A 
ATOM     46  F   UNL     1      -1.682  20.483   1.014  1.00  0.00    -0.203 F 
ATOM     47  F   UNL     1      -2.003  15.770   3.744  1.00  0.00    -0.200 F 
ATOM     48  C   UNL     1      -3.054  17.483   2.505  1.00  0.00     0.200 A 
ATOM     49  F   UNL     1      -4.061  19.218   1.261  1.00  0.00    -0.200 F 
ATOM     50  F   UNL     1      -4.236  16.860   2.619  1.00  0.00    -0.200 F 
ENDBRANCH  26  40
BRANCH  27  51
ATOM     51  C   UNL     1       7.944  23.990   1.664  1.00  0.00     0.064 A 
ATOM     52  C   UNL     1       8.765  24.250   2.769  1.00  0.00     0.173 A 
ATOM     53  C   UNL     1       8.324  24.535   0.428  1.00  0.00     0.173 A 
ATOM     54  F   UNL     1       8.436  23.766   3.977  1.00  0.00    -0.203 F 
ATOM     55  C   UNL     1       9.901  25.048   2.650  1.00  0.00     0.198 A 
ATOM     56  C   UNL     1       9.479  25.301   0.301  1.00  0.00     0.198 A 
ATOM     57  F   UNL     1       7.577  24.312  -0.664  1.00  0.00    -0.203 F 
ATOM     58  F   UNL     1      10.634  25.331   3.735  1.00  0.00    -0.200 F 
ATOM     59  C   UNL     1      10.260  25.569   1.415  1.00  0.00     0.200 A 
ATOM     60  F   UNL     1       9.832  25.785  -0.897  1.00  0.00    -0.200 F 
ATOM     61  F   UNL     1      11.351  26.337   1.301  1.00  0.00    -0.200 F 
ENDBRANCH  27  51
BRANCH  39  62
ATOM     62  C   UNL     1       1.903  25.006   4.966  1.00  0.00     0.064 A 
ATOM     63  C   UNL     1       1.606  26.269   4.433  1.00  0.00     0.173 A 
ATOM     64  C   UNL     1       1.699  24.807   6.340  1.00  0.00     0.173 A 
ATOM     65  F   UNL     1       1.802  26.515   3.129  1.00  0.00    -0.203 F 
ATOM     66  C   UNL     1       1.155  27.302   5.250  1.00  0.00     0.198 A 
ATOM     67  C   UNL     1       1.215  25.832   7.147  1.00  0.00     0.198 A 
ATOM     68  F   UNL     1       1.962  23.616   6.897  1.00  0.00    -0.203 F 
ATOM     69  F   UNL     1       0.934  28.517   4.730  1.00  0.00    -0.200 F 
ATOM     70  C   UNL     1       0.952  27.080   6.604  1.00  0.00     0.200 A 
ATOM     71  F   UNL     1       1.007  25.612   8.453  1.00  0.00    -0.200 F 
ATOM     72  F   UNL     1       0.513  28.074   7.388  1.00  0.00    -0.200 F 
ENDBRANCH  39  62
ENDBRANCH  13  14
ENDBRANCH   6   8
ENDBRANCH   3   4
ENDBRANCH   2   3
ENDBRANCH   1   2
BRANCH   1  73
ATOM     73  C   UNL     1       9.207  10.592  -1.489  1.00  0.00     0.002 C 
BRANCH  73  74
ATOM     74  C   UNL     1       9.046  10.369   0.021  1.00  0.00     0.021 C 
BRANCH  74  75
ATOM     75  C   UNL     1       7.981   9.353   0.431  1.00  0.00     0.116 C 
BRANCH  75  76
ATOM     76  N   UNL     1       8.198   8.041  -0.139  1.00  0.00    -0.354 N 
ATOM     77  C   UNL     1       8.582   6.896   0.495  1.00  0.00     0.249 C 
ATOM     78  H   UNL     1       8.049   7.965  -1.109  1.00  0.00     0.163 HD
ATOM     79  O   UNL     1       8.611   5.857  -0.169  1.00  0.00    -0.272 OA
BRANCH  77  80
ATOM     80  C   UNL     1       8.959   6.944   1.993  1.00  0.00     0.211 C 
ATOM     81  C   UNL     1       9.475   5.604   2.502  1.00  0.00     0.085 C 
ATOM     82  O   UNL     1       9.960   7.932   2.231  1.00  0.00    -0.357 OA
ATOM     83  C   UNL     1      10.799   5.896   3.222  1.00  0.00     0.124 C 
ATOM     84  C   UNL     1      11.176   7.308   2.690  1.00  0.00     0.187 C 
BRANCH  83  85
ATOM     85  C   UNL     1      10.622   5.604   4.729  1.00  0.00     0.005 A 
ATOM     86  C   UNL     1      10.421   4.231   5.060  1.00  0.00     0.008 A 
ATOM     87  C   UNL     1      10.644   6.493   5.820  1.00  0.00     0.047 A 
ATOM     88  C   UNL     1      10.301   3.767   6.372  1.00  0.00     0.001 A 
ATOM     89  C   UNL     1      10.566   6.014   7.145  1.00  0.00     0.021 A 
ATOM     90  Cl  UNL     1      10.678   8.216   5.718  1.00  0.00    -0.084 Cl
ATOM     91  C   UNL     1      10.399   4.661   7.422  1.00  0.00     0.002 A 
ENDBRANCH  83  85
BRANCH  83  92
ATOM     92  O   UNL     1      11.787   4.927   2.807  1.00  0.00    -0.382 OA
ATOM     93  H   UNL     1      11.966   5.034   1.860  1.00  0.00     0.212 HD
ENDBRANCH  83  92
BRANCH  84  94
ATOM     94  C   UNL     1      12.220   7.449   1.580  1.00  0.00     0.003 A 
ATOM     95  C   UNL     1      11.970   6.971   0.279  1.00  0.00     0.008 A 
ATOM     96  C   UNL     1      13.449   8.107   1.798  1.00  0.00     0.046 A 
ATOM     97  C   UNL     1      12.873   7.179  -0.767  1.00  0.00     0.000 A 
ATOM     98  C   UNL     1      14.351   8.316   0.746  1.00  0.00     0.021 A 
ATOM     99  Cl  UNL     1      13.938   8.702   3.348  1.00  0.00    -0.084 Cl
ATOM    100  C   UNL     1      14.060   7.862  -0.537  1.00  0.00     0.002 A 
ENDBRANCH  84  94
ENDBRANCH  77  80
ENDBRANCH  75  76
ENDBRANCH  74  75
ENDBRANCH  73  74
ENDBRANCH   1  73
TORSDOF 16
