REMARK SMILES O=C(C[C@H]1C[C@H]2CC[C@@H](C1)N2C(=O)c1c[nH]c(=O)[nH]1)NCCCCCCNC(=O)c1ccc(-c2c3nc(c(-c4c(F)c(F)c(F)c(F)c4F)c4ccc([nH]4)c(-c4c(F)c(F)c(F)c(F)c4F)c4nc(c(-c5c(F)c(F)c(F)c(F)c5F)c5ccc2[nH]5)C=C4)C=C3)cc1
REMARK SMILES IDX 23 1 22 2 21 3 20 4 1 5 2 6 3 8 4 9 5 10 10 11 6 12 9 13
REMARK SMILES IDX 7 14 11 15 8 16 12 17 13 18 14 19 15 20 19 21 16 22 17 23
REMARK SMILES IDX 18 26 24 27 25 28 26 29 27 30 28 31 29 33 30 34 31 35 92 36
REMARK SMILES IDX 32 37 91 38 33 39 34 40 35 41 85 42 36 43 90 44 84 45 86 46
REMARK SMILES IDX 37 47 89 48 83 49 82 50 38 52 70 53 50 54 69 55 51 56 54 57
REMARK SMILES IDX 68 58 87 59 52 60 53 61 67 63 88 64 55 65 39 66 40 67 48 68
REMARK SMILES IDX 41 69 42 70 46 71 49 72 43 73 44 74 47 75 45 76 71 77 72 78
REMARK SMILES IDX 80 79 73 80 74 81 78 82 81 83 75 84 76 85 79 86 77 87 56 88
REMARK SMILES IDX 57 89 65 90 58 91 59 92 63 93 66 94 60 95 61 96 64 97 62 98
REMARK H PARENT 20 7 19 24 16 25 27 32 86 51 54 62
REMARK Flexibility Score: inf
ROOT
ATOM      1  C   UNL     1       4.328  -3.073   2.358  1.00  0.00     0.002 C 
ENDROOT
BRANCH   1   2
ATOM      2  C   UNL     1       2.908  -3.397   1.872  1.00  0.00     0.021 C 
BRANCH   2   3
ATOM      3  C   UNL     1       2.037  -2.247   1.353  1.00  0.00     0.116 C 
BRANCH   3   4
ATOM      4  N   UNL     1       2.639  -1.427   0.309  1.00  0.00    -0.356 N 
ATOM      5  O   UNL     1       0.893   0.060   0.197  1.00  0.00    -0.275 OA
ATOM      6  C   UNL     1       2.026  -0.267  -0.143  1.00  0.00     0.220 C 
ATOM      7  H   UNL     1       3.499  -1.703  -0.084  1.00  0.00     0.163 HD
BRANCH   6   8
ATOM      8  C   UNL     1       2.864   0.620  -1.060  1.00  0.00     0.103 C 
BRANCH   8   9
ATOM      9  C   UNL     1       3.983   1.499  -0.437  1.00  0.00     0.002 C 
ATOM     10  C   UNL     1       3.606   2.921   0.092  1.00  0.00     0.029 C 
ATOM     11  C   UNL     1       4.876   0.741   0.543  1.00  0.00     0.029 C 
ATOM     12  C   UNL     1       3.699   3.143   1.631  1.00  0.00     0.086 C 
ATOM     13  C   UNL     1       4.587   1.048   2.011  1.00  0.00     0.086 C 
ATOM     14  C   UNL     1       2.550   2.399   2.300  1.00  0.00     0.027 C 
ATOM     15  N   UNL     1       4.864   2.454   2.187  1.00  0.00    -0.331 N 
ATOM     16  C   UNL     1       3.146   1.013   2.549  1.00  0.00     0.027 C 
BRANCH  15  17
ATOM     17  C   UNL     1       5.596   2.902   3.278  1.00  0.00     0.272 C 
ATOM     18  O   UNL     1       5.354   3.930   3.898  1.00  0.00    -0.267 OA
BRANCH  17  19
ATOM     19  C   UNL     1       6.673   1.971   3.726  1.00  0.00     0.125 A 
ATOM     20  C   UNL     1       7.647   1.433   2.974  1.00  0.00     0.119 A 
ATOM     21  N   UNL     1       6.741   1.426   4.988  1.00  0.00    -0.302 N 
ATOM     22  N   UNL     1       8.336   0.525   3.739  1.00  0.00    -0.312 N 
ATOM     23  C   UNL     1       7.782   0.491   5.028  1.00  0.00     0.323 A 
ATOM     24  H   UNL     1       6.151   1.657   5.742  1.00  0.00     0.172 HD
ATOM     25  H   UNL     1       9.099  -0.016   3.432  1.00  0.00     0.171 HD
ATOM     26  O   UNL     1       8.116  -0.218   5.955  1.00  0.00    -0.248 OA
ENDBRANCH  17  19
ENDBRANCH  15  17
ENDBRANCH   8   9
ENDBRANCH   6   8
ENDBRANCH   3   4
ENDBRANCH   2   3
ENDBRANCH   1   2
BRANCH   1  27
ATOM     27  C   UNL     1       4.478  -2.202   3.606  1.00  0.00     0.002 C 
BRANCH  27  28
ATOM     28  C   UNL     1       3.815  -2.661   4.898  1.00  0.00     0.021 C 
BRANCH  28  29
ATOM     29  C   UNL     1       4.111  -4.085   5.333  1.00  0.00     0.116 C 
BRANCH  29  30
ATOM     30  N   UNL     1       5.515  -4.342   5.603  1.00  0.00    -0.352 N 
ATOM     31  C   UNL     1       6.081  -5.084   6.614  1.00  0.00     0.251 C 
ATOM     32  H   UNL     1       6.150  -3.929   4.974  1.00  0.00     0.163 HD
ATOM     33  O   UNL     1       7.301  -5.160   6.719  1.00  0.00    -0.269 OA
BRANCH  31  34
ATOM     34  C   UNL     1       5.218  -5.770   7.604  1.00  0.00     0.039 A 
ATOM     35  C   UNL     1       5.554  -5.691   8.958  1.00  0.00     0.014 A 
ATOM     36  C   UNL     1       4.083  -6.481   7.208  1.00  0.00     0.014 A 
ATOM     37  C   UNL     1       4.720  -6.274   9.916  1.00  0.00     0.010 A 
ATOM     38  C   UNL     1       3.205  -6.980   8.167  1.00  0.00     0.010 A 
ATOM     39  C   UNL     1       3.521  -6.896   9.531  1.00  0.00    -0.014 A 
BRANCH  39  40
ATOM     40  C   UNL     1       2.605  -7.495  10.537  1.00  0.00     0.031 A 
ATOM     41  C   UNL     1       2.324  -8.974  10.512  1.00  0.00     0.074 A 
ATOM     42  C   UNL     1       1.993  -6.709  11.445  1.00  0.00     0.049 A 
ATOM     43  N   UNL     1       1.513  -9.679  11.262  1.00  0.00    -0.248 NA
ATOM     44  C   UNL     1       3.027  -9.764   9.488  1.00  0.00     0.031 C 
ATOM     45  C   UNL     1       2.144  -5.256  11.546  1.00  0.00     0.029 A 
ATOM     46  N   UNL     1       1.114  -7.021  12.453  1.00  0.00    -0.354 N 
ATOM     47  C   UNL     1       1.613 -10.986  10.801  1.00  0.00     0.074 A 
ATOM     48  C   UNL     1       2.499 -10.966   9.659  1.00  0.00     0.031 C 
ATOM     49  C   UNL     1       1.402  -4.806  12.570  1.00  0.00     0.029 A 
ATOM     50  C   UNL     1       0.693  -5.930  13.175  1.00  0.00     0.049 A 
ATOM     51  H   UNL     1       0.814  -7.939  12.640  1.00  0.00     0.167 HD
ATOM     52  C   UNL     1       1.048 -12.109  11.307  1.00  0.00     0.037 A 
ATOM     53  C   UNL     1      -0.174  -5.846  14.202  1.00  0.00     0.037 A 
ATOM     54  C   UNL     1       0.174 -12.129  12.450  1.00  0.00     0.049 A 
ATOM     55  C   UNL     1      -0.810  -7.108  14.728  1.00  0.00     0.074 A 
ATOM     56  C   UNL     1      -0.439 -13.215  13.050  1.00  0.00     0.029 A 
ATOM     57  N   UNL     1      -0.210 -11.007  13.169  1.00  0.00    -0.354 N 
ATOM     58  N   UNL     1      -0.665  -8.345  14.317  1.00  0.00    -0.248 NA
ATOM     59  C   UNL     1      -1.719  -6.962  15.873  1.00  0.00     0.031 C 
ATOM     60  C   UNL     1      -1.229 -12.745  14.104  1.00  0.00     0.029 A 
ATOM     61  C   UNL     1      -1.058 -11.374  14.201  1.00  0.00     0.049 A 
ATOM     62  H   UNL     1       0.078 -10.085  12.975  1.00  0.00     0.167 HD
ATOM     63  C   UNL     1      -1.427  -9.125  15.177  1.00  0.00     0.074 A 
ATOM     64  C   UNL     1      -2.020  -8.224  16.142  1.00  0.00     0.031 C 
ATOM     65  C   UNL     1      -1.621 -10.467  15.168  1.00  0.00     0.037 A 
BRANCH  52  66
ATOM     66  C   UNL     1       1.376 -13.412  10.635  1.00  0.00     0.064 A 
ATOM     67  C   UNL     1       2.665 -13.965  10.701  1.00  0.00     0.173 A 
ATOM     68  C   UNL     1       0.387 -14.138   9.954  1.00  0.00     0.173 A 
ATOM     69  F   UNL     1       3.651 -13.307  11.328  1.00  0.00    -0.203 F 
ATOM     70  C   UNL     1       2.958 -15.179  10.085  1.00  0.00     0.198 A 
ATOM     71  C   UNL     1       0.676 -15.369   9.370  1.00  0.00     0.198 A 
ATOM     72  F   UNL     1      -0.863 -13.660   9.864  1.00  0.00    -0.203 F 
ATOM     73  F   UNL     1       4.209 -15.659  10.117  1.00  0.00    -0.200 F 
ATOM     74  C   UNL     1       1.962 -15.884   9.428  1.00  0.00     0.200 A 
ATOM     75  F   UNL     1      -0.292 -16.057   8.748  1.00  0.00    -0.200 F 
ATOM     76  F   UNL     1       2.243 -17.058   8.846  1.00  0.00    -0.200 F 
ENDBRANCH  52  66
BRANCH  53  77
ATOM     77  C   UNL     1      -0.490  -4.527  14.816  1.00  0.00     0.064 A 
ATOM     78  C   UNL     1      -0.126  -4.236  16.139  1.00  0.00     0.173 A 
ATOM     79  C   UNL     1      -1.202  -3.547  14.108  1.00  0.00     0.173 A 
ATOM     80  F   UNL     1       0.539  -5.146  16.866  1.00  0.00    -0.203 F 
ATOM     81  C   UNL     1      -0.498  -3.036  16.742  1.00  0.00     0.198 A 
ATOM     82  C   UNL     1      -1.541  -2.333  14.700  1.00  0.00     0.198 A 
ATOM     83  F   UNL     1      -1.570  -3.770  12.838  1.00  0.00    -0.203 F 
ATOM     84  F   UNL     1      -0.200  -2.816  18.030  1.00  0.00    -0.200 F 
ATOM     85  C   UNL     1      -1.202  -2.084  16.022  1.00  0.00     0.200 A 
ATOM     86  F   UNL     1      -2.208  -1.409  13.995  1.00  0.00    -0.200 F 
ATOM     87  F   UNL     1      -1.567  -0.934  16.604  1.00  0.00    -0.200 F 
ENDBRANCH  53  77
BRANCH  65  88
ATOM     88  C   UNL     1      -2.455 -11.050  16.275  1.00  0.00     0.064 A 
ATOM     89  C   UNL     1      -3.836 -10.822  16.367  1.00  0.00     0.173 A 
ATOM     90  C   UNL     1      -1.860 -11.870  17.247  1.00  0.00     0.173 A 
ATOM     91  F   UNL     1      -4.452 -10.036  15.470  1.00  0.00    -0.203 F 
ATOM     92  C   UNL     1      -4.582 -11.357  17.414  1.00  0.00     0.198 A 
ATOM     93  C   UNL     1      -2.616 -12.435  18.270  1.00  0.00     0.198 A 
ATOM     94  F   UNL     1      -0.545 -12.131  17.201  1.00  0.00    -0.203 F 
ATOM     95  F   UNL     1      -5.887 -11.071  17.518  1.00  0.00    -0.200 F 
ATOM     96  C   UNL     1      -3.973 -12.168  18.360  1.00  0.00     0.200 A 
ATOM     97  F   UNL     1      -2.029 -13.234  19.173  1.00  0.00    -0.200 F 
ATOM     98  F   UNL     1      -4.694 -12.685  19.365  1.00  0.00    -0.200 F 
ENDBRANCH  65  88
ENDBRANCH  39  40
ENDBRANCH  31  34
ENDBRANCH  29  30
ENDBRANCH  28  29
ENDBRANCH  27  28
ENDBRANCH   1  27
TORSDOF 16
