REMARK SMILES C[C@@]1(CN2C(=O)c3ccc(C(=O)NCCCCCCNC(=O)c4ccc(-c5c6nc(c(-c7c(F)c(F)c(F)c(F)c7F)c7ccc([nH]7)c(-c7c(F)c(F)c(F)c(F)c7F)c7nc(c(-c8c(F)c(F)c(F)c(F)c8F)c8ccc5[nH]8)C=C7)C=C6)cc4)cc3C2=O)CCCO1
REMARK SMILES IDX 16 1 15 2 14 3 13 4 11 5 12 6 10 8 4 9 5 10 88 11 6 12 7 13
REMARK SMILES IDX 87 14 89 15 8 16 86 17 9 18 3 19 2 20 1 21 90 22 93 23 91 24
REMARK SMILES IDX 92 25 17 26 18 27 19 28 20 29 21 30 22 32 23 33 24 34 85 35
REMARK SMILES IDX 25 36 84 37 26 38 27 39 28 40 78 41 29 42 83 43 77 44 79 45
REMARK SMILES IDX 30 46 82 47 76 48 75 49 31 51 63 52 43 53 62 54 44 55 47 56
REMARK SMILES IDX 61 57 80 58 45 59 46 60 60 62 81 63 48 64 32 65 33 66 41 67
REMARK SMILES IDX 34 68 35 69 39 70 42 71 36 72 37 73 40 74 38 75 64 76 65 77
REMARK SMILES IDX 73 78 66 79 67 80 71 81 74 82 68 83 69 84 72 85 70 86 49 87
REMARK SMILES IDX 50 88 58 89 51 90 52 91 56 92 59 93 53 94 54 95 57 96 55 97
REMARK H PARENT 13 7 20 31 79 50 47 61
REMARK Flexibility Score: inf
ROOT
ATOM      1  C   UNL     1      -4.925   7.345  -6.149  1.00  0.00     0.002 C 
ENDROOT
BRANCH   1   2
ATOM      2  C   UNL     1      -3.945   6.543  -5.283  1.00  0.00     0.021 C 
BRANCH   2   3
ATOM      3  C   UNL     1      -4.641   5.645  -4.256  1.00  0.00     0.116 C 
BRANCH   3   4
ATOM      4  N   UNL     1      -5.077   4.415  -4.883  1.00  0.00    -0.352 N 
ATOM      5  C   UNL     1      -4.559   3.148  -4.910  1.00  0.00     0.251 C 
ATOM      6  O   UNL     1      -5.186   2.295  -5.539  1.00  0.00    -0.269 OA
ATOM      7  H   UNL     1      -5.916   4.508  -5.391  1.00  0.00     0.163 HD
BRANCH   5   8
ATOM      8  C   UNL     1      -3.310   2.741  -4.203  1.00  0.00     0.040 A 
ATOM      9  N   UNL     1      -0.337  -0.234  -2.321  1.00  0.00    -0.271 N 
ATOM     10  C   UNL     1       0.075   1.067  -2.358  1.00  0.00     0.261 C 
ATOM     11  C   UNL     1      -1.575  -0.392  -2.889  1.00  0.00     0.261 C 
ATOM     12  O   UNL     1       1.141   1.555  -2.030  1.00  0.00    -0.269 OA
ATOM     13  C   UNL     1      -1.018   1.832  -2.940  1.00  0.00     0.053 A 
ATOM     14  C   UNL     1      -2.026   0.949  -3.269  1.00  0.00     0.054 A 
ATOM     15  O   UNL     1      -2.196  -1.407  -3.125  1.00  0.00    -0.269 OA
ATOM     16  C   UNL     1      -1.097   3.177  -3.227  1.00  0.00     0.015 A 
ATOM     17  C   UNL     1      -3.183   1.371  -3.896  1.00  0.00     0.028 A 
ATOM     18  C   UNL     1      -2.246   3.620  -3.893  1.00  0.00     0.015 A 
BRANCH   9  19
ATOM     19  C   UNL     1       0.485  -1.329  -1.835  1.00  0.00     0.164 C 
BRANCH  19  20
ATOM     20  C   UNL     1       0.466  -1.507  -0.293  1.00  0.00     0.084 C 
ATOM     21  C   UNL     1       0.988  -0.281   0.456  1.00  0.00     0.044 C 
ATOM     22  C   UNL     1       1.259  -2.759   0.103  1.00  0.00     0.039 C 
ATOM     23  O   UNL     1      -0.892  -1.749   0.140  1.00  0.00    -0.373 OA
ATOM     24  C   UNL     1       0.210  -3.842   0.080  1.00  0.00     0.031 C 
ATOM     25  C   UNL     1      -1.010  -3.107   0.585  1.00  0.00     0.161 C 
ENDBRANCH  19  20
ENDBRANCH   9  19
ENDBRANCH   5   8
ENDBRANCH   3   4
ENDBRANCH   2   3
ENDBRANCH   1   2
BRANCH   1  26
ATOM     26  C   UNL     1      -5.815   8.322  -5.372  1.00  0.00     0.002 C 
BRANCH  26  27
ATOM     27  C   UNL     1      -5.058   9.310  -4.480  1.00  0.00     0.021 C 
BRANCH  27  28
ATOM     28  C   UNL     1      -4.122  10.241  -5.243  1.00  0.00     0.116 C 
BRANCH  28  29
ATOM     29  N   UNL     1      -4.860  11.119  -6.137  1.00  0.00    -0.352 N 
ATOM     30  C   UNL     1      -4.875  12.489  -6.190  1.00  0.00     0.251 C 
ATOM     31  H   UNL     1      -5.431  10.665  -6.798  1.00  0.00     0.163 HD
ATOM     32  O   UNL     1      -5.743  13.074  -6.830  1.00  0.00    -0.269 OA
BRANCH  30  33
ATOM     33  C   UNL     1      -3.840  13.262  -5.475  1.00  0.00     0.039 A 
ATOM     34  C   UNL     1      -4.212  14.422  -4.791  1.00  0.00     0.014 A 
ATOM     35  C   UNL     1      -2.500  12.866  -5.511  1.00  0.00     0.014 A 
ATOM     36  C   UNL     1      -3.244  15.167  -4.117  1.00  0.00     0.010 A 
ATOM     37  C   UNL     1      -1.549  13.565  -4.776  1.00  0.00     0.010 A 
ATOM     38  C   UNL     1      -1.908  14.735  -4.089  1.00  0.00    -0.014 A 
BRANCH  38  39
ATOM     39  C   UNL     1      -0.864  15.514  -3.380  1.00  0.00     0.031 A 
ATOM     40  C   UNL     1       0.263  16.137  -4.158  1.00  0.00     0.074 A 
ATOM     41  C   UNL     1      -0.903  15.618  -2.038  1.00  0.00     0.049 A 
ATOM     42  N   UNL     1       1.303  16.802  -3.722  1.00  0.00    -0.248 NA
ATOM     43  C   UNL     1       0.233  15.966  -5.619  1.00  0.00     0.031 C 
ATOM     44  C   UNL     1      -1.921  15.021  -1.173  1.00  0.00     0.029 A 
ATOM     45  N   UNL     1      -0.058  16.257  -1.166  1.00  0.00    -0.354 N 
ATOM     46  C   UNL     1       2.053  17.111  -4.849  1.00  0.00     0.074 A 
ATOM     47  C   UNL     1       1.383  16.512  -5.982  1.00  0.00     0.031 C 
ATOM     48  C   UNL     1      -1.654  15.340   0.104  1.00  0.00     0.029 A 
ATOM     49  C   UNL     1      -0.429  16.131   0.151  1.00  0.00     0.049 A 
ATOM     50  H   UNL     1       0.738  16.758  -1.456  1.00  0.00     0.167 HD
ATOM     51  C   UNL     1       3.185  17.849  -4.934  1.00  0.00     0.037 A 
ATOM     52  C   UNL     1       0.160  16.599   1.268  1.00  0.00     0.037 A 
ATOM     53  C   UNL     1       3.831  18.467  -3.806  1.00  0.00     0.049 A 
ATOM     54  C   UNL     1       1.416  17.419   1.144  1.00  0.00     0.074 A 
ATOM     55  C   UNL     1       4.952  19.279  -3.791  1.00  0.00     0.029 A 
ATOM     56  N   UNL     1       3.411  18.339  -2.490  1.00  0.00    -0.354 N 
ATOM     57  N   UNL     1       2.081  17.759   0.067  1.00  0.00    -0.248 NA
ATOM     58  C   UNL     1       1.998  17.929   2.393  1.00  0.00     0.031 C 
ATOM     59  C   UNL     1       5.238  19.603  -2.461  1.00  0.00     0.029 A 
ATOM     60  C   UNL     1       4.261  19.044  -1.653  1.00  0.00     0.049 A 
ATOM     61  H   UNL     1       2.625  17.825  -2.195  1.00  0.00     0.167 HD
ATOM     62  C   UNL     1       3.134  18.553   0.502  1.00  0.00     0.074 A 
ATOM     63  C   UNL     1       3.012  18.653   1.941  1.00  0.00     0.031 C 
ATOM     64  C   UNL     1       4.112  19.148  -0.224  1.00  0.00     0.037 A 
BRANCH  51  65
ATOM     65  C   UNL     1       3.796  18.035  -6.294  1.00  0.00     0.064 A 
ATOM     66  C   UNL     1       3.174  18.814  -7.282  1.00  0.00     0.173 A 
ATOM     67  C   UNL     1       5.040  17.462  -6.600  1.00  0.00     0.173 A 
ATOM     68  F   UNL     1       1.978  19.375  -7.046  1.00  0.00    -0.203 F 
ATOM     69  C   UNL     1       3.760  18.988  -8.534  1.00  0.00     0.198 A 
ATOM     70  C   UNL     1       5.638  17.665  -7.841  1.00  0.00     0.198 A 
ATOM     71  F   UNL     1       5.681  16.711  -5.692  1.00  0.00    -0.203 F 
ATOM     72  F   UNL     1       3.122  19.694  -9.477  1.00  0.00    -0.200 F 
ATOM     73  C   UNL     1       4.995  18.421  -8.809  1.00  0.00     0.200 A 
ATOM     74  F   UNL     1       6.838  17.128  -8.101  1.00  0.00    -0.200 F 
ATOM     75  F   UNL     1       5.562  18.598 -10.010  1.00  0.00    -0.200 F 
ENDBRANCH  51  65
BRANCH  52  76
ATOM     76  C   UNL     1      -0.445  16.328   2.599  1.00  0.00     0.064 A 
ATOM     77  C   UNL     1      -1.005  17.363   3.361  1.00  0.00     0.173 A 
ATOM     78  C   UNL     1      -0.462  15.036   3.144  1.00  0.00     0.173 A 
ATOM     79  F   UNL     1      -0.997  18.620   2.891  1.00  0.00    -0.203 F 
ATOM     80  C   UNL     1      -1.532  17.123   4.628  1.00  0.00     0.198 A 
ATOM     81  C   UNL     1      -1.018  14.791   4.398  1.00  0.00     0.198 A 
ATOM     82  F   UNL     1       0.053  14.008   2.454  1.00  0.00    -0.203 F 
ATOM     83  F   UNL     1      -2.010  18.140   5.357  1.00  0.00    -0.200 F 
ATOM     84  C   UNL     1      -1.542  15.836   5.144  1.00  0.00     0.200 A 
ATOM     85  F   UNL     1      -1.041  13.543   4.886  1.00  0.00    -0.200 F 
ATOM     86  F   UNL     1      -2.048  15.604   6.363  1.00  0.00    -0.200 F 
ENDBRANCH  52  76
BRANCH  64  87
ATOM     87  C   UNL     1       5.096  20.006   0.518  1.00  0.00     0.064 A 
ATOM     88  C   UNL     1       6.061  19.457   1.375  1.00  0.00     0.173 A 
ATOM     89  C   UNL     1       5.095  21.398   0.337  1.00  0.00     0.173 A 
ATOM     90  F   UNL     1       6.096  18.133   1.593  1.00  0.00    -0.203 F 
ATOM     91  C   UNL     1       6.967  20.272   2.048  1.00  0.00     0.198 A 
ATOM     92  C   UNL     1       6.024  22.206   0.984  1.00  0.00     0.198 A 
ATOM     93  F   UNL     1       4.199  21.973  -0.479  1.00  0.00    -0.203 F 
ATOM     94  F   UNL     1       7.844  19.731   2.905  1.00  0.00    -0.200 F 
ATOM     95  C   UNL     1       6.953  21.644   1.847  1.00  0.00     0.200 A 
ATOM     96  F   UNL     1       6.019  23.530   0.775  1.00  0.00    -0.200 F 
ATOM     97  F   UNL     1       7.830  22.426   2.490  1.00  0.00    -0.200 F 
ENDBRANCH  64  87
ENDBRANCH  38  39
ENDBRANCH  30  33
ENDBRANCH  28  29
ENDBRANCH  27  28
ENDBRANCH  26  27
ENDBRANCH   1  26
TORSDOF 15
