REMARK SMILES O=C(Cc1ccc(F)c(F)c1)NC1(C(=O)NCCCCCCNC(=O)c2ccc(-c3c4nc(c(-c5c(F)c(F)c(F)c(F)c5F)c5ccc([nH]5)c(-c5c(F)c(F)c(F)c(F)c5F)c5nc(c(-c6c(F)c(F)c(F)c(F)c6F)c6ccc3[nH]6)C=C5)C=C4)cc2)CCCC1
REMARK SMILES IDX 19 1 18 2 17 3 16 4 14 5 15 6 13 8 89 9 92 10 90 11 91 12
REMARK SMILES IDX 12 13 1 14 2 15 3 17 4 18 5 19 11 20 6 21 9 22 7 23 10 24
REMARK SMILES IDX 8 25 20 26 21 27 22 28 23 29 24 30 25 32 26 33 27 34 88 35
REMARK SMILES IDX 28 36 87 37 29 38 30 39 31 40 81 41 32 42 86 43 80 44 82 45
REMARK SMILES IDX 33 46 85 47 79 48 78 49 34 51 66 52 46 53 65 54 47 55 50 56
REMARK SMILES IDX 64 57 83 58 48 59 49 60 63 62 84 63 51 64 35 65 36 66 44 67
REMARK SMILES IDX 37 68 38 69 42 70 45 71 39 72 40 73 43 74 41 75 67 76 68 77
REMARK SMILES IDX 76 78 69 79 70 80 74 81 77 82 71 83 72 84 75 85 73 86 52 87
REMARK SMILES IDX 53 88 61 89 54 90 55 91 59 92 62 93 56 94 57 95 60 96 58 97
REMARK H PARENT 16 7 12 16 23 31 82 50 50 61
REMARK Flexibility Score: inf
ROOT
ATOM      1  C   UNL     1      -2.525   4.722   1.626  1.00  0.00     0.002 C 
ENDROOT
BRANCH   1   2
ATOM      2  C   UNL     1      -1.633   4.464   0.413  1.00  0.00     0.021 C 
BRANCH   2   3
ATOM      3  C   UNL     1      -0.145   4.485   0.719  1.00  0.00     0.116 C 
BRANCH   3   4
ATOM      4  N   UNL     1       0.291   3.340   1.470  1.00  0.00    -0.354 N 
ATOM      5  C   UNL     1       1.328   2.492   1.264  1.00  0.00     0.245 C 
ATOM      6  O   UNL     1       1.612   1.767   2.232  1.00  0.00    -0.272 OA
ATOM      7  H   UNL     1      -0.254   3.138   2.265  1.00  0.00     0.163 HD
BRANCH   5   8
ATOM      8  C   UNL     1       2.216   2.484  -0.030  1.00  0.00     0.119 C 
ATOM      9  C   UNL     1       3.272   3.604   0.009  1.00  0.00     0.038 C 
ATOM     10  C   UNL     1       1.532   2.640  -1.401  1.00  0.00     0.038 C 
ATOM     11  C   UNL     1       2.832   4.679  -0.972  1.00  0.00     0.003 C 
ATOM     12  C   UNL     1       1.962   3.980  -2.003  1.00  0.00     0.003 C 
BRANCH   8  13
ATOM     13  N   UNL     1       2.910   1.186   0.060  1.00  0.00    -0.341 N 
ATOM     14  O   UNL     1       1.135  -0.111  -0.630  1.00  0.00    -0.275 OA
ATOM     15  C   UNL     1       2.288  -0.016  -0.222  1.00  0.00     0.225 C 
ATOM     16  H   UNL     1       3.856   1.175   0.332  1.00  0.00     0.164 HD
BRANCH  15  17
ATOM     17  C   UNL     1       3.196  -1.219  -0.050  1.00  0.00     0.135 C 
BRANCH  17  18
ATOM     18  C   UNL     1       4.011  -1.525  -1.290  1.00  0.00    -0.036 A 
ATOM     19  C   UNL     1       4.184  -2.857  -1.699  1.00  0.00     0.007 A 
ATOM     20  C   UNL     1       4.644  -0.508  -2.026  1.00  0.00     0.046 A 
ATOM     21  C   UNL     1       4.942  -3.160  -2.834  1.00  0.00     0.043 A 
ATOM     22  C   UNL     1       5.391  -0.817  -3.158  1.00  0.00     0.159 A 
ATOM     23  C   UNL     1       5.537  -2.135  -3.561  1.00  0.00     0.158 A 
ATOM     24  F   UNL     1       5.967   0.175  -3.850  1.00  0.00    -0.204 F 
ATOM     25  F   UNL     1       6.258  -2.430  -4.650  1.00  0.00    -0.204 F 
ENDBRANCH  17  18
ENDBRANCH  15  17
ENDBRANCH   8  13
ENDBRANCH   5   8
ENDBRANCH   3   4
ENDBRANCH   2   3
ENDBRANCH   1   2
BRANCH   1  26
ATOM     26  C   UNL     1      -2.174   5.976   2.434  1.00  0.00     0.002 C 
BRANCH  26  27
ATOM     27  C   UNL     1      -2.050   7.265   1.617  1.00  0.00     0.021 C 
BRANCH  27  28
ATOM     28  C   UNL     1      -3.277   7.603   0.781  1.00  0.00     0.116 C 
BRANCH  28  29
ATOM     29  N   UNL     1      -4.467   7.754   1.601  1.00  0.00    -0.352 N 
ATOM     30  C   UNL     1      -5.345   8.807   1.661  1.00  0.00     0.251 C 
ATOM     31  H   UNL     1      -4.672   6.996   2.194  1.00  0.00     0.163 HD
ATOM     32  O   UNL     1      -6.181   8.875   2.550  1.00  0.00    -0.269 OA
BRANCH  30  33
ATOM     33  C   UNL     1      -5.254   9.871   0.642  1.00  0.00     0.039 A 
ATOM     34  C   UNL     1      -5.263  11.206   1.050  1.00  0.00     0.014 A 
ATOM     35  C   UNL     1      -5.141   9.540  -0.711  1.00  0.00     0.014 A 
ATOM     36  C   UNL     1      -5.096  12.215   0.101  1.00  0.00     0.010 A 
ATOM     37  C   UNL     1      -4.900  10.540  -1.643  1.00  0.00     0.010 A 
ATOM     38  C   UNL     1      -4.877  11.886  -1.247  1.00  0.00    -0.014 A 
BRANCH  38  39
ATOM     39  C   UNL     1      -4.622  12.925  -2.273  1.00  0.00     0.031 A 
ATOM     40  C   UNL     1      -5.584  13.099  -3.413  1.00  0.00     0.074 A 
ATOM     41  C   UNL     1      -3.485  13.645  -2.226  1.00  0.00     0.049 A 
ATOM     42  N   UNL     1      -5.471  13.836  -4.488  1.00  0.00    -0.248 NA
ATOM     43  C   UNL     1      -6.829  12.316  -3.348  1.00  0.00     0.031 C 
ATOM     44  C   UNL     1      -2.465  13.548  -1.181  1.00  0.00     0.029 A 
ATOM     45  N   UNL     1      -2.987  14.588  -3.090  1.00  0.00    -0.354 N 
ATOM     46  C   UNL     1      -6.618  13.596  -5.231  1.00  0.00     0.074 A 
ATOM     47  C   UNL     1      -7.389  12.604  -4.513  1.00  0.00     0.031 C 
ATOM     48  C   UNL     1      -1.474  14.410  -1.453  1.00  0.00     0.029 A 
ATOM     49  C   UNL     1      -1.762  15.082  -2.717  1.00  0.00     0.049 A 
ATOM     50  H   UNL     1      -3.464  14.882  -3.900  1.00  0.00     0.167 HD
ATOM     51  C   UNL     1      -7.003  14.170  -6.395  1.00  0.00     0.037 A 
ATOM     52  C   UNL     1      -0.953  15.965  -3.334  1.00  0.00     0.037 A 
ATOM     53  C   UNL     1      -6.236  15.169  -7.093  1.00  0.00     0.049 A 
ATOM     54  C   UNL     1      -1.388  16.562  -4.645  1.00  0.00     0.074 A 
ATOM     55  C   UNL     1      -6.554  15.837  -8.262  1.00  0.00     0.029 A 
ATOM     56  N   UNL     1      -4.999  15.647  -6.684  1.00  0.00    -0.354 N 
ATOM     57  N   UNL     1      -2.488  16.351  -5.327  1.00  0.00    -0.248 NA
ATOM     58  C   UNL     1      -0.470  17.523  -5.270  1.00  0.00     0.031 C 
ATOM     59  C   UNL     1      -5.487  16.678  -8.589  1.00  0.00     0.029 A 
ATOM     60  C   UNL     1      -4.530  16.585  -7.590  1.00  0.00     0.049 A 
ATOM     61  H   UNL     1      -4.524  15.361  -5.870  1.00  0.00     0.167 HD
ATOM     62  C   UNL     1      -2.406  17.168  -6.447  1.00  0.00     0.074 A 
ATOM     63  C   UNL     1      -1.158  17.895  -6.340  1.00  0.00     0.031 C 
ATOM     64  C   UNL     1      -3.284  17.300  -7.473  1.00  0.00     0.037 A 
BRANCH  51  65
ATOM     65  C   UNL     1      -8.314  13.740  -6.987  1.00  0.00     0.064 A 
ATOM     66  C   UNL     1      -8.354  13.044  -8.205  1.00  0.00     0.173 A 
ATOM     67  C   UNL     1      -9.537  14.071  -6.383  1.00  0.00     0.173 A 
ATOM     68  F   UNL     1      -7.215  12.703  -8.828  1.00  0.00    -0.203 F 
ATOM     69  C   UNL     1      -9.567  12.710  -8.802  1.00  0.00     0.198 A 
ATOM     70  C   UNL     1     -10.748  13.705  -6.965  1.00  0.00     0.198 A 
ATOM     71  F   UNL     1      -9.556  14.723  -5.211  1.00  0.00    -0.203 F 
ATOM     72  F   UNL     1      -9.579  12.076  -9.983  1.00  0.00    -0.200 F 
ATOM     73  C   UNL     1     -10.762  13.036  -8.180  1.00  0.00     0.200 A 
ATOM     74  F   UNL     1     -11.901  13.996  -6.348  1.00  0.00    -0.200 F 
ATOM     75  F   UNL     1     -11.929  12.703  -8.749  1.00  0.00    -0.200 F 
ENDBRANCH  51  65
BRANCH  52  76
ATOM     76  C   UNL     1       0.333  16.355  -2.699  1.00  0.00     0.064 A 
ATOM     77  C   UNL     1       1.394  15.447  -2.568  1.00  0.00     0.173 A 
ATOM     78  C   UNL     1       0.511  17.645  -2.180  1.00  0.00     0.173 A 
ATOM     79  F   UNL     1       1.274  14.199  -3.043  1.00  0.00    -0.203 F 
ATOM     80  C   UNL     1       2.575  15.809  -1.923  1.00  0.00     0.198 A 
ATOM     81  C   UNL     1       1.704  18.015  -1.562  1.00  0.00     0.198 A 
ATOM     82  F   UNL     1      -0.467  18.555  -2.299  1.00  0.00    -0.203 F 
ATOM     83  F   UNL     1       3.558  14.910  -1.776  1.00  0.00    -0.200 F 
ATOM     84  C   UNL     1       2.731  17.093  -1.425  1.00  0.00     0.200 A 
ATOM     85  F   UNL     1       1.859  19.265  -1.106  1.00  0.00    -0.200 F 
ATOM     86  F   UNL     1       3.871  17.444  -0.815  1.00  0.00    -0.200 F 
ENDBRANCH  52  76
BRANCH  64  87
ATOM     87  C   UNL     1      -2.939  18.284  -8.556  1.00  0.00     0.064 A 
ATOM     88  C   UNL     1      -3.704  19.448  -8.729  1.00  0.00     0.173 A 
ATOM     89  C   UNL     1      -1.885  18.053  -9.452  1.00  0.00     0.173 A 
ATOM     90  F   UNL     1      -4.730  19.713  -7.907  1.00  0.00    -0.203 F 
ATOM     91  C   UNL     1      -3.430  20.339  -9.763  1.00  0.00     0.198 A 
ATOM     92  C   UNL     1      -1.590  18.965 -10.462  1.00  0.00     0.198 A 
ATOM     93  F   UNL     1      -1.115  16.961  -9.323  1.00  0.00    -0.203 F 
ATOM     94  F   UNL     1      -4.196  21.427  -9.929  1.00  0.00    -0.200 F 
ATOM     95  C   UNL     1      -2.368  20.102 -10.623  1.00  0.00     0.200 A 
ATOM     96  F   UNL     1      -0.545  18.750 -11.272  1.00  0.00    -0.200 F 
ATOM     97  F   UNL     1      -2.091  20.973 -11.602  1.00  0.00    -0.200 F 
ENDBRANCH  64  87
ENDBRANCH  38  39
ENDBRANCH  30  33
ENDBRANCH  28  29
ENDBRANCH  27  28
ENDBRANCH  26  27
ENDBRANCH   1  26
TORSDOF 16
