REMARK SMILES CCC(=O)N1CCC[C@](C[C@H]2CC(c3ccc(C)cc3)=NO2)(C(=O)NCCCCCCNC(=O)c2ccc(-c3c4nc(c(-c5c(F)c(F)c(F)c(F)c5F)c5ccc([nH]5)c(-c5c(F)c(F)c(F)c(F)c5F)c5nc(c(-c6c(F)c(F)c(F)c(F)c6F)c6ccc3[nH]6)C=C5)C=C4)cc2)C1
REMARK SMILES IDX 28 1 27 2 26 3 25 4 23 5 24 6 9 8 5 9 6 10 98 11 7 12 8 13
REMARK SMILES IDX 3 14 4 15 2 16 1 17 10 18 11 19 12 20 22 21 13 22 21 23
REMARK SMILES IDX 14 24 15 25 20 26 16 27 19 28 17 29 18 30 29 31 30 32 31 33
REMARK SMILES IDX 32 34 33 35 34 37 35 38 36 39 97 40 37 41 96 42 38 43 39 44
REMARK SMILES IDX 40 45 90 46 41 47 95 48 89 49 91 50 42 51 94 52 88 53 87 54
REMARK SMILES IDX 43 56 75 57 55 58 74 59 56 60 59 61 73 62 92 63 57 64 58 65
REMARK SMILES IDX 72 67 93 68 60 69 44 70 45 71 53 72 46 73 47 74 51 75 54 76
REMARK SMILES IDX 48 77 49 78 52 79 50 80 76 81 77 82 85 83 78 84 79 85 83 86
REMARK SMILES IDX 86 87 80 88 81 89 84 90 82 91 61 92 62 93 70 94 63 95 64 96
REMARK SMILES IDX 68 97 71 98 65 99 66 100 69 101 67 102
REMARK H PARENT 25 7 32 36 91 55 59 66
REMARK Flexibility Score: inf
ROOT
ATOM      1  C   UNL     1       4.517   1.965   7.008  1.00  0.00     0.002 C 
ENDROOT
BRANCH   1   2
ATOM      2  C   UNL     1       5.308   1.378   5.832  1.00  0.00     0.021 C 
BRANCH   2   3
ATOM      3  C   UNL     1       4.788   0.037   5.307  1.00  0.00     0.116 C 
BRANCH   3   4
ATOM      4  N   UNL     1       3.548   0.203   4.572  1.00  0.00    -0.356 N 
ATOM      5  C   UNL     1       3.141  -0.160   3.323  1.00  0.00     0.228 C 
ATOM      6  O   UNL     1       2.040   0.280   2.982  1.00  0.00    -0.274 OA
ATOM      7  H   UNL     1       2.854   0.678   5.084  1.00  0.00     0.163 HD
BRANCH   5   8
ATOM      8  C   UNL     1       4.009  -1.032   2.373  1.00  0.00     0.070 C 
ATOM      9  N   UNL     1       2.057  -2.315   1.361  1.00  0.00    -0.342 N 
ATOM     10  C   UNL     1       2.426  -3.540   2.056  1.00  0.00     0.119 C 
ATOM     11  C   UNL     1       3.154  -1.370   1.101  1.00  0.00     0.136 C 
ATOM     12  C   UNL     1       3.141  -3.235   3.359  1.00  0.00     0.023 C 
ATOM     13  C   UNL     1       4.360  -2.358   3.079  1.00  0.00     0.021 C 
BRANCH   9  14
ATOM     14  C   UNL     1       0.739  -2.176   0.955  1.00  0.00     0.222 C 
ATOM     15  O   UNL     1      -0.164  -2.848   1.468  1.00  0.00    -0.275 OA
BRANCH  14  16
ATOM     16  C   UNL     1       0.411  -1.331  -0.269  1.00  0.00     0.097 C 
ATOM     17  C   UNL     1       0.514   0.174  -0.145  1.00  0.00     0.014 C 
ENDBRANCH  14  16
ENDBRANCH   9  14
BRANCH   8  18
ATOM     18  C   UNL     1       5.233  -0.143   1.958  1.00  0.00     0.067 C 
BRANCH  18  19
ATOM     19  C   UNL     1       6.425  -0.665   1.134  1.00  0.00     0.211 C 
ATOM     20  C   UNL     1       7.209  -1.854   1.649  1.00  0.00     0.108 C 
ATOM     21  O   UNL     1       6.032  -0.987  -0.202  1.00  0.00    -0.392 OA
ATOM     22  C   UNL     1       6.784  -2.861   0.638  1.00  0.00     0.091 C 
ATOM     23  N   UNL     1       6.183  -2.375  -0.399  1.00  0.00    -0.090 NA
BRANCH  22  24
ATOM     24  C   UNL     1       7.045  -4.306   0.789  1.00  0.00    -0.001 A 
ATOM     25  C   UNL     1       6.894  -4.952   2.019  1.00  0.00     0.010 A 
ATOM     26  C   UNL     1       7.350  -5.048  -0.354  1.00  0.00     0.010 A 
ATOM     27  C   UNL     1       7.005  -6.343   2.093  1.00  0.00     0.004 A 
ATOM     28  C   UNL     1       7.494  -6.434  -0.271  1.00  0.00     0.004 A 
ATOM     29  C   UNL     1       7.294  -7.094   0.948  1.00  0.00    -0.051 A 
ATOM     30  C   UNL     1       7.419  -8.588   1.020  1.00  0.00     0.044 C 
ENDBRANCH  22  24
ENDBRANCH  18  19
ENDBRANCH   8  18
ENDBRANCH   5   8
ENDBRANCH   3   4
ENDBRANCH   2   3
ENDBRANCH   1   2
BRANCH   1  31
ATOM     31  C   UNL     1       4.342   1.054   8.236  1.00  0.00     0.002 C 
BRANCH  31  32
ATOM     32  C   UNL     1       5.601   0.337   8.733  1.00  0.00     0.021 C 
BRANCH  32  33
ATOM     33  C   UNL     1       6.687   1.269   9.252  1.00  0.00     0.116 C 
BRANCH  33  34
ATOM     34  N   UNL     1       6.687   1.452  10.695  1.00  0.00    -0.352 N 
ATOM     35  C   UNL     1       7.410   2.350  11.469  1.00  0.00     0.251 C 
ATOM     36  H   UNL     1       6.087   0.854  11.195  1.00  0.00     0.163 HD
ATOM     37  O   UNL     1       7.344   2.311  12.679  1.00  0.00    -0.269 OA
BRANCH  35  38
ATOM     38  C   UNL     1       8.165   3.439  10.796  1.00  0.00     0.039 A 
ATOM     39  C   UNL     1       8.006   4.742  11.283  1.00  0.00     0.014 A 
ATOM     40  C   UNL     1       8.855   3.217   9.607  1.00  0.00     0.014 A 
ATOM     41  C   UNL     1       8.323   5.823  10.462  1.00  0.00     0.010 A 
ATOM     42  C   UNL     1       9.078   4.280   8.753  1.00  0.00     0.010 A 
ATOM     43  C   UNL     1       8.752   5.577   9.157  1.00  0.00    -0.014 A 
BRANCH  43  44
ATOM     44  C   UNL     1       8.774   6.599   8.120  1.00  0.00     0.031 A 
ATOM     45  C   UNL     1      10.044   7.210   7.686  1.00  0.00     0.074 A 
ATOM     46  C   UNL     1       7.623   6.964   7.512  1.00  0.00     0.049 A 
ATOM     47  N   UNL     1      10.134   8.421   7.244  1.00  0.00    -0.248 NA
ATOM     48  C   UNL     1      11.326   6.514   7.741  1.00  0.00     0.031 C 
ATOM     49  C   UNL     1       7.485   7.775   6.304  1.00  0.00     0.029 A 
ATOM     50  N   UNL     1       6.309   6.818   7.987  1.00  0.00    -0.354 N 
ATOM     51  C   UNL     1      11.394   8.573   6.724  1.00  0.00     0.074 A 
ATOM     52  C   UNL     1      12.123   7.389   7.118  1.00  0.00     0.031 C 
ATOM     53  C   UNL     1       6.250   8.297   6.271  1.00  0.00     0.029 A 
ATOM     54  C   UNL     1       5.603   7.950   7.523  1.00  0.00     0.049 A 
ATOM     55  H   UNL     1       5.954   6.078   8.531  1.00  0.00     0.167 HD
ATOM     56  C   UNL     1      11.667   9.614   5.890  1.00  0.00     0.037 A 
ATOM     57  C   UNL     1       5.023   8.843   8.375  1.00  0.00     0.037 A 
ATOM     58  C   UNL     1      10.499  10.446   5.648  1.00  0.00     0.049 A 
ATOM     59  C   UNL     1       5.500  10.262   8.198  1.00  0.00     0.074 A 
ATOM     60  C   UNL     1       9.563  10.455   4.626  1.00  0.00     0.029 A 
ATOM     61  N   UNL     1       9.964  11.211   6.678  1.00  0.00    -0.354 N 
ATOM     62  N   UNL     1       6.633  10.579   7.637  1.00  0.00    -0.248 NA
ATOM     63  C   UNL     1       4.764  11.428   8.676  1.00  0.00     0.031 C 
ATOM     64  C   UNL     1       8.452  11.218   5.049  1.00  0.00     0.029 A 
ATOM     65  C   UNL     1       8.715  11.683   6.325  1.00  0.00     0.049 A 
ATOM     66  H   UNL     1      10.411  11.390   7.537  1.00  0.00     0.167 HD
ATOM     67  C   UNL     1       6.804  11.939   7.695  1.00  0.00     0.074 A 
ATOM     68  C   UNL     1       5.598  12.427   8.335  1.00  0.00     0.031 C 
ATOM     69  C   UNL     1       7.940  12.531   7.217  1.00  0.00     0.037 A 
BRANCH  56  70
ATOM     70  C   UNL     1      12.928   9.657   5.076  1.00  0.00     0.064 A 
ATOM     71  C   UNL     1      12.912   9.987   3.706  1.00  0.00     0.173 A 
ATOM     72  C   UNL     1      14.187   9.325   5.607  1.00  0.00     0.173 A 
ATOM     73  F   UNL     1      11.787  10.371   3.091  1.00  0.00    -0.203 F 
ATOM     74  C   UNL     1      14.053   9.900   2.908  1.00  0.00     0.198 A 
ATOM     75  C   UNL     1      15.320   9.194   4.799  1.00  0.00     0.198 A 
ATOM     76  F   UNL     1      14.339   9.110   6.923  1.00  0.00    -0.203 F 
ATOM     77  F   UNL     1      13.978  10.206   1.605  1.00  0.00    -0.200 F 
ATOM     78  C   UNL     1      15.250   9.473   3.447  1.00  0.00     0.200 A 
ATOM     79  F   UNL     1      16.475   8.774   5.334  1.00  0.00    -0.200 F 
ATOM     80  F   UNL     1      16.331   9.333   2.667  1.00  0.00    -0.200 F 
ENDBRANCH  56  70
BRANCH  57  81
ATOM     81  C   UNL     1       4.633   8.243   9.676  1.00  0.00     0.064 A 
ATOM     82  C   UNL     1       3.637   7.248   9.683  1.00  0.00     0.173 A 
ATOM     83  C   UNL     1       5.465   8.338  10.798  1.00  0.00     0.173 A 
ATOM     84  F   UNL     1       2.817   7.115   8.627  1.00  0.00    -0.203 F 
ATOM     85  C   UNL     1       3.558   6.311  10.710  1.00  0.00     0.198 A 
ATOM     86  C   UNL     1       5.375   7.404  11.831  1.00  0.00     0.198 A 
ATOM     87  F   UNL     1       6.442   9.254  10.842  1.00  0.00    -0.203 F 
ATOM     88  F   UNL     1       2.676   5.305  10.630  1.00  0.00    -0.200 F 
ATOM     89  C   UNL     1       4.447   6.373  11.769  1.00  0.00     0.200 A 
ATOM     90  F   UNL     1       6.252   7.446  12.844  1.00  0.00    -0.200 F 
ATOM     91  F   UNL     1       4.440   5.417  12.708  1.00  0.00    -0.200 F 
ENDBRANCH  57  81
BRANCH  69  92
ATOM     92  C   UNL     1       8.383  13.963   7.424  1.00  0.00     0.064 A 
ATOM     93  C   UNL     1       7.964  14.776   8.489  1.00  0.00     0.173 A 
ATOM     94  C   UNL     1       9.389  14.527   6.597  1.00  0.00     0.173 A 
ATOM     95  F   UNL     1       7.110  14.329   9.418  1.00  0.00    -0.203 F 
ATOM     96  C   UNL     1       8.463  16.071   8.676  1.00  0.00     0.198 A 
ATOM     97  C   UNL     1       9.927  15.793   6.822  1.00  0.00     0.198 A 
ATOM     98  F   UNL     1       9.908  13.855   5.558  1.00  0.00    -0.203 F 
ATOM     99  F   UNL     1       7.997  16.819   9.686  1.00  0.00    -0.200 F 
ATOM    100  C   UNL     1       9.451  16.573   7.852  1.00  0.00     0.200 A 
ATOM    101  F   UNL     1      10.924  16.240   6.045  1.00  0.00    -0.200 F 
ATOM    102  F   UNL     1       9.960  17.794   8.066  1.00  0.00    -0.200 F 
ENDBRANCH  69  92
ENDBRANCH  43  44
ENDBRANCH  35  38
ENDBRANCH  33  34
ENDBRANCH  32  33
ENDBRANCH  31  32
ENDBRANCH   1  31
TORSDOF 18
