REMARK SMILES [NH3+][C@H](C(=O)NCCCCCCNC(=O)c1ccc(-c2c3nc(c(-c4c(F)c(F)c(F)c(F)c4F)c4ccc([nH]4)c(-c4c(F)c(F)c(F)c(F)c4F)c4nc(c(-c5c(F)c(F)c(F)c(F)c5F)c5ccc2[nH]5)C=C4)C=C3)cc1)c1cc(F)c(Cl)c(Cl)c1
REMARK SMILES IDX 9 1 8 2 7 3 6 4 5 5 3 6 4 7 2 9 1 10 78 14 79 15 86 16 80 17
REMARK SMILES IDX 84 18 81 19 82 20 85 21 83 22 10 23 11 24 12 25 13 26 14 28
REMARK SMILES IDX 15 29 16 30 77 31 17 32 76 33 18 34 19 35 20 36 70 37 21 38
REMARK SMILES IDX 75 39 69 40 71 41 22 42 74 43 68 44 67 45 23 47 55 48 35 49
REMARK SMILES IDX 54 50 36 51 39 52 53 53 72 54 37 55 38 56 52 58 73 59 40 60
REMARK SMILES IDX 24 61 25 62 33 63 26 64 27 65 31 66 34 67 28 68 29 69 32 70
REMARK SMILES IDX 30 71 56 72 57 73 65 74 58 75 59 76 63 77 66 78 60 79 61 80
REMARK SMILES IDX 64 81 62 82 41 83 42 84 50 85 43 86 44 87 48 88 51 89 45 90
REMARK SMILES IDX 46 91 49 92 47 93
REMARK H PARENT 5 8 1 11 1 12 1 13 12 27 71 46 39 57
REMARK Flexibility Score: inf
ROOT
ATOM      1  C   UNL     1      -0.258   4.505   1.166  1.00  0.00     0.002 C 
ENDROOT
BRANCH   1   2
ATOM      2  C   UNL     1       0.251   3.555   2.253  1.00  0.00     0.002 C 
BRANCH   2   3
ATOM      3  C   UNL     1      -0.489   2.223   2.418  1.00  0.00     0.021 C 
BRANCH   3   4
ATOM      4  C   UNL     1      -0.637   1.353   1.170  1.00  0.00     0.116 C 
BRANCH   4   5
ATOM      5  N   UNL     1       0.607   1.107   0.467  1.00  0.00    -0.351 N 
ATOM      6  C   UNL     1       0.994   0.080  -0.343  1.00  0.00     0.283 C 
ATOM      7  O   UNL     1       2.048   0.256  -0.969  1.00  0.00    -0.268 OA
ATOM      8  H   UNL     1       1.291   1.802   0.598  1.00  0.00     0.163 HD
BRANCH   6   9
ATOM      9  C   UNL     1       0.313  -1.317  -0.368  1.00  0.00     0.302 C 
BRANCH   9  10
ATOM     10  N   UNL     1       0.849  -2.080   0.783  1.00  0.00    -0.343 N 
ATOM     11  H   UNL     1       0.426  -3.007   0.804  1.00  0.00     0.345 HD
ATOM     12  H   UNL     1       0.630  -1.587   1.649  1.00  0.00     0.345 HD
ATOM     13  H   UNL     1       1.861  -2.170   0.690  1.00  0.00     0.345 HD
ENDBRANCH   9  10
BRANCH   9  14
ATOM     14  C   UNL     1      -1.204  -1.414  -0.453  1.00  0.00     0.023 A 
ATOM     15  C   UNL     1      -1.995  -0.420  -1.038  1.00  0.00     0.051 A 
ATOM     16  C   UNL     1      -1.861  -2.579   0.000  1.00  0.00     0.032 A 
ATOM     17  C   UNL     1      -3.389  -0.517  -1.012  1.00  0.00     0.143 A 
ATOM     18  C   UNL     1      -3.257  -2.693  -0.014  1.00  0.00     0.063 A 
ATOM     19  F   UNL     1      -4.099   0.519  -1.482  1.00  0.00    -0.205 F 
ATOM     20  C   UNL     1      -4.033  -1.639  -0.491  1.00  0.00     0.095 A 
ATOM     21  Cl  UNL     1      -3.948  -4.160   0.584  1.00  0.00    -0.083 Cl
ATOM     22  Cl  UNL     1      -5.760  -1.669  -0.450  1.00  0.00    -0.079 Cl
ENDBRANCH   9  14
ENDBRANCH   6   9
ENDBRANCH   4   5
ENDBRANCH   3   4
ENDBRANCH   2   3
ENDBRANCH   1   2
BRANCH   1  23
ATOM     23  C   UNL     1      -1.731   4.905   1.244  1.00  0.00     0.021 C 
BRANCH  23  24
ATOM     24  C   UNL     1      -2.203   5.458   2.584  1.00  0.00     0.116 C 
BRANCH  24  25
ATOM     25  N   UNL     1      -1.537   6.689   2.975  1.00  0.00    -0.352 N 
ATOM     26  C   UNL     1      -2.082   7.853   3.471  1.00  0.00     0.251 C 
ATOM     27  H   UNL     1      -0.558   6.692   2.871  1.00  0.00     0.163 HD
ATOM     28  O   UNL     1      -1.382   8.836   3.667  1.00  0.00    -0.269 OA
BRANCH  26  29
ATOM     29  C   UNL     1      -3.538   7.922   3.734  1.00  0.00     0.039 A 
ATOM     30  C   UNL     1      -4.265   9.010   3.240  1.00  0.00     0.014 A 
ATOM     31  C   UNL     1      -4.184   6.909   4.444  1.00  0.00     0.014 A 
ATOM     32  C   UNL     1      -5.655   9.041   3.387  1.00  0.00     0.010 A 
ATOM     33  C   UNL     1      -5.573   6.906   4.529  1.00  0.00     0.010 A 
ATOM     34  C   UNL     1      -6.322   7.969   3.997  1.00  0.00    -0.014 A 
BRANCH  34  35
ATOM     35  C   UNL     1      -7.803   7.920   4.106  1.00  0.00     0.031 A 
ATOM     36  C   UNL     1      -8.447   7.910   5.462  1.00  0.00     0.074 A 
ATOM     37  C   UNL     1      -8.555   7.757   3.001  1.00  0.00     0.049 A 
ATOM     38  N   UNL     1      -9.692   7.677   5.790  1.00  0.00    -0.248 NA
ATOM     39  C   UNL     1      -7.558   8.160   6.606  1.00  0.00     0.031 C 
ATOM     40  C   UNL     1      -8.045   7.712   1.631  1.00  0.00     0.029 A 
ATOM     41  N   UNL     1      -9.907   7.560   2.861  1.00  0.00    -0.354 N 
ATOM     42  C   UNL     1      -9.728   7.715   7.177  1.00  0.00     0.074 A 
ATOM     43  C   UNL     1      -8.374   7.954   7.629  1.00  0.00     0.031 C 
ATOM     44  C   UNL     1      -9.068   7.493   0.790  1.00  0.00     0.029 A 
ATOM     45  C   UNL     1     -10.297   7.337   1.563  1.00  0.00     0.049 A 
ATOM     46  H   UNL     1     -10.536   7.578   3.618  1.00  0.00     0.167 HD
ATOM     47  C   UNL     1     -10.797   7.576   7.997  1.00  0.00     0.037 A 
ATOM     48  C   UNL     1     -11.503   7.015   1.056  1.00  0.00     0.037 A 
ATOM     49  C   UNL     1     -12.145   7.371   7.538  1.00  0.00     0.049 A 
ATOM     50  C   UNL     1     -12.680   6.873   1.982  1.00  0.00     0.074 A 
ATOM     51  C   UNL     1     -13.308   7.295   8.284  1.00  0.00     0.029 A 
ATOM     52  N   UNL     1     -12.509   7.204   6.209  1.00  0.00    -0.354 N 
ATOM     53  N   UNL     1     -12.718   6.972   3.288  1.00  0.00    -0.248 NA
ATOM     54  C   UNL     1     -13.982   6.578   1.366  1.00  0.00     0.031 C 
ATOM     55  C   UNL     1     -14.370   7.034   7.411  1.00  0.00     0.029 A 
ATOM     56  C   UNL     1     -13.876   7.002   6.116  1.00  0.00     0.049 A 
ATOM     57  H   UNL     1     -11.887   7.227   5.446  1.00  0.00     0.167 HD
ATOM     58  C   UNL     1     -14.045   6.783   3.649  1.00  0.00     0.074 A 
ATOM     59  C   UNL     1     -14.784   6.562   2.423  1.00  0.00     0.031 C 
ATOM     60  C   UNL     1     -14.600   6.798   4.886  1.00  0.00     0.037 A 
BRANCH  47  61
ATOM     61  C   UNL     1     -10.541   7.624   9.476  1.00  0.00     0.064 A 
ATOM     62  C   UNL     1     -10.138   8.804  10.120  1.00  0.00     0.173 A 
ATOM     63  C   UNL     1     -10.700   6.472  10.261  1.00  0.00     0.173 A 
ATOM     64  F   UNL     1      -9.961   9.931   9.415  1.00  0.00    -0.203 F 
ATOM     65  C   UNL     1      -9.859   8.817  11.484  1.00  0.00     0.198 A 
ATOM     66  C   UNL     1     -10.454   6.497  11.631  1.00  0.00     0.198 A 
ATOM     67  F   UNL     1     -11.092   5.318   9.698  1.00  0.00    -0.203 F 
ATOM     68  F   UNL     1      -9.409   9.938  12.063  1.00  0.00    -0.200 F 
ATOM     69  C   UNL     1     -10.021   7.665  12.239  1.00  0.00     0.200 A 
ATOM     70  F   UNL     1     -10.624   5.386  12.361  1.00  0.00    -0.200 F 
ATOM     71  F   UNL     1      -9.747   7.678  13.551  1.00  0.00    -0.200 F 
ENDBRANCH  47  61
BRANCH  48  72
ATOM     72  C   UNL     1     -11.646   6.816  -0.409  1.00  0.00     0.064 A 
ATOM     73  C   UNL     1     -12.300   7.767  -1.203  1.00  0.00     0.173 A 
ATOM     74  C   UNL     1     -11.094   5.697  -1.050  1.00  0.00     0.173 A 
ATOM     75  F   UNL     1     -12.860   8.844  -0.632  1.00  0.00    -0.203 F 
ATOM     76  C   UNL     1     -12.400   7.605  -2.583  1.00  0.00     0.198 A 
ATOM     77  C   UNL     1     -11.173   5.548  -2.433  1.00  0.00     0.198 A 
ATOM     78  F   UNL     1     -10.452   4.762  -0.333  1.00  0.00    -0.203 F 
ATOM     79  F   UNL     1     -13.051   8.518  -3.317  1.00  0.00    -0.200 F 
ATOM     80  C   UNL     1     -11.828   6.501  -3.198  1.00  0.00     0.200 A 
ATOM     81  F   UNL     1     -10.605   4.489  -3.024  1.00  0.00    -0.200 F 
ATOM     82  F   UNL     1     -11.909   6.355  -4.528  1.00  0.00    -0.200 F 
ENDBRANCH  48  72
BRANCH  60  83
ATOM     83  C   UNL     1     -16.086   6.616   4.987  1.00  0.00     0.064 A 
ATOM     84  C   UNL     1     -16.688   5.362   4.817  1.00  0.00     0.173 A 
ATOM     85  C   UNL     1     -16.904   7.697   5.347  1.00  0.00     0.173 A 
ATOM     86  F   UNL     1     -15.949   4.301   4.458  1.00  0.00    -0.203 F 
ATOM     87  C   UNL     1     -18.059   5.197   5.001  1.00  0.00     0.198 A 
ATOM     88  C   UNL     1     -18.270   7.524   5.555  1.00  0.00     0.198 A 
ATOM     89  F   UNL     1     -16.374   8.916   5.527  1.00  0.00    -0.203 F 
ATOM     90  F   UNL     1     -18.619   3.995   4.812  1.00  0.00    -0.200 F 
ATOM     91  C   UNL     1     -18.846   6.275   5.381  1.00  0.00     0.200 A 
ATOM     92  F   UNL     1     -19.025   8.563   5.936  1.00  0.00    -0.200 F 
ATOM     93  F   UNL     1     -20.161   6.110   5.579  1.00  0.00    -0.200 F 
ENDBRANCH  60  83
ENDBRANCH  34  35
ENDBRANCH  26  29
ENDBRANCH  24  25
ENDBRANCH  23  24
ENDBRANCH   1  23
TORSDOF 15
