REMARK SMILES C/C(=C/c1cccc(OCC(=O)NCCCCCCNC(=O)c2ccc(-c3c4nc(c(-c5c(F)c(F)c(F)c(F)c5F)c5ccc([nH]5)c(-c5c(F)c(F)c(F)c(F)c5F)c5nc(c(-c6c(F)c(F)c(F)c(F)c6F)c6ccc3[nH]6)C=C5)C=C4)cc2)c1)c1nc2sccc2c(=O)[nH]1
REMARK SMILES IDX 15 1 14 2 13 3 11 4 12 5 10 7 9 8 8 9 4 10 5 11 86 12 6 13
REMARK SMILES IDX 7 14 3 15 1 16 2 17 87 18 88 19 96 20 89 21 94 22 90 24
REMARK SMILES IDX 93 25 95 26 91 27 92 28 16 29 17 30 18 31 19 32 20 33 21 34
REMARK SMILES IDX 22 36 23 37 24 38 85 39 25 40 84 41 26 42 27 43 28 44 78 45
REMARK SMILES IDX 29 46 83 47 77 48 79 49 30 50 82 51 76 52 75 53 31 55 63 56
REMARK SMILES IDX 43 57 62 58 44 59 47 60 61 61 80 62 45 63 46 64 60 66 81 67
REMARK SMILES IDX 48 68 32 69 33 70 41 71 34 72 35 73 39 74 42 75 36 76 37 77
REMARK SMILES IDX 40 78 38 79 64 80 65 81 73 82 66 83 67 84 71 85 74 86 68 87
REMARK SMILES IDX 69 88 72 89 70 90 49 91 50 92 58 93 51 94 52 95 56 96 59 97
REMARK SMILES IDX 53 98 54 99 57 100 55 101
REMARK H PARENT 13 6 96 23 20 35 79 54 47 65
REMARK Flexibility Score: inf
ROOT
ATOM      1  C   UNL     1      -0.190  -4.916  -6.413  1.00  0.00     0.021 C 
ENDROOT
BRANCH   1   2
ATOM      2  C   UNL     1       1.227  -5.416  -6.138  1.00  0.00     0.116 C 
BRANCH   2   3
ATOM      3  N   UNL     1       2.016  -4.533  -5.303  1.00  0.00    -0.353 N 
ATOM      4  C   UNL     1       2.475  -4.757  -4.036  1.00  0.00     0.257 C 
ATOM      5  O   UNL     1       3.346  -4.018  -3.577  1.00  0.00    -0.271 OA
ATOM      6  H   UNL     1       2.251  -3.662  -5.698  1.00  0.00     0.163 HD
BRANCH   4   7
ATOM      7  C   UNL     1       1.956  -5.946  -3.229  1.00  0.00     0.329 C 
BRANCH   7   8
ATOM      8  O   UNL     1       0.551  -6.127  -3.207  1.00  0.00    -0.484 OA
BRANCH   8   9
ATOM      9  C   UNL     1      -0.207  -5.279  -2.449  1.00  0.00     0.120 A 
ATOM     10  C   UNL     1      -0.667  -3.395  -0.985  1.00  0.00    -0.022 A 
ATOM     11  C   UNL     1      -2.028  -3.718  -1.002  1.00  0.00     0.008 A 
ATOM     12  C   UNL     1       0.245  -4.189  -1.702  1.00  0.00     0.054 A 
ATOM     13  C   UNL     1      -2.481  -4.805  -1.745  1.00  0.00     0.004 A 
ATOM     14  C   UNL     1      -1.572  -5.577  -2.466  1.00  0.00     0.046 A 
BRANCH  10  15
ATOM     15  C   UNL     1      -0.227  -2.240  -0.189  1.00  0.00     0.015 C 
ATOM     16  C   UNL     1       0.909  -0.052   0.250  1.00  0.00     0.048 C 
ATOM     17  C   UNL     1       0.446  -1.164  -0.640  1.00  0.00    -0.008 C 
BRANCH  17  18
ATOM     18  C   UNL     1       0.818  -1.009  -2.072  1.00  0.00     0.137 A 
ATOM     19  N   UNL     1       2.055  -0.903  -2.447  1.00  0.00    -0.219 NA
ATOM     20  N   UNL     1      -0.261  -0.952  -2.928  1.00  0.00    -0.306 N 
ATOM     21  C   UNL     1       2.229  -0.798  -3.791  1.00  0.00     0.131 A 
ATOM     22  C   UNL     1      -0.140  -0.795  -4.289  1.00  0.00     0.259 A 
ATOM     23  H   UNL     1      -1.165  -1.028  -2.545  1.00  0.00     0.171 HD
ATOM     24  S   UNL     1       3.780  -0.747  -4.503  1.00  0.00    -0.124 S 
ATOM     25  C   UNL     1       1.234  -0.737  -4.742  1.00  0.00     0.077 A 
ATOM     26  O   UNL     1      -1.109  -0.722  -5.030  1.00  0.00    -0.269 OA
ATOM     27  C   UNL     1       3.123  -0.680  -6.085  1.00  0.00     0.068 A 
ATOM     28  C   UNL     1       1.747  -0.638  -6.068  1.00  0.00     0.028 A 
ENDBRANCH  17  18
ENDBRANCH  10  15
ENDBRANCH   8   9
ENDBRANCH   7   8
ENDBRANCH   4   7
ENDBRANCH   2   3
ENDBRANCH   1   2
BRANCH   1  29
ATOM     29  C   UNL     1      -0.313  -3.552  -7.098  1.00  0.00     0.002 C 
BRANCH  29  30
ATOM     30  C   UNL     1       0.603  -3.284  -8.295  1.00  0.00     0.002 C 
BRANCH  30  31
ATOM     31  C   UNL     1       0.432  -4.227  -9.482  1.00  0.00     0.021 C 
BRANCH  31  32
ATOM     32  C   UNL     1      -0.929  -4.155 -10.159  1.00  0.00     0.116 C 
BRANCH  32  33
ATOM     33  N   UNL     1      -1.191  -2.882 -10.820  1.00  0.00    -0.352 N 
ATOM     34  C   UNL     1      -1.882  -2.673 -11.993  1.00  0.00     0.251 C 
ATOM     35  H   UNL     1      -0.832  -2.080 -10.376  1.00  0.00     0.163 HD
ATOM     36  O   UNL     1      -1.968  -1.561 -12.498  1.00  0.00    -0.269 OA
BRANCH  34  37
ATOM     37  C   UNL     1      -2.487  -3.843 -12.659  1.00  0.00     0.039 A 
ATOM     38  C   UNL     1      -2.127  -4.144 -13.975  1.00  0.00     0.014 A 
ATOM     39  C   UNL     1      -3.318  -4.697 -11.932  1.00  0.00     0.014 A 
ATOM     40  C   UNL     1      -2.534  -5.357 -14.536  1.00  0.00     0.010 A 
ATOM     41  C   UNL     1      -3.656  -5.934 -12.464  1.00  0.00     0.010 A 
ATOM     42  C   UNL     1      -3.262  -6.279 -13.768  1.00  0.00    -0.014 A 
BRANCH  42  43
ATOM     43  C   UNL     1      -3.652  -7.611 -14.293  1.00  0.00     0.031 A 
ATOM     44  C   UNL     1      -5.110  -7.949 -14.419  1.00  0.00     0.074 A 
ATOM     45  C   UNL     1      -2.713  -8.544 -14.544  1.00  0.00     0.049 A 
ATOM     46  N   UNL     1      -5.679  -9.101 -14.665  1.00  0.00    -0.248 NA
ATOM     47  C   UNL     1      -6.058  -6.846 -14.191  1.00  0.00     0.031 C 
ATOM     48  C   UNL     1      -1.268  -8.351 -14.420  1.00  0.00     0.029 A 
ATOM     49  N   UNL     1      -2.840  -9.855 -14.931  1.00  0.00    -0.354 N 
ATOM     50  C   UNL     1      -7.045  -8.869 -14.582  1.00  0.00     0.074 A 
ATOM     51  C   UNL     1      -7.220  -7.480 -14.219  1.00  0.00     0.031 C 
ATOM     52  C   UNL     1      -0.642  -9.496 -14.737  1.00  0.00     0.029 A 
ATOM     53  C   UNL     1      -1.641 -10.516 -15.044  1.00  0.00     0.049 A 
ATOM     54  H   UNL     1      -3.709 -10.282 -15.111  1.00  0.00     0.167 HD
ATOM     55  C   UNL     1      -8.062  -9.733 -14.809  1.00  0.00     0.037 A 
ATOM     56  C   UNL     1      -1.381 -11.803 -15.347  1.00  0.00     0.037 A 
ATOM     57  C   UNL     1      -7.881 -11.099 -15.219  1.00  0.00     0.049 A 
ATOM     58  C   UNL     1      -2.530 -12.737 -15.624  1.00  0.00     0.074 A 
ATOM     59  C   UNL     1      -8.844 -12.042 -15.532  1.00  0.00     0.029 A 
ATOM     60  N   UNL     1      -6.648 -11.714 -15.383  1.00  0.00    -0.354 N 
ATOM     61  N   UNL     1      -3.818 -12.497 -15.586  1.00  0.00    -0.248 NA
ATOM     62  C   UNL     1      -2.188 -14.119 -15.989  1.00  0.00     0.031 C 
ATOM     63  C   UNL     1      -8.194 -13.237 -15.858  1.00  0.00     0.029 A 
ATOM     64  C   UNL     1      -6.826 -13.025 -15.789  1.00  0.00     0.049 A 
ATOM     65  H   UNL     1      -5.776 -11.281 -15.232  1.00  0.00     0.167 HD
ATOM     66  C   UNL     1      -4.438 -13.682 -15.958  1.00  0.00     0.074 A 
ATOM     67  C   UNL     1      -3.385 -14.641 -16.220  1.00  0.00     0.031 C 
ATOM     68  C   UNL     1      -5.761 -13.953 -16.073  1.00  0.00     0.037 A 
BRANCH  55  69
ATOM     69  C   UNL     1      -9.459  -9.219 -14.623  1.00  0.00     0.064 A 
ATOM     70  C   UNL     1     -10.021  -8.279 -15.500  1.00  0.00     0.173 A 
ATOM     71  C   UNL     1     -10.253  -9.684 -13.563  1.00  0.00     0.173 A 
ATOM     72  F   UNL     1      -9.299  -7.793 -16.520  1.00  0.00    -0.203 F 
ATOM     73  C   UNL     1     -11.312  -7.796 -15.303  1.00  0.00     0.198 A 
ATOM     74  C   UNL     1     -11.555  -9.223 -13.388  1.00  0.00     0.198 A 
ATOM     75  F   UNL     1      -9.766 -10.586 -12.698  1.00  0.00    -0.203 F 
ATOM     76  F   UNL     1     -11.805  -6.856 -16.120  1.00  0.00    -0.200 F 
ATOM     77  C   UNL     1     -12.080  -8.273 -14.251  1.00  0.00     0.200 A 
ATOM     78  F   UNL     1     -12.300  -9.693 -12.378  1.00  0.00    -0.200 F 
ATOM     79  F   UNL     1     -13.323  -7.810 -14.065  1.00  0.00    -0.200 F 
ENDBRANCH  55  69
BRANCH  56  80
ATOM     80  C   UNL     1       0.024 -12.280 -15.434  1.00  0.00     0.064 A 
ATOM     81  C   UNL     1       0.592 -12.609 -16.672  1.00  0.00     0.173 A 
ATOM     82  C   UNL     1       0.823 -12.425 -14.291  1.00  0.00     0.173 A 
ATOM     83  F   UNL     1      -0.139 -12.507 -17.792  1.00  0.00    -0.203 F 
ATOM     84  C   UNL     1       1.898 -13.086 -16.763  1.00  0.00     0.198 A 
ATOM     85  C   UNL     1       2.138 -12.877 -14.385  1.00  0.00     0.198 A 
ATOM     86  F   UNL     1       0.328 -12.119 -13.082  1.00  0.00    -0.203 F 
ATOM     87  F   UNL     1       2.401 -13.436 -17.954  1.00  0.00    -0.200 F 
ATOM     88  C   UNL     1       2.672 -13.214 -15.619  1.00  0.00     0.200 A 
ATOM     89  F   UNL     1       2.886 -12.988 -13.279  1.00  0.00    -0.200 F 
ATOM     90  F   UNL     1       3.929 -13.671 -15.706  1.00  0.00    -0.200 F 
ENDBRANCH  56  80
BRANCH  68  91
ATOM     91  C   UNL     1      -6.149 -15.317 -16.560  1.00  0.00     0.064 A 
ATOM     92  C   UNL     1      -6.052 -16.448 -15.739  1.00  0.00     0.173 A 
ATOM     93  C   UNL     1      -6.687 -15.478 -17.846  1.00  0.00     0.173 A 
ATOM     94  F   UNL     1      -5.531 -16.346 -14.507  1.00  0.00    -0.203 F 
ATOM     95  C   UNL     1      -6.466 -17.697 -16.195  1.00  0.00     0.198 A 
ATOM     96  C   UNL     1      -7.124 -16.723 -18.288  1.00  0.00     0.198 A 
ATOM     97  F   UNL     1      -6.806 -14.423 -18.667  1.00  0.00    -0.203 F 
ATOM     98  F   UNL     1      -6.333 -18.773 -15.406  1.00  0.00    -0.200 F 
ATOM     99  C   UNL     1      -7.010 -17.832 -17.464  1.00  0.00     0.200 A 
ATOM    100  F   UNL     1      -7.661 -16.848 -19.510  1.00  0.00    -0.200 F 
ATOM    101  F   UNL     1      -7.421 -19.032 -17.894  1.00  0.00    -0.200 F 
ENDBRANCH  68  91
ENDBRANCH  42  43
ENDBRANCH  34  37
ENDBRANCH  32  33
ENDBRANCH  31  32
ENDBRANCH  30  31
ENDBRANCH  29  30
ENDBRANCH   1  29
TORSDOF 17
