REMARK SMILES CC(C)C[C@@H](NC(=O)Cn1nc(O)ccc1=O)C(=O)NCCCCCCNC(=O)c1ccc(-c2c3nc(c(-c4c(F)c(F)c(F)c(F)c4F)c4ccc([nH]4)c(-c4c(F)c(F)c(F)c(F)c4F)c4nc(c(-c5c(F)c(F)c(F)c(F)c5F)c5ccc2[nH]5)C=C4)C=C3)cc1
REMARK SMILES IDX 22 1 21 2 20 3 18 4 19 5 5 7 4 8 2 9 1 10 3 11 6 12 7 13
REMARK SMILES IDX 8 15 9 16 10 17 11 18 16 19 12 20 15 21 17 22 14 23 13 24
REMARK SMILES IDX 23 26 24 27 25 28 26 29 27 30 28 31 29 33 30 34 31 35 92 36
REMARK SMILES IDX 32 37 91 38 33 39 34 40 35 41 85 42 36 43 90 44 84 45 86 46
REMARK SMILES IDX 37 47 89 48 83 49 82 50 38 52 70 53 50 54 69 55 51 56 54 57
REMARK SMILES IDX 68 58 87 59 52 60 53 61 67 63 88 64 55 65 39 66 40 67 48 68
REMARK SMILES IDX 41 69 42 70 46 71 49 72 43 73 44 74 47 75 45 76 71 77 72 78
REMARK SMILES IDX 80 79 73 80 74 81 78 82 81 83 75 84 76 85 79 86 77 87 56 88
REMARK SMILES IDX 57 89 65 90 58 91 59 92 63 93 66 94 60 95 61 96 64 97 62 98
REMARK H PARENT 20 6 6 14 13 25 27 32 86 51 54 62
REMARK Flexibility Score: inf
ROOT
ATOM      1  C   UNL     1      -3.007   3.166  -3.776  1.00  0.00     0.021 C 
ENDROOT
BRANCH   1   2
ATOM      2  C   UNL     1      -2.643   2.917  -2.315  1.00  0.00     0.116 C 
BRANCH   2   3
ATOM      3  N   UNL     1      -3.090   1.604  -1.873  1.00  0.00    -0.354 N 
ATOM      4  C   UNL     1      -2.586   0.792  -0.894  1.00  0.00     0.242 C 
ATOM      5  O   UNL     1      -3.053  -0.349  -0.800  1.00  0.00    -0.273 OA
ATOM      6  H   UNL     1      -3.874   1.246  -2.350  1.00  0.00     0.163 HD
BRANCH   4   7
ATOM      7  C   UNL     1      -1.305   1.184  -0.133  1.00  0.00     0.171 C 
BRANCH   7   8
ATOM      8  C   UNL     1      -0.207   0.728  -1.130  1.00  0.00     0.038 C 
BRANCH   8   9
ATOM      9  C   UNL     1       1.273   0.929  -0.793  1.00  0.00    -0.015 C 
ATOM     10  C   UNL     1       1.742  -0.021   0.303  1.00  0.00     0.007 C 
ATOM     11  C   UNL     1       2.082   0.677  -2.077  1.00  0.00     0.007 C 
ENDBRANCH   8   9
ENDBRANCH   7   8
BRANCH   7  12
ATOM     12  N   UNL     1      -1.214   2.605   0.212  1.00  0.00    -0.343 N 
ATOM     13  C   UNL     1      -1.922   3.367   1.098  1.00  0.00     0.242 C 
ATOM     14  H   UNL     1      -0.520   3.099  -0.282  1.00  0.00     0.164 HD
ATOM     15  O   UNL     1      -1.447   4.484   1.339  1.00  0.00    -0.273 OA
BRANCH  13  16
ATOM     16  C   UNL     1      -3.161   2.873   1.860  1.00  0.00     0.248 C 
BRANCH  16  17
ATOM     17  N   UNL     1      -4.317   2.495   1.054  1.00  0.00    -0.217 N 
ATOM     18  N   UNL     1      -4.646   1.153   1.037  1.00  0.00    -0.131 NA
ATOM     19  C   UNL     1      -5.091   3.476   0.437  1.00  0.00     0.267 A 
ATOM     20  C   UNL     1      -5.654   0.828   0.311  1.00  0.00     0.229 A 
ATOM     21  C   UNL     1      -6.260   2.995  -0.346  1.00  0.00     0.079 A 
ATOM     22  O   UNL     1      -4.855   4.680   0.464  1.00  0.00    -0.268 OA
ATOM     23  C   UNL     1      -6.540   1.695  -0.443  1.00  0.00     0.075 A 
BRANCH  20  24
ATOM     24  O   UNL     1      -5.953  -0.461   0.132  1.00  0.00    -0.492 OA
ATOM     25  H   UNL     1      -5.452  -1.123   0.567  1.00  0.00     0.295 HD
ENDBRANCH  20  24
ENDBRANCH  16  17
ENDBRANCH  13  16
ENDBRANCH   7  12
ENDBRANCH   4   7
ENDBRANCH   2   3
ENDBRANCH   1   2
BRANCH   1  26
ATOM     26  C   UNL     1      -4.514   3.268  -4.028  1.00  0.00     0.002 C 
BRANCH  26  27
ATOM     27  C   UNL     1      -5.188   4.481  -3.380  1.00  0.00     0.002 C 
BRANCH  27  28
ATOM     28  C   UNL     1      -4.759   5.841  -3.918  1.00  0.00     0.021 C 
BRANCH  28  29
ATOM     29  C   UNL     1      -4.953   6.009  -5.412  1.00  0.00     0.116 C 
BRANCH  29  30
ATOM     30  N   UNL     1      -6.338   5.895  -5.853  1.00  0.00    -0.352 N 
ATOM     31  C   UNL     1      -6.879   6.442  -7.001  1.00  0.00     0.251 C 
ATOM     32  H   UNL     1      -6.947   5.378  -5.278  1.00  0.00     0.163 HD
ATOM     33  O   UNL     1      -8.062   6.348  -7.279  1.00  0.00    -0.269 OA
BRANCH  31  34
ATOM     34  C   UNL     1      -5.947   7.198  -7.860  1.00  0.00     0.039 A 
ATOM     35  C   UNL     1      -4.813   6.544  -8.340  1.00  0.00     0.014 A 
ATOM     36  C   UNL     1      -6.073   8.586  -7.935  1.00  0.00     0.014 A 
ATOM     37  C   UNL     1      -3.712   7.301  -8.707  1.00  0.00     0.010 A 
ATOM     38  C   UNL     1      -4.997   9.339  -8.408  1.00  0.00     0.010 A 
ATOM     39  C   UNL     1      -3.786   8.706  -8.736  1.00  0.00    -0.014 A 
BRANCH  39  40
ATOM     40  C   UNL     1      -2.574   9.487  -9.092  1.00  0.00     0.031 A 
ATOM     41  C   UNL     1      -1.938  10.432  -8.108  1.00  0.00     0.074 A 
ATOM     42  C   UNL     1      -2.005   9.279 -10.295  1.00  0.00     0.049 A 
ATOM     43  N   UNL     1      -0.906  11.223  -8.274  1.00  0.00    -0.248 NA
ATOM     44  C   UNL     1      -2.532  10.506  -6.763  1.00  0.00     0.031 C 
ATOM     45  C   UNL     1      -2.513   8.359 -11.314  1.00  0.00     0.029 A 
ATOM     46  N   UNL     1      -0.863   9.793 -10.851  1.00  0.00    -0.354 N 
ATOM     47  C   UNL     1      -0.753  11.912  -7.077  1.00  0.00     0.074 A 
ATOM     48  C   UNL     1      -1.800  11.453  -6.190  1.00  0.00     0.031 C 
ATOM     49  C   UNL     1      -1.650   8.316 -12.337  1.00  0.00     0.029 A 
ATOM     50  C   UNL     1      -0.581   9.276 -12.090  1.00  0.00     0.049 A 
ATOM     51  H   UNL     1      -0.300  10.466 -10.405  1.00  0.00     0.167 HD
ATOM     52  C   UNL     1       0.179  12.841  -6.755  1.00  0.00     0.037 A 
ATOM     53  C   UNL     1       0.412   9.564 -12.951  1.00  0.00     0.037 A 
ATOM     54  C   UNL     1       1.242  13.261  -7.633  1.00  0.00     0.049 A 
ATOM     55  C   UNL     1       1.407  10.622 -12.582  1.00  0.00     0.074 A 
ATOM     56  C   UNL     1       2.241  14.189  -7.397  1.00  0.00     0.029 A 
ATOM     57  N   UNL     1       1.450  12.768  -8.913  1.00  0.00    -0.354 N 
ATOM     58  N   UNL     1       1.508  11.305 -11.469  1.00  0.00    -0.248 NA
ATOM     59  C   UNL     1       2.406  10.971 -13.599  1.00  0.00     0.031 C 
ATOM     60  C   UNL     1       3.033  14.283  -8.546  1.00  0.00     0.029 A 
ATOM     61  C   UNL     1       2.552  13.384  -9.484  1.00  0.00     0.049 A 
ATOM     62  H   UNL     1       0.897  12.081  -9.351  1.00  0.00     0.167 HD
ATOM     63  C   UNL     1       2.575  12.171 -11.650  1.00  0.00     0.074 A 
ATOM     64  C   UNL     1       3.110  11.903 -12.970  1.00  0.00     0.031 C 
ATOM     65  C   UNL     1       3.059  13.112 -10.805  1.00  0.00     0.037 A 
BRANCH  52  66
ATOM     66  C   UNL     1       0.095  13.490  -5.403  1.00  0.00     0.064 A 
ATOM     67  C   UNL     1       0.472  12.814  -4.234  1.00  0.00     0.173 A 
ATOM     68  C   UNL     1      -0.289  14.836  -5.287  1.00  0.00     0.173 A 
ATOM     69  F   UNL     1       0.837  11.524  -4.289  1.00  0.00    -0.203 F 
ATOM     70  C   UNL     1       0.460  13.458  -2.998  1.00  0.00     0.198 A 
ATOM     71  C   UNL     1      -0.277  15.483  -4.054  1.00  0.00     0.198 A 
ATOM     72  F   UNL     1      -0.651  15.531  -6.376  1.00  0.00    -0.203 F 
ATOM     73  F   UNL     1       0.803  12.786  -1.891  1.00  0.00    -0.200 F 
ATOM     74  C   UNL     1       0.095  14.793  -2.911  1.00  0.00     0.200 A 
ATOM     75  F   UNL     1      -0.617  16.777  -3.975  1.00  0.00    -0.200 F 
ATOM     76  F   UNL     1       0.102  15.416  -1.724  1.00  0.00    -0.200 F 
ENDBRANCH  52  66
BRANCH  53  77
ATOM     77  C   UNL     1       0.479   8.847 -14.249  1.00  0.00     0.064 A 
ATOM     78  C   UNL     1       1.495   7.917 -14.504  1.00  0.00     0.173 A 
ATOM     79  C   UNL     1      -0.503   9.031 -15.234  1.00  0.00     0.173 A 
ATOM     80  F   UNL     1       2.466   7.722 -13.600  1.00  0.00    -0.203 F 
ATOM     81  C   UNL     1       1.522   7.193 -15.694  1.00  0.00     0.198 A 
ATOM     82  C   UNL     1      -0.492   8.285 -16.409  1.00  0.00     0.198 A 
ATOM     83  F   UNL     1      -1.500   9.906 -15.033  1.00  0.00    -0.203 F 
ATOM     84  F   UNL     1       2.515   6.324 -15.923  1.00  0.00    -0.200 F 
ATOM     85  C   UNL     1       0.522   7.369 -16.639  1.00  0.00     0.200 A 
ATOM     86  F   UNL     1      -1.472   8.442 -17.309  1.00  0.00    -0.200 F 
ATOM     87  F   UNL     1       0.535   6.653 -17.772  1.00  0.00    -0.200 F 
ENDBRANCH  53  77
BRANCH  65  88
ATOM     88  C   UNL     1       4.222  13.924 -11.286  1.00  0.00     0.064 A 
ATOM     89  C   UNL     1       4.054  14.938 -12.240  1.00  0.00     0.173 A 
ATOM     90  C   UNL     1       5.505  13.715 -10.761  1.00  0.00     0.173 A 
ATOM     91  F   UNL     1       2.848  15.161 -12.783  1.00  0.00    -0.203 F 
ATOM     92  C   UNL     1       5.136  15.704 -12.664  1.00  0.00     0.198 A 
ATOM     93  C   UNL     1       6.579  14.499 -11.169  1.00  0.00     0.198 A 
ATOM     94  F   UNL     1       5.713  12.759  -9.843  1.00  0.00    -0.203 F 
ATOM     95  F   UNL     1       4.962  16.642 -13.605  1.00  0.00    -0.200 F 
ATOM     96  C   UNL     1       6.395  15.489 -12.124  1.00  0.00     0.200 A 
ATOM     97  F   UNL     1       7.794  14.298 -10.640  1.00  0.00    -0.200 F 
ATOM     98  F   UNL     1       7.434  16.232 -12.529  1.00  0.00    -0.200 F 
ENDBRANCH  65  88
ENDBRANCH  39  40
ENDBRANCH  31  34
ENDBRANCH  29  30
ENDBRANCH  28  29
ENDBRANCH  27  28
ENDBRANCH  26  27
ENDBRANCH   1  26
TORSDOF 19
