REMARK SMILES CO[C@H]1C[C@@H](C(=O)NCCCCCCNC(=O)c2ccc(-c3c4nc(c(-c5c(F)c(F)c(F)c(F)c5F)c5ccc([nH]5)c(-c5c(F)c(F)c(F)c(F)c5F)c5nc(c(-c6c(F)c(F)c(F)c(F)c6F)c6ccc3[nH]6)C=C5)C=C4)cc2)N(C(=O)c2cc(SC)ccc2C)C1
REMARK SMILES IDX 11 1 10 2 9 3 8 4 6 5 7 6 5 8 3 9 4 10 93 11 81 12 2 13 1 14
REMARK SMILES IDX 82 15 83 16 84 17 85 18 91 19 86 20 90 21 92 22 89 23 87 24
REMARK SMILES IDX 88 25 12 26 13 27 14 28 15 29 16 30 17 32 18 33 19 34 80 35
REMARK SMILES IDX 20 36 79 37 21 38 22 39 23 40 73 41 24 42 78 43 72 44 74 45
REMARK SMILES IDX 25 46 77 47 71 48 70 49 26 51 58 52 38 53 57 54 39 55 42 56
REMARK SMILES IDX 56 57 75 58 40 59 41 60 55 62 76 63 43 64 27 65 28 66 36 67
REMARK SMILES IDX 29 68 30 69 34 70 37 71 31 72 32 73 35 74 33 75 59 76 60 77
REMARK SMILES IDX 68 78 61 79 62 80 66 81 69 82 63 83 64 84 67 85 65 86 44 87
REMARK SMILES IDX 45 88 53 89 46 90 47 91 51 92 54 93 48 94 49 95 52 96 50 97
REMARK H PARENT 8 7 15 31 74 50 42 61
REMARK Flexibility Score: inf
ROOT
ATOM      1  C   UNL     1      -0.259  -5.535  -4.908  1.00  0.00     0.002 C 
ENDROOT
BRANCH   1   2
ATOM      2  C   UNL     1       0.013  -4.413  -3.897  1.00  0.00     0.021 C 
BRANCH   2   3
ATOM      3  C   UNL     1      -1.191  -4.045  -3.034  1.00  0.00     0.116 C 
BRANCH   3   4
ATOM      4  N   UNL     1      -1.495  -5.046  -2.030  1.00  0.00    -0.354 N 
ATOM      5  C   UNL     1      -1.442  -5.054  -0.674  1.00  0.00     0.242 C 
ATOM      6  O   UNL     1      -2.162  -5.907  -0.137  1.00  0.00    -0.273 OA
ATOM      7  H   UNL     1      -1.804  -5.899  -2.413  1.00  0.00     0.163 HD
BRANCH   5   8
ATOM      8  C   UNL     1      -0.542  -4.157   0.217  1.00  0.00     0.177 C 
ATOM      9  C   UNL     1       1.032  -2.336   0.523  1.00  0.00     0.139 C 
ATOM     10  C   UNL     1       0.020  -2.914  -0.455  1.00  0.00     0.069 C 
ATOM     11  C   UNL     1       1.546  -3.574   1.260  1.00  0.00     0.152 C 
ATOM     12  N   UNL     1       0.665  -4.681   0.889  1.00  0.00    -0.324 N 
BRANCH   9  13
ATOM     13  O   UNL     1       2.105  -1.686  -0.163  1.00  0.00    -0.380 OA
ATOM     14  C   UNL     1       1.703  -0.547  -0.914  1.00  0.00     0.195 C 
ENDBRANCH   9  13
BRANCH  12  15
ATOM     15  C   UNL     1       0.854  -5.880   1.564  1.00  0.00     0.254 C 
ATOM     16  O   UNL     1       1.632  -5.990   2.511  1.00  0.00    -0.269 OA
BRANCH  15  17
ATOM     17  C   UNL     1       0.203  -7.115   1.083  1.00  0.00     0.044 A 
ATOM     18  C   UNL     1      -0.579  -7.827   2.009  1.00  0.00     0.029 A 
ATOM     19  C   UNL     1       0.436  -7.637  -0.202  1.00  0.00    -0.038 A 
ATOM     20  C   UNL     1      -1.206  -9.026   1.649  1.00  0.00     0.008 A 
ATOM     21  C   UNL     1      -0.229  -8.816  -0.567  1.00  0.00     0.005 A 
ATOM     22  C   UNL     1       1.394  -7.041  -1.192  1.00  0.00     0.045 C 
ATOM     23  C   UNL     1      -1.050  -9.492   0.341  1.00  0.00     0.015 A 
BRANCH  20  24
ATOM     24  S   UNL     1      -2.160  -9.867   2.909  1.00  0.00    -0.130 SA
ATOM     25  C   UNL     1      -2.442 -11.507   2.186  1.00  0.00     0.091 C 
ENDBRANCH  20  24
ENDBRANCH  15  17
ENDBRANCH  12  15
ENDBRANCH   5   8
ENDBRANCH   3   4
ENDBRANCH   2   3
ENDBRANCH   1   2
BRANCH   1  26
ATOM     26  C   UNL     1      -1.474  -5.319  -5.819  1.00  0.00     0.002 C 
BRANCH  26  27
ATOM     27  C   UNL     1      -1.520  -3.967  -6.539  1.00  0.00     0.021 C 
BRANCH  27  28
ATOM     28  C   UNL     1      -0.354  -3.717  -7.486  1.00  0.00     0.116 C 
BRANCH  28  29
ATOM     29  N   UNL     1      -0.365  -4.638  -8.611  1.00  0.00    -0.352 N 
ATOM     30  C   UNL     1      -0.423  -4.371  -9.953  1.00  0.00     0.251 C 
ATOM     31  H   UNL     1      -0.325  -5.593  -8.373  1.00  0.00     0.163 HD
ATOM     32  O   UNL     1      -0.654  -5.277 -10.754  1.00  0.00    -0.269 OA
BRANCH  30  33
ATOM     33  C   UNL     1      -0.223  -2.992 -10.445  1.00  0.00     0.039 A 
ATOM     34  C   UNL     1      -1.062  -2.503 -11.450  1.00  0.00     0.014 A 
ATOM     35  C   UNL     1       0.800  -2.188  -9.933  1.00  0.00     0.014 A 
ATOM     36  C   UNL     1      -0.910  -1.190 -11.901  1.00  0.00     0.010 A 
ATOM     37  C   UNL     1       0.902  -0.858 -10.330  1.00  0.00     0.010 A 
ATOM     38  C   UNL     1       0.052  -0.346 -11.322  1.00  0.00    -0.014 A 
BRANCH  38  39
ATOM     39  C   UNL     1       0.187   1.071 -11.748  1.00  0.00     0.031 A 
ATOM     40  C   UNL     1       1.458   1.546 -12.398  1.00  0.00     0.074 A 
ATOM     41  C   UNL     1      -0.814   1.939 -11.504  1.00  0.00     0.049 A 
ATOM     42  N   UNL     1       1.797   2.756 -12.767  1.00  0.00    -0.248 NA
ATOM     43  C   UNL     1       2.495   0.531 -12.645  1.00  0.00     0.031 C 
ATOM     44  C   UNL     1      -2.079   1.609 -10.846  1.00  0.00     0.029 A 
ATOM     45  N   UNL     1      -0.921   3.282 -11.771  1.00  0.00    -0.354 N 
ATOM     46  C   UNL     1       3.079   2.645 -13.290  1.00  0.00     0.074 A 
ATOM     47  C   UNL     1       3.485   1.266 -13.130  1.00  0.00     0.031 C 
ATOM     48  C   UNL     1      -2.840   2.713 -10.773  1.00  0.00     0.029 A 
ATOM     49  C   UNL     1      -2.102   3.838 -11.341  1.00  0.00     0.049 A 
ATOM     50  H   UNL     1      -0.218   3.798 -12.229  1.00  0.00     0.167 HD
ATOM     51  C   UNL     1       3.837   3.601 -13.880  1.00  0.00     0.037 A 
ATOM     52  C   UNL     1      -2.533   5.113 -11.385  1.00  0.00     0.037 A 
ATOM     53  C   UNL     1       3.427   4.970 -14.048  1.00  0.00     0.049 A 
ATOM     54  C   UNL     1      -1.653   6.161 -12.015  1.00  0.00     0.074 A 
ATOM     55  C   UNL     1       4.116   6.010 -14.648  1.00  0.00     0.029 A 
ATOM     56  N   UNL     1       2.216   5.490 -13.616  1.00  0.00    -0.354 N 
ATOM     57  N   UNL     1      -0.465   6.032 -12.553  1.00  0.00    -0.248 NA
ATOM     58  C   UNL     1      -2.180   7.533 -12.053  1.00  0.00     0.031 C 
ATOM     59  C   UNL     1       3.340   7.168 -14.543  1.00  0.00     0.029 A 
ATOM     60  C   UNL     1       2.144   6.839 -13.926  1.00  0.00     0.049 A 
ATOM     61  H   UNL     1       1.512   4.977 -13.157  1.00  0.00     0.167 HD
ATOM     62  C   UNL     1      -0.119   7.293 -13.022  1.00  0.00     0.074 A 
ATOM     63  C   UNL     1      -1.231   8.169 -12.724  1.00  0.00     0.031 C 
ATOM     64  C   UNL     1       1.019   7.691 -13.641  1.00  0.00     0.037 A 
BRANCH  51  65
ATOM     65  C   UNL     1       5.182   3.196 -14.410  1.00  0.00     0.064 A 
ATOM     66  C   UNL     1       5.303   2.371 -15.539  1.00  0.00     0.173 A 
ATOM     67  C   UNL     1       6.361   3.684 -13.826  1.00  0.00     0.173 A 
ATOM     68  F   UNL     1       4.207   1.868 -16.128  1.00  0.00    -0.203 F 
ATOM     69  C   UNL     1       6.552   2.035 -16.052  1.00  0.00     0.198 A 
ATOM     70  C   UNL     1       7.608   3.371 -14.361  1.00  0.00     0.198 A 
ATOM     71  F   UNL     1       6.302   4.481 -12.748  1.00  0.00    -0.203 F 
ATOM     72  F   UNL     1       6.643   1.213 -17.107  1.00  0.00    -0.200 F 
ATOM     73  C   UNL     1       7.703   2.543 -15.469  1.00  0.00     0.200 A 
ATOM     74  F   UNL     1       8.719   3.875 -13.805  1.00  0.00    -0.200 F 
ATOM     75  F   UNL     1       8.905   2.232 -15.974  1.00  0.00    -0.200 F 
ENDBRANCH  51  65
BRANCH  52  76
ATOM     76  C   UNL     1      -3.858   5.481 -10.815  1.00  0.00     0.064 A 
ATOM     77  C   UNL     1      -4.897   5.944 -11.635  1.00  0.00     0.173 A 
ATOM     78  C   UNL     1      -4.098   5.422  -9.434  1.00  0.00     0.173 A 
ATOM     79  F   UNL     1      -4.712   6.036 -12.960  1.00  0.00    -0.203 F 
ATOM     80  C   UNL     1      -6.107   6.373 -11.094  1.00  0.00     0.198 A 
ATOM     81  C   UNL     1      -5.321   5.817  -8.897  1.00  0.00     0.198 A 
ATOM     82  F   UNL     1      -3.142   4.979  -8.603  1.00  0.00    -0.203 F 
ATOM     83  F   UNL     1      -7.055   6.877 -11.895  1.00  0.00    -0.200 F 
ATOM     84  C   UNL     1      -6.319   6.306  -9.725  1.00  0.00     0.200 A 
ATOM     85  F   UNL     1      -5.528   5.734  -7.575  1.00  0.00    -0.200 F 
ATOM     86  F   UNL     1      -7.480   6.726  -9.204  1.00  0.00    -0.200 F 
ENDBRANCH  52  76
BRANCH  64  87
ATOM     87  C   UNL     1       1.099   9.125 -14.082  1.00  0.00     0.064 A 
ATOM     88  C   UNL     1       1.222  10.176 -13.162  1.00  0.00     0.173 A 
ATOM     89  C   UNL     1       1.088   9.446 -15.448  1.00  0.00     0.173 A 
ATOM     90  F   UNL     1       1.222   9.924 -11.844  1.00  0.00    -0.203 F 
ATOM     91  C   UNL     1       1.300  11.498 -13.592  1.00  0.00     0.198 A 
ATOM     92  C   UNL     1       1.201  10.765 -15.876  1.00  0.00     0.198 A 
ATOM     93  F   UNL     1       0.981   8.477 -16.370  1.00  0.00    -0.203 F 
ATOM     94  F   UNL     1       1.362  12.490 -12.693  1.00  0.00    -0.200 F 
ATOM     95  C   UNL     1       1.298  11.791 -14.948  1.00  0.00     0.200 A 
ATOM     96  F   UNL     1       1.216  11.044 -17.187  1.00  0.00    -0.200 F 
ATOM     97  F   UNL     1       1.381  13.063 -15.360  1.00  0.00    -0.200 F 
ENDBRANCH  64  87
ENDBRANCH  38  39
ENDBRANCH  30  33
ENDBRANCH  28  29
ENDBRANCH  27  28
ENDBRANCH  26  27
ENDBRANCH   1  26
TORSDOF 17
