REMARK SMILES C[C@@H](CCCO)Nc1ccc(C(=O)NCCCCCCNC(=O)c2ccc(-c3c4nc(c(-c5c(F)c(F)c(F)c(F)c5F)c5ccc([nH]5)c(-c5c(F)c(F)c(F)c(F)c5F)c5nc(c(-c6c(F)c(F)c(F)c(F)c6F)c6ccc3[nH]6)C=C5)C=C4)cc2)o1
REMARK SMILES IDX 15 1 14 2 12 3 13 4 11 6 8 7 9 8 87 9 10 10 7 11 2 13 1 14
REMARK SMILES IDX 3 15 4 16 5 17 6 18 16 20 17 21 18 22 19 23 20 24 21 25
REMARK SMILES IDX 22 26 23 28 24 29 25 30 86 31 26 32 85 33 27 34 28 35 29 36
REMARK SMILES IDX 79 37 30 38 84 39 78 40 80 41 31 42 83 43 77 44 76 45 32 47
REMARK SMILES IDX 64 48 44 49 63 50 45 51 48 52 62 53 81 54 46 55 47 56 61 58
REMARK SMILES IDX 82 59 49 60 33 61 34 62 42 63 35 64 36 65 40 66 43 67 37 68
REMARK SMILES IDX 38 69 41 70 39 71 65 72 66 73 74 74 67 75 68 76 72 77 75 78
REMARK SMILES IDX 69 79 70 80 73 81 71 82 50 83 51 84 59 85 52 86 53 87 57 88
REMARK SMILES IDX 60 89 54 90 55 91 58 92 56 93
REMARK H PARENT 14 5 7 12 6 19 21 27 80 46 48 57
REMARK Flexibility Score: inf
ROOT
ATOM      1  C   UNL     1      -4.032   3.180   5.750  1.00  0.00     0.116 C 
ENDROOT
BRANCH   1   2
ATOM      2  N   UNL     1      -4.581   2.105   4.956  1.00  0.00    -0.349 N 
ATOM      3  C   UNL     1      -4.223   1.599   3.729  1.00  0.00     0.287 C 
ATOM      4  O   UNL     1      -4.904   0.650   3.333  1.00  0.00    -0.266 OA
ATOM      5  H   UNL     1      -5.351   1.652   5.369  1.00  0.00     0.163 HD
BRANCH   3   6
ATOM      6  C   UNL     1      -3.093   2.124   2.986  1.00  0.00     0.194 A 
ATOM      7  C   UNL     1      -1.494   1.882   1.481  1.00  0.00     0.194 A 
ATOM      8  C   UNL     1      -1.273   3.099   2.071  1.00  0.00     0.070 A 
ATOM      9  O   UNL     1      -2.602   1.307   1.996  1.00  0.00    -0.436 OA
ATOM     10  C   UNL     1      -2.333   3.282   2.997  1.00  0.00     0.058 A 
BRANCH   7  11
ATOM     11  N   UNL     1      -0.868   1.157   0.544  1.00  0.00    -0.354 N 
ATOM     12  H   UNL     1      -1.398   0.539  -0.009  1.00  0.00     0.163 HD
BRANCH  11  13
ATOM     13  C   UNL     1       0.564   1.250   0.313  1.00  0.00     0.079 C 
ATOM     14  C   UNL     1       1.096  -0.138  -0.045  1.00  0.00     0.031 C 
BRANCH  13  15
ATOM     15  C   UNL     1       0.914   2.313  -0.739  1.00  0.00     0.027 C 
BRANCH  15  16
ATOM     16  C   UNL     1       0.443   2.068  -2.179  1.00  0.00     0.030 C 
BRANCH  16  17
ATOM     17  C   UNL     1      -1.063   2.126  -2.408  1.00  0.00     0.156 C 
BRANCH  17  18
ATOM     18  O   UNL     1      -1.615   3.312  -1.859  1.00  0.00    -0.396 OA
ATOM     19  H   UNL     1      -1.455   3.332  -0.902  1.00  0.00     0.210 HD
ENDBRANCH  17  18
ENDBRANCH  16  17
ENDBRANCH  15  16
ENDBRANCH  13  15
ENDBRANCH  11  13
ENDBRANCH   7  11
ENDBRANCH   3   6
ENDBRANCH   1   2
BRANCH   1  20
ATOM     20  C   UNL     1      -4.949   4.401   5.697  1.00  0.00     0.021 C 
BRANCH  20  21
ATOM     21  C   UNL     1      -6.141   4.298   6.659  1.00  0.00     0.002 C 
BRANCH  21  22
ATOM     22  C   UNL     1      -5.763   4.171   8.142  1.00  0.00     0.002 C 
BRANCH  22  23
ATOM     23  C   UNL     1      -4.806   5.249   8.657  1.00  0.00     0.021 C 
BRANCH  23  24
ATOM     24  C   UNL     1      -5.349   6.669   8.545  1.00  0.00     0.116 C 
BRANCH  24  25
ATOM     25  N   UNL     1      -6.525   6.860   9.378  1.00  0.00    -0.352 N 
ATOM     26  C   UNL     1      -6.743   7.771  10.380  1.00  0.00     0.251 C 
ATOM     27  H   UNL     1      -7.274   6.247   9.197  1.00  0.00     0.163 HD
ATOM     28  O   UNL     1      -7.698   7.642  11.138  1.00  0.00    -0.269 OA
BRANCH  26  29
ATOM     29  C   UNL     1      -5.814   8.907  10.552  1.00  0.00     0.039 A 
ATOM     30  C   UNL     1      -5.405   9.258  11.840  1.00  0.00     0.014 A 
ATOM     31  C   UNL     1      -5.364   9.635   9.447  1.00  0.00     0.014 A 
ATOM     32  C   UNL     1      -4.501  10.307  12.016  1.00  0.00     0.010 A 
ATOM     33  C   UNL     1      -4.407  10.630   9.617  1.00  0.00     0.010 A 
ATOM     34  C   UNL     1      -3.971  10.981  10.903  1.00  0.00    -0.014 A 
BRANCH  34  35
ATOM     35  C   UNL     1      -2.969  12.064  11.066  1.00  0.00     0.031 A 
ATOM     36  C   UNL     1      -3.304  13.469  10.650  1.00  0.00     0.074 A 
ATOM     37  C   UNL     1      -1.742  11.770  11.538  1.00  0.00     0.049 A 
ATOM     38  N   UNL     1      -2.545  14.536  10.650  1.00  0.00    -0.248 NA
ATOM     39  C   UNL     1      -4.665  13.702  10.143  1.00  0.00     0.031 C 
ATOM     40  C   UNL     1      -1.287  10.438  11.940  1.00  0.00     0.029 A 
ATOM     41  N   UNL     1      -0.649  12.572  11.752  1.00  0.00    -0.354 N 
ATOM     42  C   UNL     1      -3.333  15.560  10.140  1.00  0.00     0.074 A 
ATOM     43  C   UNL     1      -4.607  14.976   9.783  1.00  0.00     0.031 C 
ATOM     44  C   UNL     1      -0.020  10.519  12.376  1.00  0.00     0.029 A 
ATOM     45  C   UNL     1       0.441  11.897  12.245  1.00  0.00     0.049 A 
ATOM     46  H   UNL     1      -0.647  13.539  11.569  1.00  0.00     0.167 HD
ATOM     47  C   UNL     1      -3.030  16.874  10.009  1.00  0.00     0.037 A 
ATOM     48  C   UNL     1       1.676  12.341  12.548  1.00  0.00     0.037 A 
ATOM     49  C   UNL     1      -1.766  17.453  10.380  1.00  0.00     0.049 A 
ATOM     50  C   UNL     1       1.995  13.800  12.358  1.00  0.00     0.074 A 
ATOM     51  C   UNL     1      -1.373  18.779  10.321  1.00  0.00     0.029 A 
ATOM     52  N   UNL     1      -0.687  16.738  10.879  1.00  0.00    -0.354 N 
ATOM     53  N   UNL     1       1.223  14.770  11.932  1.00  0.00    -0.248 NA
ATOM     54  C   UNL     1       3.359  14.227  12.699  1.00  0.00     0.031 C 
ATOM     55  C   UNL     1      -0.041  18.859  10.739  1.00  0.00     0.029 A 
ATOM     56  C   UNL     1       0.379  17.592  11.112  1.00  0.00     0.049 A 
ATOM     57  H   UNL     1      -0.679  15.767  11.043  1.00  0.00     0.167 HD
ATOM     58  C   UNL     1       1.993  15.924  11.987  1.00  0.00     0.074 A 
ATOM     59  C   UNL     1       3.289  15.536  12.502  1.00  0.00     0.031 C 
ATOM     60  C   UNL     1       1.658  17.191  11.641  1.00  0.00     0.037 A 
BRANCH  47  61
ATOM     61  C   UNL     1      -4.090  17.777   9.446  1.00  0.00     0.064 A 
ATOM     62  C   UNL     1      -5.256  18.079  10.166  1.00  0.00     0.173 A 
ATOM     63  C   UNL     1      -3.922  18.381   8.191  1.00  0.00     0.173 A 
ATOM     64  F   UNL     1      -5.472  17.519  11.366  1.00  0.00    -0.203 F 
ATOM     65  C   UNL     1      -6.227  18.926   9.639  1.00  0.00     0.198 A 
ATOM     66  C   UNL     1      -4.879  19.255   7.681  1.00  0.00     0.198 A 
ATOM     67  F   UNL     1      -2.823  18.133   7.462  1.00  0.00    -0.203 F 
ATOM     68  F   UNL     1      -7.355  19.158  10.324  1.00  0.00    -0.200 F 
ATOM     69  C   UNL     1      -6.034  19.520   8.401  1.00  0.00     0.200 A 
ATOM     70  F   UNL     1      -4.684  19.839   6.490  1.00  0.00    -0.200 F 
ATOM     71  F   UNL     1      -6.965  20.343   7.899  1.00  0.00    -0.200 F 
ENDBRANCH  47  61
BRANCH  48  72
ATOM     72  C   UNL     1       2.699  11.404  13.082  1.00  0.00     0.064 A 
ATOM     73  C   UNL     1       3.164  11.522  14.399  1.00  0.00     0.173 A 
ATOM     74  C   UNL     1       3.251  10.390  12.285  1.00  0.00     0.173 A 
ATOM     75  F   UNL     1       2.682  12.488  15.195  1.00  0.00    -0.203 F 
ATOM     76  C   UNL     1       4.163  10.683  14.889  1.00  0.00     0.198 A 
ATOM     77  C   UNL     1       4.226   9.531  12.787  1.00  0.00     0.198 A 
ATOM     78  F   UNL     1       2.838  10.229  11.019  1.00  0.00    -0.203 F 
ATOM     79  F   UNL     1       4.629  10.857  16.133  1.00  0.00    -0.200 F 
ATOM     80  C   UNL     1       4.690   9.685  14.084  1.00  0.00     0.200 A 
ATOM     81  F   UNL     1       4.722   8.558  12.010  1.00  0.00    -0.200 F 
ATOM     82  F   UNL     1       5.652   8.880  14.555  1.00  0.00    -0.200 F 
ENDBRANCH  48  72
BRANCH  60  83
ATOM     83  C   UNL     1       2.692  18.259  11.854  1.00  0.00     0.064 A 
ATOM     84  C   UNL     1       3.844  18.342  11.058  1.00  0.00     0.173 A 
ATOM     85  C   UNL     1       2.507  19.236  12.845  1.00  0.00     0.173 A 
ATOM     86  F   UNL     1       4.075  17.424  10.107  1.00  0.00    -0.203 F 
ATOM     87  C   UNL     1       4.787  19.345  11.266  1.00  0.00     0.198 A 
ATOM     88  C   UNL     1       3.435  20.257  13.027  1.00  0.00     0.198 A 
ATOM     89  F   UNL     1       1.419  19.207  13.629  1.00  0.00    -0.203 F 
ATOM     90  F   UNL     1       5.906  19.373  10.529  1.00  0.00    -0.200 F 
ATOM     91  C   UNL     1       4.578  20.306  12.244  1.00  0.00     0.200 A 
ATOM     92  F   UNL     1       3.224  21.193  13.963  1.00  0.00    -0.200 F 
ATOM     93  F   UNL     1       5.483  21.275  12.438  1.00  0.00    -0.200 F 
ENDBRANCH  60  83
ENDBRANCH  34  35
ENDBRANCH  26  29
ENDBRANCH  24  25
ENDBRANCH  23  24
ENDBRANCH  22  23
ENDBRANCH  21  22
ENDBRANCH  20  21
ENDBRANCH   1  20
TORSDOF 19
