REMARK SMILES CC(=O)N[C@@H](CS[C@H]1CC(=O)N(c2ccc(Cl)cc2Cl)C1=O)C(=O)NCCCCCCNC(=O)c1ccc(-c2c3nc(c(-c4c(F)c(F)c(F)c(F)c4F)c4ccc([nH]4)c(-c4c(F)c(F)c(F)c(F)c4F)c4nc(c(-c5c(F)c(F)c(F)c(F)c5F)c5ccc2[nH]5)C=C4)C=C3)cc1
REMARK SMILES IDX 27 1 26 2 25 3 23 4 24 5 5 7 4 8 1 9 2 10 3 11 6 13 7 14
REMARK SMILES IDX 8 15 9 16 21 17 10 18 12 19 22 20 11 21 13 22 14 23 19 24
REMARK SMILES IDX 15 25 18 26 20 27 16 28 17 29 28 30 29 31 30 32 31 33 32 34
REMARK SMILES IDX 33 35 34 37 35 38 36 39 97 40 37 41 96 42 38 43 39 44 40 45
REMARK SMILES IDX 90 46 41 47 95 48 89 49 91 50 42 51 94 52 88 53 87 54 43 56
REMARK SMILES IDX 75 57 55 58 74 59 56 60 59 61 73 62 92 63 57 64 58 65 72 67
REMARK SMILES IDX 93 68 60 69 44 70 45 71 53 72 46 73 47 74 51 75 54 76 48 77
REMARK SMILES IDX 49 78 52 79 50 80 76 81 77 82 85 83 78 84 79 85 83 86 86 87
REMARK SMILES IDX 80 88 81 89 84 90 82 91 61 92 62 93 70 94 63 95 64 96 68 97
REMARK SMILES IDX 71 98 65 99 66 100 69 101 67 102
REMARK H PARENT 25 6 4 12 32 36 91 55 59 66
REMARK Flexibility Score: inf
ROOT
ATOM      1  C   UNL     1       3.358   2.311  -5.565  1.00  0.00     0.021 C 
ENDROOT
BRANCH   1   2
ATOM      2  C   UNL     1       2.882   1.306  -4.515  1.00  0.00     0.116 C 
BRANCH   2   3
ATOM      3  N   UNL     1       3.756   0.155  -4.366  1.00  0.00    -0.354 N 
ATOM      4  C   UNL     1       3.751  -0.855  -3.447  1.00  0.00     0.243 C 
ATOM      5  O   UNL     1       4.320  -1.902  -3.780  1.00  0.00    -0.273 OA
ATOM      6  H   UNL     1       4.471   0.092  -5.040  1.00  0.00     0.163 HD
BRANCH   4   7
ATOM      7  C   UNL     1       2.940  -0.828  -2.134  1.00  0.00     0.181 C 
BRANCH   7   8
ATOM      8  N   UNL     1       2.887   0.473  -1.478  1.00  0.00    -0.344 N 
ATOM      9  C   UNL     1       4.754   0.011   0.080  1.00  0.00     0.114 C 
ATOM     10  C   UNL     1       3.764   0.960  -0.548  1.00  0.00     0.217 C 
ATOM     11  O   UNL     1       3.706   2.144  -0.227  1.00  0.00    -0.275 OA
ATOM     12  H   UNL     1       2.141   1.064  -1.730  1.00  0.00     0.164 HD
ENDBRANCH   7   8
BRANCH   7  13
ATOM     13  C   UNL     1       1.573  -1.538  -2.194  1.00  0.00     0.105 C 
BRANCH  13  14
ATOM     14  S   UNL     1       0.370  -1.108  -3.508  1.00  0.00    -0.145 SA
BRANCH  14  15
ATOM     15  C   UNL     1       1.075  -2.016  -4.921  1.00  0.00     0.146 C 
ATOM     16  C   UNL     1       1.236  -3.511  -4.709  1.00  0.00     0.125 C 
ATOM     17  C   UNL     1       0.244  -1.935  -6.184  1.00  0.00     0.247 C 
ATOM     18  C   UNL     1       1.134  -4.043  -6.105  1.00  0.00     0.235 C 
ATOM     19  N   UNL     1       0.462  -3.114  -6.857  1.00  0.00    -0.248 N 
ATOM     20  O   UNL     1      -0.391  -0.967  -6.574  1.00  0.00    -0.273 OA
ATOM     21  O   UNL     1       1.534  -5.143  -6.454  1.00  0.00    -0.274 OA
BRANCH  19  22
ATOM     22  C   UNL     1       0.186  -3.294  -8.220  1.00  0.00     0.070 A 
ATOM     23  C   UNL     1      -1.052  -3.826  -8.591  1.00  0.00     0.030 A 
ATOM     24  C   UNL     1       1.148  -3.009  -9.204  1.00  0.00     0.066 A 
ATOM     25  C   UNL     1      -1.324  -4.078  -9.937  1.00  0.00     0.023 A 
ATOM     26  C   UNL     1       0.870  -3.249 -10.550  1.00  0.00     0.043 A 
ATOM     27  Cl  UNL     1       2.703  -2.373  -8.796  1.00  0.00    -0.082 Cl
ATOM     28  C   UNL     1      -0.364  -3.789 -10.908  1.00  0.00     0.042 A 
ATOM     29  Cl  UNL     1      -0.703  -4.116 -12.562  1.00  0.00    -0.084 Cl
ENDBRANCH  19  22
ENDBRANCH  14  15
ENDBRANCH  13  14
ENDBRANCH   7  13
ENDBRANCH   4   7
ENDBRANCH   2   3
ENDBRANCH   1   2
BRANCH   1  30
ATOM     30  C   UNL     1       3.517   1.791  -6.998  1.00  0.00     0.002 C 
BRANCH  30  31
ATOM     31  C   UNL     1       2.312   1.081  -7.616  1.00  0.00     0.002 C 
BRANCH  31  32
ATOM     32  C   UNL     1       0.986   1.841  -7.622  1.00  0.00     0.021 C 
BRANCH  32  33
ATOM     33  C   UNL     1       1.017   3.243  -8.218  1.00  0.00     0.116 C 
BRANCH  33  34
ATOM     34  N   UNL     1       1.434   3.279  -9.610  1.00  0.00    -0.352 N 
ATOM     35  C   UNL     1       0.933   4.025 -10.650  1.00  0.00     0.251 C 
ATOM     36  H   UNL     1       2.183   2.683  -9.841  1.00  0.00     0.163 HD
ATOM     37  O   UNL     1       1.360   3.863 -11.789  1.00  0.00    -0.269 OA
BRANCH  35  38
ATOM     38  C   UNL     1      -0.159   4.997 -10.409  1.00  0.00     0.039 A 
ATOM     39  C   UNL     1      -1.255   5.000 -11.278  1.00  0.00     0.014 A 
ATOM     40  C   UNL     1      -0.120   5.884  -9.330  1.00  0.00     0.014 A 
ATOM     41  C   UNL     1      -2.351   5.824 -11.012  1.00  0.00     0.010 A 
ATOM     42  C   UNL     1      -1.238   6.659  -9.030  1.00  0.00     0.010 A 
ATOM     43  C   UNL     1      -2.371   6.624  -9.858  1.00  0.00    -0.014 A 
BRANCH  43  44
ATOM     44  C   UNL     1      -3.584   7.388  -9.472  1.00  0.00     0.031 A 
ATOM     45  C   UNL     1      -3.563   8.889  -9.438  1.00  0.00     0.074 A 
ATOM     46  C   UNL     1      -4.682   6.720  -9.068  1.00  0.00     0.049 A 
ATOM     47  N   UNL     1      -4.491   9.721  -9.039  1.00  0.00    -0.248 NA
ATOM     48  C   UNL     1      -2.325   9.541  -9.893  1.00  0.00     0.031 C 
ATOM     49  C   UNL     1      -4.811   5.263  -9.011  1.00  0.00     0.029 A 
ATOM     50  N   UNL     1      -5.894   7.178  -8.613  1.00  0.00    -0.354 N 
ATOM     51  C   UNL     1      -3.949  10.991  -9.182  1.00  0.00     0.074 A 
ATOM     52  C   UNL     1      -2.594  10.819  -9.664  1.00  0.00     0.031 C 
ATOM     53  C   UNL     1      -6.035   4.946  -8.560  1.00  0.00     0.029 A 
ATOM     54  C   UNL     1      -6.763   6.174  -8.259  1.00  0.00     0.049 A 
ATOM     55  H   UNL     1      -6.119   8.134  -8.546  1.00  0.00     0.167 HD
ATOM     56  C   UNL     1      -4.534  12.190  -8.949  1.00  0.00     0.037 A 
ATOM     57  C   UNL     1      -8.002   6.237  -7.736  1.00  0.00     0.037 A 
ATOM     58  C   UNL     1      -5.888  12.357  -8.489  1.00  0.00     0.049 A 
ATOM     59  C   UNL     1      -8.621   7.580  -7.468  1.00  0.00     0.074 A 
ATOM     60  C   UNL     1      -6.595  13.531  -8.295  1.00  0.00     0.029 A 
ATOM     61  N   UNL     1      -6.740  11.317  -8.144  1.00  0.00    -0.354 N 
ATOM     62  N   UNL     1      -8.123   8.775  -7.673  1.00  0.00    -0.248 NA
ATOM     63  C   UNL     1      -9.974   7.584  -6.895  1.00  0.00     0.031 C 
ATOM     64  C   UNL     1      -7.858  13.204  -7.789  1.00  0.00     0.029 A 
ATOM     65  C   UNL     1      -7.954  11.825  -7.709  1.00  0.00     0.049 A 
ATOM     66  H   UNL     1      -6.514  10.361  -8.200  1.00  0.00     0.167 HD
ATOM     67  C   UNL     1      -9.103   9.671  -7.270  1.00  0.00     0.074 A 
ATOM     68  C   UNL     1     -10.234   8.882  -6.828  1.00  0.00     0.031 C 
ATOM     69  C   UNL     1      -9.067  11.026  -7.264  1.00  0.00     0.037 A 
BRANCH  56  70
ATOM     70  C   UNL     1      -3.713  13.422  -9.191  1.00  0.00     0.064 A 
ATOM     71  C   UNL     1      -3.378  13.837 -10.488  1.00  0.00     0.173 A 
ATOM     72  C   UNL     1      -3.293  14.220  -8.117  1.00  0.00     0.173 A 
ATOM     73  F   UNL     1      -3.747  13.103 -11.549  1.00  0.00    -0.203 F 
ATOM     74  C   UNL     1      -2.631  14.993 -10.700  1.00  0.00     0.198 A 
ATOM     75  C   UNL     1      -2.569  15.390  -8.334  1.00  0.00     0.198 A 
ATOM     76  F   UNL     1      -3.592  13.871  -6.856  1.00  0.00    -0.203 F 
ATOM     77  F   UNL     1      -2.286  15.348 -11.946  1.00  0.00    -0.200 F 
ATOM     78  C   UNL     1      -2.233  15.772  -9.624  1.00  0.00     0.200 A 
ATOM     79  F   UNL     1      -2.196  16.148  -7.293  1.00  0.00    -0.200 F 
ATOM     80  F   UNL     1      -1.521  16.888  -9.830  1.00  0.00    -0.200 F 
ENDBRANCH  56  70
BRANCH  57  81
ATOM     81  C   UNL     1      -8.743   4.984  -7.437  1.00  0.00     0.064 A 
ATOM     82  C   UNL     1      -9.854   4.607  -8.204  1.00  0.00     0.173 A 
ATOM     83  C   UNL     1      -8.359   4.141  -6.385  1.00  0.00     0.173 A 
ATOM     84  F   UNL     1     -10.273   5.394  -9.206  1.00  0.00    -0.203 F 
ATOM     85  C   UNL     1     -10.561   3.441  -7.922  1.00  0.00     0.198 A 
ATOM     86  C   UNL     1      -9.051   2.961  -6.119  1.00  0.00     0.198 A 
ATOM     87  F   UNL     1      -7.302   4.457  -5.622  1.00  0.00    -0.203 F 
ATOM     88  F   UNL     1     -11.643   3.124  -8.645  1.00  0.00    -0.200 F 
ATOM     89  C   UNL     1     -10.155   2.615  -6.884  1.00  0.00     0.200 A 
ATOM     90  F   UNL     1      -8.649   2.160  -5.123  1.00  0.00    -0.200 F 
ATOM     91  F   UNL     1     -10.832   1.491  -6.615  1.00  0.00    -0.200 F 
ENDBRANCH  57  81
BRANCH  69  92
ATOM     92  C   UNL     1     -10.291  11.740  -6.770  1.00  0.00     0.064 A 
ATOM     93  C   UNL     1     -10.622  11.767  -5.408  1.00  0.00     0.173 A 
ATOM     94  C   UNL     1     -11.122  12.432  -7.664  1.00  0.00     0.173 A 
ATOM     95  F   UNL     1      -9.867  11.105  -4.517  1.00  0.00    -0.203 F 
ATOM     96  C   UNL     1     -11.753  12.443  -4.960  1.00  0.00     0.198 A 
ATOM     97  C   UNL     1     -12.238  13.130  -7.209  1.00  0.00     0.198 A 
ATOM     98  F   UNL     1     -10.847  12.439  -8.976  1.00  0.00    -0.203 F 
ATOM     99  F   UNL     1     -12.075  12.419  -3.659  1.00  0.00    -0.200 F 
ATOM    100  C   UNL     1     -12.556  13.130  -5.859  1.00  0.00     0.200 A 
ATOM    101  F   UNL     1     -13.006  13.801  -8.077  1.00  0.00    -0.200 F 
ATOM    102  F   UNL     1     -13.641  13.785  -5.425  1.00  0.00    -0.200 F 
ENDBRANCH  69  92
ENDBRANCH  43  44
ENDBRANCH  35  38
ENDBRANCH  33  34
ENDBRANCH  32  33
ENDBRANCH  31  32
ENDBRANCH  30  31
ENDBRANCH   1  30
TORSDOF 18
