REMARK SMILES COc1ccc(-c2sc(C(=O)NCCCCCCNC(=O)c3ccc(-c4c5nc(c(-c6c(F)c(F)c(F)c(F)c6F)c6ccc([nH]6)c(-c6c(F)c(F)c(F)c(F)c6F)c6nc(c(-c7c(F)c(F)c(F)c(F)c7F)c7ccc4[nH]7)C=C6)C=C5)cc3)cc2C)c(OC)c1
REMARK SMILES IDX 15 1 14 2 13 3 12 4 10 5 11 6 9 8 7 9 8 10 86 11 85 12 87 13
REMARK SMILES IDX 6 14 3 15 4 16 91 17 5 18 88 19 2 20 1 21 89 22 90 23 16 24
REMARK SMILES IDX 17 25 18 26 19 27 20 28 21 30 22 31 23 32 84 33 24 34 83 35
REMARK SMILES IDX 25 36 26 37 27 38 77 39 28 40 82 41 76 42 78 43 29 44 81 45
REMARK SMILES IDX 75 46 74 47 30 49 62 50 42 51 61 52 43 53 46 54 60 55 79 56
REMARK SMILES IDX 44 57 45 58 59 60 80 61 47 62 31 63 32 64 40 65 33 66 34 67
REMARK SMILES IDX 38 68 41 69 35 70 36 71 39 72 37 73 63 74 64 75 72 76 65 77
REMARK SMILES IDX 66 78 70 79 73 80 67 81 68 82 71 83 69 84 48 85 49 86 57 87
REMARK SMILES IDX 50 88 51 89 55 90 58 91 52 92 53 93 56 94 54 95
REMARK H PARENT 12 7 19 29 78 48 46 59
REMARK Flexibility Score: inf
ROOT
ATOM      1  C   UNL     1      -0.357   0.128 -11.716  1.00  0.00     0.002 C 
ENDROOT
BRANCH   1   2
ATOM      2  C   UNL     1      -0.038  -0.088 -10.230  1.00  0.00     0.021 C 
BRANCH   2   3
ATOM      3  C   UNL     1      -0.334  -1.503  -9.734  1.00  0.00     0.116 C 
BRANCH   3   4
ATOM      4  N   UNL     1       0.683  -2.435 -10.180  1.00  0.00    -0.351 N 
ATOM      5  C   UNL     1       1.671  -3.160  -9.559  1.00  0.00     0.261 C 
ATOM      6  O   UNL     1       2.328  -3.869 -10.330  1.00  0.00    -0.268 OA
ATOM      7  H   UNL     1       0.661  -2.583 -11.153  1.00  0.00     0.163 HD
BRANCH   5   8
ATOM      8  C   UNL     1       1.939  -3.167  -8.124  1.00  0.00     0.093 A 
ATOM      9  C   UNL     1       2.007  -2.906  -5.650  1.00  0.00     0.042 A 
ATOM     10  S   UNL     1       1.311  -2.084  -6.977  1.00  0.00    -0.130 S 
ATOM     11  C   UNL     1       2.857  -3.916  -6.069  1.00  0.00    -0.031 A 
ATOM     12  C   UNL     1       2.807  -4.051  -7.498  1.00  0.00     0.029 A 
ATOM     13  C   UNL     1       3.707  -4.779  -5.196  1.00  0.00     0.046 C 
BRANCH   9  14
ATOM     14  C   UNL     1       1.656  -2.455  -4.296  1.00  0.00     0.034 A 
ATOM     15  C   UNL     1       0.861  -1.561  -1.757  1.00  0.00     0.122 A 
ATOM     16  C   UNL     1      -0.046  -2.230  -2.573  1.00  0.00     0.047 A 
ATOM     17  C   UNL     1       2.179  -1.375  -2.184  1.00  0.00     0.093 A 
ATOM     18  C   UNL     1       0.345  -2.667  -3.838  1.00  0.00     0.017 A 
ATOM     19  C   UNL     1       2.588  -1.823  -3.450  1.00  0.00     0.131 A 
BRANCH  15  20
ATOM     20  O   UNL     1       0.369  -1.165  -0.542  1.00  0.00    -0.497 OA
ATOM     21  C   UNL     1       0.925   0.041  -0.028  1.00  0.00     0.278 C 
ENDBRANCH  15  20
BRANCH  19  22
ATOM     22  O   UNL     1       3.857  -1.668  -3.949  1.00  0.00    -0.496 OA
ATOM     23  C   UNL     1       4.877  -1.270  -3.043  1.00  0.00     0.278 C 
ENDBRANCH  19  22
ENDBRANCH   9  14
ENDBRANCH   5   8
ENDBRANCH   3   4
ENDBRANCH   2   3
ENDBRANCH   1   2
BRANCH   1  24
ATOM     24  C   UNL     1      -1.815  -0.130 -12.120  1.00  0.00     0.002 C 
BRANCH  24  25
ATOM     25  C   UNL     1      -2.871   0.608 -11.290  1.00  0.00     0.021 C 
BRANCH  25  26
ATOM     26  C   UNL     1      -2.750   2.130 -11.291  1.00  0.00     0.116 C 
BRANCH  26  27
ATOM     27  N   UNL     1      -2.912   2.692 -12.621  1.00  0.00    -0.352 N 
ATOM     28  C   UNL     1      -3.709   3.718 -13.054  1.00  0.00     0.251 C 
ATOM     29  H   UNL     1      -2.362   2.270 -13.320  1.00  0.00     0.163 HD
ATOM     30  O   UNL     1      -3.827   3.927 -14.261  1.00  0.00    -0.269 OA
BRANCH  28  31
ATOM     31  C   UNL     1      -4.447   4.571 -12.095  1.00  0.00     0.039 A 
ATOM     32  C   UNL     1      -5.752   4.956 -12.419  1.00  0.00     0.014 A 
ATOM     33  C   UNL     1      -3.856   5.040 -10.917  1.00  0.00     0.014 A 
ATOM     34  C   UNL     1      -6.476   5.772 -11.548  1.00  0.00     0.010 A 
ATOM     35  C   UNL     1      -4.600   5.806 -10.019  1.00  0.00     0.010 A 
ATOM     36  C   UNL     1      -5.914   6.186 -10.329  1.00  0.00    -0.014 A 
BRANCH  36  37
ATOM     37  C   UNL     1      -6.707   7.008  -9.382  1.00  0.00     0.031 A 
ATOM     38  C   UNL     1      -6.335   8.438  -9.105  1.00  0.00     0.074 A 
ATOM     39  C   UNL     1      -7.759   6.453  -8.749  1.00  0.00     0.049 A 
ATOM     40  N   UNL     1      -6.934   9.314  -8.337  1.00  0.00    -0.248 NA
ATOM     41  C   UNL     1      -5.118   8.945  -9.757  1.00  0.00     0.031 C 
ATOM     42  C   UNL     1      -8.183   5.059  -8.884  1.00  0.00     0.029 A 
ATOM     43  N   UNL     1      -8.663   6.993  -7.870  1.00  0.00    -0.354 N 
ATOM     44  C   UNL     1      -6.167  10.469  -8.409  1.00  0.00     0.074 A 
ATOM     45  C   UNL     1      -5.032  10.168  -9.255  1.00  0.00     0.031 C 
ATOM     46  C   UNL     1      -9.282   4.860  -8.140  1.00  0.00     0.029 A 
ATOM     47  C   UNL     1      -9.628   6.106  -7.462  1.00  0.00     0.049 A 
ATOM     48  H   UNL     1      -8.623   7.927  -7.561  1.00  0.00     0.167 HD
ATOM     49  C   UNL     1      -6.400  11.676  -7.839  1.00  0.00     0.037 A 
ATOM     50  C   UNL     1     -10.681   6.282  -6.642  1.00  0.00     0.037 A 
ATOM     51  C   UNL     1      -7.543  11.981  -7.019  1.00  0.00     0.049 A 
ATOM     52  C   UNL     1     -10.937   7.640  -6.052  1.00  0.00     0.074 A 
ATOM     53  C   UNL     1      -7.904  13.193  -6.455  1.00  0.00     0.029 A 
ATOM     54  N   UNL     1      -8.512  11.063  -6.644  1.00  0.00    -0.354 N 
ATOM     55  N   UNL     1     -10.250   8.747  -6.195  1.00  0.00    -0.248 NA
ATOM     56  C   UNL     1     -12.124   7.776  -5.196  1.00  0.00     0.031 C 
ATOM     57  C   UNL     1      -9.072  12.999  -5.708  1.00  0.00     0.029 A 
ATOM     58  C   UNL     1      -9.460  11.676  -5.839  1.00  0.00     0.049 A 
ATOM     59  H   UNL     1      -8.525  10.115  -6.909  1.00  0.00     0.167 HD
ATOM     60  C   UNL     1     -10.928   9.713  -5.465  1.00  0.00     0.074 A 
ATOM     61  C   UNL     1     -12.094   9.067  -4.898  1.00  0.00     0.031 C 
ATOM     62  C   UNL     1     -10.611  11.017  -5.277  1.00  0.00     0.037 A 
BRANCH  49  63
ATOM     63  C   UNL     1      -5.400  12.766  -8.092  1.00  0.00     0.064 A 
ATOM     64  C   UNL     1      -5.290  13.384  -9.347  1.00  0.00     0.173 A 
ATOM     65  C   UNL     1      -4.569  13.226  -7.059  1.00  0.00     0.173 A 
ATOM     66  F   UNL     1      -6.054  12.973 -10.370  1.00  0.00    -0.203 F 
ATOM     67  C   UNL     1      -4.369  14.405  -9.565  1.00  0.00     0.198 A 
ATOM     68  C   UNL     1      -3.667  14.265  -7.273  1.00  0.00     0.198 A 
ATOM     69  F   UNL     1      -4.638  12.673  -5.838  1.00  0.00    -0.203 F 
ATOM     70  F   UNL     1      -4.252  14.951 -10.783  1.00  0.00    -0.200 F 
ATOM     71  C   UNL     1      -3.563  14.849  -8.527  1.00  0.00     0.200 A 
ATOM     72  F   UNL     1      -2.897  14.700  -6.267  1.00  0.00    -0.200 F 
ATOM     73  F   UNL     1      -2.681  15.835  -8.737  1.00  0.00    -0.200 F 
ENDBRANCH  49  63
BRANCH  50  74
ATOM     74  C   UNL     1     -11.601   5.148  -6.370  1.00  0.00     0.064 A 
ATOM     75  C   UNL     1     -12.892   5.125  -6.913  1.00  0.00     0.173 A 
ATOM     76  C   UNL     1     -11.207   4.067  -5.569  1.00  0.00     0.173 A 
ATOM     77  F   UNL     1     -13.319   6.147  -7.670  1.00  0.00    -0.203 F 
ATOM     78  C   UNL     1     -13.764   4.070  -6.651  1.00  0.00     0.198 A 
ATOM     79  C   UNL     1     -12.071   3.001  -5.327  1.00  0.00     0.198 A 
ATOM     80  F   UNL     1      -9.979   4.042  -5.031  1.00  0.00    -0.203 F 
ATOM     81  F   UNL     1     -15.007   4.091  -7.151  1.00  0.00    -0.200 F 
ATOM     82  C   UNL     1     -13.350   3.006  -5.863  1.00  0.00     0.200 A 
ATOM     83  F   UNL     1     -11.665   1.969  -4.575  1.00  0.00    -0.200 F 
ATOM     84  F   UNL     1     -14.187   1.990  -5.614  1.00  0.00    -0.200 F 
ENDBRANCH  50  74
BRANCH  62  85
ATOM     85  C   UNL     1     -11.547  11.830  -4.432  1.00  0.00     0.064 A 
ATOM     86  C   UNL     1     -11.612  11.657  -3.041  1.00  0.00     0.173 A 
ATOM     87  C   UNL     1     -12.376  12.799  -5.015  1.00  0.00     0.173 A 
ATOM     88  F   UNL     1     -10.851  10.731  -2.439  1.00  0.00    -0.203 F 
ATOM     89  C   UNL     1     -12.496  12.405  -2.269  1.00  0.00     0.198 A 
ATOM     90  C   UNL     1     -13.239  13.564  -4.236  1.00  0.00     0.198 A 
ATOM     91  F   UNL     1     -12.347  13.006  -6.340  1.00  0.00    -0.203 F 
ATOM     92  F   UNL     1     -12.579  12.188  -0.949  1.00  0.00    -0.200 F 
ATOM     93  C   UNL     1     -13.305  13.361  -2.866  1.00  0.00     0.200 A 
ATOM     94  F   UNL     1     -14.014  14.494  -4.812  1.00  0.00    -0.200 F 
ATOM     95  F   UNL     1     -14.157  14.079  -2.121  1.00  0.00    -0.200 F 
ENDBRANCH  62  85
ENDBRANCH  36  37
ENDBRANCH  28  31
ENDBRANCH  26  27
ENDBRANCH  25  26
ENDBRANCH  24  25
ENDBRANCH   1  24
TORSDOF 16
