REMARK SMILES C[NH+]1CCC(NC(=O)N[C@@H]2C=C[C@H](C(=O)NCCCCCCNC(=O)c3ccc(-c4c5nc(c(-c6c(F)c(F)c(F)c(F)c6F)c6ccc([nH]6)c(-c6c(F)c(F)c(F)c(F)c6F)c6nc(c(-c7c(F)c(F)c(F)c(F)c7F)c7ccc4[nH]7)C=C6)C=C5)cc3)C2)CC1
REMARK SMILES IDX 19 1 18 2 17 3 16 4 14 5 15 6 13 8 10 9 11 10 89 11 12 12
REMARK SMILES IDX 9 13 6 14 7 15 8 17 5 19 1 20 2 21 3 22 91 23 4 25 90 26
REMARK SMILES IDX 20 27 21 28 22 29 23 30 24 31 25 33 26 34 27 35 88 36 28 37
REMARK SMILES IDX 87 38 29 39 30 40 31 41 81 42 32 43 86 44 80 45 82 46 33 47
REMARK SMILES IDX 85 48 79 49 78 50 34 52 66 53 46 54 65 55 47 56 50 57 64 58
REMARK SMILES IDX 83 59 48 60 49 61 63 63 84 64 51 65 35 66 36 67 44 68 37 69
REMARK SMILES IDX 38 70 42 71 45 72 39 73 40 74 43 75 41 76 67 77 68 78 76 79
REMARK SMILES IDX 69 80 70 81 74 82 77 83 71 84 72 85 75 86 73 87 52 88 53 89
REMARK SMILES IDX 61 90 54 91 55 92 59 93 62 94 56 95 57 96 60 97 58 98
REMARK H PARENT 16 7 6 16 9 18 2 24 23 32 82 51 50 62
REMARK Flexibility Score: inf
ROOT
ATOM      1  C   UNL     1      -4.029   2.857  -0.794  1.00  0.00     0.002 C 
ENDROOT
BRANCH   1   2
ATOM      2  C   UNL     1      -2.716   2.429  -0.126  1.00  0.00     0.021 C 
BRANCH   2   3
ATOM      3  C   UNL     1      -2.298   1.000  -0.473  1.00  0.00     0.116 C 
BRANCH   3   4
ATOM      4  N   UNL     1      -2.070   0.871  -1.897  1.00  0.00    -0.356 N 
ATOM      5  C   UNL     1      -0.889   0.905  -2.578  1.00  0.00     0.227 C 
ATOM      6  O   UNL     1      -0.915   0.905  -3.808  1.00  0.00    -0.274 OA
ATOM      7  H   UNL     1      -2.876   0.742  -2.448  1.00  0.00     0.163 HD
BRANCH   5   8
ATOM      8  C   UNL     1       0.402   0.862  -1.774  1.00  0.00     0.103 C 
ATOM      9  C   UNL     1       2.635   0.455  -2.715  1.00  0.00     0.107 C 
ATOM     10  C   UNL     1       2.003  -0.796  -2.199  1.00  0.00    -0.006 C 
ATOM     11  C   UNL     1       1.567   1.532  -2.510  1.00  0.00     0.047 C 
ATOM     12  C   UNL     1       0.805  -0.575  -1.656  1.00  0.00    -0.016 C 
BRANCH   9  13
ATOM     13  N   UNL     1       3.017   0.249  -4.089  1.00  0.00    -0.332 N 
ATOM     14  N   UNL     1       5.209  -0.650  -3.982  1.00  0.00    -0.335 N 
ATOM     15  C   UNL     1       4.138  -0.209  -4.672  1.00  0.00     0.315 C 
ATOM     16  H   UNL     1       5.957  -0.947  -4.550  1.00  0.00     0.165 HD
ATOM     17  O   UNL     1       4.190  -0.234  -5.903  1.00  0.00    -0.249 OA
ATOM     18  H   UNL     1       2.312   0.494  -4.732  1.00  0.00     0.165 HD
BRANCH  14  19
ATOM     19  C   UNL     1       5.464  -0.768  -2.561  1.00  0.00     0.095 C 
ATOM     20  C   UNL     1       6.622  -0.980   1.469  1.00  0.00     0.332 C 
ATOM     21  N   UNL     1       6.766  -0.916   0.011  1.00  0.00    -0.337 N 
ATOM     22  C   UNL     1       6.214   0.356  -0.480  1.00  0.00     0.264 C 
ATOM     23  C   UNL     1       6.150  -2.102  -0.610  1.00  0.00     0.264 C 
ATOM     24  H   UNL     1       7.751  -0.935  -0.252  1.00  0.00     0.347 HD
ATOM     25  C   UNL     1       6.209   0.441  -2.005  1.00  0.00     0.086 C 
ATOM     26  C   UNL     1       6.187  -2.041  -2.144  1.00  0.00     0.086 C 
ENDBRANCH  14  19
ENDBRANCH   9  13
ENDBRANCH   5   8
ENDBRANCH   3   4
ENDBRANCH   2   3
ENDBRANCH   1   2
BRANCH   1  27
ATOM     27  C   UNL     1      -5.205   1.902  -0.560  1.00  0.00     0.002 C 
BRANCH  27  28
ATOM     28  C   UNL     1      -5.513   1.620   0.911  1.00  0.00     0.021 C 
BRANCH  28  29
ATOM     29  C   UNL     1      -5.859   2.862   1.722  1.00  0.00     0.116 C 
BRANCH  29  30
ATOM     30  N   UNL     1      -7.071   3.503   1.239  1.00  0.00    -0.352 N 
ATOM     31  C   UNL     1      -8.216   3.821   1.923  1.00  0.00     0.251 C 
ATOM     32  H   UNL     1      -7.069   3.743   0.284  1.00  0.00     0.163 HD
ATOM     33  O   UNL     1      -9.226   4.160   1.319  1.00  0.00    -0.269 OA
BRANCH  31  34
ATOM     34  C   UNL     1      -8.231   3.733   3.397  1.00  0.00     0.039 A 
ATOM     35  C   UNL     1      -9.325   3.135   4.026  1.00  0.00     0.014 A 
ATOM     36  C   UNL     1      -7.168   4.234   4.155  1.00  0.00     0.014 A 
ATOM     37  C   UNL     1      -9.324   2.985   5.413  1.00  0.00     0.010 A 
ATOM     38  C   UNL     1      -7.132   4.012   5.527  1.00  0.00     0.010 A 
ATOM     39  C   UNL     1      -8.211   3.387   6.171  1.00  0.00    -0.014 A 
BRANCH  39  40
ATOM     40  C   UNL     1      -8.156   3.151   7.635  1.00  0.00     0.031 A 
ATOM     41  C   UNL     1      -8.092   4.311   8.589  1.00  0.00     0.074 A 
ATOM     42  C   UNL     1      -8.102   1.888   8.101  1.00  0.00     0.049 A 
ATOM     43  N   UNL     1      -7.981   4.305   9.893  1.00  0.00    -0.248 NA
ATOM     44  C   UNL     1      -8.133   5.657   7.997  1.00  0.00     0.031 C 
ATOM     45  C   UNL     1      -8.112   0.681   7.272  1.00  0.00     0.029 A 
ATOM     46  N   UNL     1      -8.022   1.409   9.384  1.00  0.00    -0.354 N 
ATOM     47  C   UNL     1      -7.933   5.639  10.275  1.00  0.00     0.074 A 
ATOM     48  C   UNL     1      -7.964   6.427   9.062  1.00  0.00     0.031 C 
ATOM     49  C   UNL     1      -8.068  -0.399   8.068  1.00  0.00     0.029 A 
ATOM     50  C   UNL     1      -7.981   0.038   9.458  1.00  0.00     0.049 A 
ATOM     51  H   UNL     1      -7.996   1.992  10.177  1.00  0.00     0.167 HD
ATOM     52  C   UNL     1      -7.891   6.159  11.525  1.00  0.00     0.037 A 
ATOM     53  C   UNL     1      -7.875  -0.776  10.526  1.00  0.00     0.037 A 
ATOM     54  C   UNL     1      -7.873   5.369  12.729  1.00  0.00     0.049 A 
ATOM     55  C   UNL     1      -7.800  -0.170  11.902  1.00  0.00     0.074 A 
ATOM     56  C   UNL     1      -7.884   5.801  14.043  1.00  0.00     0.029 A 
ATOM     57  N   UNL     1      -7.832   3.982  12.764  1.00  0.00    -0.354 N 
ATOM     58  N   UNL     1      -7.826   1.092  12.255  1.00  0.00    -0.248 NA
ATOM     59  C   UNL     1      -7.686  -1.105  13.030  1.00  0.00     0.031 C 
ATOM     60  C   UNL     1      -7.791   4.679  14.873  1.00  0.00     0.029 A 
ATOM     61  C   UNL     1      -7.787   3.544  14.078  1.00  0.00     0.049 A 
ATOM     62  H   UNL     1      -7.836   3.397  11.973  1.00  0.00     0.167 HD
ATOM     63  C   UNL     1      -7.762   1.103  13.642  1.00  0.00     0.074 A 
ATOM     64  C   UNL     1      -7.714  -0.281  14.067  1.00  0.00     0.031 C 
ATOM     65  C   UNL     1      -7.743   2.163  14.487  1.00  0.00     0.037 A 
BRANCH  52  66
ATOM     66  C   UNL     1      -7.859   7.655  11.655  1.00  0.00     0.064 A 
ATOM     67  C   UNL     1      -8.966   8.449  11.315  1.00  0.00     0.173 A 
ATOM     68  C   UNL     1      -6.723   8.303  12.165  1.00  0.00     0.173 A 
ATOM     69  F   UNL     1     -10.074   7.883  10.813  1.00  0.00    -0.203 F 
ATOM     70  C   UNL     1      -8.924   9.835  11.449  1.00  0.00     0.198 A 
ATOM     71  C   UNL     1      -6.698   9.685  12.330  1.00  0.00     0.198 A 
ATOM     72  F   UNL     1      -5.639   7.593  12.512  1.00  0.00    -0.203 F 
ATOM     73  F   UNL     1      -9.974  10.575  11.067  1.00  0.00    -0.200 F 
ATOM     74  C   UNL     1      -7.794  10.450  11.964  1.00  0.00     0.200 A 
ATOM     75  F   UNL     1      -5.610  10.277  12.843  1.00  0.00    -0.200 F 
ATOM     76  F   UNL     1      -7.759  11.783  12.102  1.00  0.00    -0.200 F 
ENDBRANCH  52  66
BRANCH  53  77
ATOM     77  C   UNL     1      -7.850  -2.251  10.339  1.00  0.00     0.064 A 
ATOM     78  C   UNL     1      -8.909  -3.052  10.788  1.00  0.00     0.173 A 
ATOM     79  C   UNL     1      -6.766  -2.890   9.720  1.00  0.00     0.173 A 
ATOM     80  F   UNL     1      -9.959  -2.490  11.404  1.00  0.00    -0.203 F 
ATOM     81  C   UNL     1      -8.873  -4.438  10.647  1.00  0.00     0.198 A 
ATOM     82  C   UNL     1      -6.746  -4.273   9.551  1.00  0.00     0.198 A 
ATOM     83  F   UNL     1      -5.729  -2.170   9.268  1.00  0.00    -0.203 F 
ATOM     84  F   UNL     1      -9.875  -5.184  11.132  1.00  0.00    -0.200 F 
ATOM     85  C   UNL     1      -7.795  -5.047  10.023  1.00  0.00     0.200 A 
ATOM     86  F   UNL     1      -5.710  -4.855   8.932  1.00  0.00    -0.200 F 
ATOM     87  F   UNL     1      -7.763  -6.379   9.885  1.00  0.00    -0.200 F 
ENDBRANCH  53  77
BRANCH  65  88
ATOM     88  C   UNL     1      -7.703   1.869  15.960  1.00  0.00     0.064 A 
ATOM     89  C   UNL     1      -6.561   1.337  16.576  1.00  0.00     0.173 A 
ATOM     90  C   UNL     1      -8.811   2.159  16.772  1.00  0.00     0.173 A 
ATOM     91  F   UNL     1      -5.480   1.028  15.844  1.00  0.00    -0.203 F 
ATOM     92  C   UNL     1      -6.540   1.079  17.945  1.00  0.00     0.198 A 
ATOM     93  C   UNL     1      -8.774   1.933  18.145  1.00  0.00     0.198 A 
ATOM     94  F   UNL     1      -9.926   2.676  16.235  1.00  0.00    -0.203 F 
ATOM     95  F   UNL     1      -5.457   0.520  18.502  1.00  0.00    -0.200 F 
ATOM     96  C   UNL     1      -7.642   1.385  18.729  1.00  0.00     0.200 A 
ATOM     97  F   UNL     1      -9.834   2.246  18.903  1.00  0.00    -0.200 F 
ATOM     98  F   UNL     1      -7.616   1.145  20.047  1.00  0.00    -0.200 F 
ENDBRANCH  65  88
ENDBRANCH  39  40
ENDBRANCH  31  34
ENDBRANCH  29  30
ENDBRANCH  28  29
ENDBRANCH  27  28
ENDBRANCH   1  27
TORSDOF 15
