REMARK SMILES O=C(NCCCCCCNC(=O)[C@H]1CC=CC[C@@H]1C(=O)Nc1nn(Cc2ccccc2F)cc1Br)c1ccc(-c2c3nc(c(-c4c(F)c(F)c(F)c(F)c4F)c4ccc([nH]4)c(-c4c(F)c(F)c(F)c(F)c4F)c4nc(c(-c5c(F)c(F)c(F)c(F)c5F)c5ccc2[nH]5)C=C4)C=C3)cc1
REMARK SMILES IDX 7 1 6 2 5 3 4 4 3 5 1 6 2 7 36 9 37 10 98 11 38 12 97 13
REMARK SMILES IDX 39 14 40 15 41 16 91 17 42 18 96 19 90 20 92 21 43 22 95 23
REMARK SMILES IDX 89 24 88 25 44 27 76 28 56 29 75 30 57 31 60 32 74 33 93 34
REMARK SMILES IDX 58 35 59 36 73 38 94 39 61 40 45 41 46 42 54 43 47 44 48 45
REMARK SMILES IDX 52 46 55 47 49 48 50 49 53 50 51 51 77 52 78 53 86 54 79 55
REMARK SMILES IDX 80 56 84 57 87 58 81 59 82 60 85 61 83 62 62 63 63 64 71 65
REMARK SMILES IDX 64 66 65 67 69 68 72 69 66 70 67 71 70 72 68 73 8 74 9 75
REMARK SMILES IDX 10 76 11 77 12 79 13 80 14 81 18 82 15 83 17 84 16 85 19 86
REMARK SMILES IDX 20 87 21 88 22 90 23 91 34 92 24 93 33 94 35 95 25 96 26 97
REMARK SMILES IDX 27 98 31 99 28 100 30 101 32 102 29 103
REMARK H PARENT 3 8 92 26 60 37 10 78 21 89
REMARK Flexibility Score: inf
ROOT
ATOM      1  C   UNL     1       4.890   2.942  -2.844  1.00  0.00     0.002 C 
ENDROOT
BRANCH   1   2
ATOM      2  C   UNL     1       4.279   1.569  -3.131  1.00  0.00     0.002 C 
BRANCH   2   3
ATOM      3  C   UNL     1       4.749   0.440  -2.209  1.00  0.00     0.021 C 
BRANCH   3   4
ATOM      4  C   UNL     1       4.581   0.727  -0.716  1.00  0.00     0.116 C 
BRANCH   4   5
ATOM      5  N   UNL     1       3.211   0.972  -0.324  1.00  0.00    -0.352 N 
ATOM      6  O   UNL     1       1.124   0.751   0.360  1.00  0.00    -0.269 OA
ATOM      7  C   UNL     1       2.137   0.175  -0.026  1.00  0.00     0.251 C 
ATOM      8  H   UNL     1       3.001   1.931  -0.256  1.00  0.00     0.163 HD
BRANCH   7   9
ATOM      9  C   UNL     1       2.108  -1.310  -0.171  1.00  0.00     0.039 A 
ATOM     10  C   UNL     1       3.187  -2.122  -0.521  1.00  0.00     0.014 A 
ATOM     11  C   UNL     1       0.861  -1.924   0.054  1.00  0.00     0.014 A 
ATOM     12  C   UNL     1       3.021  -3.493  -0.698  1.00  0.00     0.010 A 
ATOM     13  C   UNL     1       0.692  -3.298  -0.100  1.00  0.00     0.010 A 
ATOM     14  C   UNL     1       1.772  -4.080  -0.500  1.00  0.00    -0.014 A 
BRANCH  14  15
ATOM     15  C   UNL     1       1.679  -5.535  -0.619  1.00  0.00     0.031 A 
ATOM     16  C   UNL     1       2.434  -6.334   0.396  1.00  0.00     0.074 A 
ATOM     17  C   UNL     1       0.845  -6.153  -1.476  1.00  0.00     0.049 A 
ATOM     18  N   UNL     1       3.256  -7.320   0.210  1.00  0.00    -0.248 NA
ATOM     19  C   UNL     1       2.260  -5.961   1.809  1.00  0.00     0.031 C 
ATOM     20  C   UNL     1      -0.195  -5.551  -2.312  1.00  0.00     0.029 A 
ATOM     21  N   UNL     1       0.685  -7.492  -1.690  1.00  0.00    -0.354 N 
ATOM     22  C   UNL     1       3.593  -7.789   1.482  1.00  0.00     0.074 A 
ATOM     23  C   UNL     1       3.017  -6.867   2.426  1.00  0.00     0.031 C 
ATOM     24  C   UNL     1      -1.010  -6.526  -2.772  1.00  0.00     0.029 A 
ATOM     25  C   UNL     1      -0.477  -7.817  -2.371  1.00  0.00     0.049 A 
ATOM     26  H   UNL     1       1.336  -8.166  -1.387  1.00  0.00     0.167 HD
ATOM     27  C   UNL     1       4.190  -8.996   1.685  1.00  0.00     0.037 A 
ATOM     28  C   UNL     1      -1.004  -9.054  -2.523  1.00  0.00     0.037 A 
ATOM     29  C   UNL     1       4.884  -9.458   0.516  1.00  0.00     0.049 A 
ATOM     30  C   UNL     1       0.069 -10.047  -2.274  1.00  0.00     0.074 A 
ATOM     31  C   UNL     1       5.934  -8.982  -0.244  1.00  0.00     0.029 A 
ATOM     32  N   UNL     1       4.343 -10.481  -0.218  1.00  0.00    -0.354 N 
ATOM     33  N   UNL     1       1.091 -10.251  -3.056  1.00  0.00    -0.248 NA
ATOM     34  C   UNL     1       0.181 -10.612  -0.938  1.00  0.00     0.031 C 
ATOM     35  C   UNL     1       5.653  -9.404  -1.577  1.00  0.00     0.029 A 
ATOM     36  C   UNL     1       4.456 -10.120  -1.534  1.00  0.00     0.049 A 
ATOM     37  H   UNL     1       3.951 -11.314   0.133  1.00  0.00     0.167 HD
ATOM     38  C   UNL     1       2.122 -10.607  -2.202  1.00  0.00     0.074 A 
ATOM     39  C   UNL     1       1.475 -10.934  -0.939  1.00  0.00     0.031 C 
ATOM     40  C   UNL     1       3.421 -10.337  -2.516  1.00  0.00     0.037 A 
BRANCH  27  41
ATOM     41  C   UNL     1       3.908  -9.895   2.866  1.00  0.00     0.064 A 
ATOM     42  C   UNL     1       2.721  -9.825   3.628  1.00  0.00     0.173 A 
ATOM     43  C   UNL     1       4.692 -11.048   3.074  1.00  0.00     0.173 A 
ATOM     44  F   UNL     1       1.831  -8.839   3.463  1.00  0.00    -0.203 F 
ATOM     45  C   UNL     1       2.343 -10.832   4.517  1.00  0.00     0.198 A 
ATOM     46  C   UNL     1       4.284 -12.080   3.925  1.00  0.00     0.198 A 
ATOM     47  F   UNL     1       5.828 -11.237   2.384  1.00  0.00    -0.203 F 
ATOM     48  F   UNL     1       1.190 -10.718   5.191  1.00  0.00    -0.200 F 
ATOM     49  C   UNL     1       3.108 -11.972   4.643  1.00  0.00     0.200 A 
ATOM     50  F   UNL     1       5.002 -13.209   3.995  1.00  0.00    -0.200 F 
ATOM     51  F   UNL     1       2.686 -12.982   5.415  1.00  0.00    -0.200 F 
ENDBRANCH  27  41
BRANCH  28  52
ATOM     52  C   UNL     1      -2.433  -9.438  -2.578  1.00  0.00     0.064 A 
ATOM     53  C   UNL     1      -3.420  -8.688  -1.910  1.00  0.00     0.173 A 
ATOM     54  C   UNL     1      -2.822 -10.700  -3.055  1.00  0.00     0.173 A 
ATOM     55  F   UNL     1      -3.125  -7.509  -1.343  1.00  0.00    -0.203 F 
ATOM     56  C   UNL     1      -4.713  -9.174  -1.720  1.00  0.00     0.198 A 
ATOM     57  C   UNL     1      -4.115 -11.192  -2.851  1.00  0.00     0.198 A 
ATOM     58  F   UNL     1      -1.931 -11.498  -3.661  1.00  0.00    -0.203 F 
ATOM     59  F   UNL     1      -5.603  -8.442  -1.035  1.00  0.00    -0.200 F 
ATOM     60  C   UNL     1      -5.056 -10.432  -2.176  1.00  0.00     0.200 A 
ATOM     61  F   UNL     1      -4.431 -12.429  -3.259  1.00  0.00    -0.200 F 
ATOM     62  F   UNL     1      -6.276 -10.928  -1.928  1.00  0.00    -0.200 F 
ENDBRANCH  28  52
BRANCH  40  63
ATOM     63  C   UNL     1       3.738  -9.938  -3.927  1.00  0.00     0.064 A 
ATOM     64  C   UNL     1       4.685 -10.687  -4.638  1.00  0.00     0.173 A 
ATOM     65  C   UNL     1       3.257  -8.762  -4.528  1.00  0.00     0.173 A 
ATOM     66  F   UNL     1       5.225 -11.786  -4.086  1.00  0.00    -0.203 F 
ATOM     67  C   UNL     1       5.129 -10.283  -5.894  1.00  0.00     0.198 A 
ATOM     68  C   UNL     1       3.674  -8.380  -5.801  1.00  0.00     0.198 A 
ATOM     69  F   UNL     1       2.432  -7.939  -3.868  1.00  0.00    -0.203 F 
ATOM     70  F   UNL     1       6.079 -10.988  -6.524  1.00  0.00    -0.200 F 
ATOM     71  C   UNL     1       4.616  -9.137  -6.479  1.00  0.00     0.200 A 
ATOM     72  F   UNL     1       3.196  -7.257  -6.357  1.00  0.00    -0.200 F 
ATOM     73  F   UNL     1       5.054  -8.743  -7.684  1.00  0.00    -0.200 F 
ENDBRANCH  40  63
ENDBRANCH  14  15
ENDBRANCH   7   9
ENDBRANCH   4   5
ENDBRANCH   3   4
ENDBRANCH   2   3
ENDBRANCH   1   2
BRANCH   1  74
ATOM     74  C   UNL     1       6.425   2.987  -2.827  1.00  0.00     0.021 C 
BRANCH  74  75
ATOM     75  C   UNL     1       7.091   2.531  -4.125  1.00  0.00     0.116 C 
BRANCH  75  76
ATOM     76  N   UNL     1       6.700   3.385  -5.225  1.00  0.00    -0.356 N 
ATOM     77  C   UNL     1       7.454   4.161  -6.048  1.00  0.00     0.224 C 
ATOM     78  H   UNL     1       5.733   3.408  -5.406  1.00  0.00     0.163 HD
ATOM     79  O   UNL     1       6.835   4.908  -6.806  1.00  0.00    -0.275 OA
BRANCH  77  80
ATOM     80  C   UNL     1       8.980   4.043  -6.030  1.00  0.00     0.095 C 
ATOM     81  C   UNL     1       9.396   2.723  -6.705  1.00  0.00     0.041 C 
ATOM     82  C   UNL     1       9.626   5.278  -6.698  1.00  0.00     0.095 C 
ATOM     83  C   UNL     1       9.450   2.800  -8.202  1.00  0.00    -0.030 C 
ATOM     84  C   UNL     1       9.390   5.304  -8.226  1.00  0.00     0.041 C 
ATOM     85  C   UNL     1       9.422   3.953  -8.881  1.00  0.00    -0.030 C 
BRANCH  82  86
ATOM     86  C   UNL     1      11.136   5.384  -6.404  1.00  0.00     0.229 C 
ATOM     87  O   UNL     1      11.767   4.467  -5.870  1.00  0.00    -0.274 OA
ATOM     88  N   UNL     1      11.834   6.480  -6.847  1.00  0.00    -0.308 N 
ATOM     89  H   UNL     1      12.805   6.368  -6.967  1.00  0.00     0.171 HD
BRANCH  88  90
ATOM     90  C   UNL     1      11.313   7.721  -7.139  1.00  0.00     0.168 A 
ATOM     91  N   UNL     1      10.187   8.169  -6.591  1.00  0.00    -0.153 NA
ATOM     92  C   UNL     1      11.863   8.703  -7.987  1.00  0.00     0.080 A 
ATOM     93  N   UNL     1       9.990   9.390  -7.113  1.00  0.00    -0.265 N 
ATOM     94  C   UNL     1      10.977   9.753  -7.988  1.00  0.00     0.127 A 
ATOM     95  Br  UNL     1      13.426   8.537  -8.998  1.00  0.00    -0.045 Br
BRANCH  93  96
ATOM     96  C   UNL     1       8.885  10.216  -6.628  1.00  0.00     0.182 C 
BRANCH  96  97
ATOM     97  C   UNL     1       7.552   9.516  -6.679  1.00  0.00     0.009 A 
ATOM     98  C   UNL     1       6.635   9.768  -7.710  1.00  0.00     0.008 A 
ATOM     99  C   UNL     1       7.204   8.581  -5.695  1.00  0.00     0.128 A 
ATOM    100  C   UNL     1       5.415   9.086  -7.753  1.00  0.00     0.001 A 
ATOM    101  C   UNL     1       6.001   7.885  -5.747  1.00  0.00     0.039 A 
ATOM    102  F   UNL     1       8.032   8.348  -4.666  1.00  0.00    -0.207 F 
ATOM    103  C   UNL     1       5.103   8.136  -6.780  1.00  0.00     0.003 A 
ENDBRANCH  96  97
ENDBRANCH  93  96
ENDBRANCH  88  90
ENDBRANCH  82  86
ENDBRANCH  77  80
ENDBRANCH  75  76
ENDBRANCH  74  75
ENDBRANCH   1  74
TORSDOF 17
