REMARK SMILES O=C(NCCCCCCNC(=O)c1ccc(C[N@@H+](CC(F)(F)F)C2CC2)nc1)c1ccc(-c2c3nc(c(-c4c(F)c(F)c(F)c(F)c4F)c4ccc([nH]4)c(-c4c(F)c(F)c(F)c(F)c4F)c4nc(c(-c5c(F)c(F)c(F)c(F)c5F)c5ccc2[nH]5)C=C4)C=C3)cc1
REMARK SMILES IDX 7 1 6 2 5 3 4 4 3 5 1 6 2 7 29 9 30 10 91 11 31 12 90 13
REMARK SMILES IDX 32 14 33 15 34 16 84 17 35 18 89 19 83 20 85 21 36 22 88 23
REMARK SMILES IDX 82 24 81 25 37 27 69 28 49 29 68 30 50 31 53 32 67 33 86 34
REMARK SMILES IDX 51 35 52 36 66 38 87 39 54 40 38 41 39 42 47 43 40 44 41 45
REMARK SMILES IDX 45 46 48 47 42 48 43 49 46 50 44 51 70 52 71 53 79 54 72 55
REMARK SMILES IDX 73 56 77 57 80 58 74 59 75 60 78 61 76 62 55 63 56 64 64 65
REMARK SMILES IDX 57 66 58 67 62 68 65 69 59 70 60 71 63 72 61 73 8 74 9 75
REMARK SMILES IDX 10 76 11 77 12 79 13 80 14 81 28 82 15 83 27 84 16 85 17 86
REMARK SMILES IDX 18 87 19 89 20 90 21 91 22 92 23 93 24 94 25 95 26 96
REMARK H PARENT 3 8 85 26 53 37 10 78 18 88
REMARK Flexibility Score: inf
ROOT
ATOM      1  C   UNL     1       4.670  -3.879   1.725  1.00  0.00     0.002 C 
ENDROOT
BRANCH   1   2
ATOM      2  C   UNL     1       4.173  -2.686   2.547  1.00  0.00     0.002 C 
BRANCH   2   3
ATOM      3  C   UNL     1       4.692  -1.321   2.094  1.00  0.00     0.021 C 
BRANCH   3   4
ATOM      4  C   UNL     1       4.460  -1.010   0.621  1.00  0.00     0.116 C 
BRANCH   4   5
ATOM      5  N   UNL     1       3.049  -0.989   0.281  1.00  0.00    -0.352 N 
ATOM      6  O   UNL     1       1.077  -0.062  -0.304  1.00  0.00    -0.269 OA
ATOM      7  C   UNL     1       2.300   0.025  -0.258  1.00  0.00     0.251 C 
ATOM      8  H   UNL     1       2.558  -1.823   0.465  1.00  0.00     0.163 HD
BRANCH   7   9
ATOM      9  C   UNL     1       2.972   1.238  -0.767  1.00  0.00     0.039 A 
ATOM     10  C   UNL     1       4.110   1.141  -1.573  1.00  0.00     0.014 A 
ATOM     11  C   UNL     1       2.442   2.488  -0.442  1.00  0.00     0.014 A 
ATOM     12  C   UNL     1       4.790   2.294  -1.950  1.00  0.00     0.010 A 
ATOM     13  C   UNL     1       3.081   3.645  -0.888  1.00  0.00     0.010 A 
ATOM     14  C   UNL     1       4.274   3.557  -1.623  1.00  0.00    -0.014 A 
BRANCH  14  15
ATOM     15  C   UNL     1       4.959   4.785  -2.096  1.00  0.00     0.031 A 
ATOM     16  C   UNL     1       5.557   5.756  -1.121  1.00  0.00     0.074 A 
ATOM     17  C   UNL     1       5.017   5.029  -3.419  1.00  0.00     0.049 A 
ATOM     18  N   UNL     1       6.128   6.912  -1.348  1.00  0.00    -0.248 NA
ATOM     19  C   UNL     1       5.498   5.384   0.301  1.00  0.00     0.031 C 
ATOM     20  C   UNL     1       4.470   4.158  -4.460  1.00  0.00     0.029 A 
ATOM     21  N   UNL     1       5.554   6.082  -4.114  1.00  0.00    -0.354 N 
ATOM     22  C   UNL     1       6.475   7.416  -0.102  1.00  0.00     0.074 A 
ATOM     23  C   UNL     1       6.027   6.453   0.881  1.00  0.00     0.031 C 
ATOM     24  C   UNL     1       4.712   4.702  -5.660  1.00  0.00     0.029 A 
ATOM     25  C   UNL     1       5.373   5.989  -5.471  1.00  0.00     0.049 A 
ATOM     26  H   UNL     1       6.024   6.832  -3.681  1.00  0.00     0.167 HD
ATOM     27  C   UNL     1       7.114   8.575   0.190  1.00  0.00     0.037 A 
ATOM     28  C   UNL     1       5.675   6.858  -6.453  1.00  0.00     0.037 A 
ATOM     29  C   UNL     1       7.558   9.525  -0.799  1.00  0.00     0.049 A 
ATOM     30  C   UNL     1       6.342   8.156  -6.101  1.00  0.00     0.074 A 
ATOM     31  C   UNL     1       8.245  10.712  -0.610  1.00  0.00     0.029 A 
ATOM     32  N   UNL     1       7.346   9.401  -2.166  1.00  0.00    -0.354 N 
ATOM     33  N   UNL     1       6.698   8.609  -4.923  1.00  0.00    -0.248 NA
ATOM     34  C   UNL     1       6.651   9.063  -7.213  1.00  0.00     0.031 C 
ATOM     35  C   UNL     1       8.397  11.333  -1.854  1.00  0.00     0.029 A 
ATOM     36  C   UNL     1       7.865  10.503  -2.828  1.00  0.00     0.049 A 
ATOM     37  H   UNL     1       6.895   8.642  -2.601  1.00  0.00     0.167 HD
ATOM     38  C   UNL     1       7.298   9.838  -5.152  1.00  0.00     0.074 A 
ATOM     39  C   UNL     1       7.265  10.057  -6.584  1.00  0.00     0.031 C 
ATOM     40  C   UNL     1       7.833  10.704  -4.256  1.00  0.00     0.037 A 
BRANCH  27  41
ATOM     41  C   UNL     1       7.343   8.896   1.640  1.00  0.00     0.064 A 
ATOM     42  C   UNL     1       8.242   8.163   2.430  1.00  0.00     0.173 A 
ATOM     43  C   UNL     1       6.669   9.969   2.244  1.00  0.00     0.173 A 
ATOM     44  F   UNL     1       8.906   7.121   1.907  1.00  0.00    -0.203 F 
ATOM     45  C   UNL     1       8.428   8.467   3.777  1.00  0.00     0.198 A 
ATOM     46  C   UNL     1       6.883  10.292   3.582  1.00  0.00     0.198 A 
ATOM     47  F   UNL     1       5.804  10.710   1.535  1.00  0.00    -0.203 F 
ATOM     48  F   UNL     1       9.247   7.715   4.525  1.00  0.00    -0.200 F 
ATOM     49  C   UNL     1       7.753   9.534   4.350  1.00  0.00     0.200 A 
ATOM     50  F   UNL     1       6.240  11.333   4.130  1.00  0.00    -0.200 F 
ATOM     51  F   UNL     1       7.934   9.826   5.645  1.00  0.00    -0.200 F 
ENDBRANCH  27  41
BRANCH  28  52
ATOM     52  C   UNL     1       5.337   6.515  -7.858  1.00  0.00     0.064 A 
ATOM     53  C   UNL     1       6.341   6.218  -8.788  1.00  0.00     0.173 A 
ATOM     54  C   UNL     1       4.004   6.442  -8.288  1.00  0.00     0.173 A 
ATOM     55  F   UNL     1       7.631   6.291  -8.428  1.00  0.00    -0.203 F 
ATOM     56  C   UNL     1       6.025   5.870 -10.100  1.00  0.00     0.198 A 
ATOM     57  C   UNL     1       3.688   6.064  -9.591  1.00  0.00     0.198 A 
ATOM     58  F   UNL     1       3.006   6.708  -7.433  1.00  0.00    -0.203 F 
ATOM     59  F   UNL     1       7.005   5.623 -10.979  1.00  0.00    -0.200 F 
ATOM     60  C   UNL     1       4.699   5.784 -10.497  1.00  0.00     0.200 A 
ATOM     61  F   UNL     1       2.405   5.963  -9.964  1.00  0.00    -0.200 F 
ATOM     62  F   UNL     1       4.396   5.434 -11.755  1.00  0.00    -0.200 F 
ENDBRANCH  28  52
BRANCH  40  63
ATOM     63  C   UNL     1       8.475  11.948  -4.799  1.00  0.00     0.064 A 
ATOM     64  C   UNL     1       7.718  12.999  -5.336  1.00  0.00     0.173 A 
ATOM     65  C   UNL     1       9.868  12.108  -4.733  1.00  0.00     0.173 A 
ATOM     66  F   UNL     1       6.385  12.889  -5.438  1.00  0.00    -0.203 F 
ATOM     67  C   UNL     1       8.335  14.156  -5.806  1.00  0.00     0.198 A 
ATOM     68  C   UNL     1      10.477  13.279  -5.174  1.00  0.00     0.198 A 
ATOM     69  F   UNL     1      10.637  11.134  -4.224  1.00  0.00    -0.203 F 
ATOM     70  F   UNL     1       7.596  15.130  -6.356  1.00  0.00    -0.200 F 
ATOM     71  C   UNL     1       9.711  14.299  -5.716  1.00  0.00     0.200 A 
ATOM     72  F   UNL     1      11.806  13.420  -5.072  1.00  0.00    -0.200 F 
ATOM     73  F   UNL     1      10.301  15.419  -6.157  1.00  0.00    -0.200 F 
ENDBRANCH  40  63
ENDBRANCH  14  15
ENDBRANCH   7   9
ENDBRANCH   4   5
ENDBRANCH   3   4
ENDBRANCH   2   3
ENDBRANCH   1   2
BRANCH   1  74
ATOM     74  C   UNL     1       6.188  -3.969   1.567  1.00  0.00     0.021 C 
BRANCH  74  75
ATOM     75  C   UNL     1       6.956  -3.961   2.881  1.00  0.00     0.116 C 
BRANCH  75  76
ATOM     76  N   UNL     1       6.668  -5.140   3.680  1.00  0.00    -0.352 N 
ATOM     77  C   UNL     1       7.540  -6.107   4.110  1.00  0.00     0.252 C 
ATOM     78  H   UNL     1       5.728  -5.259   3.946  1.00  0.00     0.163 HD
ATOM     79  O   UNL     1       7.126  -7.160   4.585  1.00  0.00    -0.269 OA
BRANCH  77  80
ATOM     80  C   UNL     1       8.984  -5.864   4.007  1.00  0.00     0.058 A 
ATOM     81  C   UNL     1       9.540  -4.656   4.422  1.00  0.00     0.017 A 
ATOM     82  C   UNL     1       9.820  -6.846   3.506  1.00  0.00     0.125 A 
ATOM     83  C   UNL     1      10.899  -4.451   4.262  1.00  0.00     0.030 A 
ATOM     84  N   UNL     1      11.162  -6.687   3.381  1.00  0.00    -0.255 NA
ATOM     85  C   UNL     1      11.689  -5.502   3.792  1.00  0.00     0.095 A 
BRANCH  85  86
ATOM     86  C   UNL     1      13.198  -5.345   3.830  1.00  0.00     0.320 C 
BRANCH  86  87
ATOM     87  N   UNL     1      13.933  -6.199   4.794  1.00  0.00    -0.320 N 
ATOM     88  H   UNL     1      13.568  -7.122   4.560  1.00  0.00     0.348 HD
BRANCH  87  89
ATOM     89  C   UNL     1      15.402  -6.041   4.572  1.00  0.00     0.379 C 
BRANCH  89  90
ATOM     90  C   UNL     1      16.066  -4.695   4.928  1.00  0.00     0.438 C 
ATOM     91  F   UNL     1      15.860  -4.345   6.216  1.00  0.00    -0.165 F 
ATOM     92  F   UNL     1      17.405  -4.767   4.741  1.00  0.00    -0.165 F 
ATOM     93  F   UNL     1      15.610  -3.688   4.149  1.00  0.00    -0.165 F 
ENDBRANCH  89  90
ENDBRANCH  87  89
BRANCH  87  94
ATOM     94  C   UNL     1      13.624  -6.156   6.245  1.00  0.00     0.185 C 
ATOM     95  C   UNL     1      12.919  -5.026   6.935  1.00  0.00     0.071 C 
ATOM     96  C   UNL     1      12.249  -6.367   6.811  1.00  0.00     0.071 C 
ENDBRANCH  87  94
ENDBRANCH  86  87
ENDBRANCH  85  86
ENDBRANCH  77  80
ENDBRANCH  75  76
ENDBRANCH  74  75
ENDBRANCH   1  74
TORSDOF 18
