REMARK SMILES CC(C)[C@@H]1CCCN1C(=O)N1CCO[C@H](CC(=O)NCCCCCCNC(=O)c2ccc(-c3c4nc(c(-c5c(F)c(F)c(F)c(F)c5F)c5ccc([nH]5)c(-c5c(F)c(F)c(F)c(F)c5F)c5nc(c(-c6c(F)c(F)c(F)c(F)c6F)c6ccc3[nH]6)C=C5)C=C4)cc2)C1
REMARK SMILES IDX 21 1 20 2 19 3 17 4 18 5 16 7 15 8 11 9 12 10 92 11 13 12
REMARK SMILES IDX 14 13 9 14 10 15 8 16 4 17 5 18 6 19 7 20 2 21 1 22 3 23
REMARK SMILES IDX 22 24 23 25 24 26 25 27 26 28 27 29 28 31 29 32 30 33 91 34
REMARK SMILES IDX 31 35 90 36 32 37 33 38 34 39 84 40 35 41 89 42 83 43 85 44
REMARK SMILES IDX 36 45 88 46 82 47 81 48 37 50 69 51 49 52 68 53 50 54 53 55
REMARK SMILES IDX 67 56 86 57 51 58 52 59 66 61 87 62 54 63 38 64 39 65 47 66
REMARK SMILES IDX 40 67 41 68 45 69 48 70 42 71 43 72 46 73 44 74 70 75 71 76
REMARK SMILES IDX 79 77 72 78 73 79 77 80 80 81 74 82 75 83 78 84 76 85 55 86
REMARK SMILES IDX 56 87 64 88 57 89 58 90 62 91 65 92 59 93 60 94 63 95 61 96
REMARK H PARENT 19 6 26 30 85 49 53 60
REMARK Flexibility Score: inf
ROOT
ATOM      1  C   UNL     1       4.266   1.313   0.365  1.00  0.00     0.021 C 
ENDROOT
BRANCH   1   2
ATOM      2  C   UNL     1       2.879   1.072  -0.240  1.00  0.00     0.116 C 
BRANCH   2   3
ATOM      3  N   UNL     1       2.972   0.549  -1.584  1.00  0.00    -0.356 N 
ATOM      4  C   UNL     1       2.447  -0.470  -2.285  1.00  0.00     0.222 C 
ATOM      5  O   UNL     1       2.698  -0.385  -3.502  1.00  0.00    -0.275 OA
ATOM      6  H   UNL     1       3.587   1.085  -2.135  1.00  0.00     0.163 HD
BRANCH   4   7
ATOM      7  C   UNL     1       1.495  -1.589  -1.865  1.00  0.00     0.133 C 
BRANCH   7   8
ATOM      8  C   UNL     1       1.438  -2.493  -0.623  1.00  0.00     0.147 C 
ATOM      9  N   UNL     1       0.235  -1.421   1.320  1.00  0.00    -0.320 N 
ATOM     10  C   UNL     1       1.443  -1.645   2.118  1.00  0.00     0.150 C 
ATOM     11  C   UNL     1       0.162  -2.391   0.238  1.00  0.00     0.154 C 
ATOM     12  C   UNL     1       2.736  -1.954   1.338  1.00  0.00     0.182 C 
ATOM     13  O   UNL     1       2.632  -2.684   0.122  1.00  0.00    -0.374 OA
BRANCH   9  14
ATOM     14  C   UNL     1      -0.932  -1.379   2.079  1.00  0.00     0.320 C 
ATOM     15  O   UNL     1      -1.262  -2.374   2.733  1.00  0.00    -0.248 OA
BRANCH  14  16
ATOM     16  N   UNL     1      -1.682  -0.227   2.120  1.00  0.00    -0.321 N 
ATOM     17  C   UNL     1      -1.676   1.074   1.424  1.00  0.00     0.089 C 
ATOM     18  C   UNL     1      -2.263   1.996   2.500  1.00  0.00     0.027 C 
ATOM     19  C   UNL     1      -3.422   1.154   3.007  1.00  0.00     0.024 C 
ATOM     20  C   UNL     1      -2.848  -0.258   3.006  1.00  0.00     0.122 C 
BRANCH  17  21
ATOM     21  C   UNL     1      -0.404   1.596   0.759  1.00  0.00     0.005 C 
ATOM     22  C   UNL     1      -0.314   0.983  -0.639  1.00  0.00     0.009 C 
ATOM     23  C   UNL     1      -0.354   3.121   0.605  1.00  0.00     0.009 C 
ENDBRANCH  17  21
ENDBRANCH  14  16
ENDBRANCH   9  14
ENDBRANCH   7   8
ENDBRANCH   4   7
ENDBRANCH   2   3
ENDBRANCH   1   2
BRANCH   1  24
ATOM     24  C   UNL     1       4.649   2.795   0.454  1.00  0.00     0.002 C 
BRANCH  24  25
ATOM     25  C   UNL     1       3.783   3.639   1.398  1.00  0.00     0.002 C 
BRANCH  25  26
ATOM     26  C   UNL     1       3.667   3.121   2.834  1.00  0.00     0.021 C 
BRANCH  26  27
ATOM     27  C   UNL     1       4.997   2.836   3.525  1.00  0.00     0.116 C 
BRANCH  27  28
ATOM     28  N   UNL     1       5.897   3.977   3.480  1.00  0.00    -0.352 N 
ATOM     29  C   UNL     1       6.555   4.611   4.497  1.00  0.00     0.251 C 
ATOM     30  H   UNL     1       6.058   4.348   2.583  1.00  0.00     0.163 HD
ATOM     31  O   UNL     1       7.120   5.686   4.294  1.00  0.00    -0.269 OA
BRANCH  29  32
ATOM     32  C   UNL     1       6.579   4.012   5.844  1.00  0.00     0.039 A 
ATOM     33  C   UNL     1       6.391   4.838   6.954  1.00  0.00     0.014 A 
ATOM     34  C   UNL     1       6.806   2.643   6.011  1.00  0.00     0.014 A 
ATOM     35  C   UNL     1       6.389   4.283   8.232  1.00  0.00     0.010 A 
ATOM     36  C   UNL     1       6.718   2.078   7.278  1.00  0.00     0.010 A 
ATOM     37  C   UNL     1       6.527   2.895   8.401  1.00  0.00    -0.014 A 
BRANCH  37  38
ATOM     38  C   UNL     1       6.499   2.286   9.752  1.00  0.00     0.031 A 
ATOM     39  C   UNL     1       7.718   1.585  10.284  1.00  0.00     0.074 A 
ATOM     40  C   UNL     1       5.364   2.327  10.474  1.00  0.00     0.049 A 
ATOM     41  N   UNL     1       7.882   0.958  11.421  1.00  0.00    -0.248 NA
ATOM     42  C   UNL     1       8.902   1.560   9.410  1.00  0.00     0.031 C 
ATOM     43  C   UNL     1       4.107   2.938  10.038  1.00  0.00     0.029 A 
ATOM     44  N   UNL     1       5.081   1.843  11.726  1.00  0.00    -0.354 N 
ATOM     45  C   UNL     1       9.178   0.460  11.393  1.00  0.00     0.074 A 
ATOM     46  C   UNL     1       9.734   0.795  10.101  1.00  0.00     0.031 C 
ATOM     47  C   UNL     1       3.198   2.822  11.019  1.00  0.00     0.029 A 
ATOM     48  C   UNL     1       3.794   2.093  12.134  1.00  0.00     0.049 A 
ATOM     49  H   UNL     1       5.738   1.362  12.279  1.00  0.00     0.167 HD
ATOM     50  C   UNL     1       9.853  -0.194  12.368  1.00  0.00     0.037 A 
ATOM     51  C   UNL     1       3.167   1.766  13.279  1.00  0.00     0.037 A 
ATOM     52  C   UNL     1       9.294  -0.508  13.657  1.00  0.00     0.049 A 
ATOM     53  C   UNL     1       3.934   1.024  14.340  1.00  0.00     0.074 A 
ATOM     54  C   UNL     1       9.904  -1.123  14.736  1.00  0.00     0.029 A 
ATOM     55  N   UNL     1       7.988  -0.234  14.038  1.00  0.00    -0.354 N 
ATOM     56  N   UNL     1       5.181   0.620  14.332  1.00  0.00    -0.248 NA
ATOM     57  C   UNL     1       3.207   0.700  15.575  1.00  0.00     0.031 C 
ATOM     58  C   UNL     1       8.950  -1.273  15.748  1.00  0.00     0.029 A 
ATOM     59  C   UNL     1       7.765  -0.692  15.326  1.00  0.00     0.049 A 
ATOM     60  H   UNL     1       7.318   0.218  13.475  1.00  0.00     0.167 HD
ATOM     61  C   UNL     1       5.399   0.024  15.567  1.00  0.00     0.074 A 
ATOM     62  C   UNL     1       4.158   0.137  16.306  1.00  0.00     0.031 C 
ATOM     63  C   UNL     1       6.523  -0.563  16.047  1.00  0.00     0.037 A 
BRANCH  50  64
ATOM     64  C   UNL     1      11.267  -0.609  12.077  1.00  0.00     0.064 A 
ATOM     65  C   UNL     1      12.295   0.333  11.914  1.00  0.00     0.173 A 
ATOM     66  C   UNL     1      11.607  -1.968  11.983  1.00  0.00     0.173 A 
ATOM     67  F   UNL     1      12.025   1.646  11.980  1.00  0.00    -0.203 F 
ATOM     68  C   UNL     1      13.599  -0.067  11.633  1.00  0.00     0.198 A 
ATOM     69  C   UNL     1      12.919  -2.365  11.739  1.00  0.00     0.198 A 
ATOM     70  F   UNL     1      10.666  -2.912  12.135  1.00  0.00    -0.203 F 
ATOM     71  F   UNL     1      14.550   0.854  11.422  1.00  0.00    -0.200 F 
ATOM     72  C   UNL     1      13.912  -1.415  11.554  1.00  0.00     0.200 A 
ATOM     73  F   UNL     1      13.222  -3.669  11.677  1.00  0.00    -0.200 F 
ATOM     74  F   UNL     1      15.168  -1.799  11.290  1.00  0.00    -0.200 F 
ENDBRANCH  50  64
BRANCH  51  75
ATOM     75  C   UNL     1       1.750   2.163  13.493  1.00  0.00     0.064 A 
ATOM     76  C   UNL     1       1.407   3.116  14.463  1.00  0.00     0.173 A 
ATOM     77  C   UNL     1       0.710   1.598  12.741  1.00  0.00     0.173 A 
ATOM     78  F   UNL     1       2.363   3.675  15.220  1.00  0.00    -0.203 F 
ATOM     79  C   UNL     1       0.078   3.468  14.690  1.00  0.00     0.198 A 
ATOM     80  C   UNL     1      -0.616   1.975  12.946  1.00  0.00     0.198 A 
ATOM     81  F   UNL     1       0.983   0.688  11.794  1.00  0.00    -0.203 F 
ATOM     82  F   UNL     1      -0.224   4.344  15.658  1.00  0.00    -0.200 F 
ATOM     83  C   UNL     1      -0.931   2.902  13.927  1.00  0.00     0.200 A 
ATOM     84  F   UNL     1      -1.586   1.439  12.194  1.00  0.00    -0.200 F 
ATOM     85  F   UNL     1      -2.209   3.244  14.143  1.00  0.00    -0.200 F 
ENDBRANCH  51  75
BRANCH  63  86
ATOM     86  C   UNL     1       6.475  -1.090  17.453  1.00  0.00     0.064 A 
ATOM     87  C   UNL     1       5.715  -2.218  17.795  1.00  0.00     0.173 A 
ATOM     88  C   UNL     1       7.229  -0.475  18.465  1.00  0.00     0.173 A 
ATOM     89  F   UNL     1       4.965  -2.834  16.869  1.00  0.00    -0.203 F 
ATOM     90  C   UNL     1       5.685  -2.691  19.105  1.00  0.00     0.198 A 
ATOM     91  C   UNL     1       7.227  -0.973  19.764  1.00  0.00     0.198 A 
ATOM     92  F   UNL     1       7.981   0.601  18.189  1.00  0.00    -0.203 F 
ATOM     93  F   UNL     1       4.906  -3.734  19.420  1.00  0.00    -0.200 F 
ATOM     94  C   UNL     1       6.447  -2.073  20.085  1.00  0.00     0.200 A 
ATOM     95  F   UNL     1       7.978  -0.386  20.706  1.00  0.00    -0.200 F 
ATOM     96  F   UNL     1       6.423  -2.534  21.343  1.00  0.00    -0.200 F 
ENDBRANCH  63  86
ENDBRANCH  37  38
ENDBRANCH  29  32
ENDBRANCH  27  28
ENDBRANCH  26  27
ENDBRANCH  25  26
ENDBRANCH  24  25
ENDBRANCH   1  24
TORSDOF 17
