REMARK SMILES O=C(COc1ccc(-c2cc3cc(Br)ccc3oc2=O)cc1)NCCCCCCNC(=O)c1ccc(-c2c3nc(c(-c4c(F)c(F)c(F)c(F)c4F)c4ccc([nH]4)c(-c4c(F)c(F)c(F)c(F)c4F)c4nc(c(-c5c(F)c(F)c(F)c(F)c5F)c5ccc2[nH]5)C=C4)C=C3)cc1
REMARK SMILES IDX 26 1 25 2 24 3 23 4 1 5 2 6 3 8 4 9 5 10 6 11 22 12 7 13
REMARK SMILES IDX 21 14 8 15 9 16 10 17 19 18 11 19 18 20 20 21 12 22 17 23
REMARK SMILES IDX 13 24 16 25 14 26 15 27 27 28 28 29 29 30 30 31 31 32 32 34
REMARK SMILES IDX 33 35 34 36 95 37 35 38 94 39 36 40 37 41 38 42 88 43 39 44
REMARK SMILES IDX 93 45 87 46 89 47 40 48 92 49 86 50 85 51 41 53 73 54 53 55
REMARK SMILES IDX 72 56 54 57 57 58 71 59 90 60 55 61 56 62 70 64 91 65 58 66
REMARK SMILES IDX 42 67 43 68 51 69 44 70 45 71 49 72 52 73 46 74 47 75 50 76
REMARK SMILES IDX 48 77 74 78 75 79 83 80 76 81 77 82 81 83 84 84 78 85 79 86
REMARK SMILES IDX 82 87 80 88 59 89 60 90 68 91 61 92 62 93 66 94 69 95 63 96
REMARK SMILES IDX 64 97 67 98 65 99
REMARK H PARENT 23 7 30 33 89 52 57 63
REMARK Flexibility Score: inf
ROOT
ATOM      1  C   UNL     1       4.315  -2.653   2.428  1.00  0.00     0.002 C 
ENDROOT
BRANCH   1   2
ATOM      2  C   UNL     1       2.821  -2.564   2.096  1.00  0.00     0.021 C 
BRANCH   2   3
ATOM      3  C   UNL     1       2.293  -1.138   1.956  1.00  0.00     0.116 C 
BRANCH   3   4
ATOM      4  N   UNL     1       2.924  -0.412   0.872  1.00  0.00    -0.353 N 
ATOM      5  O   UNL     1       1.303  -0.883  -0.679  1.00  0.00    -0.271 OA
ATOM      6  C   UNL     1       2.340  -0.301  -0.370  1.00  0.00     0.257 C 
ATOM      7  H   UNL     1       3.796   0.015   1.029  1.00  0.00     0.163 HD
BRANCH   6   8
ATOM      8  C   UNL     1       3.074   0.618  -1.358  1.00  0.00     0.329 C 
BRANCH   8   9
ATOM      9  O   UNL     1       3.847   1.693  -0.845  1.00  0.00    -0.484 OA
BRANCH   9  10
ATOM     10  C   UNL     1       3.183   2.772  -0.333  1.00  0.00     0.120 A 
ATOM     11  C   UNL     1       3.936   3.942  -0.232  1.00  0.00     0.047 A 
ATOM     12  C   UNL     1       1.885   2.764   0.168  1.00  0.00     0.047 A 
ATOM     13  C   UNL     1       3.447   5.047   0.473  1.00  0.00     0.013 A 
ATOM     14  C   UNL     1       1.392   3.870   0.864  1.00  0.00     0.013 A 
ATOM     15  C   UNL     1       2.198   4.990   1.107  1.00  0.00    -0.011 A 
BRANCH  15  16
ATOM     16  C   UNL     1       1.905   6.007   2.169  1.00  0.00     0.068 A 
ATOM     17  C   UNL     1       0.690   6.234   2.725  1.00  0.00     0.028 A 
ATOM     18  C   UNL     1       2.877   5.895   3.322  1.00  0.00     0.344 A 
ATOM     19  C   UNL     1       0.240   5.086   3.544  1.00  0.00     0.019 A 
ATOM     20  O   UNL     1       2.572   4.826   4.182  1.00  0.00    -0.422 OA
ATOM     21  O   UNL     1       3.875   6.593   3.432  1.00  0.00    -0.246 OA
ATOM     22  C   UNL     1      -1.083   4.660   3.590  1.00  0.00     0.027 A 
ATOM     23  C   UNL     1       1.246   4.334   4.173  1.00  0.00     0.138 A 
ATOM     24  C   UNL     1      -1.366   3.430   4.188  1.00  0.00     0.018 A 
ATOM     25  C   UNL     1       0.971   3.102   4.751  1.00  0.00     0.049 A 
ATOM     26  Br  UNL     1      -3.148   2.798   4.207  1.00  0.00    -0.051 Br
ATOM     27  C   UNL     1      -0.347   2.640   4.738  1.00  0.00     0.019 A 
ENDBRANCH  15  16
ENDBRANCH   9  10
ENDBRANCH   8   9
ENDBRANCH   6   8
ENDBRANCH   3   4
ENDBRANCH   2   3
ENDBRANCH   1   2
BRANCH   1  28
ATOM     28  C   UNL     1       4.743  -1.947   3.719  1.00  0.00     0.002 C 
BRANCH  28  29
ATOM     29  C   UNL     1       4.034  -2.420   4.990  1.00  0.00     0.021 C 
BRANCH  29  30
ATOM     30  C   UNL     1       4.176  -3.908   5.290  1.00  0.00     0.116 C 
BRANCH  30  31
ATOM     31  N   UNL     1       5.555  -4.301   5.526  1.00  0.00    -0.352 N 
ATOM     32  C   UNL     1       6.095  -5.028   6.559  1.00  0.00     0.251 C 
ATOM     33  H   UNL     1       6.199  -4.002   4.844  1.00  0.00     0.163 HD
ATOM     34  O   UNL     1       7.311  -5.119   6.679  1.00  0.00    -0.269 OA
BRANCH  32  35
ATOM     35  C   UNL     1       5.209  -5.686   7.546  1.00  0.00     0.039 A 
ATOM     36  C   UNL     1       5.550  -5.628   8.900  1.00  0.00     0.014 A 
ATOM     37  C   UNL     1       4.061  -6.374   7.144  1.00  0.00     0.014 A 
ATOM     38  C   UNL     1       4.715  -6.217   9.852  1.00  0.00     0.010 A 
ATOM     39  C   UNL     1       3.188  -6.889   8.099  1.00  0.00     0.010 A 
ATOM     40  C   UNL     1       3.511  -6.828   9.463  1.00  0.00    -0.014 A 
BRANCH  40  41
ATOM     41  C   UNL     1       2.597  -7.431  10.468  1.00  0.00     0.031 A 
ATOM     42  C   UNL     1       2.319  -8.910  10.445  1.00  0.00     0.074 A 
ATOM     43  C   UNL     1       1.988  -6.645  11.377  1.00  0.00     0.049 A 
ATOM     44  N   UNL     1       1.514  -9.615  11.201  1.00  0.00    -0.248 NA
ATOM     45  C   UNL     1       3.019  -9.699   9.419  1.00  0.00     0.031 C 
ATOM     46  C   UNL     1       2.139  -5.192  11.477  1.00  0.00     0.029 A 
ATOM     47  N   UNL     1       1.111  -6.956  12.387  1.00  0.00    -0.354 N 
ATOM     48  C   UNL     1       1.615 -10.923  10.743  1.00  0.00     0.074 A 
ATOM     49  C   UNL     1       2.498 -10.904   9.599  1.00  0.00     0.031 C 
ATOM     50  C   UNL     1       1.399  -4.742  12.503  1.00  0.00     0.029 A 
ATOM     51  C   UNL     1       0.691  -5.865  13.109  1.00  0.00     0.049 A 
ATOM     52  H   UNL     1       0.813  -7.875  12.577  1.00  0.00     0.167 HD
ATOM     53  C   UNL     1       1.051 -12.044  11.252  1.00  0.00     0.037 A 
ATOM     54  C   UNL     1      -0.176  -5.780  14.137  1.00  0.00     0.037 A 
ATOM     55  C   UNL     1       0.176 -12.064  12.396  1.00  0.00     0.049 A 
ATOM     56  C   UNL     1      -0.810  -7.041  14.665  1.00  0.00     0.074 A 
ATOM     57  C   UNL     1      -0.437 -13.149  12.997  1.00  0.00     0.029 A 
ATOM     58  N   UNL     1      -0.208 -10.941  13.114  1.00  0.00    -0.354 N 
ATOM     59  N   UNL     1      -0.664  -8.278  14.257  1.00  0.00    -0.248 NA
ATOM     60  C   UNL     1      -1.719  -6.893  15.810  1.00  0.00     0.031 C 
ATOM     61  C   UNL     1      -1.226 -12.679  14.051  1.00  0.00     0.029 A 
ATOM     62  C   UNL     1      -1.056 -11.307  14.147  1.00  0.00     0.049 A 
ATOM     63  H   UNL     1       0.079 -10.020  12.918  1.00  0.00     0.167 HD
ATOM     64  C   UNL     1      -1.427  -9.057  15.118  1.00  0.00     0.074 A 
ATOM     65  C   UNL     1      -2.020  -8.154  16.081  1.00  0.00     0.031 C 
ATOM     66  C   UNL     1      -1.620 -10.399  15.112  1.00  0.00     0.037 A 
BRANCH  53  67
ATOM     67  C   UNL     1       1.377 -13.350  10.583  1.00  0.00     0.064 A 
ATOM     68  C   UNL     1       2.665 -13.905  10.653  1.00  0.00     0.173 A 
ATOM     69  C   UNL     1       0.389 -14.075   9.901  1.00  0.00     0.173 A 
ATOM     70  F   UNL     1       3.651 -13.248  11.282  1.00  0.00    -0.203 F 
ATOM     71  C   UNL     1       2.957 -15.122  10.042  1.00  0.00     0.198 A 
ATOM     72  C   UNL     1       0.676 -15.308   9.321  1.00  0.00     0.198 A 
ATOM     73  F   UNL     1      -0.861 -13.595   9.808  1.00  0.00    -0.203 F 
ATOM     74  F   UNL     1       4.206 -15.606  10.079  1.00  0.00    -0.200 F 
ATOM     75  C   UNL     1       1.960 -15.827   9.384  1.00  0.00     0.200 A 
ATOM     76  F   UNL     1      -0.292 -15.996   8.699  1.00  0.00    -0.200 F 
ATOM     77  F   UNL     1       2.240 -17.003   8.807  1.00  0.00    -0.200 F 
ENDBRANCH  53  67
BRANCH  54  78
ATOM     78  C   UNL     1      -0.492  -4.461  14.747  1.00  0.00     0.064 A 
ATOM     79  C   UNL     1      -0.123  -4.165  16.068  1.00  0.00     0.173 A 
ATOM     80  C   UNL     1      -1.206  -3.483  14.038  1.00  0.00     0.173 A 
ATOM     81  F   UNL     1       0.546  -5.072  16.795  1.00  0.00    -0.203 F 
ATOM     82  C   UNL     1      -0.492  -2.963  16.668  1.00  0.00     0.198 A 
ATOM     83  C   UNL     1      -1.543  -2.267  14.628  1.00  0.00     0.198 A 
ATOM     84  F   UNL     1      -1.577  -3.709  12.769  1.00  0.00    -0.203 F 
ATOM     85  F   UNL     1      -0.188  -2.738  17.953  1.00  0.00    -0.200 F 
ATOM     86  C   UNL     1      -1.199  -2.013  15.947  1.00  0.00     0.200 A 
ATOM     87  F   UNL     1      -2.210  -1.345  13.921  1.00  0.00    -0.200 F 
ATOM     88  F   UNL     1      -1.560  -0.860  16.526  1.00  0.00    -0.200 F 
ENDBRANCH  54  78
BRANCH  66  89
ATOM     89  C   UNL     1      -2.455 -10.980  16.219  1.00  0.00     0.064 A 
ATOM     90  C   UNL     1      -3.836 -10.754  16.307  1.00  0.00     0.173 A 
ATOM     91  C   UNL     1      -1.861 -11.795  17.196  1.00  0.00     0.173 A 
ATOM     92  F   UNL     1      -4.452  -9.973  15.406  1.00  0.00    -0.203 F 
ATOM     93  C   UNL     1      -4.584 -11.287  17.354  1.00  0.00     0.198 A 
ATOM     94  C   UNL     1      -2.618 -12.357  18.219  1.00  0.00     0.198 A 
ATOM     95  F   UNL     1      -0.545 -12.053  17.154  1.00  0.00    -0.203 F 
ATOM     96  F   UNL     1      -5.890 -11.004  17.454  1.00  0.00    -0.200 F 
ATOM     97  C   UNL     1      -3.976 -12.093  18.305  1.00  0.00     0.200 A 
ATOM     98  F   UNL     1      -2.031 -13.150  19.127  1.00  0.00    -0.200 F 
ATOM     99  F   UNL     1      -4.698 -12.608  19.310  1.00  0.00    -0.200 F 
ENDBRANCH  66  89
ENDBRANCH  40  41
ENDBRANCH  32  35
ENDBRANCH  30  31
ENDBRANCH  29  30
ENDBRANCH  28  29
ENDBRANCH   1  28
TORSDOF 16
