REMARK SMILES O=C(NCCCCCCNC(=O)c1ccccc1/N=C/c1coc2ccccc2c1=O)c1ccc(-c2c3nc(c(-c4c(F)c(F)c(F)c(F)c4F)c4ccc([nH]4)c(-c4c(F)c(F)c(F)c(F)c4F)c4nc(c(-c5c(F)c(F)c(F)c(F)c5F)c5ccc2[nH]5)C=C4)C=C3)cc1
REMARK SMILES IDX 6 1 5 2 4 3 3 4 1 5 2 6 32 8 33 9 94 10 34 11 93 12 35 13
REMARK SMILES IDX 36 14 37 15 87 16 38 17 92 18 86 19 88 20 39 21 91 22 85 23
REMARK SMILES IDX 84 24 40 26 72 27 52 28 71 29 53 30 56 31 70 32 89 33 54 34
REMARK SMILES IDX 55 35 69 37 90 38 57 39 41 40 42 41 50 42 43 43 44 44 48 45
REMARK SMILES IDX 51 46 45 47 46 48 49 49 47 50 73 51 74 52 82 53 75 54 76 55
REMARK SMILES IDX 80 56 83 57 77 58 78 59 81 60 79 61 58 62 59 63 67 64 60 65
REMARK SMILES IDX 61 66 65 67 68 68 62 69 63 70 66 71 64 72 7 73 8 74 9 75
REMARK SMILES IDX 10 76 11 77 12 79 13 80 14 81 18 82 15 83 17 84 16 85 19 86
REMARK SMILES IDX 20 87 21 88 22 89 30 90 23 91 29 92 31 93 24 94 28 95 25 96
REMARK SMILES IDX 27 97 26 98
REMARK H PARENT 3 7 88 25 56 36 10 78
REMARK Flexibility Score: inf
ROOT
ATOM      1  C   UNL     1       4.165  -2.791   2.853  1.00  0.00     0.002 C 
ENDROOT
BRANCH   1   2
ATOM      2  C   UNL     1       4.747  -1.487   2.304  1.00  0.00     0.021 C 
BRANCH   2   3
ATOM      3  C   UNL     1       4.480  -1.195   0.829  1.00  0.00     0.116 C 
BRANCH   3   4
ATOM      4  N   UNL     1       3.065  -1.151   0.505  1.00  0.00    -0.352 N 
ATOM      5  O   UNL     1       1.112  -0.339  -0.245  1.00  0.00    -0.269 OA
ATOM      6  C   UNL     1       2.334  -0.227  -0.197  1.00  0.00     0.251 C 
ATOM      7  H   UNL     1       2.542  -1.913   0.847  1.00  0.00     0.163 HD
BRANCH   6   8
ATOM      8  C   UNL     1       2.981   0.914  -0.889  1.00  0.00     0.039 A 
ATOM      9  C   UNL     1       4.159   0.772  -1.627  1.00  0.00     0.014 A 
ATOM     10  C   UNL     1       2.326   2.153  -0.865  1.00  0.00     0.014 A 
ATOM     11  C   UNL     1       4.722   1.879  -2.269  1.00  0.00     0.010 A 
ATOM     12  C   UNL     1       2.866   3.250  -1.540  1.00  0.00     0.010 A 
ATOM     13  C   UNL     1       4.078   3.125  -2.233  1.00  0.00    -0.014 A 
BRANCH  13  14
ATOM     14  C   UNL     1       4.651   4.287  -2.957  1.00  0.00     0.031 A 
ATOM     15  C   UNL     1       5.277   5.425  -2.205  1.00  0.00     0.074 A 
ATOM     16  C   UNL     1       4.590   4.324  -4.301  1.00  0.00     0.049 A 
ATOM     17  N   UNL     1       5.792   6.536  -2.670  1.00  0.00    -0.248 NA
ATOM     18  C   UNL     1       5.325   5.306  -0.741  1.00  0.00     0.031 C 
ATOM     19  C   UNL     1       3.988   3.294  -5.147  1.00  0.00     0.029 A 
ATOM     20  N   UNL     1       5.040   5.269  -5.188  1.00  0.00    -0.354 N 
ATOM     21  C   UNL     1       6.200   7.258  -1.558  1.00  0.00     0.074 A 
ATOM     22  C   UNL     1       5.875   6.462  -0.393  1.00  0.00     0.031 C 
ATOM     23  C   UNL     1       4.122   3.653  -6.434  1.00  0.00     0.029 A 
ATOM     24  C   UNL     1       4.796   4.947  -6.499  1.00  0.00     0.049 A 
ATOM     25  H   UNL     1       5.495   6.097  -4.911  1.00  0.00     0.167 HD
ATOM     26  C   UNL     1       6.793   8.475  -1.514  1.00  0.00     0.037 A 
ATOM     27  C   UNL     1       5.076   5.623  -7.628  1.00  0.00     0.037 A 
ATOM     28  C   UNL     1       7.151   9.260  -2.664  1.00  0.00     0.049 A 
ATOM     29  C   UNL     1       5.759   6.956  -7.552  1.00  0.00     0.074 A 
ATOM     30  C   UNL     1       7.799  10.483  -2.709  1.00  0.00     0.029 A 
ATOM     31  N   UNL     1       6.893   8.896  -3.976  1.00  0.00    -0.354 N 
ATOM     32  N   UNL     1       6.156   7.618  -6.495  1.00  0.00    -0.248 NA
ATOM     33  C   UNL     1       6.026   7.638  -8.827  1.00  0.00     0.031 C 
ATOM     34  C   UNL     1       7.923  10.865  -4.050  1.00  0.00     0.029 A 
ATOM     35  C   UNL     1       7.361   9.874  -4.838  1.00  0.00     0.049 A 
ATOM     36  H   UNL     1       6.443   8.066  -4.254  1.00  0.00     0.167 HD
ATOM     37  C   UNL     1       6.714   8.794  -6.972  1.00  0.00     0.074 A 
ATOM     38  C   UNL     1       6.619   8.751  -8.417  1.00  0.00     0.031 C 
ATOM     39  C   UNL     1       7.253   9.819  -6.271  1.00  0.00     0.037 A 
BRANCH  26  40
ATOM     40  C   UNL     1       7.090   9.040  -0.162  1.00  0.00     0.064 A 
ATOM     41  C   UNL     1       8.248   8.678   0.538  1.00  0.00     0.173 A 
ATOM     42  C   UNL     1       6.231   9.984   0.417  1.00  0.00     0.173 A 
ATOM     43  F   UNL     1       9.092   7.771   0.025  1.00  0.00    -0.203 F 
ATOM     44  C   UNL     1       8.532   9.238   1.781  1.00  0.00     0.198 A 
ATOM     45  C   UNL     1       6.522  10.548   1.655  1.00  0.00     0.198 A 
ATOM     46  F   UNL     1       5.111  10.358  -0.220  1.00  0.00    -0.203 F 
ATOM     47  F   UNL     1       9.636   8.867   2.445  1.00  0.00    -0.200 F 
ATOM     48  C   UNL     1       7.672  10.174   2.336  1.00  0.00     0.200 A 
ATOM     49  F   UNL     1       5.691  11.453   2.192  1.00  0.00    -0.200 F 
ATOM     50  F   UNL     1       7.949  10.713   3.532  1.00  0.00    -0.200 F 
ENDBRANCH  26  40
BRANCH  27  51
ATOM     51  C   UNL     1       4.706   5.034  -8.935  1.00  0.00     0.064 A 
ATOM     52  C   UNL     1       5.659   4.365  -9.712  1.00  0.00     0.173 A 
ATOM     53  C   UNL     1       3.390   5.100  -9.411  1.00  0.00     0.173 A 
ATOM     54  F   UNL     1       6.933   4.296  -9.298  1.00  0.00    -0.203 F 
ATOM     55  C   UNL     1       5.307   3.780 -10.925  1.00  0.00     0.198 A 
ATOM     56  C   UNL     1       3.038   4.506 -10.620  1.00  0.00     0.198 A 
ATOM     57  F   UNL     1       2.450   5.735  -8.697  1.00  0.00    -0.203 F 
ATOM     58  F   UNL     1       6.237   3.155 -11.661  1.00  0.00    -0.200 F 
ATOM     59  C   UNL     1       3.996   3.846 -11.376  1.00  0.00     0.200 A 
ATOM     60  F   UNL     1       1.771   4.569 -11.051  1.00  0.00    -0.200 F 
ATOM     61  F   UNL     1       3.658   3.278 -12.541  1.00  0.00    -0.200 F 
ENDBRANCH  27  51
BRANCH  39  62
ATOM     62  C   UNL     1       7.774  10.979  -7.056  1.00  0.00     0.064 A 
ATOM     63  C   UNL     1       6.916  12.001  -7.485  1.00  0.00     0.173 A 
ATOM     64  C   UNL     1       9.139  11.088  -7.353  1.00  0.00     0.173 A 
ATOM     65  F   UNL     1       5.600  11.928  -7.234  1.00  0.00    -0.203 F 
ATOM     66  C   UNL     1       7.409  13.094  -8.193  1.00  0.00     0.198 A 
ATOM     67  C   UNL     1       9.629  12.186  -8.054  1.00  0.00     0.198 A 
ATOM     68  F   UNL     1       9.993  10.130  -6.964  1.00  0.00    -0.203 F 
ATOM     69  F   UNL     1       6.571  14.053  -8.611  1.00  0.00    -0.200 F 
ATOM     70  C   UNL     1       8.764  13.187  -8.474  1.00  0.00     0.200 A 
ATOM     71  F   UNL     1      10.938  12.274  -8.328  1.00  0.00    -0.200 F 
ATOM     72  F   UNL     1       9.237  14.238  -9.157  1.00  0.00    -0.200 F 
ENDBRANCH  39  62
ENDBRANCH  13  14
ENDBRANCH   6   8
ENDBRANCH   3   4
ENDBRANCH   2   3
ENDBRANCH   1   2
BRANCH   1  73
ATOM     73  C   UNL     1       4.607  -4.072   2.143  1.00  0.00     0.002 C 
BRANCH  73  74
ATOM     74  C   UNL     1       6.114  -4.356   2.128  1.00  0.00     0.021 C 
BRANCH  74  75
ATOM     75  C   UNL     1       6.823  -4.308   3.483  1.00  0.00     0.116 C 
BRANCH  75  76
ATOM     76  N   UNL     1       6.208  -5.168   4.479  1.00  0.00    -0.352 N 
ATOM     77  C   UNL     1       6.797  -5.866   5.501  1.00  0.00     0.253 C 
ATOM     78  H   UNL     1       5.231  -5.262   4.411  1.00  0.00     0.163 HD
ATOM     79  O   UNL     1       6.104  -6.507   6.286  1.00  0.00    -0.269 OA
BRANCH  77  80
ATOM     80  C   UNL     1       8.261  -5.898   5.665  1.00  0.00     0.065 A 
ATOM     81  C   UNL     1       8.879  -7.158   5.615  1.00  0.00     0.016 A 
ATOM     82  C   UNL     1       9.022  -4.755   5.932  1.00  0.00     0.076 A 
ATOM     83  C   UNL     1      10.260  -7.277   5.786  1.00  0.00     0.001 A 
ATOM     84  C   UNL     1      10.409  -4.895   6.098  1.00  0.00     0.029 A 
ATOM     85  C   UNL     1      11.027  -6.142   6.028  1.00  0.00     0.002 A 
BRANCH  82  86
ATOM     86  N   UNL     1       8.553  -3.442   5.933  1.00  0.00    -0.255 NA
ATOM     87  C   UNL     1       7.716  -3.023   6.827  1.00  0.00     0.127 C 
BRANCH  87  88
ATOM     88  C   UNL     1       7.525  -1.560   6.886  1.00  0.00     0.076 A 
ATOM     89  C   UNL     1       8.125  -1.018   7.960  1.00  0.00     0.209 A 
ATOM     90  C   UNL     1       7.605  -0.760   5.640  1.00  0.00     0.201 A 
ATOM     91  O   UNL     1       8.876   0.149   7.909  1.00  0.00    -0.463 OA
ATOM     92  C   UNL     1       8.878  -0.043   5.506  1.00  0.00     0.065 A 
ATOM     93  O   UNL     1       6.748  -0.772   4.771  1.00  0.00    -0.288 OA
ATOM     94  C   UNL     1       9.498   0.354   6.692  1.00  0.00     0.137 A 
ATOM     95  C   UNL     1       9.518   0.070   4.274  1.00  0.00     0.016 A 
ATOM     96  C   UNL     1      10.785   0.874   6.658  1.00  0.00     0.048 A 
ATOM     97  C   UNL     1      10.822   0.562   4.244  1.00  0.00     0.001 A 
ATOM     98  C   UNL     1      11.453   0.958   5.430  1.00  0.00     0.004 A 
ENDBRANCH  87  88
ENDBRANCH  82  86
ENDBRANCH  77  80
ENDBRANCH  75  76
ENDBRANCH  74  75
ENDBRANCH  73  74
ENDBRANCH   1  73
TORSDOF 15
