REMARK SMILES O=C(CCC(=O)N1Cc2[nH]cnc2C[C@H]1C(=O)NCc1ccccc1)NCCCCCCNC(=O)c1ccc(-c2c3nc(c(-c4c(F)c(F)c(F)c(F)c4F)c4ccc([nH]4)c(-c4c(F)c(F)c(F)c(F)c4F)c4nc(c(-c5c(F)c(F)c(F)c(F)c5F)c5ccc2[nH]5)C=C4)C=C3)cc1
REMARK SMILES IDX 27 1 26 2 1 3 2 4 3 6 4 7 5 8 6 9 7 10 8 11 15 12 9 13 14 14
REMARK SMILES IDX 10 15 13 16 11 17 12 19 16 20 17 21 18 22 19 24 20 25 21 26
REMARK SMILES IDX 25 27 22 28 24 29 23 30 28 31 29 32 30 33 31 34 32 35 33 36
REMARK SMILES IDX 34 37 35 39 36 40 37 41 98 42 38 43 97 44 39 45 40 46 41 47
REMARK SMILES IDX 91 48 42 49 96 50 90 51 92 52 43 53 95 54 89 55 88 56 44 58
REMARK SMILES IDX 76 59 56 60 75 61 57 62 60 63 74 64 93 65 58 66 59 67 73 69
REMARK SMILES IDX 94 70 61 71 45 72 46 73 54 74 47 75 48 76 52 77 55 78 49 79
REMARK SMILES IDX 50 80 53 81 51 82 77 83 78 84 86 85 79 86 80 87 84 88 87 89
REMARK SMILES IDX 81 90 82 91 85 92 83 93 62 94 63 95 71 96 64 97 65 98 69 99
REMARK SMILES IDX 72 100 66 101 67 102 70 103 68 104
REMARK H PARENT 26 5 10 18 18 23 33 38 92 57 60 68
REMARK Flexibility Score: inf
ROOT
ATOM      1  C   UNL     1       1.449   0.275   2.547  1.00  0.00     0.116 C 
ENDROOT
BRANCH   1   2
ATOM      2  N   UNL     1       2.335  -0.547   1.723  1.00  0.00    -0.356 N 
ATOM      3  O   UNL     1       1.002  -0.361  -0.140  1.00  0.00    -0.275 OA
ATOM      4  C   UNL     1       2.073  -0.695   0.360  1.00  0.00     0.220 C 
ATOM      5  H   UNL     1       3.112  -0.995   2.128  1.00  0.00     0.163 HD
BRANCH   4   6
ATOM      6  C   UNL     1       3.243  -1.183  -0.510  1.00  0.00     0.110 C 
BRANCH   6   7
ATOM      7  C   UNL     1       3.576  -0.201  -1.665  1.00  0.00     0.110 C 
BRANCH   7   8
ATOM      8  C   UNL     1       4.945   0.515  -1.604  1.00  0.00     0.224 C 
ATOM      9  O   UNL     1       5.870   0.119  -2.317  1.00  0.00    -0.275 OA
BRANCH   8  10
ATOM     10  N   UNL     1       5.107   1.610  -0.761  1.00  0.00    -0.324 N 
ATOM     11  C   UNL     1       6.395   2.343  -0.702  1.00  0.00     0.176 C 
ATOM     12  C   UNL     1       4.176   1.860   0.349  1.00  0.00     0.180 C 
ATOM     13  C   UNL     1       6.848   2.369   0.726  1.00  0.00     0.058 A 
ATOM     14  C   UNL     1       4.812   1.300   1.617  1.00  0.00     0.093 C 
ATOM     15  N   UNL     1       7.950   2.948   1.295  1.00  0.00    -0.347 N 
ATOM     16  C   UNL     1       6.132   1.896   1.798  1.00  0.00     0.066 A 
ATOM     17  C   UNL     1       7.825   2.805   2.659  1.00  0.00     0.197 A 
ATOM     18  H   UNL     1       8.693   3.385   0.818  1.00  0.00     0.167 HD
ATOM     19  N   UNL     1       6.727   2.163   2.988  1.00  0.00    -0.242 NA
BRANCH  12  20
ATOM     20  C   UNL     1       3.275   3.114   0.280  1.00  0.00     0.243 C 
ATOM     21  O   UNL     1       2.299   3.088  -0.488  1.00  0.00    -0.273 OA
ATOM     22  N   UNL     1       3.424   4.285   0.920  1.00  0.00    -0.350 N 
ATOM     23  H   UNL     1       2.630   4.861   0.835  1.00  0.00     0.163 HD
BRANCH  22  24
ATOM     24  C   UNL     1       4.467   4.903   1.701  1.00  0.00     0.151 C 
BRANCH  24  25
ATOM     25  C   UNL     1       4.954   6.146   0.999  1.00  0.00    -0.029 A 
ATOM     26  C   UNL     1       6.127   6.122   0.236  1.00  0.00     0.005 A 
ATOM     27  C   UNL     1       4.200   7.329   1.035  1.00  0.00     0.005 A 
ATOM     28  C   UNL     1       6.538   7.245  -0.481  1.00  0.00     0.000 A 
ATOM     29  C   UNL     1       4.614   8.455   0.322  1.00  0.00     0.000 A 
ATOM     30  C   UNL     1       5.780   8.411  -0.439  1.00  0.00     0.000 A 
ENDBRANCH  24  25
ENDBRANCH  22  24
ENDBRANCH  12  20
ENDBRANCH   8  10
ENDBRANCH   7   8
ENDBRANCH   6   7
ENDBRANCH   4   6
ENDBRANCH   1   2
BRANCH   1  31
ATOM     31  C   UNL     1       1.711   0.330   4.069  1.00  0.00     0.021 C 
BRANCH  31  32
ATOM     32  C   UNL     1       2.937   1.075   4.652  1.00  0.00     0.002 C 
BRANCH  32  33
ATOM     33  C   UNL     1       3.190   2.531   4.207  1.00  0.00     0.002 C 
BRANCH  33  34
ATOM     34  C   UNL     1       2.713   3.694   5.072  1.00  0.00     0.021 C 
BRANCH  34  35
ATOM     35  C   UNL     1       3.475   3.921   6.374  1.00  0.00     0.116 C 
BRANCH  35  36
ATOM     36  N   UNL     1       4.910   4.195   6.236  1.00  0.00    -0.352 N 
ATOM     37  C   UNL     1       5.881   4.023   7.217  1.00  0.00     0.251 C 
ATOM     38  H   UNL     1       5.215   4.535   5.364  1.00  0.00     0.163 HD
ATOM     39  O   UNL     1       6.965   4.570   7.182  1.00  0.00    -0.269 OA
BRANCH  37  40
ATOM     40  C   UNL     1       5.521   3.116   8.323  1.00  0.00     0.039 A 
ATOM     41  C   UNL     1       5.275   3.615   9.603  1.00  0.00     0.014 A 
ATOM     42  C   UNL     1       5.130   1.836   7.948  1.00  0.00     0.014 A 
ATOM     43  C   UNL     1       4.483   2.862  10.472  1.00  0.00     0.010 A 
ATOM     44  C   UNL     1       4.248   1.160   8.766  1.00  0.00     0.010 A 
ATOM     45  C   UNL     1       3.903   1.660  10.030  1.00  0.00    -0.014 A 
BRANCH  45  46
ATOM     46  C   UNL     1       2.818   1.031  10.806  1.00  0.00     0.031 A 
ATOM     47  C   UNL     1       1.746   1.920  11.371  1.00  0.00     0.074 A 
ATOM     48  C   UNL     1       2.588  -0.301  10.839  1.00  0.00     0.049 A 
ATOM     49  N   UNL     1       1.367   2.013  12.607  1.00  0.00    -0.248 NA
ATOM     50  C   UNL     1       1.007   2.812  10.464  1.00  0.00     0.031 C 
ATOM     51  C   UNL     1       3.313  -1.375  10.154  1.00  0.00     0.029 A 
ATOM     52  N   UNL     1       1.543  -0.965  11.417  1.00  0.00    -0.354 N 
ATOM     53  C   UNL     1       0.260   2.863  12.632  1.00  0.00     0.074 A 
ATOM     54  C   UNL     1       0.134   3.390  11.295  1.00  0.00     0.031 C 
ATOM     55  C   UNL     1       2.560  -2.493  10.141  1.00  0.00     0.029 A 
ATOM     56  C   UNL     1       1.399  -2.273  10.981  1.00  0.00     0.049 A 
ATOM     57  H   UNL     1       0.946  -0.552  12.082  1.00  0.00     0.167 HD
ATOM     58  C   UNL     1      -0.564   2.948  13.717  1.00  0.00     0.037 A 
ATOM     59  C   UNL     1       0.407  -3.139  11.285  1.00  0.00     0.037 A 
ATOM     60  C   UNL     1       0.047   2.390  14.894  1.00  0.00     0.049 A 
ATOM     61  C   UNL     1      -0.195  -2.695  12.562  1.00  0.00     0.074 A 
ATOM     62  C   UNL     1       1.205   2.642  15.606  1.00  0.00     0.029 A 
ATOM     63  N   UNL     1      -0.400   1.179  15.361  1.00  0.00    -0.354 N 
ATOM     64  N   UNL     1       0.420  -2.746  13.710  1.00  0.00    -0.248 NA
ATOM     65  C   UNL     1      -1.362  -1.829  12.516  1.00  0.00     0.031 C 
ATOM     66  C   UNL     1       1.656   1.358  16.037  1.00  0.00     0.029 A 
ATOM     67  C   UNL     1       0.719   0.424  15.595  1.00  0.00     0.049 A 
ATOM     68  H   UNL     1      -1.336   0.908  15.499  1.00  0.00     0.167 HD
ATOM     69  C   UNL     1      -0.000  -1.610  14.381  1.00  0.00     0.074 A 
ATOM     70  C   UNL     1      -1.188  -1.164  13.661  1.00  0.00     0.031 C 
ATOM     71  C   UNL     1       0.813  -0.980  15.278  1.00  0.00     0.037 A 
BRANCH  58  72
ATOM     72  C   UNL     1      -2.043   3.264  13.682  1.00  0.00     0.064 A 
ATOM     73  C   UNL     1      -2.734   3.503  14.892  1.00  0.00     0.173 A 
ATOM     74  C   UNL     1      -2.858   3.033  12.556  1.00  0.00     0.173 A 
ATOM     75  F   UNL     1      -2.062   3.721  16.033  1.00  0.00    -0.203 F 
ATOM     76  C   UNL     1      -4.127   3.427  14.979  1.00  0.00     0.198 A 
ATOM     77  C   UNL     1      -4.252   3.010  12.637  1.00  0.00     0.198 A 
ATOM     78  F   UNL     1      -2.338   2.711  11.365  1.00  0.00    -0.203 F 
ATOM     79  F   UNL     1      -4.727   3.530  16.174  1.00  0.00    -0.200 F 
ATOM     80  C   UNL     1      -4.885   3.172  13.853  1.00  0.00     0.200 A 
ATOM     81  F   UNL     1      -4.971   2.746  11.537  1.00  0.00    -0.200 F 
ATOM     82  F   UNL     1      -6.214   3.033  13.944  1.00  0.00    -0.200 F 
ENDBRANCH  58  72
BRANCH  59  83
ATOM     83  C   UNL     1      -0.121  -4.253  10.472  1.00  0.00     0.064 A 
ATOM     84  C   UNL     1      -0.859  -5.295  11.050  1.00  0.00     0.173 A 
ATOM     85  C   UNL     1      -0.116  -4.190   9.063  1.00  0.00     0.173 A 
ATOM     86  F   UNL     1      -0.950  -5.400  12.384  1.00  0.00    -0.203 F 
ATOM     87  C   UNL     1      -1.565  -6.213  10.266  1.00  0.00     0.198 A 
ATOM     88  C   UNL     1      -0.811  -5.113   8.282  1.00  0.00     0.198 A 
ATOM     89  F   UNL     1       0.493  -3.182   8.421  1.00  0.00    -0.203 F 
ATOM     90  F   UNL     1      -2.305  -7.162  10.855  1.00  0.00    -0.200 F 
ATOM     91  C   UNL     1      -1.546  -6.116   8.884  1.00  0.00     0.200 A 
ATOM     92  F   UNL     1      -0.808  -4.989   6.947  1.00  0.00    -0.200 F 
ATOM     93  F   UNL     1      -2.266  -6.963   8.136  1.00  0.00    -0.200 F 
ENDBRANCH  59  83
BRANCH  71  94
ATOM     94  C   UNL     1       2.047  -1.700  15.742  1.00  0.00     0.064 A 
ATOM     95  C   UNL     1       3.096  -2.086  14.889  1.00  0.00     0.173 A 
ATOM     96  C   UNL     1       2.237  -1.885  17.118  1.00  0.00     0.173 A 
ATOM     97  F   UNL     1       3.043  -1.841  13.576  1.00  0.00    -0.203 F 
ATOM     98  C   UNL     1       4.253  -2.682  15.386  1.00  0.00     0.198 A 
ATOM     99  C   UNL     1       3.410  -2.446  17.616  1.00  0.00     0.198 A 
ATOM    100  F   UNL     1       1.298  -1.478  17.987  1.00  0.00    -0.203 F 
ATOM    101  F   UNL     1       5.229  -3.057  14.546  1.00  0.00    -0.200 F 
ATOM    102  C   UNL     1       4.411  -2.857  16.750  1.00  0.00     0.200 A 
ATOM    103  F   UNL     1       3.581  -2.566  18.940  1.00  0.00    -0.200 F 
ATOM    104  F   UNL     1       5.539  -3.396  17.232  1.00  0.00    -0.200 F 
ENDBRANCH  71  94
ENDBRANCH  45  46
ENDBRANCH  37  40
ENDBRANCH  35  36
ENDBRANCH  34  35
ENDBRANCH  33  34
ENDBRANCH  32  33
ENDBRANCH  31  32
ENDBRANCH   1  31
TORSDOF 19
