REMARK SMILES C[C@H](C(=O)NCCCCCCNC(=O)c1ccc(-c2c3nc(c(-c4c(F)c(F)c(F)c(F)c4F)c4ccc([nH]4)c(-c4c(F)c(F)c(F)c(F)c4F)c4nc(c(-c5c(F)c(F)c(F)c(F)c5F)c5ccc2[nH]5)C=C4)C=C3)cc1)c1ccc(C(=O)c2ccccc2)s1
REMARK SMILES IDX 8 1 7 2 6 3 5 4 3 5 4 6 2 8 1 9 78 10 79 11 90 12 80 13
REMARK SMILES IDX 81 14 82 15 83 16 84 17 85 18 89 19 86 20 88 21 87 22 9 23
REMARK SMILES IDX 10 24 11 25 12 26 13 27 14 29 15 30 16 31 77 32 17 33 76 34
REMARK SMILES IDX 18 35 19 36 20 37 70 38 21 39 75 40 69 41 71 42 22 43 74 44
REMARK SMILES IDX 68 45 67 46 23 48 55 49 35 50 54 51 36 52 39 53 53 54 72 55
REMARK SMILES IDX 37 56 38 57 52 59 73 60 40 61 24 62 25 63 33 64 26 65 27 66
REMARK SMILES IDX 31 67 34 68 28 69 29 70 32 71 30 72 56 73 57 74 65 75 58 76
REMARK SMILES IDX 59 77 63 78 66 79 60 80 61 81 64 82 62 83 41 84 42 85 50 86
REMARK SMILES IDX 43 87 44 88 48 89 51 90 45 91 46 92 49 93 47 94
REMARK H PARENT 5 7 12 28 71 47 39 58
REMARK Flexibility Score: inf
ROOT
ATOM      1  C   UNL     1      -0.140   4.024   0.913  1.00  0.00     0.002 C 
ENDROOT
BRANCH   1   2
ATOM      2  C   UNL     1      -0.433   3.128  -0.295  1.00  0.00     0.021 C 
BRANCH   2   3
ATOM      3  C   UNL     1       0.782   2.349  -0.807  1.00  0.00     0.116 C 
BRANCH   3   4
ATOM      4  N   UNL     1       1.106   1.251   0.084  1.00  0.00    -0.356 N 
ATOM      5  C   UNL     1       0.968  -0.098  -0.082  1.00  0.00     0.228 C 
ATOM      6  O   UNL     1       1.218  -0.810   0.895  1.00  0.00    -0.274 OA
ATOM      7  H   UNL     1       1.487   1.522   0.950  1.00  0.00     0.163 HD
BRANCH   5   8
ATOM      8  C   UNL     1       0.541  -0.689  -1.436  1.00  0.00     0.115 C 
ATOM      9  C   UNL     1       1.159  -2.080  -1.601  1.00  0.00     0.024 C 
BRANCH   8  10
ATOM     10  C   UNL     1      -0.972  -0.722  -1.505  1.00  0.00     0.017 A 
ATOM     11  C   UNL     1      -1.872  -1.677  -1.073  1.00  0.00     0.017 A 
ATOM     12  S   UNL     1      -1.815   0.574  -2.241  1.00  0.00    -0.136 S 
ATOM     13  C   UNL     1      -3.223  -1.212  -1.135  1.00  0.00     0.024 A 
ATOM     14  C   UNL     1      -3.309   0.097  -1.577  1.00  0.00     0.075 A 
BRANCH  14  15
ATOM     15  C   UNL     1      -4.479   0.966  -1.513  1.00  0.00     0.202 C 
ATOM     16  O   UNL     1      -5.611   0.541  -1.283  1.00  0.00    -0.288 OA
BRANCH  15  17
ATOM     17  C   UNL     1      -4.330   2.448  -1.546  1.00  0.00     0.023 A 
ATOM     18  C   UNL     1      -4.760   3.176  -0.427  1.00  0.00     0.012 A 
ATOM     19  C   UNL     1      -3.816   3.125  -2.658  1.00  0.00     0.012 A 
ATOM     20  C   UNL     1      -4.652   4.567  -0.412  1.00  0.00     0.001 A 
ATOM     21  C   UNL     1      -3.695   4.516  -2.633  1.00  0.00     0.001 A 
ATOM     22  C   UNL     1      -4.120   5.233  -1.515  1.00  0.00     0.000 A 
ENDBRANCH  15  17
ENDBRANCH  14  15
ENDBRANCH   8  10
ENDBRANCH   5   8
ENDBRANCH   3   4
ENDBRANCH   2   3
ENDBRANCH   1   2
BRANCH   1  23
ATOM     23  C   UNL     1       0.880   5.138   0.661  1.00  0.00     0.002 C 
BRANCH  23  24
ATOM     24  C   UNL     1       0.546   6.072  -0.505  1.00  0.00     0.021 C 
BRANCH  24  25
ATOM     25  C   UNL     1      -0.785   6.803  -0.367  1.00  0.00     0.116 C 
BRANCH  25  26
ATOM     26  N   UNL     1      -0.796   7.718   0.764  1.00  0.00    -0.352 N 
ATOM     27  C   UNL     1      -1.044   9.069   0.799  1.00  0.00     0.251 C 
ATOM     28  H   UNL     1      -0.597   7.307   1.636  1.00  0.00     0.163 HD
ATOM     29  O   UNL     1      -0.823   9.711   1.819  1.00  0.00    -0.269 OA
BRANCH  27  30
ATOM     30  C   UNL     1      -1.563   9.755  -0.403  1.00  0.00     0.039 A 
ATOM     31  C   UNL     1      -1.008  10.979  -0.780  1.00  0.00     0.014 A 
ATOM     32  C   UNL     1      -2.607   9.201  -1.147  1.00  0.00     0.014 A 
ATOM     33  C   UNL     1      -1.456  11.614  -1.940  1.00  0.00     0.010 A 
ATOM     34  C   UNL     1      -2.996   9.791  -2.347  1.00  0.00     0.010 A 
ATOM     35  C   UNL     1      -2.428  11.008  -2.754  1.00  0.00    -0.014 A 
BRANCH  35  36
ATOM     36  C   UNL     1      -2.855  11.633  -4.033  1.00  0.00     0.031 A 
ATOM     37  C   UNL     1      -4.278  12.078  -4.226  1.00  0.00     0.074 A 
ATOM     38  C   UNL     1      -1.972  11.751  -5.043  1.00  0.00     0.049 A 
ATOM     39  N   UNL     1      -4.846  12.605  -5.283  1.00  0.00    -0.248 NA
ATOM     40  C   UNL     1      -5.193  11.880  -3.091  1.00  0.00     0.031 C 
ATOM     41  C   UNL     1      -0.575  11.315  -4.998  1.00  0.00     0.029 A 
ATOM     42  N   UNL     1      -2.117  12.268  -6.306  1.00  0.00    -0.354 N 
ATOM     43  C   UNL     1      -6.180  12.790  -4.943  1.00  0.00     0.074 A 
ATOM     44  C   UNL     1      -6.351  12.261  -3.607  1.00  0.00     0.031 C 
ATOM     45  C   UNL     1       0.015  11.611  -6.166  1.00  0.00     0.029 A 
ATOM     46  C   UNL     1      -0.969  12.218  -7.058  1.00  0.00     0.049 A 
ATOM     47  H   UNL     1      -2.965  12.640  -6.642  1.00  0.00     0.167 HD
ATOM     48  C   UNL     1      -7.166  13.371  -5.668  1.00  0.00     0.037 A 
ATOM     49  C   UNL     1      -0.735  12.611  -8.325  1.00  0.00     0.037 A 
ATOM     50  C   UNL     1      -6.987  13.909  -6.992  1.00  0.00     0.049 A 
ATOM     51  C   UNL     1      -1.853  13.232  -9.118  1.00  0.00     0.074 A 
ATOM     52  C   UNL     1      -7.907  14.570  -7.787  1.00  0.00     0.029 A 
ATOM     53  N   UNL     1      -5.809  13.837  -7.722  1.00  0.00    -0.354 N 
ATOM     54  N   UNL     1      -3.091  13.470  -8.760  1.00  0.00    -0.248 NA
ATOM     55  C   UNL     1      -1.537  13.643 -10.493  1.00  0.00     0.031 C 
ATOM     56  C   UNL     1      -7.305  14.844  -9.019  1.00  0.00     0.029 A 
ATOM     57  C   UNL     1      -5.989  14.414  -8.970  1.00  0.00     0.049 A 
ATOM     58  H   UNL     1      -4.969  13.437  -7.400  1.00  0.00     0.167 HD
ATOM     59  C   UNL     1      -3.693  14.085  -9.850  1.00  0.00     0.074 A 
ATOM     60  C   UNL     1      -2.678  14.197 -10.877  1.00  0.00     0.031 C 
ATOM     61  C   UNL     1      -4.970  14.520  -9.985  1.00  0.00     0.037 A 
BRANCH  48  62
ATOM     62  C   UNL     1      -8.532  13.447  -5.044  1.00  0.00     0.064 A 
ATOM     63  C   UNL     1      -8.791  14.257  -3.927  1.00  0.00     0.173 A 
ATOM     64  C   UNL     1      -9.603  12.716  -5.583  1.00  0.00     0.173 A 
ATOM     65  F   UNL     1      -7.803  14.970  -3.366  1.00  0.00    -0.203 F 
ATOM     66  C   UNL     1     -10.057  14.300  -3.348  1.00  0.00     0.198 A 
ATOM     67  C   UNL     1     -10.877  12.790  -5.024  1.00  0.00     0.198 A 
ATOM     68  F   UNL     1      -9.416  11.932  -6.655  1.00  0.00    -0.203 F 
ATOM     69  F   UNL     1     -10.263  15.030  -2.244  1.00  0.00    -0.200 F 
ATOM     70  C   UNL     1     -11.100  13.572  -3.901  1.00  0.00     0.200 A 
ATOM     71  F   UNL     1     -11.887  12.099  -5.569  1.00  0.00    -0.200 F 
ATOM     72  F   UNL     1     -12.319  13.616  -3.345  1.00  0.00    -0.200 F 
ENDBRANCH  48  62
BRANCH  49  73
ATOM     73  C   UNL     1       0.622  12.453  -8.910  1.00  0.00     0.064 A 
ATOM     74  C   UNL     1       1.418  13.571  -9.195  1.00  0.00     0.173 A 
ATOM     75  C   UNL     1       1.154  11.186  -9.191  1.00  0.00     0.173 A 
ATOM     76  F   UNL     1       0.946  14.805  -8.962  1.00  0.00    -0.203 F 
ATOM     77  C   UNL     1       2.686  13.429  -9.755  1.00  0.00     0.198 A 
ATOM     78  C   UNL     1       2.434  11.044  -9.723  1.00  0.00     0.198 A 
ATOM     79  F   UNL     1       0.436  10.083  -8.932  1.00  0.00    -0.203 F 
ATOM     80  F   UNL     1       3.407  14.517 -10.058  1.00  0.00    -0.200 F 
ATOM     81  C   UNL     1       3.196  12.166 -10.012  1.00  0.00     0.200 A 
ATOM     82  F   UNL     1       2.930   9.820  -9.953  1.00  0.00    -0.200 F 
ATOM     83  F   UNL     1       4.418  12.029 -10.542  1.00  0.00    -0.200 F 
ENDBRANCH  49  73
BRANCH  61  84
ATOM     84  C   UNL     1      -5.338  15.189 -11.280  1.00  0.00     0.064 A 
ATOM     85  C   UNL     1      -5.439  14.472 -12.481  1.00  0.00     0.173 A 
ATOM     86  C   UNL     1      -5.631  16.562 -11.309  1.00  0.00     0.173 A 
ATOM     87  F   UNL     1      -5.154  13.161 -12.511  1.00  0.00    -0.203 F 
ATOM     88  C   UNL     1      -5.791  15.110 -13.668  1.00  0.00     0.198 A 
ATOM     89  C   UNL     1      -6.017  17.188 -12.491  1.00  0.00     0.198 A 
ATOM     90  F   UNL     1      -5.558  17.294 -10.188  1.00  0.00    -0.203 F 
ATOM     91  F   UNL     1      -5.828  14.415 -14.814  1.00  0.00    -0.200 F 
ATOM     92  C   UNL     1      -6.088  16.464 -13.671  1.00  0.00     0.200 A 
ATOM     93  F   UNL     1      -6.320  18.494 -12.487  1.00  0.00    -0.200 F 
ATOM     94  F   UNL     1      -6.435  17.074 -14.813  1.00  0.00    -0.200 F 
ENDBRANCH  61  84
ENDBRANCH  35  36
ENDBRANCH  27  30
ENDBRANCH  25  26
ENDBRANCH  24  25
ENDBRANCH  23  24
ENDBRANCH   1  23
TORSDOF 16
