REMARK SMILES COC(=O)c1c(NC(=O)c2ccncc2C(=O)NCCCCCCNC(=O)c2ccc(-c3c4nc(c(-c5c(F)c(F)c(F)c(F)c5F)c5ccc([nH]5)c(-c5c(F)c(F)c(F)c(F)c5F)c5nc(c(-c6c(F)c(F)c(F)c(F)c6F)c6ccc3[nH]6)C=C5)C=C4)cc2)sc2c1CCCCCC2
REMARK SMILES IDX 20 1 19 2 18 3 16 4 17 5 15 7 10 8 11 9 12 10 14 11 13 12
REMARK SMILES IDX 8 13 7 14 9 16 6 17 5 18 93 19 91 20 92 21 3 22 4 23 2 24
REMARK SMILES IDX 1 25 94 26 95 27 96 28 99 30 98 31 97 32 21 34 22 35 23 36
REMARK SMILES IDX 24 37 25 38 26 39 27 41 28 42 29 43 90 44 30 45 89 46 31 47
REMARK SMILES IDX 32 48 33 49 83 50 34 51 88 52 82 53 84 54 35 55 87 56 81 57
REMARK SMILES IDX 80 58 36 60 68 61 48 62 67 63 49 64 52 65 66 66 85 67 50 68
REMARK SMILES IDX 51 69 65 71 86 72 53 73 37 74 38 75 46 76 39 77 40 78 44 79
REMARK SMILES IDX 47 80 41 81 42 82 45 83 43 84 69 85 70 86 78 87 71 88 72 89
REMARK SMILES IDX 76 90 79 91 73 92 74 93 77 94 75 95 54 96 55 97 63 98 56 99
REMARK SMILES IDX 57 100 61 101 64 102 58 103 59 104 62 105 60 106
REMARK H PARENT 18 6 7 15 25 40 84 59 52 70
REMARK Flexibility Score: 100.00
ROOT
ATOM      1  C   UNL     1      -3.397   1.107  -4.487  1.00  0.00     0.021 C 
ENDROOT
BRANCH   1   2
ATOM      2  C   UNL     1      -2.888   0.731  -3.106  1.00  0.00     0.116 C 
BRANCH   2   3
ATOM      3  N   UNL     1      -2.145  -0.494  -3.034  1.00  0.00    -0.352 N 
ATOM      4  C   UNL     1      -1.010  -0.768  -2.325  1.00  0.00     0.253 C 
ATOM      5  O   UNL     1      -0.462  -1.858  -2.498  1.00  0.00    -0.269 OA
ATOM      6  H   UNL     1      -2.502  -1.239  -3.569  1.00  0.00     0.163 HD
BRANCH   4   7
ATOM      7  C   UNL     1      -0.379   0.128  -1.334  1.00  0.00     0.070 A 
ATOM      8  C   UNL     1      -1.207   1.120  -0.071  1.00  0.00     0.056 A 
ATOM      9  C   UNL     1      -0.302   1.814   1.329  1.00  0.00     0.035 A 
ATOM     10  C   UNL     1       1.439   1.464   1.458  1.00  0.00     0.112 A 
ATOM     11  C   UNL     1       1.362  -0.184  -1.110  1.00  0.00     0.125 A 
ATOM     12  N   UNL     1       2.274   0.479   0.265  1.00  0.00    -0.264 NA
BRANCH   8  13
ATOM     13  C   UNL     1      -2.360   1.910  -0.396  1.00  0.00     0.257 C 
ATOM     14  N   UNL     1      -2.146   3.117  -1.000  1.00  0.00    -0.313 N 
ATOM     15  H   UNL     1      -2.970   3.594  -1.251  1.00  0.00     0.171 HD
ATOM     16  O   UNL     1      -3.476   1.503  -0.102  1.00  0.00    -0.269 OA
BRANCH  14  17
ATOM     17  C   UNL     1      -0.981   3.790  -1.324  1.00  0.00     0.110 A 
ATOM     18  C   UNL     1       0.401   3.638  -1.309  1.00  0.00     0.098 A 
ATOM     19  C   UNL     1       1.035   4.966  -1.572  1.00  0.00    -0.017 A 
ATOM     20  S   UNL     1      -1.460   5.279  -2.008  1.00  0.00    -0.122 S 
ATOM     21  C   UNL     1       0.124   5.910  -2.033  1.00  0.00     0.011 A 
BRANCH  18  22
ATOM     22  C   UNL     1       1.232   2.416  -1.086  1.00  0.00     0.341 C 
ATOM     23  O   UNL     1       2.342   2.335  -1.611  1.00  0.00    -0.246 OA
BRANCH  22  24
ATOM     24  O   UNL     1       0.661   1.409  -0.293  1.00  0.00    -0.465 OA
ATOM     25  C   UNL     1       0.336  -0.285   0.770  1.00  0.00     0.282 C 
ENDBRANCH  22  24
ENDBRANCH  18  22
BRANCH  19  26
ATOM     26  C   UNL     1       2.503   5.250  -1.335  1.00  0.00     0.037 C 
BRANCH  26  27
ATOM     27  C   UNL     1       3.365   5.326  -2.588  1.00  0.00     0.005 C 
BRANCH  27  28
ATOM     28  C   UNL     1       2.914   6.306  -3.668  1.00  0.00     0.000 CG0
ATOM     29  G   UNL     1       2.725   7.756  -3.233  1.00  0.00     0.000 G0
ENDBRANCH  27  28
ENDBRANCH  26  27
ENDBRANCH  19  26
BRANCH  21  30
ATOM     30  C   UNL     1       0.258   7.329  -2.550  1.00  0.00     0.047 C 
BRANCH  30  31
ATOM     31  C   UNL     1       1.563   8.072  -2.286  1.00  0.00     0.006 C 
BRANCH  31  32
ATOM     32  C   UNL     1       2.725   7.756  -3.233  1.00  0.00     0.000 CG0
ATOM     33  G   UNL     1       2.914   6.306  -3.668  1.00  0.00     0.000 G0
ENDBRANCH  31  32
ENDBRANCH  30  31
ENDBRANCH  21  30
ENDBRANCH  14  17
ENDBRANCH   8  13
ENDBRANCH   4   7
ENDBRANCH   2   3
ENDBRANCH   1   2
BRANCH   1  34
ATOM     34  C   UNL     1      -4.540   0.263  -5.047  1.00  0.00     0.002 C 
BRANCH  34  35
ATOM     35  C   UNL     1      -5.761   0.017  -4.147  1.00  0.00     0.002 C 
BRANCH  35  36
ATOM     36  C   UNL     1      -6.433   1.219  -3.470  1.00  0.00     0.021 C 
BRANCH  36  37
ATOM     37  C   UNL     1      -6.880   2.331  -4.402  1.00  0.00     0.116 C 
BRANCH  37  38
ATOM     38  N   UNL     1      -7.841   1.905  -5.425  1.00  0.00    -0.352 N 
ATOM     39  C   UNL     1      -8.350   2.628  -6.493  1.00  0.00     0.251 C 
ATOM     40  H   UNL     1      -8.168   0.980  -5.343  1.00  0.00     0.163 HD
ATOM     41  O   UNL     1      -9.384   2.291  -7.056  1.00  0.00    -0.269 OA
BRANCH  39  42
ATOM     42  C   UNL     1      -7.614   3.819  -6.952  1.00  0.00     0.039 A 
ATOM     43  C   UNL     1      -8.243   4.977  -7.420  1.00  0.00     0.014 A 
ATOM     44  C   UNL     1      -6.233   3.758  -6.866  1.00  0.00     0.014 A 
ATOM     45  C   UNL     1      -7.452   6.082  -7.738  1.00  0.00     0.010 A 
ATOM     46  C   UNL     1      -5.509   4.909  -6.885  1.00  0.00     0.010 A 
ATOM     47  C   UNL     1      -6.079   6.031  -7.458  1.00  0.00    -0.014 A 
BRANCH  47  48
ATOM     48  C   UNL     1      -5.173   7.136  -7.718  1.00  0.00     0.031 A 
ATOM     49  C   UNL     1      -5.509   8.393  -7.010  1.00  0.00     0.074 A 
ATOM     50  C   UNL     1      -3.982   6.940  -8.329  1.00  0.00     0.049 A 
ATOM     51  N   UNL     1      -5.860   9.521  -7.528  1.00  0.00    -0.248 NA
ATOM     52  C   UNL     1      -5.591   8.357  -5.541  1.00  0.00     0.031 C 
ATOM     53  C   UNL     1      -3.376   5.677  -8.781  1.00  0.00     0.029 A 
ATOM     54  N   UNL     1      -2.996   7.839  -8.581  1.00  0.00    -0.354 N 
ATOM     55  C   UNL     1      -6.016  10.398  -6.459  1.00  0.00     0.074 A 
ATOM     56  C   UNL     1      -6.034   9.586  -5.271  1.00  0.00     0.031 C 
ATOM     57  C   UNL     1      -2.063   5.863  -9.034  1.00  0.00     0.029 A 
ATOM     58  C   UNL     1      -1.773   7.278  -8.934  1.00  0.00     0.049 A 
ATOM     59  H   UNL     1      -3.136   8.812  -8.519  1.00  0.00     0.167 HD
ATOM     60  C   UNL     1      -5.853  11.739  -6.631  1.00  0.00     0.037 A 
ATOM     61  C   UNL     1      -0.603   7.941  -9.102  1.00  0.00     0.037 A 
ATOM     62  C   UNL     1      -5.929  12.091  -8.030  1.00  0.00     0.049 A 
ATOM     63  C   UNL     1      -0.950   9.370  -9.316  1.00  0.00     0.074 A 
ATOM     64  C   UNL     1      -6.893  11.954  -9.011  1.00  0.00     0.029 A 
ATOM     65  N   UNL     1      -4.753  12.320  -8.703  1.00  0.00    -0.354 N 
ATOM     66  N   UNL     1      -1.589   9.808 -10.366  1.00  0.00    -0.248 NA
ATOM     67  C   UNL     1      -1.018  10.226  -8.141  1.00  0.00     0.031 C 
ATOM     68  C   UNL     1      -6.170  11.602 -10.191  1.00  0.00     0.029 A 
ATOM     69  C   UNL     1      -4.810  11.618  -9.881  1.00  0.00     0.049 A 
ATOM     70  H   UNL     1      -4.007  12.884  -8.397  1.00  0.00     0.167 HD
ATOM     71  C   UNL     1      -2.474  10.756  -9.874  1.00  0.00     0.074 A 
ATOM     72  C   UNL     1      -2.023  11.026  -8.510  1.00  0.00     0.031 C 
ATOM     73  C   UNL     1      -3.658  11.011 -10.507  1.00  0.00     0.037 A 
BRANCH  60  74
ATOM     74  C   UNL     1      -5.241  12.663  -5.602  1.00  0.00     0.064 A 
ATOM     75  C   UNL     1      -5.199  14.046  -5.873  1.00  0.00     0.173 A 
ATOM     76  C   UNL     1      -4.434  12.235  -4.524  1.00  0.00     0.173 A 
ATOM     77  F   UNL     1      -5.920  14.568  -6.876  1.00  0.00    -0.203 F 
ATOM     78  C   UNL     1      -4.339  14.909  -5.188  1.00  0.00     0.198 A 
ATOM     79  C   UNL     1      -3.619  13.109  -3.807  1.00  0.00     0.198 A 
ATOM     80  F   UNL     1      -4.306  10.948  -4.186  1.00  0.00    -0.203 F 
ATOM     81  F   UNL     1      -4.232  16.186  -5.577  1.00  0.00    -0.200 F 
ATOM     82  C   UNL     1      -3.542  14.437  -4.162  1.00  0.00     0.200 A 
ATOM     83  F   UNL     1      -2.844  12.627  -2.825  1.00  0.00    -0.200 F 
ATOM     84  F   UNL     1      -2.666  15.245  -3.551  1.00  0.00    -0.200 F 
ENDBRANCH  60  74
BRANCH  61  85
ATOM     85  C   UNL     1       0.777   7.477  -8.818  1.00  0.00     0.064 A 
ATOM     86  C   UNL     1       1.893   8.200  -9.271  1.00  0.00     0.173 A 
ATOM     87  C   UNL     1       1.036   6.462  -7.875  1.00  0.00     0.173 A 
ATOM     88  F   UNL     1       1.735   9.207 -10.142  1.00  0.00    -0.203 F 
ATOM     89  C   UNL     1       3.181   7.949  -8.783  1.00  0.00     0.198 A 
ATOM     90  C   UNL     1       2.324   6.194  -7.412  1.00  0.00     0.198 A 
ATOM     91  F   UNL     1       0.035   5.772  -7.309  1.00  0.00    -0.203 F 
ATOM     92  F   UNL     1       4.208   8.711  -9.184  1.00  0.00    -0.200 F 
ATOM     93  C   UNL     1       3.393   6.954  -7.845  1.00  0.00     0.200 A 
ATOM     94  F   UNL     1       2.511   5.231  -6.499  1.00  0.00    -0.200 F 
ATOM     95  F   UNL     1       4.614   6.755  -7.328  1.00  0.00    -0.200 F 
ENDBRANCH  61  85
BRANCH  73  96
ATOM     96  C   UNL     1      -3.865  10.411 -11.872  1.00  0.00     0.064 A 
ATOM     97  C   UNL     1      -3.940   9.029 -12.122  1.00  0.00     0.173 A 
ATOM     98  C   UNL     1      -4.147  11.269 -12.941  1.00  0.00     0.173 A 
ATOM     99  F   UNL     1      -3.783   8.141 -11.136  1.00  0.00    -0.203 F 
ATOM    100  C   UNL     1      -4.240   8.533 -13.390  1.00  0.00     0.198 A 
ATOM    101  C   UNL     1      -4.482  10.773 -14.199  1.00  0.00     0.198 A 
ATOM    102  F   UNL     1      -4.148  12.598 -12.752  1.00  0.00    -0.203 F 
ATOM    103  F   UNL     1      -4.295   7.209 -13.600  1.00  0.00    -0.200 F 
ATOM    104  C   UNL     1      -4.518   9.407 -14.426  1.00  0.00     0.200 A 
ATOM    105  F   UNL     1      -4.798  11.623 -15.186  1.00  0.00    -0.200 F 
ATOM    106  F   UNL     1      -4.848   8.934 -15.636  1.00  0.00    -0.200 F 
ENDBRANCH  73  96
ENDBRANCH  47  48
ENDBRANCH  39  42
ENDBRANCH  37  38
ENDBRANCH  36  37
ENDBRANCH  35  36
ENDBRANCH  34  35
ENDBRANCH   1  34
TORSDOF 17
