REMARK SMILES COc1ccc(C(=O)N(C)C)cc1NC(=O)[C@H]1[C@@H](C(=O)NCCCCCCNC(=O)c2ccc(-c3c4nc(c(-c5c(F)c(F)c(F)c(F)c5F)c5ccc([nH]5)c(-c5c(F)c(F)c(F)c(F)c5F)c5nc(c(-c6c(F)c(F)c(F)c(F)c6F)c6ccc3[nH]6)C=C5)C=C4)cc2)[C@H]2C=C[C@@H]1C2
REMARK SMILES IDX 24 1 23 2 22 3 21 4 19 5 20 6 18 8 17 9 97 10 94 11 96 12
REMARK SMILES IDX 98 13 95 14 15 15 14 16 16 18 13 19 3 20 4 21 5 22 12 23
REMARK SMILES IDX 6 24 2 25 1 26 7 27 8 28 9 29 10 30 11 31 25 32 26 33 27 34
REMARK SMILES IDX 28 35 29 36 30 38 31 39 32 40 93 41 33 42 92 43 34 44 35 45
REMARK SMILES IDX 36 46 86 47 37 48 91 49 85 50 87 51 38 52 90 53 84 54 83 55
REMARK SMILES IDX 39 57 71 58 51 59 70 60 52 61 55 62 69 63 88 64 53 65 54 66
REMARK SMILES IDX 68 68 89 69 56 70 40 71 41 72 49 73 42 74 43 75 47 76 50 77
REMARK SMILES IDX 44 78 45 79 48 80 46 81 72 82 73 83 81 84 74 85 75 86 79 87
REMARK SMILES IDX 82 88 76 89 77 90 80 91 78 92 57 93 58 94 66 95 59 96 60 97
REMARK SMILES IDX 64 98 67 99 61 100 62 101 65 102 63 103
REMARK H PARENT 21 7 14 17 28 37 87 56 55 67
REMARK Flexibility Score: inf
ROOT
ATOM      1  C   UNL     1      -1.013  -1.859  -4.390  1.00  0.00     0.002 C 
ENDROOT
BRANCH   1   2
ATOM      2  C   UNL     1      -0.033  -1.836  -3.213  1.00  0.00     0.021 C 
BRANCH   2   3
ATOM      3  C   UNL     1       0.687  -3.157  -2.967  1.00  0.00     0.116 C 
BRANCH   3   4
ATOM      4  N   UNL     1       1.383  -3.612  -4.155  1.00  0.00    -0.356 N 
ATOM      5  C   UNL     1       2.650  -4.082  -4.330  1.00  0.00     0.224 C 
ATOM      6  O   UNL     1       2.965  -4.477  -5.451  1.00  0.00    -0.275 OA
ATOM      7  H   UNL     1       0.847  -3.575  -4.980  1.00  0.00     0.163 HD
BRANCH   5   8
ATOM      8  C   UNL     1       3.553  -4.186  -3.120  1.00  0.00     0.098 C 
ATOM      9  C   UNL     1       4.720  -3.162  -2.891  1.00  0.00     0.099 C 
ATOM     10  C   UNL     1       5.912  -4.128  -2.611  1.00  0.00     0.025 C 
ATOM     11  C   UNL     1       4.256  -5.564  -3.039  1.00  0.00     0.025 C 
ATOM     12  C   UNL     1       6.272  -4.858  -3.880  1.00  0.00    -0.027 C 
ATOM     13  C   UNL     1       5.212  -5.285  -1.881  1.00  0.00     0.017 C 
ATOM     14  C   UNL     1       5.279  -5.720  -4.133  1.00  0.00    -0.027 C 
BRANCH   9  15
ATOM     15  C   UNL     1       5.001  -2.078  -3.932  1.00  0.00     0.229 C 
ATOM     16  N   UNL     1       6.079  -1.236  -3.825  1.00  0.00    -0.323 N 
ATOM     17  H   UNL     1       6.243  -0.717  -4.646  1.00  0.00     0.170 HD
ATOM     18  O   UNL     1       4.249  -1.880  -4.887  1.00  0.00    -0.274 OA
BRANCH  16  19
ATOM     19  C   UNL     1       7.004  -0.951  -2.800  1.00  0.00     0.084 A 
ATOM     20  C   UNL     1       8.221  -0.351  -3.143  1.00  0.00     0.142 A 
ATOM     21  C   UNL     1       9.243  -0.259  -2.204  1.00  0.00     0.049 A 
ATOM     22  C   UNL     1       9.029  -0.727  -0.902  1.00  0.00     0.018 A 
ATOM     23  C   UNL     1       6.762  -1.234  -1.450  1.00  0.00     0.044 A 
ATOM     24  C   UNL     1       7.774  -1.221  -0.489  1.00  0.00     0.042 A 
BRANCH  20  25
ATOM     25  O   UNL     1       8.486   0.082  -4.417  1.00  0.00    -0.495 OA
ATOM     26  C   UNL     1       7.849   1.338  -4.681  1.00  0.00     0.278 C 
ENDBRANCH  20  25
BRANCH  24  27
ATOM     27  C   UNL     1       7.676  -1.708   0.936  1.00  0.00     0.253 C 
ATOM     28  O   UNL     1       8.638  -1.409   1.657  1.00  0.00    -0.269 OA
ATOM     29  N   UNL     1       6.660  -2.514   1.479  1.00  0.00    -0.345 N 
ATOM     30  C   UNL     1       5.375  -2.940   0.964  1.00  0.00     0.146 C 
ATOM     31  C   UNL     1       6.963  -3.086   2.787  1.00  0.00     0.146 C 
ENDBRANCH  24  27
ENDBRANCH  16  19
ENDBRANCH   9  15
ENDBRANCH   5   8
ENDBRANCH   3   4
ENDBRANCH   2   3
ENDBRANCH   1   2
BRANCH   1  32
ATOM     32  C   UNL     1      -2.067  -2.968  -4.329  1.00  0.00     0.002 C 
BRANCH  32  33
ATOM     33  C   UNL     1      -2.948  -2.945  -3.079  1.00  0.00     0.021 C 
BRANCH  33  34
ATOM     34  C   UNL     1      -3.680  -1.629  -2.853  1.00  0.00     0.116 C 
BRANCH  34  35
ATOM     35  N   UNL     1      -4.581  -1.307  -3.948  1.00  0.00    -0.352 N 
ATOM     36  C   UNL     1      -5.910  -0.968  -3.907  1.00  0.00     0.251 C 
ATOM     37  H   UNL     1      -4.180  -1.336  -4.847  1.00  0.00     0.163 HD
ATOM     38  O   UNL     1      -6.571  -0.916  -4.936  1.00  0.00    -0.269 OA
BRANCH  36  39
ATOM     39  C   UNL     1      -6.546  -0.687  -2.604  1.00  0.00     0.039 A 
ATOM     40  C   UNL     1      -7.796  -1.245  -2.330  1.00  0.00     0.014 A 
ATOM     41  C   UNL     1      -5.908   0.118  -1.656  1.00  0.00     0.014 A 
ATOM     42  C   UNL     1      -8.381  -1.042  -1.079  1.00  0.00     0.010 A 
ATOM     43  C   UNL     1      -6.454   0.252  -0.384  1.00  0.00     0.010 A 
ATOM     44  C   UNL     1      -7.698  -0.321  -0.085  1.00  0.00    -0.014 A 
BRANCH  44  45
ATOM     45  C   UNL     1      -8.273  -0.157   1.274  1.00  0.00     0.031 A 
ATOM     46  C   UNL     1      -8.623   1.212   1.786  1.00  0.00     0.074 A 
ATOM     47  C   UNL     1      -8.423  -1.236   2.067  1.00  0.00     0.049 A 
ATOM     48  N   UNL     1      -9.079   1.565   2.961  1.00  0.00    -0.248 NA
ATOM     49  C   UNL     1      -8.409   2.338   0.863  1.00  0.00     0.031 C 
ATOM     50  C   UNL     1      -8.077  -2.610   1.700  1.00  0.00     0.029 A 
ATOM     51  N   UNL     1      -8.899  -1.345   3.349  1.00  0.00    -0.354 N 
ATOM     52  C   UNL     1      -9.194   2.948   2.921  1.00  0.00     0.074 A 
ATOM     53  C   UNL     1      -8.704   3.377   1.630  1.00  0.00     0.031 C 
ATOM     54  C   UNL     1      -8.376  -3.427   2.721  1.00  0.00     0.029 A 
ATOM     55  C   UNL     1      -8.893  -2.632   3.831  1.00  0.00     0.049 A 
ATOM     56  H   UNL     1      -9.214  -0.575   3.875  1.00  0.00     0.167 HD
ATOM     57  C   UNL     1      -9.688   3.782   3.868  1.00  0.00     0.037 A 
ATOM     58  C   UNL     1      -9.256  -3.114   5.035  1.00  0.00     0.037 A 
ATOM     59  C   UNL     1     -10.191   3.347   5.145  1.00  0.00     0.049 A 
ATOM     60  C   UNL     1      -9.780  -2.162   6.076  1.00  0.00     0.074 A 
ATOM     61  C   UNL     1     -10.763   4.106   6.150  1.00  0.00     0.029 A 
ATOM     62  N   UNL     1     -10.174   2.035   5.595  1.00  0.00    -0.354 N 
ATOM     63  N   UNL     1      -9.952  -0.864   6.002  1.00  0.00    -0.248 NA
ATOM     64  C   UNL     1     -10.168  -2.744   7.368  1.00  0.00     0.031 C 
ATOM     65  C   UNL     1     -11.038   3.263   7.231  1.00  0.00     0.029 A 
ATOM     66  C   UNL     1     -10.700   1.968   6.876  1.00  0.00     0.049 A 
ATOM     67  H   UNL     1      -9.839   1.265   5.080  1.00  0.00     0.167 HD
ATOM     68  C   UNL     1     -10.496  -0.480   7.221  1.00  0.00     0.074 A 
ATOM     69  C   UNL     1     -10.641  -1.685   8.010  1.00  0.00     0.031 C 
ATOM     70  C   UNL     1     -10.845   0.759   7.647  1.00  0.00     0.037 A 
BRANCH  57  71
ATOM     71  C   UNL     1      -9.707   5.252   3.558  1.00  0.00     0.064 A 
ATOM     72  C   UNL     1     -10.556   5.789   2.577  1.00  0.00     0.173 A 
ATOM     73  C   UNL     1      -8.894   6.142   4.277  1.00  0.00     0.173 A 
ATOM     74  F   UNL     1     -11.347   4.983   1.853  1.00  0.00    -0.203 F 
ATOM     75  C   UNL     1     -10.566   7.155   2.306  1.00  0.00     0.198 A 
ATOM     76  C   UNL     1      -8.933   7.511   4.027  1.00  0.00     0.198 A 
ATOM     77  F   UNL     1      -8.068   5.684   5.230  1.00  0.00    -0.203 F 
ATOM     78  F   UNL     1     -11.345   7.637   1.328  1.00  0.00    -0.200 F 
ATOM     79  C   UNL     1      -9.761   8.016   3.037  1.00  0.00     0.200 A 
ATOM     80  F   UNL     1      -8.165   8.343   4.745  1.00  0.00    -0.200 F 
ATOM     81  F   UNL     1      -9.778   9.331   2.781  1.00  0.00    -0.200 F 
ENDBRANCH  57  71
BRANCH  58  82
ATOM     82  C   UNL     1      -9.154  -4.571   5.316  1.00  0.00     0.064 A 
ATOM     83  C   UNL     1     -10.303  -5.351   5.501  1.00  0.00     0.173 A 
ATOM     84  C   UNL     1      -7.909  -5.210   5.416  1.00  0.00     0.173 A 
ATOM     85  F   UNL     1     -11.516  -4.783   5.434  1.00  0.00    -0.203 F 
ATOM     86  C   UNL     1     -10.212  -6.709   5.801  1.00  0.00     0.198 A 
ATOM     87  C   UNL     1      -7.820  -6.574   5.683  1.00  0.00     0.198 A 
ATOM     88  F   UNL     1      -6.778  -4.511   5.241  1.00  0.00    -0.203 F 
ATOM     89  F   UNL     1     -11.326  -7.419   6.026  1.00  0.00    -0.200 F 
ATOM     90  C   UNL     1      -8.970  -7.321   5.886  1.00  0.00     0.200 A 
ATOM     91  F   UNL     1      -6.618  -7.164   5.748  1.00  0.00    -0.200 F 
ATOM     92  F   UNL     1      -8.883  -8.627   6.172  1.00  0.00    -0.200 F 
ENDBRANCH  58  82
BRANCH  70  93
ATOM     93  C   UNL     1     -11.456   0.871   9.015  1.00  0.00     0.064 A 
ATOM     94  C   UNL     1     -10.704   0.667  10.181  1.00  0.00     0.173 A 
ATOM     95  C   UNL     1     -12.806   1.227   9.159  1.00  0.00     0.173 A 
ATOM     96  F   UNL     1      -9.413   0.311  10.098  1.00  0.00    -0.203 F 
ATOM     97  C   UNL     1     -11.288   0.785  11.440  1.00  0.00     0.198 A 
ATOM     98  C   UNL     1     -13.378   1.379  10.419  1.00  0.00     0.198 A 
ATOM     99  F   UNL     1     -13.569   1.442   8.077  1.00  0.00    -0.203 F 
ATOM    100  F   UNL     1     -10.563   0.532  12.538  1.00  0.00    -0.200 F 
ATOM    101  C   UNL     1     -12.621   1.149  11.558  1.00  0.00     0.200 A 
ATOM    102  F   UNL     1     -14.661   1.748  10.531  1.00  0.00    -0.200 F 
ATOM    103  F   UNL     1     -13.178   1.272  12.770  1.00  0.00    -0.200 F 
ENDBRANCH  70  93
ENDBRANCH  44  45
ENDBRANCH  36  39
ENDBRANCH  34  35
ENDBRANCH  33  34
ENDBRANCH  32  33
ENDBRANCH   1  32
TORSDOF 17
