REMARK SMILES Cc1cc(C)cc(N(C)S(=O)(=O)c2ccc(F)c(C(=O)NCCCCCCNC(=O)c3ccc(-c4c5nc(c(-c6c(F)c(F)c(F)c(F)c6F)c6ccc([nH]6)c(-c6c(F)c(F)c(F)c(F)c6F)c6nc(c(-c7c(F)c(F)c(F)c(F)c7F)c7ccc4[nH]7)C=C6)C=C5)cc3)c2)c1
REMARK SMILES IDX 24 1 23 2 22 3 21 4 19 5 20 6 18 8 13 9 14 10 94 11 15 12
REMARK SMILES IDX 16 13 17 14 10 15 11 16 12 17 8 18 9 19 7 20 1 21 2 22 3 23
REMARK SMILES IDX 95 24 4 25 5 26 6 27 25 28 26 29 27 30 28 31 29 32 30 34
REMARK SMILES IDX 31 35 32 36 93 37 33 38 92 39 34 40 35 41 36 42 86 43 37 44
REMARK SMILES IDX 91 45 85 46 87 47 38 48 90 49 84 50 83 51 39 53 71 54 51 55
REMARK SMILES IDX 70 56 52 57 55 58 69 59 88 60 53 61 54 62 68 64 89 65 56 66
REMARK SMILES IDX 40 67 41 68 49 69 42 70 43 71 47 72 50 73 44 74 45 75 48 76
REMARK SMILES IDX 46 77 72 78 73 79 81 80 74 81 75 82 79 83 82 84 76 85 77 86
REMARK SMILES IDX 80 87 78 88 57 89 58 90 66 91 59 92 60 93 64 94 67 95 61 96
REMARK SMILES IDX 62 97 65 98 63 99
REMARK H PARENT 21 7 28 33 87 52 55 63
REMARK Flexibility Score: inf
ROOT
ATOM      1  C   UNL     1      -2.863 -12.307   1.124  1.00  0.00     0.002 C 
ENDROOT
BRANCH   1   2
ATOM      2  C   UNL     1      -1.557 -11.588   1.472  1.00  0.00     0.021 C 
BRANCH   2   3
ATOM      3  C   UNL     1      -0.895 -10.799   0.350  1.00  0.00     0.116 C 
BRANCH   3   4
ATOM      4  N   UNL     1      -1.706  -9.704  -0.126  1.00  0.00    -0.352 N 
ATOM      5  C   UNL     1      -1.381  -8.412  -0.426  1.00  0.00     0.254 C 
ATOM      6  O   UNL     1      -2.289  -7.671  -0.810  1.00  0.00    -0.269 OA
ATOM      7  H   UNL     1      -2.656  -9.927  -0.257  1.00  0.00     0.163 HD
BRANCH   5   8
ATOM      8  C   UNL     1      -0.026  -7.826  -0.251  1.00  0.00     0.076 A 
ATOM      9  C   UNL     1       1.184  -5.731   0.093  1.00  0.00     0.089 A 
ATOM     10  C   UNL     1       2.394  -6.434  -0.029  1.00  0.00     0.025 A 
ATOM     11  C   UNL     1      -0.005  -6.449   0.050  1.00  0.00     0.039 A 
ATOM     12  C   UNL     1       2.392  -7.803  -0.308  1.00  0.00     0.041 A 
ATOM     13  C   UNL     1       1.183  -8.476  -0.481  1.00  0.00     0.136 A 
ATOM     14  F   UNL     1       1.237  -9.736  -0.931  1.00  0.00    -0.206 F 
BRANCH   9  15
ATOM     15  S   UNL     1       1.324  -3.943   0.034  1.00  0.00     0.264 S 
ATOM     16  O   UNL     1       1.672  -3.671  -1.349  1.00  0.00    -0.201 OA
ATOM     17  O   UNL     1       2.260  -3.627   1.099  1.00  0.00    -0.201 OA
BRANCH  15  18
ATOM     18  N   UNL     1      -0.146  -3.080   0.373  1.00  0.00    -0.269 N 
ATOM     19  C   UNL     1      -1.392  -3.684  -0.153  1.00  0.00     0.164 C 
BRANCH  18  20
ATOM     20  C   UNL     1      -0.052  -1.598   0.207  1.00  0.00     0.052 A 
ATOM     21  C   UNL     1       2.553   1.210  -0.004  1.00  0.00     0.044 C 
ATOM     22  C   UNL     1       1.230   0.500   0.033  1.00  0.00    -0.049 A 
ATOM     23  C   UNL     1       0.048   1.238  -0.029  1.00  0.00     0.007 A 
ATOM     24  C   UNL     1       1.167  -0.901   0.157  1.00  0.00     0.030 A 
ATOM     25  C   UNL     1      -1.183   0.593   0.064  1.00  0.00    -0.049 A 
ATOM     26  C   UNL     1      -2.455   1.388   0.010  1.00  0.00     0.044 C 
ATOM     27  C   UNL     1      -1.215  -0.803   0.229  1.00  0.00     0.030 A 
ENDBRANCH  18  20
ENDBRANCH  15  18
ENDBRANCH   9  15
ENDBRANCH   5   8
ENDBRANCH   3   4
ENDBRANCH   2   3
ENDBRANCH   1   2
BRANCH   1  28
ATOM     28  C   UNL     1      -2.844 -13.199  -0.119  1.00  0.00     0.002 C 
BRANCH  28  29
ATOM     29  C   UNL     1      -1.685 -14.192  -0.220  1.00  0.00     0.021 C 
BRANCH  29  30
ATOM     30  C   UNL     1      -1.488 -15.092   0.993  1.00  0.00     0.116 C 
BRANCH  30  31
ATOM     31  N   UNL     1      -2.634 -15.947   1.244  1.00  0.00    -0.352 N 
ATOM     32  C   UNL     1      -2.685 -17.311   1.384  1.00  0.00     0.251 C 
ATOM     33  H   UNL     1      -3.498 -15.481   1.327  1.00  0.00     0.163 HD
ATOM     34  O   UNL     1      -3.764 -17.890   1.418  1.00  0.00    -0.269 OA
BRANCH  32  35
ATOM     35  C   UNL     1      -1.429 -18.088   1.471  1.00  0.00     0.039 A 
ATOM     36  C   UNL     1      -1.312 -19.262   0.724  1.00  0.00     0.014 A 
ATOM     37  C   UNL     1      -0.376 -17.666   2.288  1.00  0.00     0.014 A 
ATOM     38  C   UNL     1      -0.118 -19.984   0.754  1.00  0.00     0.010 A 
ATOM     39  C   UNL     1       0.840 -18.343   2.256  1.00  0.00     0.010 A 
ATOM     40  C   UNL     1       0.979 -19.513   1.495  1.00  0.00    -0.014 A 
BRANCH  40  41
ATOM     41  C   UNL     1       2.277 -20.232   1.485  1.00  0.00     0.031 A 
ATOM     42  C   UNL     1       2.817 -20.837   2.750  1.00  0.00     0.074 A 
ATOM     43  C   UNL     1       2.994 -20.294   0.347  1.00  0.00     0.049 A 
ATOM     44  N   UNL     1       3.954 -21.456   2.951  1.00  0.00    -0.248 NA
ATOM     45  C   UNL     1       1.984 -20.709   3.955  1.00  0.00     0.031 C 
ATOM     46  C   UNL     1       2.592 -19.710  -0.933  1.00  0.00     0.029 A 
ATOM     47  N   UNL     1       4.211 -20.871   0.082  1.00  0.00    -0.354 N 
ATOM     48  C   UNL     1       3.973 -21.780   4.300  1.00  0.00     0.074 A 
ATOM     49  C   UNL     1       2.766 -21.239   4.884  1.00  0.00     0.031 C 
ATOM     50  C   UNL     1       3.528 -19.986  -1.854  1.00  0.00     0.029 A 
ATOM     51  C   UNL     1       4.616 -20.727  -1.222  1.00  0.00     0.049 A 
ATOM     52  H   UNL     1       4.742 -21.344   0.763  1.00  0.00     0.167 HD
ATOM     53  C   UNL     1       4.903 -22.488   4.983  1.00  0.00     0.037 A 
ATOM     54  C   UNL     1       5.739 -21.142  -1.840  1.00  0.00     0.037 A 
ATOM     55  C   UNL     1       6.091 -23.043   4.390  1.00  0.00     0.049 A 
ATOM     56  C   UNL     1       6.768 -21.909  -1.056  1.00  0.00     0.074 A 
ATOM     57  C   UNL     1       7.065 -23.826   4.985  1.00  0.00     0.029 A 
ATOM     58  N   UNL     1       6.471 -22.870   3.066  1.00  0.00    -0.354 N 
ATOM     59  N   UNL     1       6.749 -22.261   0.206  1.00  0.00    -0.248 NA
ATOM     60  C   UNL     1       7.971 -22.340  -1.781  1.00  0.00     0.031 C 
ATOM     61  C   UNL     1       8.062 -24.076   4.039  1.00  0.00     0.029 A 
ATOM     62  C   UNL     1       7.680 -23.506   2.835  1.00  0.00     0.049 A 
ATOM     63  H   UNL     1       5.957 -22.370   2.392  1.00  0.00     0.167 HD
ATOM     64  C   UNL     1       7.921 -22.971   0.424  1.00  0.00     0.074 A 
ATOM     65  C   UNL     1       8.625 -23.011  -0.842  1.00  0.00     0.031 C 
ATOM     66  C   UNL     1       8.371 -23.539   1.570  1.00  0.00     0.037 A 
BRANCH  53  67
ATOM     67  C   UNL     1       4.674 -22.714   6.451  1.00  0.00     0.064 A 
ATOM     68  C   UNL     1       5.528 -22.135   7.402  1.00  0.00     0.173 A 
ATOM     69  C   UNL     1       3.647 -23.550   6.916  1.00  0.00     0.173 A 
ATOM     70  F   UNL     1       6.530 -21.332   7.013  1.00  0.00    -0.203 F 
ATOM     71  C   UNL     1       5.368 -22.393   8.761  1.00  0.00     0.198 A 
ATOM     72  C   UNL     1       3.469 -23.779   8.278  1.00  0.00     0.198 A 
ATOM     73  F   UNL     1       2.796 -24.120   6.050  1.00  0.00    -0.203 F 
ATOM     74  F   UNL     1       6.216 -21.855   9.648  1.00  0.00    -0.200 F 
ATOM     75  C   UNL     1       4.336 -23.209   9.198  1.00  0.00     0.200 A 
ATOM     76  F   UNL     1       2.454 -24.545   8.700  1.00  0.00    -0.200 F 
ATOM     77  F   UNL     1       4.173 -23.443  10.508  1.00  0.00    -0.200 F 
ENDBRANCH  53  67
BRANCH  54  78
ATOM     78  C   UNL     1       5.916 -20.865  -3.289  1.00  0.00     0.064 A 
ATOM     79  C   UNL     1       6.116 -19.561  -3.766  1.00  0.00     0.173 A 
ATOM     80  C   UNL     1       5.829 -21.898  -4.232  1.00  0.00     0.173 A 
ATOM     81  F   UNL     1       6.200 -18.537  -2.904  1.00  0.00    -0.203 F 
ATOM     82  C   UNL     1       6.193 -19.298  -5.132  1.00  0.00     0.198 A 
ATOM     83  C   UNL     1       5.933 -21.638  -5.596  1.00  0.00     0.198 A 
ATOM     84  F   UNL     1       5.657 -23.164  -3.823  1.00  0.00    -0.203 F 
ATOM     85  F   UNL     1       6.338 -18.038  -5.562  1.00  0.00    -0.200 F 
ATOM     86  C   UNL     1       6.103 -20.337  -6.046  1.00  0.00     0.200 A 
ATOM     87  F   UNL     1       5.867 -22.647  -6.476  1.00  0.00    -0.200 F 
ATOM     88  F   UNL     1       6.180 -20.084  -7.360  1.00  0.00    -0.200 F 
ENDBRANCH  54  78
BRANCH  66  89
ATOM     89  C   UNL     1       9.680 -24.274   1.521  1.00  0.00     0.064 A 
ATOM     90  C   UNL     1       9.716 -25.668   1.681  1.00  0.00     0.173 A 
ATOM     91  C   UNL     1      10.900 -23.593   1.411  1.00  0.00     0.173 A 
ATOM     92  F   UNL     1       8.577 -26.366   1.799  1.00  0.00    -0.203 F 
ATOM     93  C   UNL     1      10.928 -26.349   1.755  1.00  0.00     0.198 A 
ATOM     94  C   UNL     1      12.110 -24.282   1.454  1.00  0.00     0.198 A 
ATOM     95  F   UNL     1      10.919 -22.262   1.245  1.00  0.00    -0.203 F 
ATOM     96  F   UNL     1      10.938 -27.675   1.953  1.00  0.00    -0.200 F 
ATOM     97  C   UNL     1      12.123 -25.657   1.639  1.00  0.00     0.200 A 
ATOM     98  F   UNL     1      13.264 -23.614   1.318  1.00  0.00    -0.200 F 
ATOM     99  F   UNL     1      13.289 -26.314   1.705  1.00  0.00    -0.200 F 
ENDBRANCH  66  89
ENDBRANCH  40  41
ENDBRANCH  32  35
ENDBRANCH  30  31
ENDBRANCH  29  30
ENDBRANCH  28  29
ENDBRANCH   1  28
TORSDOF 16
