REMARK SMILES Cc1n[nH]c(C)c1S(=O)(=O)N[C@H](C(=O)NCCCCCCNC(=O)c1ccc(-c2c3nc(c(-c4c(F)c(F)c(F)c(F)c4F)c4ccc([nH]4)c(-c4c(F)c(F)c(F)c(F)c4F)c4nc(c(-c5c(F)c(F)c(F)c(F)c5F)c5ccc2[nH]5)C=C4)C=C3)cc1)C(C)C
REMARK SMILES IDX 18 1 17 2 16 3 15 4 13 5 14 6 12 8 11 9 8 11 9 12 10 13 7 14
REMARK SMILES IDX 1 15 2 16 3 17 4 18 5 19 6 21 88 22 89 23 90 24 19 25 20 26
REMARK SMILES IDX 21 27 22 28 23 29 24 31 25 32 26 33 87 34 27 35 86 36 28 37
REMARK SMILES IDX 29 38 30 39 80 40 31 41 85 42 79 43 81 44 32 45 84 46 78 47
REMARK SMILES IDX 77 48 33 50 65 51 45 52 64 53 46 54 49 55 63 56 82 57 47 58
REMARK SMILES IDX 48 59 62 61 83 62 50 63 34 64 35 65 43 66 36 67 37 68 41 69
REMARK SMILES IDX 44 70 38 71 39 72 42 73 40 74 66 75 67 76 75 77 68 78 69 79
REMARK SMILES IDX 73 80 76 81 70 82 71 83 74 84 72 85 51 86 52 87 60 88 53 89
REMARK SMILES IDX 54 90 58 91 61 92 55 93 56 94 59 95 57 96
REMARK H PARENT 15 7 11 10 4 20 22 30 81 49 49 60
REMARK Flexibility Score: inf
ROOT
ATOM      1  C   UNL     1       3.494  -3.205  -3.938  1.00  0.00     0.002 C 
ENDROOT
BRANCH   1   2
ATOM      2  C   UNL     1       4.061  -2.963  -2.534  1.00  0.00     0.021 C 
BRANCH   2   3
ATOM      3  C   UNL     1       3.096  -2.271  -1.565  1.00  0.00     0.116 C 
BRANCH   3   4
ATOM      4  N   UNL     1       2.226  -3.254  -0.951  1.00  0.00    -0.355 N 
ATOM      5  C   UNL     1       2.252  -3.791   0.301  1.00  0.00     0.238 C 
ATOM      6  O   UNL     1       1.605  -4.832   0.478  1.00  0.00    -0.273 OA
ATOM      7  H   UNL     1       1.501  -3.585  -1.529  1.00  0.00     0.163 HD
BRANCH   5   8
ATOM      8  C   UNL     1       2.989  -3.095   1.501  1.00  0.00     0.161 C 
BRANCH   8   9
ATOM      9  N   UNL     1       1.926  -3.277   2.529  1.00  0.00    -0.198 NA
ATOM     10  H   UNL     1       1.062  -3.000   2.062  1.00  0.00     0.142 HD
BRANCH   9  11
ATOM     11  S   UNL     1       1.842  -2.577   4.026  1.00  0.00     0.244 S 
ATOM     12  O   UNL     1       2.872  -3.137   4.858  1.00  0.00    -0.207 OA
ATOM     13  O   UNL     1       0.451  -2.636   4.428  1.00  0.00    -0.207 OA
BRANCH  11  14
ATOM     14  C   UNL     1       2.169  -0.897   3.921  1.00  0.00     0.125 A 
ATOM     15  C   UNL     1       3.697  -0.561   6.026  1.00  0.00     0.070 C 
ATOM     16  C   UNL     1       2.963  -0.133   4.807  1.00  0.00     0.079 A 
ATOM     17  N   UNL     1       3.009   1.152   4.424  1.00  0.00    -0.179 NA
ATOM     18  N   UNL     1       2.200   1.210   3.355  1.00  0.00    -0.281 N 
ATOM     19  C   UNL     1       1.671   0.002   2.995  1.00  0.00     0.052 A 
ATOM     20  H   UNL     1       2.006   2.047   2.874  1.00  0.00     0.190 HD
ATOM     21  C   UNL     1       0.742  -0.147   1.853  1.00  0.00     0.067 C 
ENDBRANCH  11  14
ENDBRANCH   9  11
ENDBRANCH   8   9
BRANCH   8  22
ATOM     22  C   UNL     1       4.331  -3.792   1.826  1.00  0.00     0.010 C 
ATOM     23  C   UNL     1       5.255  -3.852   0.604  1.00  0.00     0.009 C 
ATOM     24  C   UNL     1       5.124  -3.100   2.943  1.00  0.00     0.009 C 
ENDBRANCH   8  22
ENDBRANCH   5   8
ENDBRANCH   3   4
ENDBRANCH   2   3
ENDBRANCH   1   2
BRANCH   1  25
ATOM     25  C   UNL     1       3.382  -1.959  -4.821  1.00  0.00     0.002 C 
BRANCH  25  26
ATOM     26  C   UNL     1       4.657  -1.121  -4.949  1.00  0.00     0.021 C 
BRANCH  26  27
ATOM     27  C   UNL     1       5.910  -1.892  -5.361  1.00  0.00     0.116 C 
BRANCH  27  28
ATOM     28  N   UNL     1       5.810  -2.442  -6.703  1.00  0.00    -0.352 N 
ATOM     29  C   UNL     1       6.537  -2.142  -7.830  1.00  0.00     0.251 C 
ATOM     30  H   UNL     1       5.118  -3.133  -6.822  1.00  0.00     0.163 HD
ATOM     31  O   UNL     1       6.200  -2.585  -8.923  1.00  0.00    -0.269 OA
BRANCH  29  32
ATOM     32  C   UNL     1       7.714  -1.255  -7.730  1.00  0.00     0.039 A 
ATOM     33  C   UNL     1       7.816  -0.168  -8.602  1.00  0.00     0.014 A 
ATOM     34  C   UNL     1       8.708  -1.488  -6.776  1.00  0.00     0.014 A 
ATOM     35  C   UNL     1       8.868   0.739  -8.458  1.00  0.00     0.010 A 
ATOM     36  C   UNL     1       9.725  -0.553  -6.596  1.00  0.00     0.010 A 
ATOM     37  C   UNL     1       9.803   0.579  -7.423  1.00  0.00    -0.014 A 
BRANCH  37  38
ATOM     38  C   UNL     1      10.838   1.608  -7.147  1.00  0.00     0.031 A 
ATOM     39  C   UNL     1      12.295   1.286  -7.314  1.00  0.00     0.074 A 
ATOM     40  C   UNL     1      10.463   2.799  -6.642  1.00  0.00     0.049 A 
ATOM     41  N   UNL     1      13.342   2.002  -6.991  1.00  0.00    -0.248 NA
ATOM     42  C   UNL     1      12.618  -0.025  -7.899  1.00  0.00     0.031 C 
ATOM     43  C   UNL     1       9.081   3.214  -6.393  1.00  0.00     0.029 A 
ATOM     44  N   UNL     1      11.211   3.870  -6.218  1.00  0.00    -0.354 N 
ATOM     45  C   UNL     1      14.446   1.224  -7.314  1.00  0.00     0.074 A 
ATOM     46  C   UNL     1      13.942  -0.032  -7.830  1.00  0.00     0.031 C 
ATOM     47  C   UNL     1       9.081   4.444  -5.856  1.00  0.00     0.029 A 
ATOM     48  C   UNL     1      10.460   4.889  -5.684  1.00  0.00     0.049 A 
ATOM     49  H   UNL     1      12.193   3.904  -6.290  1.00  0.00     0.167 HD
ATOM     50  C   UNL     1      15.758   1.538  -7.200  1.00  0.00     0.037 A 
ATOM     51  C   UNL     1      10.839   6.040  -5.096  1.00  0.00     0.037 A 
ATOM     52  C   UNL     1      16.253   2.800  -6.718  1.00  0.00     0.049 A 
ATOM     53  C   UNL     1      12.305   6.356  -4.974  1.00  0.00     0.074 A 
ATOM     54  C   UNL     1      17.562   3.247  -6.660  1.00  0.00     0.029 A 
ATOM     55  N   UNL     1      15.462   3.816  -6.204  1.00  0.00    -0.354 N 
ATOM     56  N   UNL     1      13.337   5.646  -5.356  1.00  0.00    -0.248 NA
ATOM     57  C   UNL     1      12.658   7.633  -4.336  1.00  0.00     0.031 C 
ATOM     58  C   UNL     1      17.567   4.512  -6.065  1.00  0.00     0.029 A 
ATOM     59  C   UNL     1      16.258   4.873  -5.793  1.00  0.00     0.049 A 
ATOM     60  H   UNL     1      14.479   3.789  -6.141  1.00  0.00     0.167 HD
ATOM     61  C   UNL     1      14.459   6.393  -5.021  1.00  0.00     0.074 A 
ATOM     62  C   UNL     1      13.980   7.620  -4.421  1.00  0.00     0.031 C 
ATOM     63  C   UNL     1      15.767   6.086  -5.192  1.00  0.00     0.037 A 
BRANCH  50  64
ATOM     64  C   UNL     1      16.764   0.500  -7.604  1.00  0.00     0.064 A 
ATOM     65  C   UNL     1      16.989   0.179  -8.950  1.00  0.00     0.173 A 
ATOM     66  C   UNL     1      17.559  -0.130  -6.635  1.00  0.00     0.173 A 
ATOM     67  F   UNL     1      16.248   0.748  -9.913  1.00  0.00    -0.203 F 
ATOM     68  C   UNL     1      17.962  -0.750  -9.310  1.00  0.00     0.198 A 
ATOM     69  C   UNL     1      18.548  -1.038  -7.000  1.00  0.00     0.198 A 
ATOM     70  F   UNL     1      17.387   0.148  -5.334  1.00  0.00    -0.203 F 
ATOM     71  F   UNL     1      18.138  -1.066 -10.601  1.00  0.00    -0.200 F 
ATOM     72  C   UNL     1      18.746  -1.351  -8.337  1.00  0.00     0.200 A 
ATOM     73  F   UNL     1      19.313  -1.609  -6.059  1.00  0.00    -0.200 F 
ATOM     74  F   UNL     1      19.691  -2.234  -8.687  1.00  0.00    -0.200 F 
ENDBRANCH  50  64
BRANCH  51  75
ATOM     75  C   UNL     1       9.814   6.974  -4.563  1.00  0.00     0.064 A 
ATOM     76  C   UNL     1       9.580   8.213  -5.173  1.00  0.00     0.173 A 
ATOM     77  C   UNL     1       9.054   6.650  -3.429  1.00  0.00     0.173 A 
ATOM     78  F   UNL     1      10.297   8.576  -6.247  1.00  0.00    -0.203 F 
ATOM     79  C   UNL     1       8.639   9.102  -4.659  1.00  0.00     0.198 A 
ATOM     80  C   UNL     1       8.094   7.527  -2.932  1.00  0.00     0.198 A 
ATOM     81  F   UNL     1       9.236   5.473  -2.811  1.00  0.00    -0.203 F 
ATOM     82  F   UNL     1       8.466  10.299  -5.235  1.00  0.00    -0.200 F 
ATOM     83  C   UNL     1       7.892   8.756  -3.542  1.00  0.00     0.200 A 
ATOM     84  F   UNL     1       7.364   7.183  -1.862  1.00  0.00    -0.200 F 
ATOM     85  F   UNL     1       6.984   9.610  -3.050  1.00  0.00    -0.200 F 
ENDBRANCH  51  75
BRANCH  63  86
ATOM     86  C   UNL     1      16.776   7.096  -4.733  1.00  0.00     0.064 A 
ATOM     87  C   UNL     1      17.039   7.297  -3.370  1.00  0.00     0.173 A 
ATOM     88  C   UNL     1      17.518   7.837  -5.664  1.00  0.00     0.173 A 
ATOM     89  F   UNL     1      16.342   6.625  -2.442  1.00  0.00    -0.203 F 
ATOM     90  C   UNL     1      18.000   8.216  -2.956  1.00  0.00     0.198 A 
ATOM     91  C   UNL     1      18.496   8.736  -5.247  1.00  0.00     0.198 A 
ATOM     92  F   UNL     1      17.306   7.678  -6.979  1.00  0.00    -0.203 F 
ATOM     93  F   UNL     1      18.208   8.420  -1.648  1.00  0.00    -0.200 F 
ATOM     94  C   UNL     1      18.733   8.928  -3.894  1.00  0.00     0.200 A 
ATOM     95  F   UNL     1      19.212   9.415  -6.154  1.00  0.00    -0.200 F 
ATOM     96  F   UNL     1      19.663   9.805  -3.493  1.00  0.00    -0.200 F 
ENDBRANCH  63  86
ENDBRANCH  37  38
ENDBRANCH  29  32
ENDBRANCH  27  28
ENDBRANCH  26  27
ENDBRANCH  25  26
ENDBRANCH   1  25
TORSDOF 17
