REMARK SMILES COC(=O)[C@@H]1CN(C(=O)NC(=O)CCCC(=O)NCCCCCCNC(=O)c2ccc(-c3c4nc(c(-c5c(F)c(F)c(F)c(F)c5F)c5ccc([nH]5)c(-c5c(F)c(F)c(F)c(F)c5F)c5nc(c(-c6c(F)c(F)c(F)c(F)c6F)c6ccc3[nH]6)C=C5)C=C4)cc2)C[C@H]1C
REMARK SMILES IDX 19 1 18 2 16 3 17 4 15 6 14 7 13 8 11 9 8 10 9 11 10 12
REMARK SMILES IDX 12 14 7 15 5 16 6 17 92 18 91 19 93 20 3 21 4 22 2 23 1 24
REMARK SMILES IDX 20 25 21 26 22 27 23 28 24 29 25 30 26 31 27 33 28 34 29 35
REMARK SMILES IDX 90 36 30 37 89 38 31 39 32 40 33 41 83 42 34 43 88 44 82 45
REMARK SMILES IDX 84 46 35 47 87 48 81 49 80 50 36 52 68 53 48 54 67 55 49 56
REMARK SMILES IDX 52 57 66 58 85 59 50 60 51 61 65 63 86 64 53 65 37 66 38 67
REMARK SMILES IDX 46 68 39 69 40 70 44 71 47 72 41 73 42 74 45 75 43 76 69 77
REMARK SMILES IDX 70 78 78 79 71 80 72 81 76 82 79 83 73 84 74 85 77 86 75 87
REMARK SMILES IDX 54 88 55 89 63 90 56 91 57 92 61 93 64 94 58 95 59 96 62 97
REMARK SMILES IDX 60 98
REMARK H PARENT 18 5 10 13 25 32 84 51 52 62
REMARK Flexibility Score: inf
ROOT
ATOM      1  C   UNL     1       4.891  -0.956  -1.813  1.00  0.00     0.116 C 
ENDROOT
BRANCH   1   2
ATOM      2  N   UNL     1       3.542  -1.470  -2.581  1.00  0.00    -0.356 N 
ATOM      3  C   UNL     1       1.968  -0.751  -3.520  1.00  0.00     0.220 C 
ATOM      4  O   UNL     1       0.928  -1.332  -3.914  1.00  0.00    -0.275 OA
ATOM      5  H   UNL     1       3.505  -2.454  -2.570  1.00  0.00     0.163 HD
BRANCH   3   6
ATOM      6  C   UNL     1       1.688   0.996  -3.945  1.00  0.00     0.100 C 
BRANCH   6   7
ATOM      7  C   UNL     1       1.665   2.313  -3.088  1.00  0.00     0.020 C 
BRANCH   7   8
ATOM      8  C   UNL     1       2.661   2.746  -1.992  1.00  0.00     0.101 C 
BRANCH   8   9
ATOM      9  C   UNL     1       4.124   2.953  -2.274  1.00  0.00     0.227 C 
ATOM     10  C   UNL     1       4.527   1.123  -3.919  1.00  0.00     0.324 C 
ATOM     11  O   UNL     1       5.179   0.895  -4.941  1.00  0.00    -0.248 OA
ATOM     12  N   UNL     1       4.745   2.289  -3.278  1.00  0.00    -0.278 N 
ATOM     13  H   UNL     1       5.537   2.767  -3.617  1.00  0.00     0.174 HD
ATOM     14  O   UNL     1       4.801   3.683  -1.544  1.00  0.00    -0.275 OA
BRANCH  10  15
ATOM     15  N   UNL     1       3.647   0.196  -3.428  1.00  0.00    -0.323 N 
ATOM     16  C   UNL     1       1.854  -2.012  -1.863  1.00  0.00     0.123 C 
ATOM     17  C   UNL     1       2.537  -0.088  -1.786  1.00  0.00     0.137 C 
ATOM     18  C   UNL     1       2.512  -2.811  -3.618  1.00  0.00     0.021 C 
ATOM     19  C   UNL     1       3.616  -1.398  -4.530  1.00  0.00     0.125 C 
ATOM     20  C   UNL     1       3.340  -4.123  -3.469  1.00  0.00     0.010 C 
BRANCH  16  21
ATOM     21  C   UNL     1       0.384  -2.280  -1.577  1.00  0.00     0.310 C 
ATOM     22  O   UNL     1      -0.203  -3.224  -2.101  1.00  0.00    -0.252 OA
BRANCH  21  23
ATOM     23  O   UNL     1      -0.231  -1.567  -0.605  1.00  0.00    -0.469 OA
ATOM     24  C   UNL     1       0.416  -0.681   0.316  1.00  0.00     0.282 C 
ENDBRANCH  21  23
ENDBRANCH  16  21
ENDBRANCH  10  15
ENDBRANCH   8   9
ENDBRANCH   7   8
ENDBRANCH   6   7
ENDBRANCH   3   6
ENDBRANCH   1   2
BRANCH   1  25
ATOM     25  C   UNL     1       4.872  -1.497  -0.375  1.00  0.00     0.021 C 
BRANCH  25  26
ATOM     26  C   UNL     1       5.573  -2.836  -0.225  1.00  0.00     0.002 C 
BRANCH  26  27
ATOM     27  C   UNL     1       7.071  -2.759  -0.521  1.00  0.00     0.002 C 
BRANCH  27  28
ATOM     28  C   UNL     1       7.792  -1.618   0.202  1.00  0.00     0.021 C 
BRANCH  28  29
ATOM     29  C   UNL     1       7.520  -1.567   1.701  1.00  0.00     0.116 C 
BRANCH  29  30
ATOM     30  N   UNL     1       7.805  -2.842   2.330  1.00  0.00    -0.352 N 
ATOM     31  C   UNL     1       8.672  -3.110   3.350  1.00  0.00     0.251 C 
ATOM     32  H   UNL     1       7.308  -3.615   1.976  1.00  0.00     0.163 HD
ATOM     33  O   UNL     1       9.020  -4.260   3.589  1.00  0.00    -0.269 OA
BRANCH  31  34
ATOM     34  C   UNL     1       9.176  -1.989   4.159  1.00  0.00     0.039 A 
ATOM     35  C   UNL     1      10.526  -1.962   4.500  1.00  0.00     0.014 A 
ATOM     36  C   UNL     1       8.306  -0.979   4.585  1.00  0.00     0.014 A 
ATOM     37  C   UNL     1      11.005  -0.917   5.283  1.00  0.00     0.010 A 
ATOM     38  C   UNL     1       8.807   0.114   5.275  1.00  0.00     0.010 A 
ATOM     39  C   UNL     1      10.150   0.129   5.672  1.00  0.00    -0.014 A 
BRANCH  39  40
ATOM     40  C   UNL     1      10.639   1.203   6.565  1.00  0.00     0.031 A 
ATOM     41  C   UNL     1      10.051   1.354   7.941  1.00  0.00     0.074 A 
ATOM     42  C   UNL     1      11.601   2.037   6.134  1.00  0.00     0.049 A 
ATOM     43  N   UNL     1      10.358   2.210   8.883  1.00  0.00    -0.248 NA
ATOM     44  C   UNL     1       8.950   0.444   8.298  1.00  0.00     0.031 C 
ATOM     45  C   UNL     1      12.204   2.014   4.800  1.00  0.00     0.029 A 
ATOM     46  N   UNL     1      12.246   3.061   6.776  1.00  0.00    -0.354 N 
ATOM     47  C   UNL     1       9.485   1.945   9.930  1.00  0.00     0.074 A 
ATOM     48  C   UNL     1       8.585   0.907   9.482  1.00  0.00     0.031 C 
ATOM     49  C   UNL     1      13.162   2.952   4.737  1.00  0.00     0.029 A 
ATOM     50  C   UNL     1      13.212   3.665   6.010  1.00  0.00     0.049 A 
ATOM     51  H   UNL     1      12.037   3.337   7.697  1.00  0.00     0.167 HD
ATOM     52  C   UNL     1       9.457   2.496  11.167  1.00  0.00     0.037 A 
ATOM     53  C   UNL     1      14.046   4.677   6.309  1.00  0.00     0.037 A 
ATOM     54  C   UNL     1      10.369   3.519  11.605  1.00  0.00     0.049 A 
ATOM     55  C   UNL     1      13.996   5.274   7.689  1.00  0.00     0.074 A 
ATOM     56  C   UNL     1      10.464   4.116  12.849  1.00  0.00     0.029 A 
ATOM     57  N   UNL     1      11.341   4.104  10.804  1.00  0.00    -0.354 N 
ATOM     58  N   UNL     1      13.216   4.969   8.699  1.00  0.00    -0.248 NA
ATOM     59  C   UNL     1      14.958   6.345   7.976  1.00  0.00     0.031 C 
ATOM     60  C   UNL     1      11.448   5.109  12.781  1.00  0.00     0.029 A 
ATOM     61  C   UNL     1      12.024   5.074  11.521  1.00  0.00     0.049 A 
ATOM     62  H   UNL     1      11.518   3.865   9.866  1.00  0.00     0.167 HD
ATOM     63  C   UNL     1      13.618   5.780   9.752  1.00  0.00     0.074 A 
ATOM     64  C   UNL     1      14.722   6.578   9.258  1.00  0.00     0.031 C 
ATOM     65  C   UNL     1      13.124   5.857  11.013  1.00  0.00     0.037 A 
BRANCH  52  66
ATOM     66  C   UNL     1       8.402   2.007  12.120  1.00  0.00     0.064 A 
ATOM     67  C   UNL     1       8.396   0.692  12.613  1.00  0.00     0.173 A 
ATOM     68  C   UNL     1       7.382   2.869  12.552  1.00  0.00     0.173 A 
ATOM     69  F   UNL     1       9.337  -0.181  12.223  1.00  0.00    -0.203 F 
ATOM     70  C   UNL     1       7.387   0.247  13.465  1.00  0.00     0.198 A 
ATOM     71  C   UNL     1       6.399   2.433  13.436  1.00  0.00     0.198 A 
ATOM     72  F   UNL     1       7.337   4.137  12.116  1.00  0.00    -0.203 F 
ATOM     73  F   UNL     1       7.364  -1.032  13.863  1.00  0.00    -0.200 F 
ATOM     74  C   UNL     1       6.394   1.120  13.882  1.00  0.00     0.200 A 
ATOM     75  F   UNL     1       5.448   3.282  13.850  1.00  0.00    -0.200 F 
ATOM     76  F   UNL     1       5.426   0.693  14.704  1.00  0.00    -0.200 F 
ENDBRANCH  52  66
BRANCH  53  77
ATOM     77  C   UNL     1      15.018   5.160   5.294  1.00  0.00     0.064 A 
ATOM     78  C   UNL     1      16.397   4.970   5.463  1.00  0.00     0.173 A 
ATOM     79  C   UNL     1      14.590   5.820   4.133  1.00  0.00     0.173 A 
ATOM     80  F   UNL     1      16.858   4.356   6.563  1.00  0.00    -0.203 F 
ATOM     81  C   UNL     1      17.311   5.446   4.525  1.00  0.00     0.198 A 
ATOM     82  C   UNL     1      15.502   6.265   3.179  1.00  0.00     0.198 A 
ATOM     83  F   UNL     1      13.281   6.017   3.917  1.00  0.00    -0.203 F 
ATOM     84  F   UNL     1      18.625   5.298   4.739  1.00  0.00    -0.200 F 
ATOM     85  C   UNL     1      16.862   6.088   3.381  1.00  0.00     0.200 A 
ATOM     86  F   UNL     1      15.062   6.866   2.065  1.00  0.00    -0.200 F 
ATOM     87  F   UNL     1      17.740   6.541   2.476  1.00  0.00    -0.200 F 
ENDBRANCH  53  77
BRANCH  65  88
ATOM     88  C   UNL     1      13.815   6.794  11.964  1.00  0.00     0.064 A 
ATOM     89  C   UNL     1      13.778   8.187  11.800  1.00  0.00     0.173 A 
ATOM     90  C   UNL     1      14.523   6.284  13.065  1.00  0.00     0.173 A 
ATOM     91  F   UNL     1      13.124   8.728  10.761  1.00  0.00    -0.203 F 
ATOM     92  C   UNL     1      14.468   9.029  12.668  1.00  0.00     0.198 A 
ATOM     93  C   UNL     1      15.174   7.131  13.956  1.00  0.00     0.198 A 
ATOM     94  F   UNL     1      14.580   4.961  13.280  1.00  0.00    -0.203 F 
ATOM     95  F   UNL     1      14.485  10.350  12.444  1.00  0.00    -0.200 F 
ATOM     96  C   UNL     1      15.161   8.502  13.748  1.00  0.00     0.200 A 
ATOM     97  F   UNL     1      15.823   6.620  15.011  1.00  0.00    -0.200 F 
ATOM     98  F   UNL     1      15.825   9.313  14.582  1.00  0.00    -0.200 F 
ENDBRANCH  65  88
ENDBRANCH  39  40
ENDBRANCH  31  34
ENDBRANCH  29  30
ENDBRANCH  28  29
ENDBRANCH  27  28
ENDBRANCH  26  27
ENDBRANCH  25  26
ENDBRANCH   1  25
TORSDOF 19
