REMARK SMILES Cc1cc(F)cc(N[C@H](C(=O)NCCCCCCNC(=O)c2ccc(-c3c4nc(c(-c5c(F)c(F)c(F)c(F)c5F)c5ccc([nH]5)c(-c5c(F)c(F)c(F)c(F)c5F)c5nc(c(-c6c(F)c(F)c(F)c(F)c6F)c6ccc3[nH]6)C=C5)C=C4)cc2)c2cc(C)cc(C)c2)c1
REMARK SMILES IDX 15 1 14 2 13 3 12 4 10 5 11 6 9 8 8 9 7 11 1 12 2 13 3 14
REMARK SMILES IDX 93 15 4 16 5 17 6 18 85 19 86 20 92 21 87 22 90 23 88 24
REMARK SMILES IDX 89 25 91 26 16 27 17 28 18 29 19 30 20 31 21 33 22 34 23 35
REMARK SMILES IDX 84 36 24 37 83 38 25 39 26 40 27 41 77 42 28 43 82 44 76 45
REMARK SMILES IDX 78 46 29 47 81 48 75 49 74 50 30 52 62 53 42 54 61 55 43 56
REMARK SMILES IDX 46 57 60 58 79 59 44 60 45 61 59 63 80 64 47 65 31 66 32 67
REMARK SMILES IDX 40 68 33 69 34 70 38 71 41 72 35 73 36 74 39 75 37 76 63 77
REMARK SMILES IDX 64 78 72 79 65 80 66 81 70 82 73 83 67 84 68 85 71 86 69 87
REMARK SMILES IDX 48 88 49 89 57 90 50 91 51 92 55 93 58 94 52 95 53 96 56 97
REMARK SMILES IDX 54 98
REMARK H PARENT 12 7 8 10 19 32 78 51 46 62
REMARK Flexibility Score: inf
ROOT
ATOM      1  C   UNL     1       2.674  -3.128  -3.645  1.00  0.00     0.002 C 
ENDROOT
BRANCH   1   2
ATOM      2  C   UNL     1       1.140  -3.143  -3.628  1.00  0.00     0.021 C 
BRANCH   2   3
ATOM      3  C   UNL     1       0.512  -3.845  -2.428  1.00  0.00     0.116 C 
BRANCH   3   4
ATOM      4  N   UNL     1       0.919  -3.285  -1.161  1.00  0.00    -0.354 N 
ATOM      5  C   UNL     1       0.466  -3.575   0.096  1.00  0.00     0.247 C 
ATOM      6  O   UNL     1       1.055  -2.988   1.012  1.00  0.00    -0.272 OA
ATOM      7  H   UNL     1       1.623  -2.599  -1.209  1.00  0.00     0.163 HD
BRANCH   5   8
ATOM      8  C   UNL     1      -0.797  -4.455   0.347  1.00  0.00     0.200 C 
BRANCH   8   9
ATOM      9  N   UNL     1      -1.065  -5.516  -0.663  1.00  0.00    -0.370 N 
ATOM     10  H   UNL     1      -1.850  -5.337  -1.229  1.00  0.00     0.161 HD
BRANCH   9  11
ATOM     11  C   UNL     1      -0.421  -6.702  -0.957  1.00  0.00     0.038 A 
ATOM     12  C   UNL     1      -0.381  -9.181  -3.898  1.00  0.00     0.044 C 
ATOM     13  C   UNL     1      -0.067  -8.529  -2.587  1.00  0.00    -0.046 A 
ATOM     14  C   UNL     1       0.887  -9.106  -1.752  1.00  0.00     0.042 A 
ATOM     15  C   UNL     1      -0.731  -7.356  -2.167  1.00  0.00     0.029 A 
ATOM     16  C   UNL     1       1.210  -8.473  -0.570  1.00  0.00     0.125 A 
ATOM     17  F   UNL     1       2.137  -9.006   0.237  1.00  0.00    -0.207 F 
ATOM     18  C   UNL     1       0.598  -7.276  -0.205  1.00  0.00     0.065 A 
ENDBRANCH   9  11
ENDBRANCH   8   9
BRANCH   8  19
ATOM     19  C   UNL     1      -0.939  -4.993   1.770  1.00  0.00    -0.016 A 
ATOM     20  C   UNL     1       0.168  -5.515   2.452  1.00  0.00     0.009 A 
ATOM     21  C   UNL     1      -2.200  -5.109   2.375  1.00  0.00     0.009 A 
ATOM     22  C   UNL     1       0.007  -6.364   3.547  1.00  0.00    -0.051 A 
ATOM     23  C   UNL     1      -2.353  -5.805   3.583  1.00  0.00    -0.051 A 
ATOM     24  C   UNL     1       1.139  -7.269   3.941  1.00  0.00     0.044 C 
ATOM     25  C   UNL     1      -1.257  -6.492   4.120  1.00  0.00     0.006 A 
ATOM     26  C   UNL     1      -3.692  -5.909   4.250  1.00  0.00     0.044 C 
ENDBRANCH   8  19
ENDBRANCH   5   8
ENDBRANCH   3   4
ENDBRANCH   2   3
ENDBRANCH   1   2
BRANCH   1  27
ATOM     27  C   UNL     1       3.378  -4.464  -3.366  1.00  0.00     0.002 C 
BRANCH  27  28
ATOM     28  C   UNL     1       2.991  -5.646  -4.263  1.00  0.00     0.021 C 
BRANCH  28  29
ATOM     29  C   UNL     1       3.204  -5.388  -5.743  1.00  0.00     0.116 C 
BRANCH  29  30
ATOM     30  N   UNL     1       4.607  -5.172  -6.080  1.00  0.00    -0.352 N 
ATOM     31  C   UNL     1       5.169  -5.056  -7.332  1.00  0.00     0.251 C 
ATOM     32  H   UNL     1       5.229  -5.101  -5.319  1.00  0.00     0.163 HD
ATOM     33  O   UNL     1       6.376  -5.146  -7.503  1.00  0.00    -0.269 OA
BRANCH  31  34
ATOM     34  C   UNL     1       4.277  -4.797  -8.474  1.00  0.00     0.039 A 
ATOM     35  C   UNL     1       4.434  -5.471  -9.693  1.00  0.00     0.014 A 
ATOM     36  C   UNL     1       3.283  -3.839  -8.307  1.00  0.00     0.014 A 
ATOM     37  C   UNL     1       3.545  -5.213 -10.739  1.00  0.00     0.010 A 
ATOM     38  C   UNL     1       2.341  -3.672  -9.284  1.00  0.00     0.010 A 
ATOM     39  C   UNL     1       2.500  -4.316 -10.519  1.00  0.00    -0.014 A 
BRANCH  39  40
ATOM     40  C   UNL     1       1.557  -3.855 -11.524  1.00  0.00     0.031 A 
ATOM     41  C   UNL     1       0.418  -4.670 -11.968  1.00  0.00     0.074 A 
ATOM     42  C   UNL     1       1.648  -2.537 -11.806  1.00  0.00     0.049 A 
ATOM     43  N   UNL     1      -0.291  -4.405 -13.011  1.00  0.00    -0.248 NA
ATOM     44  C   UNL     1      -0.026  -5.868 -11.266  1.00  0.00     0.031 C 
ATOM     45  C   UNL     1       0.657  -1.645 -12.384  1.00  0.00     0.029 A 
ATOM     46  N   UNL     1       2.795  -1.739 -11.672  1.00  0.00    -0.354 N 
ATOM     47  C   UNL     1      -1.434  -5.172 -12.950  1.00  0.00     0.074 A 
ATOM     48  C   UNL     1      -1.173  -6.136 -11.905  1.00  0.00     0.031 C 
ATOM     49  C   UNL     1       1.282  -0.537 -12.822  1.00  0.00     0.029 A 
ATOM     50  C   UNL     1       2.712  -0.780 -12.695  1.00  0.00     0.049 A 
ATOM     51  H   UNL     1       3.509  -1.832 -11.001  1.00  0.00     0.167 HD
ATOM     52  C   UNL     1      -2.521  -4.783 -13.683  1.00  0.00     0.037 A 
ATOM     53  C   UNL     1       3.590  -0.847 -13.740  1.00  0.00     0.037 A 
ATOM     54  C   UNL     1      -2.202  -3.586 -14.463  1.00  0.00     0.049 A 
ATOM     55  C   UNL     1       2.888  -1.076 -15.052  1.00  0.00     0.074 A 
ATOM     56  C   UNL     1      -2.433  -2.241 -14.222  1.00  0.00     0.029 A 
ATOM     57  N   UNL     1      -1.254  -3.651 -15.479  1.00  0.00    -0.354 N 
ATOM     58  N   UNL     1       1.766  -1.732 -15.175  1.00  0.00    -0.248 NA
ATOM     59  C   UNL     1       3.368  -0.529 -16.314  1.00  0.00     0.031 C 
ATOM     60  C   UNL     1      -1.570  -1.492 -15.058  1.00  0.00     0.029 A 
ATOM     61  C   UNL     1      -0.832  -2.381 -15.823  1.00  0.00     0.049 A 
ATOM     62  H   UNL     1      -0.930  -4.482 -15.895  1.00  0.00     0.167 HD
ATOM     63  C   UNL     1       1.338  -1.648 -16.473  1.00  0.00     0.074 A 
ATOM     64  C   UNL     1       2.383  -0.901 -17.150  1.00  0.00     0.031 C 
ATOM     65  C   UNL     1       0.140  -2.164 -16.882  1.00  0.00     0.037 A 
BRANCH  52  66
ATOM     66  C   UNL     1      -3.945  -5.264 -13.469  1.00  0.00     0.064 A 
ATOM     67  C   UNL     1      -5.046  -4.434 -13.793  1.00  0.00     0.173 A 
ATOM     68  C   UNL     1      -4.301  -6.507 -12.915  1.00  0.00     0.173 A 
ATOM     69  F   UNL     1      -4.883  -3.265 -14.427  1.00  0.00    -0.203 F 
ATOM     70  C   UNL     1      -6.367  -4.768 -13.481  1.00  0.00     0.198 A 
ATOM     71  C   UNL     1      -5.621  -6.827 -12.566  1.00  0.00     0.198 A 
ATOM     72  F   UNL     1      -3.397  -7.477 -12.743  1.00  0.00    -0.203 F 
ATOM     73  F   UNL     1      -7.360  -3.925 -13.799  1.00  0.00    -0.200 F 
ATOM     74  C   UNL     1      -6.652  -5.951 -12.837  1.00  0.00     0.200 A 
ATOM     75  F   UNL     1      -5.884  -7.997 -11.966  1.00  0.00    -0.200 F 
ATOM     76  F   UNL     1      -7.913  -6.258 -12.504  1.00  0.00    -0.200 F 
ENDBRANCH  52  66
BRANCH  53  77
ATOM     77  C   UNL     1       4.904  -1.438 -13.340  1.00  0.00     0.064 A 
ATOM     78  C   UNL     1       5.667  -0.744 -12.377  1.00  0.00     0.173 A 
ATOM     79  C   UNL     1       5.181  -2.801 -13.518  1.00  0.00     0.173 A 
ATOM     80  F   UNL     1       5.440   0.562 -12.161  1.00  0.00    -0.203 F 
ATOM     81  C   UNL     1       6.558  -1.410 -11.537  1.00  0.00     0.198 A 
ATOM     82  C   UNL     1       6.088  -3.462 -12.682  1.00  0.00     0.198 A 
ATOM     83  F   UNL     1       4.496  -3.522 -14.417  1.00  0.00    -0.203 F 
ATOM     84  F   UNL     1       7.169  -0.741 -10.548  1.00  0.00    -0.200 F 
ATOM     85  C   UNL     1       6.745  -2.775 -11.671  1.00  0.00     0.200 A 
ATOM     86  F   UNL     1       6.265  -4.786 -12.805  1.00  0.00    -0.200 F 
ATOM     87  F   UNL     1       7.532  -3.433 -10.809  1.00  0.00    -0.200 F 
ENDBRANCH  53  77
BRANCH  65  88
ATOM     88  C   UNL     1      -0.295  -2.377 -18.312  1.00  0.00     0.064 A 
ATOM     89  C   UNL     1       0.597  -2.529 -19.386  1.00  0.00     0.173 A 
ATOM     90  C   UNL     1      -1.662  -2.590 -18.627  1.00  0.00     0.173 A 
ATOM     91  F   UNL     1       1.923  -2.494 -19.204  1.00  0.00    -0.203 F 
ATOM     92  C   UNL     1       0.155  -2.789 -20.685  1.00  0.00     0.198 A 
ATOM     93  C   UNL     1      -2.093  -2.916 -19.911  1.00  0.00     0.198 A 
ATOM     94  F   UNL     1      -2.623  -2.524 -17.694  1.00  0.00    -0.203 F 
ATOM     95  F   UNL     1       1.046  -2.871 -21.682  1.00  0.00    -0.200 F 
ATOM     96  C   UNL     1      -1.187  -2.994 -20.945  1.00  0.00     0.200 A 
ATOM     97  F   UNL     1      -3.389  -3.176 -20.131  1.00  0.00    -0.200 F 
ATOM     98  F   UNL     1      -1.600  -3.292 -22.184  1.00  0.00    -0.200 F 
ENDBRANCH  65  88
ENDBRANCH  39  40
ENDBRANCH  31  34
ENDBRANCH  29  30
ENDBRANCH  28  29
ENDBRANCH  27  28
ENDBRANCH   1  27
TORSDOF 16
