REMARK SMILES CCOc1ccc(-c2nn(-c3ccccc3)cc2/C=C2/SC(=S)N(CC(=O)NCCCCCCNC(=O)c3ccc(-c4c5nc(c(-c6c(F)c(F)c(F)c(F)c6F)c6ccc([nH]6)c(-c6c(F)c(F)c(F)c(F)c6F)c6nc(c(-c7c(F)c(F)c(F)c(F)c7F)c7ccc4[nH]7)C=C6)C=C5)cc3)C2=O)cc1F
REMARK SMILES IDX 30 1 29 2 28 3 26 4 27 5 25 7 24 8 19 9 20 10 21 11 101 12
REMARK SMILES IDX 22 13 102 14 23 15 18 16 8 17 9 18 10 19 17 20 7 21 4 22
REMARK SMILES IDX 5 23 104 24 6 25 103 26 105 27 3 28 2 29 1 30 11 31 12 32
REMARK SMILES IDX 16 33 13 34 15 35 14 36 31 37 32 38 33 39 34 40 35 41 36 42
REMARK SMILES IDX 37 44 38 45 39 46 100 47 40 48 99 49 41 50 42 51 43 52 93 53
REMARK SMILES IDX 44 54 98 55 92 56 94 57 45 58 97 59 91 60 90 61 46 63 78 64
REMARK SMILES IDX 58 65 77 66 59 67 62 68 76 69 95 70 60 71 61 72 75 74 96 75
REMARK SMILES IDX 63 76 47 77 48 78 56 79 49 80 50 81 54 82 57 83 51 84 52 85
REMARK SMILES IDX 55 86 53 87 79 88 80 89 88 90 81 91 82 92 86 93 89 94 83 95
REMARK SMILES IDX 84 96 87 97 85 98 64 99 65 100 73 101 66 102 67 103 71 104
REMARK SMILES IDX 74 105 68 106 69 107 72 108 70 109
REMARK H PARENT 28 6 35 43 94 62 62 73
REMARK Flexibility Score: inf
ROOT
ATOM      1  C   UNL     1      10.894   4.133  -6.270  1.00  0.00     0.021 C 
ENDROOT
BRANCH   1   2
ATOM      2  C   UNL     1      10.610   3.752  -7.720  1.00  0.00     0.116 C 
BRANCH   2   3
ATOM      3  N   UNL     1      10.739   2.331  -7.949  1.00  0.00    -0.355 N 
ATOM      4  C   UNL     1       9.826   1.435  -8.424  1.00  0.00     0.240 C 
ATOM      5  O   UNL     1      10.261   0.355  -8.832  1.00  0.00    -0.273 OA
ATOM      6  H   UNL     1      11.620   1.952  -7.728  1.00  0.00     0.163 HD
BRANCH   4   7
ATOM      7  C   UNL     1       8.345   1.808  -8.604  1.00  0.00     0.227 C 
BRANCH   7   8
ATOM      8  N   UNL     1       7.750   2.409  -7.407  1.00  0.00    -0.283 N 
ATOM      9  C   UNL     1       7.024   1.939  -3.865  1.00  0.00     0.033 C 
ATOM     10  C   UNL     1       7.147   2.385  -5.125  1.00  0.00     0.081 C 
ATOM     11  S   UNL     1       6.654   3.946  -5.656  1.00  0.00    -0.054 SA
ATOM     12  C   UNL     1       7.689   1.614  -6.280  1.00  0.00     0.266 C 
ATOM     13  C   UNL     1       7.109   3.623  -7.329  1.00  0.00     0.148 C 
ATOM     14  O   UNL     1       8.014   0.436  -6.248  1.00  0.00    -0.268 OA
ATOM     15  S   UNL     1       6.768   4.698  -8.557  1.00  0.00    -0.052 S 
BRANCH   9  16
ATOM     16  C   UNL     1       7.357   0.617  -3.461  1.00  0.00     0.022 A 
ATOM     17  C   UNL     1       6.491  -0.469  -3.182  1.00  0.00     0.100 A 
ATOM     18  N   UNL     1       7.185  -1.609  -3.068  1.00  0.00    -0.167 NA
ATOM     19  N   UNL     1       8.484  -1.242  -3.169  1.00  0.00    -0.240 N 
ATOM     20  C   UNL     1       8.630   0.119  -3.311  1.00  0.00     0.123 A 
BRANCH  17  21
ATOM     21  C   UNL     1       5.050  -0.454  -2.972  1.00  0.00     0.006 A 
ATOM     22  C   UNL     1       2.311  -0.351  -2.401  1.00  0.00     0.154 A 
ATOM     23  C   UNL     1       2.785   0.134  -3.622  1.00  0.00     0.050 A 
ATOM     24  C   UNL     1       3.199  -0.934  -1.500  1.00  0.00     0.165 A 
ATOM     25  C   UNL     1       4.157   0.087  -3.906  1.00  0.00     0.014 A 
ATOM     26  C   UNL     1       4.559  -0.974  -1.770  1.00  0.00     0.053 A 
ATOM     27  F   UNL     1       2.761  -1.483  -0.359  1.00  0.00    -0.203 F 
BRANCH  22  28
ATOM     28  O   UNL     1       0.963  -0.353  -2.175  1.00  0.00    -0.491 OA
BRANCH  28  29
ATOM     29  C   UNL     1       0.548   0.675  -1.264  1.00  0.00     0.226 C 
ATOM     30  C   UNL     1       0.587   0.219   0.186  1.00  0.00     0.049 C 
ENDBRANCH  28  29
ENDBRANCH  22  28
ENDBRANCH  17  21
BRANCH  19  31
ATOM     31  C   UNL     1       9.515  -2.204  -3.094  1.00  0.00     0.065 A 
ATOM     32  C   UNL     1       9.321  -3.461  -3.681  1.00  0.00     0.028 A 
ATOM     33  C   UNL     1      10.715  -1.905  -2.439  1.00  0.00     0.028 A 
ATOM     34  C   UNL     1      10.343  -4.410  -3.634  1.00  0.00     0.002 A 
ATOM     35  C   UNL     1      11.709  -2.881  -2.348  1.00  0.00     0.002 A 
ATOM     36  C   UNL     1      11.528  -4.125  -2.955  1.00  0.00     0.000 A 
ENDBRANCH  19  31
ENDBRANCH   9  16
ENDBRANCH   7   8
ENDBRANCH   4   7
ENDBRANCH   2   3
ENDBRANCH   1   2
BRANCH   1  37
ATOM     37  C   UNL     1      12.373   4.046  -5.874  1.00  0.00     0.002 C 
BRANCH  37  38
ATOM     38  C   UNL     1      13.355   4.826  -6.763  1.00  0.00     0.002 C 
BRANCH  38  39
ATOM     39  C   UNL     1      13.026   6.305  -7.014  1.00  0.00     0.021 C 
BRANCH  39  40
ATOM     40  C   UNL     1      13.066   7.172  -5.765  1.00  0.00     0.116 C 
BRANCH  40  41
ATOM     41  N   UNL     1      14.413   7.290  -5.211  1.00  0.00    -0.352 N 
ATOM     42  C   UNL     1      14.807   7.927  -4.056  1.00  0.00     0.251 C 
ATOM     43  H   UNL     1      15.130   6.858  -5.729  1.00  0.00     0.163 HD
ATOM     44  O   UNL     1      15.974   8.288  -3.901  1.00  0.00    -0.269 OA
BRANCH  42  45
ATOM     45  C   UNL     1      13.814   8.178  -3.001  1.00  0.00     0.039 A 
ATOM     46  C   UNL     1      13.807   9.380  -2.290  1.00  0.00     0.014 A 
ATOM     47  C   UNL     1      12.867   7.189  -2.737  1.00  0.00     0.014 A 
ATOM     48  C   UNL     1      12.787   9.612  -1.373  1.00  0.00     0.010 A 
ATOM     49  C   UNL     1      11.785   7.474  -1.941  1.00  0.00     0.010 A 
ATOM     50  C   UNL     1      11.760   8.664  -1.223  1.00  0.00    -0.014 A 
BRANCH  50  51
ATOM     51  C   UNL     1      10.578   8.979  -0.427  1.00  0.00     0.031 A 
ATOM     52  C   UNL     1       9.907  10.247  -0.823  1.00  0.00     0.074 A 
ATOM     53  C   UNL     1      10.013   8.116   0.445  1.00  0.00     0.049 A 
ATOM     54  N   UNL     1       9.804  11.329  -0.127  1.00  0.00    -0.248 NA
ATOM     55  C   UNL     1       9.414  10.380  -2.205  1.00  0.00     0.031 C 
ATOM     56  C   UNL     1      10.393   6.722   0.705  1.00  0.00     0.029 A 
ATOM     57  N   UNL     1       8.900   8.269   1.218  1.00  0.00    -0.354 N 
ATOM     58  C   UNL     1       9.056  12.213  -0.900  1.00  0.00     0.074 A 
ATOM     59  C   UNL     1       9.003  11.650  -2.223  1.00  0.00     0.031 C 
ATOM     60  C   UNL     1       9.402   6.098   1.378  1.00  0.00     0.029 A 
ATOM     61  C   UNL     1       8.404   7.082   1.749  1.00  0.00     0.049 A 
ATOM     62  H   UNL     1       8.482   9.145   1.386  1.00  0.00     0.167 HD
ATOM     63  C   UNL     1       8.315  13.188  -0.307  1.00  0.00     0.037 A 
ATOM     64  C   UNL     1       7.244   6.919   2.431  1.00  0.00     0.037 A 
ATOM     65  C   UNL     1       8.725  13.378   1.061  1.00  0.00     0.049 A 
ATOM     66  C   UNL     1       6.876   8.249   2.966  1.00  0.00     0.074 A 
ATOM     67  C   UNL     1       9.868  13.809   1.700  1.00  0.00     0.029 A 
ATOM     68  N   UNL     1       7.980  12.705   1.994  1.00  0.00    -0.354 N 
ATOM     69  N   UNL     1       7.556   8.879   3.883  1.00  0.00    -0.248 NA
ATOM     70  C   UNL     1       5.933   9.064   2.216  1.00  0.00     0.031 C 
ATOM     71  C   UNL     1       9.930  13.059   2.913  1.00  0.00     0.029 A 
ATOM     72  C   UNL     1       8.795  12.250   2.993  1.00  0.00     0.049 A 
ATOM     73  H   UNL     1       7.006  12.570   1.951  1.00  0.00     0.167 HD
ATOM     74  C   UNL     1       7.460  10.212   3.527  1.00  0.00     0.074 A 
ATOM     75  C   UNL     1       6.326  10.277   2.611  1.00  0.00     0.031 C 
ATOM     76  C   UNL     1       8.495  11.067   3.771  1.00  0.00     0.037 A 
BRANCH  63  77
ATOM     77  C   UNL     1       6.944  13.627  -0.781  1.00  0.00     0.064 A 
ATOM     78  C   UNL     1       6.109  12.847  -1.611  1.00  0.00     0.173 A 
ATOM     79  C   UNL     1       6.306  14.703  -0.127  1.00  0.00     0.173 A 
ATOM     80  F   UNL     1       6.536  11.728  -2.206  1.00  0.00    -0.203 F 
ATOM     81  C   UNL     1       4.749  13.113  -1.767  1.00  0.00     0.198 A 
ATOM     82  C   UNL     1       4.931  14.932  -0.243  1.00  0.00     0.198 A 
ATOM     83  F   UNL     1       6.990  15.490   0.718  1.00  0.00    -0.203 F 
ATOM     84  F   UNL     1       4.008  12.307  -2.542  1.00  0.00    -0.200 F 
ATOM     85  C   UNL     1       4.154  14.135  -1.062  1.00  0.00     0.200 A 
ATOM     86  F   UNL     1       4.349  15.883   0.500  1.00  0.00    -0.200 F 
ATOM     87  F   UNL     1       2.828  14.314  -1.130  1.00  0.00    -0.200 F 
ENDBRANCH  63  77
BRANCH  64  88
ATOM     88  C   UNL     1       6.286   5.784   2.414  1.00  0.00     0.064 A 
ATOM     89  C   UNL     1       6.195   4.911   1.314  1.00  0.00     0.173 A 
ATOM     90  C   UNL     1       5.224   5.734   3.337  1.00  0.00     0.173 A 
ATOM     91  F   UNL     1       7.128   4.914   0.351  1.00  0.00    -0.203 F 
ATOM     92  C   UNL     1       5.084   4.087   1.116  1.00  0.00     0.198 A 
ATOM     93  C   UNL     1       4.109   4.915   3.133  1.00  0.00     0.198 A 
ATOM     94  F   UNL     1       5.216   6.550   4.401  1.00  0.00    -0.203 F 
ATOM     95  F   UNL     1       5.006   3.335   0.008  1.00  0.00    -0.200 F 
ATOM     96  C   UNL     1       4.031   4.107   2.012  1.00  0.00     0.200 A 
ATOM     97  F   UNL     1       3.076   4.969   3.986  1.00  0.00    -0.200 F 
ATOM     98  F   UNL     1       2.926   3.388   1.769  1.00  0.00    -0.200 F 
ENDBRANCH  64  88
BRANCH  76  99
ATOM     99  C   UNL     1       9.512  10.657   4.798  1.00  0.00     0.064 A 
ATOM    100  C   UNL     1       9.691  11.501   5.903  1.00  0.00     0.173 A 
ATOM    101  C   UNL     1      10.385   9.563   4.672  1.00  0.00     0.173 A 
ATOM    102  F   UNL     1       8.910  12.583   6.053  1.00  0.00    -0.203 F 
ATOM    103  C   UNL     1      10.702  11.277   6.830  1.00  0.00     0.198 A 
ATOM    104  C   UNL     1      11.373   9.318   5.625  1.00  0.00     0.198 A 
ATOM    105  F   UNL     1      10.333   8.753   3.607  1.00  0.00    -0.203 F 
ATOM    106  F   UNL     1      10.884  12.141   7.838  1.00  0.00    -0.200 F 
ATOM    107  C   UNL     1      11.538  10.181   6.696  1.00  0.00     0.200 A 
ATOM    108  F   UNL     1      12.190   8.262   5.490  1.00  0.00    -0.200 F 
ATOM    109  F   UNL     1      12.519   9.973   7.585  1.00  0.00    -0.200 F 
ENDBRANCH  76  99
ENDBRANCH  50  51
ENDBRANCH  42  45
ENDBRANCH  40  41
ENDBRANCH  39  40
ENDBRANCH  38  39
ENDBRANCH  37  38
ENDBRANCH   1  37
TORSDOF 19
