REMARK SMILES C[C@]1(O)CC[C@@H]2[C@H]3CCC4=C/C(=N/OCC(=O)NCCCCCCNC(=O)c5ccc(-c6c7nc(c(-c8c(F)c(F)c(F)c(F)c8F)c8ccc([nH]8)c(-c8c(F)c(F)c(F)c(F)c8F)c8nc(c(-c9c(F)c(F)c(F)c(F)c9F)c9ccc6[nH]9)C=C8)C=C7)cc5)CC[C@@]4(C)[C@@H]3CC[C@]21C
REMARK SMILES IDX 21 1 20 2 19 3 18 4 16 5 17 6 15 8 14 9 13 10 1 11 2 12 4 13
REMARK SMILES IDX 98 14 5 15 6 16 97 17 99 18 7 19 96 20 8 21 95 22 9 23 93 24
REMARK SMILES IDX 10 25 92 26 94 27 11 28 91 29 12 30 3 31 22 33 23 34 24 35
REMARK SMILES IDX 25 36 26 37 27 39 28 40 29 41 90 42 30 43 89 44 31 45 32 46
REMARK SMILES IDX 33 47 83 48 34 49 88 50 82 51 84 52 35 53 87 54 81 55 80 56
REMARK SMILES IDX 36 58 68 59 48 60 67 61 49 62 52 63 66 64 85 65 50 66 51 67
REMARK SMILES IDX 65 69 86 70 53 71 37 72 38 73 46 74 39 75 40 76 44 77 47 78
REMARK SMILES IDX 41 79 42 80 45 81 43 82 69 83 70 84 78 85 71 86 72 87 76 88
REMARK SMILES IDX 79 89 73 90 74 91 77 92 75 93 54 94 55 95 63 96 56 97 57 98
REMARK SMILES IDX 61 99 64 100 58 101 59 102 62 103 60 104
REMARK H PARENT 18 7 3 32 25 38 84 57 52 68
REMARK Flexibility Score: inf
ROOT
ATOM      1  C   UNL     1     -10.477   9.094  -0.279  1.00  0.00     0.002 C 
ENDROOT
BRANCH   1   2
ATOM      2  C   UNL     1      -9.072   9.701  -0.381  1.00  0.00     0.021 C 
BRANCH   2   3
ATOM      3  C   UNL     1      -8.734  10.705   0.724  1.00  0.00     0.116 C 
BRANCH   3   4
ATOM      4  N   UNL     1      -8.732  10.082   2.031  1.00  0.00    -0.353 N 
ATOM      5  C   UNL     1      -7.670   9.848   2.857  1.00  0.00     0.260 C 
ATOM      6  O   UNL     1      -7.879   9.250   3.917  1.00  0.00    -0.271 OA
ATOM      7  H   UNL     1      -9.610   9.789   2.367  1.00  0.00     0.163 HD
BRANCH   5   8
ATOM      8  C   UNL     1      -6.287  10.426   2.520  1.00  0.00     0.363 C 
BRANCH   8   9
ATOM      9  O   UNL     1      -5.671  10.159   1.271  1.00  0.00    -0.385 OA
BRANCH   9  10
ATOM     10  N   UNL     1      -5.993   8.867   0.858  1.00  0.00    -0.091 NA
ATOM     11  C   UNL     1       1.267   0.949  -0.344  1.00  0.00     0.042 C 
ATOM     12  C   UNL     1       0.531   1.900   0.622  1.00  0.00     0.068 C 
ATOM     13  C   UNL     1      -0.726   1.143   1.108  1.00  0.00     0.036 C 
ATOM     14  C   UNL     1      -0.023   3.252   0.002  1.00  0.00    -0.001 C 
ATOM     15  C   UNL     1      -1.824   1.606   0.152  1.00  0.00     0.007 C 
ATOM     16  C   UNL     1      -1.558   3.095   0.192  1.00  0.00     0.001 C 
ATOM     17  C   UNL     1       0.284   4.584   0.732  1.00  0.00     0.010 C 
ATOM     18  C   UNL     1       0.457   3.405  -1.463  1.00  0.00     0.015 C 
ATOM     19  C   UNL     1      -2.353   4.081  -0.648  1.00  0.00    -0.003 C 
ATOM     20  C   UNL     1      -0.535   5.775   0.145  1.00  0.00     0.005 C 
ATOM     21  C   UNL     1      -3.854   3.780  -0.619  1.00  0.00     0.008 C 
ATOM     22  C   UNL     1      -2.060   5.500  -0.061  1.00  0.00     0.002 C 
ATOM     23  C   UNL     1      -4.638   4.832  -1.390  1.00  0.00     0.032 C 
ATOM     24  C   UNL     1      -2.854   6.632  -0.815  1.00  0.00    -0.008 C 
ATOM     25  C   UNL     1      -4.336   6.216  -0.869  1.00  0.00    -0.062 C 
ATOM     26  C   UNL     1      -2.673   7.971  -0.035  1.00  0.00     0.018 C 
ATOM     27  C   UNL     1      -2.355   6.840  -2.262  1.00  0.00     0.016 C 
ATOM     28  C   UNL     1      -5.346   6.984  -0.430  1.00  0.00     0.027 C 
ATOM     29  C   UNL     1      -3.779   8.982  -0.311  1.00  0.00     0.061 C 
ATOM     30  C   UNL     1      -5.085   8.342   0.092  1.00  0.00     0.080 C 
BRANCH  12  31
ATOM     31  O   UNL     1       1.393   2.148   1.724  1.00  0.00    -0.390 OA
ATOM     32  H   UNL     1       1.714   1.305   2.080  1.00  0.00     0.211 HD
ENDBRANCH  12  31
ENDBRANCH   9  10
ENDBRANCH   8   9
ENDBRANCH   5   8
ENDBRANCH   3   4
ENDBRANCH   2   3
ENDBRANCH   1   2
BRANCH   1  33
ATOM     33  C   UNL     1     -11.626  10.107  -0.266  1.00  0.00     0.002 C 
BRANCH  33  34
ATOM     34  C   UNL     1     -11.654  11.066  -1.458  1.00  0.00     0.021 C 
BRANCH  34  35
ATOM     35  C   UNL     1     -11.747  10.387  -2.820  1.00  0.00     0.116 C 
BRANCH  35  36
ATOM     36  N   UNL     1     -12.989   9.648  -2.984  1.00  0.00    -0.352 N 
ATOM     37  C   UNL     1     -13.929   9.732  -3.979  1.00  0.00     0.251 C 
ATOM     38  H   UNL     1     -13.183   8.990  -2.277  1.00  0.00     0.163 HD
ATOM     39  O   UNL     1     -15.012   9.162  -3.857  1.00  0.00    -0.269 OA
BRANCH  37  40
ATOM     40  C   UNL     1     -13.654  10.530  -5.192  1.00  0.00     0.039 A 
ATOM     41  C   UNL     1     -14.655  11.368  -5.689  1.00  0.00     0.014 A 
ATOM     42  C   UNL     1     -12.418  10.452  -5.841  1.00  0.00     0.014 A 
ATOM     43  C   UNL     1     -14.394  12.177  -6.797  1.00  0.00     0.010 A 
ATOM     44  C   UNL     1     -12.134  11.315  -6.896  1.00  0.00     0.010 A 
ATOM     45  C   UNL     1     -13.118  12.187  -7.385  1.00  0.00    -0.014 A 
BRANCH  45  46
ATOM     46  C   UNL     1     -12.797  13.117  -8.499  1.00  0.00     0.031 A 
ATOM     47  C   UNL     1     -12.424  12.584  -9.854  1.00  0.00     0.074 A 
ATOM     48  C   UNL     1     -12.788  14.445  -8.271  1.00  0.00     0.049 A 
ATOM     49  N   UNL     1     -12.070  13.239 -10.932  1.00  0.00    -0.248 NA
ATOM     50  C   UNL     1     -12.424  11.122 -10.014  1.00  0.00     0.031 C 
ATOM     51  C   UNL     1     -13.083  15.083  -6.987  1.00  0.00     0.029 A 
ATOM     52  N   UNL     1     -12.512  15.497  -9.108  1.00  0.00    -0.354 N 
ATOM     53  C   UNL     1     -11.800  12.271 -11.891  1.00  0.00     0.074 A 
ATOM     54  C   UNL     1     -11.973  10.984 -11.252  1.00  0.00     0.031 C 
ATOM     55  C   UNL     1     -13.001  16.415  -7.128  1.00  0.00     0.029 A 
ATOM     56  C   UNL     1     -12.604  16.725  -8.498  1.00  0.00     0.049 A 
ATOM     57  H   UNL     1     -12.272  15.383 -10.056  1.00  0.00     0.167 HD
ATOM     58  C   UNL     1     -11.462  12.441 -13.192  1.00  0.00     0.037 A 
ATOM     59  C   UNL     1     -12.385  17.961  -8.985  1.00  0.00     0.037 A 
ATOM     60  C   UNL     1     -11.304  13.725 -13.827  1.00  0.00     0.049 A 
ATOM     61  C   UNL     1     -11.989  18.120 -10.429  1.00  0.00     0.074 A 
ATOM     62  C   UNL     1     -11.019  14.002 -15.152  1.00  0.00     0.029 A 
ATOM     63  N   UNL     1     -11.409  14.946 -13.178  1.00  0.00    -0.354 N 
ATOM     64  N   UNL     1     -11.810  17.200 -11.345  1.00  0.00    -0.248 NA
ATOM     65  C   UNL     1     -11.771  19.492 -10.906  1.00  0.00     0.031 C 
ATOM     66  C   UNL     1     -10.891  15.388 -15.292  1.00  0.00     0.029 A 
ATOM     67  C   UNL     1     -11.163  15.979 -14.069  1.00  0.00     0.049 A 
ATOM     68  H   UNL     1     -11.626  15.063 -12.224  1.00  0.00     0.167 HD
ATOM     69  C   UNL     1     -11.489  17.881 -12.512  1.00  0.00     0.074 A 
ATOM     70  C   UNL     1     -11.517  19.293 -12.192  1.00  0.00     0.031 C 
ATOM     71  C   UNL     1     -11.197  17.381 -13.739  1.00  0.00     0.037 A 
BRANCH  58  72
ATOM     72  C   UNL     1     -11.238  11.207 -14.021  1.00  0.00     0.064 A 
ATOM     73  C   UNL     1     -12.292  10.345 -14.361  1.00  0.00     0.173 A 
ATOM     74  C   UNL     1      -9.960  10.905 -14.517  1.00  0.00     0.173 A 
ATOM     75  F   UNL     1     -13.531  10.581 -13.906  1.00  0.00    -0.203 F 
ATOM     76  C   UNL     1     -12.069   9.211 -15.139  1.00  0.00     0.198 A 
ATOM     77  C   UNL     1      -9.748   9.790 -15.324  1.00  0.00     0.198 A 
ATOM     78  F   UNL     1      -8.917  11.698 -14.229  1.00  0.00    -0.203 F 
ATOM     79  F   UNL     1     -13.082   8.375 -15.406  1.00  0.00    -0.200 F 
ATOM     80  C   UNL     1     -10.800   8.940 -15.627  1.00  0.00     0.200 A 
ATOM     81  F   UNL     1      -8.524   9.538 -15.808  1.00  0.00    -0.200 F 
ATOM     82  F   UNL     1     -10.590   7.854 -16.384  1.00  0.00    -0.200 F 
ENDBRANCH  58  72
BRANCH  59  83
ATOM     83  C   UNL     1     -12.551  19.149  -8.105  1.00  0.00     0.064 A 
ATOM     84  C   UNL     1     -13.583  20.072  -8.326  1.00  0.00     0.173 A 
ATOM     85  C   UNL     1     -11.676  19.393  -7.036  1.00  0.00     0.173 A 
ATOM     86  F   UNL     1     -14.433  19.894  -9.348  1.00  0.00    -0.203 F 
ATOM     87  C   UNL     1     -13.718  21.206  -7.528  1.00  0.00     0.198 A 
ATOM     88  C   UNL     1     -11.833  20.510  -6.218  1.00  0.00     0.198 A 
ATOM     89  F   UNL     1     -10.675  18.539  -6.778  1.00  0.00    -0.203 F 
ATOM     90  F   UNL     1     -14.680  22.099  -7.795  1.00  0.00    -0.200 F 
ATOM     91  C   UNL     1     -12.847  21.421  -6.471  1.00  0.00     0.200 A 
ATOM     92  F   UNL     1     -10.999  20.705  -5.187  1.00  0.00    -0.200 F 
ATOM     93  F   UNL     1     -12.979  22.510  -5.702  1.00  0.00    -0.200 F 
ENDBRANCH  59  83
BRANCH  71  94
ATOM     94  C   UNL     1     -10.921  18.369 -14.837  1.00  0.00     0.064 A 
ATOM     95  C   UNL     1      -9.757  19.152 -14.852  1.00  0.00     0.173 A 
ATOM     96  C   UNL     1     -11.820  18.512 -15.906  1.00  0.00     0.173 A 
ATOM     97  F   UNL     1      -8.871  19.066 -13.848  1.00  0.00    -0.203 F 
ATOM     98  C   UNL     1      -9.520  20.063 -15.879  1.00  0.00     0.198 A 
ATOM     99  C   UNL     1     -11.562  19.397 -16.949  1.00  0.00     0.198 A 
ATOM    100  F   UNL     1     -12.945  17.782 -15.945  1.00  0.00    -0.203 F 
ATOM    101  F   UNL     1      -8.429  20.842 -15.842  1.00  0.00    -0.200 F 
ATOM    102  C   UNL     1     -10.417  20.179 -16.929  1.00  0.00     0.200 A 
ATOM    103  F   UNL     1     -12.422  19.494 -17.971  1.00  0.00    -0.200 F 
ATOM    104  F   UNL     1     -10.184  21.051 -17.920  1.00  0.00    -0.200 F 
ENDBRANCH  71  94
ENDBRANCH  45  46
ENDBRANCH  37  40
ENDBRANCH  35  36
ENDBRANCH  34  35
ENDBRANCH  33  34
ENDBRANCH   1  33
TORSDOF 16
