REMARK SMILES O=C(Cc1ccccc1[N+](=O)[O-])N[C@@H]1C=C[C@H](C(=O)NCCCCCCNC(=O)c2ccc(-c3c4nc(c(-c5c(F)c(F)c(F)c(F)c5F)c5ccc([nH]5)c(-c5c(F)c(F)c(F)c(F)c5F)c5nc(c(-c6c(F)c(F)c(F)c(F)c6F)c6ccc3[nH]6)C=C5)C=C4)cc2)C1
REMARK SMILES IDX 22 1 21 2 20 3 18 4 19 5 17 7 14 8 15 9 93 10 16 11 13 12
REMARK SMILES IDX 1 13 2 14 3 16 4 17 5 18 9 19 6 20 8 21 7 22 10 23 11 24
REMARK SMILES IDX 12 25 23 26 24 27 25 28 26 29 27 30 28 31 29 33 30 34 31 35
REMARK SMILES IDX 92 36 32 37 91 38 33 39 34 40 35 41 85 42 36 43 90 44 84 45
REMARK SMILES IDX 86 46 37 47 89 48 83 49 82 50 38 52 70 53 50 54 69 55 51 56
REMARK SMILES IDX 54 57 68 58 87 59 52 60 53 61 67 63 88 64 55 65 39 66 40 67
REMARK SMILES IDX 48 68 41 69 42 70 46 71 49 72 43 73 44 74 47 75 45 76 71 77
REMARK SMILES IDX 72 78 80 79 73 80 74 81 78 82 81 83 75 84 76 85 79 86 77 87
REMARK SMILES IDX 56 88 57 89 65 90 58 91 59 92 63 93 66 94 60 95 61 96 64 97
REMARK SMILES IDX 62 98
REMARK H PARENT 20 6 13 15 27 32 86 51 54 62
REMARK Flexibility Score: inf
ROOT
ATOM      1  C   UNL     1       1.379   7.423   0.530  1.00  0.00     0.021 C 
ENDROOT
BRANCH   1   2
ATOM      2  C   UNL     1       2.265   6.927   1.672  1.00  0.00     0.116 C 
BRANCH   2   3
ATOM      3  N   UNL     1       1.508   6.289   2.728  1.00  0.00    -0.356 N 
ATOM      4  C   UNL     1       1.743   5.109   3.375  1.00  0.00     0.227 C 
ATOM      5  O   UNL     1       1.049   4.843   4.359  1.00  0.00    -0.274 OA
ATOM      6  H   UNL     1       0.706   6.778   3.024  1.00  0.00     0.163 HD
BRANCH   4   7
ATOM      7  C   UNL     1       2.901   4.223   2.899  1.00  0.00     0.103 C 
ATOM      8  C   UNL     1       2.233   2.051   1.962  1.00  0.00     0.106 C 
ATOM      9  C   UNL     1       2.778   1.911   3.345  1.00  0.00    -0.006 C 
ATOM     10  C   UNL     1       2.626   3.487   1.579  1.00  0.00     0.047 C 
ATOM     11  C   UNL     1       3.158   3.090   3.851  1.00  0.00    -0.016 C 
BRANCH   8  12
ATOM     12  N   UNL     1       0.835   1.665   1.978  1.00  0.00    -0.350 N 
ATOM     13  O   UNL     1      -0.220   3.692   1.627  1.00  0.00    -0.275 OA
ATOM     14  C   UNL     1      -0.252   2.472   1.729  1.00  0.00     0.225 C 
ATOM     15  H   UNL     1       0.642   0.723   2.191  1.00  0.00     0.164 HD
BRANCH  14  16
ATOM     16  C   UNL     1      -1.554   1.722   1.545  1.00  0.00     0.142 C 
BRANCH  16  17
ATOM     17  C   UNL     1      -1.650   0.712   0.412  1.00  0.00     0.039 A 
ATOM     18  C   UNL     1      -2.708  -0.217   0.510  1.00  0.00     0.011 A 
ATOM     19  C   UNL     1      -0.844   0.621  -0.740  1.00  0.00     0.273 A 
ATOM     20  C   UNL     1      -2.912  -1.208  -0.458  1.00  0.00     0.001 A 
ATOM     21  C   UNL     1      -1.023  -0.393  -1.698  1.00  0.00     0.086 A 
ATOM     22  C   UNL     1      -2.058  -1.308  -1.551  1.00  0.00     0.007 A 
BRANCH  19  23
ATOM     23  N   UNL     1       0.193   1.589  -1.059  1.00  0.00     0.063 N 
ATOM     24  O   UNL     1       1.357   1.166  -1.109  1.00  0.00    -0.258 OA
ATOM     25  O   UNL     1      -0.172   2.741  -1.316  1.00  0.00    -0.258 OA
ENDBRANCH  19  23
ENDBRANCH  16  17
ENDBRANCH  14  16
ENDBRANCH   8  12
ENDBRANCH   4   7
ENDBRANCH   2   3
ENDBRANCH   1   2
BRANCH   1  26
ATOM     26  C   UNL     1       0.292   8.430   0.929  1.00  0.00     0.002 C 
BRANCH  26  27
ATOM     27  C   UNL     1       0.776   9.673   1.682  1.00  0.00     0.002 C 
BRANCH  27  28
ATOM     28  C   UNL     1       1.850  10.498   0.970  1.00  0.00     0.021 C 
BRANCH  28  29
ATOM     29  C   UNL     1       1.464  11.008  -0.414  1.00  0.00     0.116 C 
BRANCH  29  30
ATOM     30  N   UNL     1       0.352  11.946  -0.377  1.00  0.00    -0.352 N 
ATOM     31  C   UNL     1       0.247  13.201  -0.928  1.00  0.00     0.251 C 
ATOM     32  H   UNL     1      -0.442  11.636   0.115  1.00  0.00     0.163 HD
ATOM     33  O   UNL     1      -0.711  13.916  -0.662  1.00  0.00    -0.269 OA
BRANCH  31  34
ATOM     34  C   UNL     1       1.311  13.705  -1.826  1.00  0.00     0.039 A 
ATOM     35  C   UNL     1       1.774  15.012  -1.653  1.00  0.00     0.014 A 
ATOM     36  C   UNL     1       1.849  12.899  -2.832  1.00  0.00     0.014 A 
ATOM     37  C   UNL     1       2.827  15.485  -2.441  1.00  0.00     0.010 A 
ATOM     38  C   UNL     1       2.947  13.344  -3.564  1.00  0.00     0.010 A 
ATOM     39  C   UNL     1       3.450  14.640  -3.374  1.00  0.00    -0.014 A 
BRANCH  39  40
ATOM     40  C   UNL     1       4.638  15.088  -4.147  1.00  0.00     0.031 A 
ATOM     41  C   UNL     1       4.575  15.190  -5.646  1.00  0.00     0.074 A 
ATOM     42  C   UNL     1       5.795  15.338  -3.503  1.00  0.00     0.049 A 
ATOM     43  N   UNL     1       5.526  15.486  -6.497  1.00  0.00    -0.248 NA
ATOM     44  C   UNL     1       3.279  14.894  -6.275  1.00  0.00     0.031 C 
ATOM     45  C   UNL     1       5.997  15.234  -2.057  1.00  0.00     0.029 A 
ATOM     46  N   UNL     1       7.025  15.718  -3.982  1.00  0.00    -0.354 N 
ATOM     47  C   UNL     1       4.946  15.401  -7.756  1.00  0.00     0.074 A 
ATOM     48  C   UNL     1       3.578  14.972  -7.563  1.00  0.00     0.031 C 
ATOM     49  C   UNL     1       7.265  15.563  -1.765  1.00  0.00     0.029 A 
ATOM     50  C   UNL     1       7.979  15.855  -3.003  1.00  0.00     0.049 A 
ATOM     51  H   UNL     1       7.206  15.877  -4.937  1.00  0.00     0.167 HD
ATOM     52  C   UNL     1       5.500  15.678  -8.962  1.00  0.00     0.037 A 
ATOM     53  C   UNL     1       9.286  16.169  -3.095  1.00  0.00     0.037 A 
ATOM     54  C   UNL     1       6.858  16.119  -9.148  1.00  0.00     0.049 A 
ATOM     55  C   UNL     1       9.881  16.448  -4.449  1.00  0.00     0.074 A 
ATOM     56  C   UNL     1       7.496  16.474 -10.324  1.00  0.00     0.029 A 
ATOM     57  N   UNL     1       7.790  16.258  -8.130  1.00  0.00    -0.354 N 
ATOM     58  N   UNL     1       9.306  16.430  -5.626  1.00  0.00    -0.248 NA
ATOM     59  C   UNL     1      11.308  16.798  -4.486  1.00  0.00     0.031 C 
ATOM     60  C   UNL     1       8.829  16.772 -10.026  1.00  0.00     0.029 A 
ATOM     61  C   UNL     1       9.006  16.669  -8.656  1.00  0.00     0.049 A 
ATOM     62  H   UNL     1       7.615  16.090  -7.176  1.00  0.00     0.167 HD
ATOM     63  C   UNL     1      10.287  16.800  -6.537  1.00  0.00     0.074 A 
ATOM     64  C   UNL     1      11.492  17.047  -5.774  1.00  0.00     0.031 C 
ATOM     65  C   UNL     1      10.195  16.925  -7.884  1.00  0.00     0.037 A 
BRANCH  52  66
ATOM     66  C   UNL     1       4.636  15.509 -10.180  1.00  0.00     0.064 A 
ATOM     67  C   UNL     1       3.551  16.361 -10.439  1.00  0.00     0.173 A 
ATOM     68  C   UNL     1       4.924  14.512 -11.125  1.00  0.00     0.173 A 
ATOM     69  F   UNL     1       3.227  17.326  -9.565  1.00  0.00    -0.203 F 
ATOM     70  C   UNL     1       2.770  16.203 -11.581  1.00  0.00     0.198 A 
ATOM     71  C   UNL     1       4.162  14.378 -12.283  1.00  0.00     0.198 A 
ATOM     72  F   UNL     1       5.954  13.674 -10.933  1.00  0.00    -0.203 F 
ATOM     73  F   UNL     1       1.709  16.997 -11.781  1.00  0.00    -0.200 F 
ATOM     74  C   UNL     1       3.081  15.217 -12.506  1.00  0.00     0.200 A 
ATOM     75  F   UNL     1       4.474  13.436 -13.183  1.00  0.00    -0.200 F 
ATOM     76  F   UNL     1       2.335  15.073 -13.610  1.00  0.00    -0.200 F 
ENDBRANCH  52  66
BRANCH  53  77
ATOM     77  C   UNL     1      10.119  16.252  -1.865  1.00  0.00     0.064 A 
ATOM     78  C   UNL     1      10.632  17.480  -1.423  1.00  0.00     0.173 A 
ATOM     79  C   UNL     1      10.431  15.109  -1.115  1.00  0.00     0.173 A 
ATOM     80  F   UNL     1      10.380  18.599  -2.118  1.00  0.00    -0.203 F 
ATOM     81  C   UNL     1      11.444  17.557  -0.294  1.00  0.00     0.198 A 
ATOM     82  C   UNL     1      11.216  15.192   0.034  1.00  0.00     0.198 A 
ATOM     83  F   UNL     1       9.962  13.909  -1.490  1.00  0.00    -0.203 F 
ATOM     84  F   UNL     1      11.965  18.736   0.074  1.00  0.00    -0.200 F 
ATOM     85  C   UNL     1      11.731  16.415   0.437  1.00  0.00     0.200 A 
ATOM     86  F   UNL     1      11.476  14.088   0.746  1.00  0.00    -0.200 F 
ATOM     87  F   UNL     1      12.510  16.490   1.525  1.00  0.00    -0.200 F 
ENDBRANCH  53  77
BRANCH  65  88
ATOM     88  C   UNL     1      11.416  17.400  -8.620  1.00  0.00     0.064 A 
ATOM     89  C   UNL     1      12.554  16.593  -8.768  1.00  0.00     0.173 A 
ATOM     90  C   UNL     1      11.429  18.668  -9.222  1.00  0.00     0.173 A 
ATOM     91  F   UNL     1      12.599  15.379  -8.200  1.00  0.00    -0.203 F 
ATOM     92  C   UNL     1      13.668  17.048  -9.470  1.00  0.00     0.198 A 
ATOM     93  C   UNL     1      12.530  19.105  -9.952  1.00  0.00     0.198 A 
ATOM     94  F   UNL     1      10.364  19.477  -9.117  1.00  0.00    -0.203 F 
ATOM     95  F   UNL     1      14.762  16.280  -9.555  1.00  0.00    -0.200 F 
ATOM     96  C   UNL     1      13.652  18.299 -10.068  1.00  0.00     0.200 A 
ATOM     97  F   UNL     1      12.505  20.308 -10.544  1.00  0.00    -0.200 F 
ATOM     98  F   UNL     1      14.720  18.730 -10.752  1.00  0.00    -0.200 F 
ENDBRANCH  65  88
ENDBRANCH  39  40
ENDBRANCH  31  34
ENDBRANCH  29  30
ENDBRANCH  28  29
ENDBRANCH  27  28
ENDBRANCH  26  27
ENDBRANCH   1  26
TORSDOF 17
