REMARK SMILES O=C(NCCCCCCNC(=O)c1ccc(-c2c3nc(c(-c4c(F)c(F)c(F)c(F)c4F)c4ccc([nH]4)c(-c4c(F)c(F)c(F)c(F)c4F)c4nc(c(-c5c(F)c(F)c(F)c(F)c5F)c5ccc2[nH]5)C=C4)C=C3)cc1)c1ccc(NC(=O)[C@@H]2CC=CC[C@H]2C(=O)Nc2cccc([N+](=O)[O-])c2)cc1
REMARK SMILES IDX 5 1 4 2 3 3 1 4 2 5 76 7 77 8 102 9 78 10 101 11 79 12 80 13
REMARK SMILES IDX 81 14 82 16 83 17 84 18 88 19 85 20 87 21 86 22 89 23 90 24
REMARK SMILES IDX 91 25 92 27 93 28 100 29 94 30 96 31 95 32 97 33 98 34 99 35
REMARK SMILES IDX 6 36 7 37 8 38 9 39 10 40 11 41 12 43 13 44 14 45 75 46
REMARK SMILES IDX 15 47 74 48 16 49 17 50 18 51 68 52 19 53 73 54 67 55 69 56
REMARK SMILES IDX 20 57 72 58 66 59 65 60 21 62 53 63 33 64 52 65 34 66 37 67
REMARK SMILES IDX 51 68 70 69 35 70 36 71 50 73 71 74 38 75 22 76 23 77 31 78
REMARK SMILES IDX 24 79 25 80 29 81 32 82 26 83 27 84 30 85 28 86 54 87 55 88
REMARK SMILES IDX 63 89 56 90 57 91 61 92 64 93 58 94 59 95 62 96 60 97 39 98
REMARK SMILES IDX 40 99 48 100 41 101 42 102 46 103 49 104 43 105 44 106
REMARK SMILES IDX 47 107 45 108
REMARK H PARENT 3 6 80 15 91 26 10 42 69 61 37 72
REMARK Flexibility Score: inf
ROOT
ATOM      1  C   UNL     1      13.411  -1.280  -0.915  1.00  0.00     0.021 C 
ENDROOT
BRANCH   1   2
ATOM      2  C   UNL     1      12.733  -1.362  -2.273  1.00  0.00     0.116 C 
BRANCH   2   3
ATOM      3  N   UNL     1      13.141  -2.526  -3.045  1.00  0.00    -0.352 N 
ATOM      4  O   UNL     1      12.816  -4.418  -4.250  1.00  0.00    -0.269 OA
ATOM      5  C   UNL     1      12.351  -3.398  -3.763  1.00  0.00     0.251 C 
ATOM      6  H   UNL     1      14.107  -2.716  -3.057  1.00  0.00     0.163 HD
BRANCH   5   7
ATOM      7  C   UNL     1      10.917  -3.083  -3.922  1.00  0.00     0.039 A 
ATOM      8  C   UNL     1      10.535  -1.794  -4.275  1.00  0.00     0.016 A 
ATOM      9  C   UNL     1       9.947  -4.048  -3.662  1.00  0.00     0.016 A 
ATOM     10  C   UNL     1       9.195  -1.433  -4.224  1.00  0.00     0.027 A 
ATOM     11  C   UNL     1       8.593  -3.691  -3.712  1.00  0.00     0.027 A 
ATOM     12  C   UNL     1       8.203  -2.372  -3.994  1.00  0.00     0.041 A 
BRANCH  12  13
ATOM     13  N   UNL     1       6.828  -2.111  -4.051  1.00  0.00    -0.326 N 
ATOM     14  C   UNL     1       6.046  -1.048  -4.364  1.00  0.00     0.228 C 
ATOM     15  H   UNL     1       6.293  -2.899  -3.801  1.00  0.00     0.169 HD
ATOM     16  O   UNL     1       4.823  -1.256  -4.334  1.00  0.00    -0.274 OA
BRANCH  14  17
ATOM     17  C   UNL     1       6.513   0.368  -4.686  1.00  0.00     0.095 C 
ATOM     18  C   UNL     1       7.398   0.525  -5.932  1.00  0.00     0.041 C 
ATOM     19  C   UNL     1       6.894   1.121  -3.401  1.00  0.00     0.095 C 
ATOM     20  C   UNL     1       8.423   1.620  -5.854  1.00  0.00    -0.030 C 
ATOM     21  C   UNL     1       7.712   2.409  -3.588  1.00  0.00     0.041 C 
ATOM     22  C   UNL     1       8.565   2.449  -4.814  1.00  0.00    -0.030 C 
BRANCH  19  23
ATOM     23  C   UNL     1       5.715   1.356  -2.430  1.00  0.00     0.228 C 
ATOM     24  O   UNL     1       5.690   0.720  -1.368  1.00  0.00    -0.274 OA
ATOM     25  N   UNL     1       4.753   2.322  -2.592  1.00  0.00    -0.326 N 
ATOM     26  H   UNL     1       4.148   2.432  -1.824  1.00  0.00     0.169 HD
BRANCH  25  27
ATOM     27  C   UNL     1       4.492   3.176  -3.670  1.00  0.00     0.048 A 
ATOM     28  C   UNL     1       4.506   4.556  -3.454  1.00  0.00     0.026 A 
ATOM     29  C   UNL     1       4.204   2.692  -4.939  1.00  0.00     0.111 A 
ATOM     30  C   UNL     1       4.419   5.436  -4.538  1.00  0.00     0.009 A 
ATOM     31  C   UNL     1       4.192   3.562  -6.033  1.00  0.00     0.271 A 
ATOM     32  C   UNL     1       4.308   4.941  -5.839  1.00  0.00     0.086 A 
BRANCH  31  33
ATOM     33  N   UNL     1       4.130   3.009  -7.391  1.00  0.00     0.062 N 
ATOM     34  O   UNL     1       4.165   3.806  -8.339  1.00  0.00    -0.258 OA
ATOM     35  O   UNL     1       4.085   1.777  -7.511  1.00  0.00    -0.258 OA
ENDBRANCH  31  33
ENDBRANCH  25  27
ENDBRANCH  19  23
ENDBRANCH  14  17
ENDBRANCH  12  13
ENDBRANCH   5   7
ENDBRANCH   2   3
ENDBRANCH   1   2
BRANCH   1  36
ATOM     36  C   UNL     1      14.924  -1.083  -0.968  1.00  0.00     0.002 C 
BRANCH  36  37
ATOM     37  C   UNL     1      15.400   0.159  -1.726  1.00  0.00     0.002 C 
BRANCH  37  38
ATOM     38  C   UNL     1      14.829   1.494  -1.240  1.00  0.00     0.021 C 
BRANCH  38  39
ATOM     39  C   UNL     1      14.969   1.762   0.255  1.00  0.00     0.116 C 
BRANCH  39  40
ATOM     40  N   UNL     1      16.347   1.703   0.712  1.00  0.00    -0.352 N 
ATOM     41  C   UNL     1      17.032   2.555   1.540  1.00  0.00     0.251 C 
ATOM     42  H   UNL     1      16.866   0.936   0.377  1.00  0.00     0.163 HD
ATOM     43  O   UNL     1      18.237   2.406   1.716  1.00  0.00    -0.269 OA
BRANCH  41  44
ATOM     44  C   UNL     1      16.329   3.675   2.200  1.00  0.00     0.039 A 
ATOM     45  C   UNL     1      16.932   4.936   2.197  1.00  0.00     0.014 A 
ATOM     46  C   UNL     1      15.096   3.487   2.832  1.00  0.00     0.014 A 
ATOM     47  C   UNL     1      16.272   6.022   2.774  1.00  0.00     0.010 A 
ATOM     48  C   UNL     1      14.411   4.582   3.353  1.00  0.00     0.010 A 
ATOM     49  C   UNL     1      14.993   5.859   3.329  1.00  0.00    -0.014 A 
BRANCH  49  50
ATOM     50  C   UNL     1      14.249   7.014   3.890  1.00  0.00     0.031 A 
ATOM     51  C   UNL     1      13.950   7.079   5.360  1.00  0.00     0.074 A 
ATOM     52  C   UNL     1      13.787   7.971   3.063  1.00  0.00     0.049 A 
ATOM     53  N   UNL     1      13.248   7.963   6.024  1.00  0.00    -0.248 NA
ATOM     54  C   UNL     1      14.488   5.991   6.190  1.00  0.00     0.031 C 
ATOM     55  C   UNL     1      13.972   7.995   1.612  1.00  0.00     0.029 A 
ATOM     56  N   UNL     1      13.053   9.101   3.324  1.00  0.00    -0.354 N 
ATOM     57  C   UNL     1      13.251   7.532   7.343  1.00  0.00     0.074 A 
ATOM     58  C   UNL     1      13.981   6.282   7.379  1.00  0.00     0.031 C 
ATOM     59  C   UNL     1      13.376   9.089   1.111  1.00  0.00     0.029 A 
ATOM     60  C   UNL     1      12.743   9.826   2.201  1.00  0.00     0.049 A 
ATOM     61  H   UNL     1      12.776   9.366   4.231  1.00  0.00     0.167 HD
ATOM     62  C   UNL     1      12.714   8.135   8.431  1.00  0.00     0.037 A 
ATOM     63  C   UNL     1      12.021  10.954   2.064  1.00  0.00     0.037 A 
ATOM     64  C   UNL     1      12.007   9.388   8.397  1.00  0.00     0.049 A 
ATOM     65  C   UNL     1      11.443  11.612   3.287  1.00  0.00     0.074 A 
ATOM     66  C   UNL     1      11.467  10.105   9.450  1.00  0.00     0.029 A 
ATOM     67  N   UNL     1      11.741  10.112   7.243  1.00  0.00    -0.354 N 
ATOM     68  N   UNL     1      11.499  11.224   4.537  1.00  0.00    -0.248 NA
ATOM     69  C   UNL     1      10.709  12.868   3.080  1.00  0.00     0.031 C 
ATOM     70  C   UNL     1      10.844  11.246   8.930  1.00  0.00     0.029 A 
ATOM     71  C   UNL     1      11.032  11.261   7.558  1.00  0.00     0.049 A 
ATOM     72  H   UNL     1      12.016   9.849   6.335  1.00  0.00     0.167 HD
ATOM     73  C   UNL     1      10.829  12.195   5.268  1.00  0.00     0.074 A 
ATOM     74  C   UNL     1      10.387  13.199   4.322  1.00  0.00     0.031 C 
ATOM     75  C   UNL     1      10.600  12.249   6.603  1.00  0.00     0.037 A 
BRANCH  62  76
ATOM     76  C   UNL     1      12.879   7.444   9.753  1.00  0.00     0.064 A 
ATOM     77  C   UNL     1      14.127   7.367  10.389  1.00  0.00     0.173 A 
ATOM     78  C   UNL     1      11.775   6.871  10.401  1.00  0.00     0.173 A 
ATOM     79  F   UNL     1      15.216   7.889   9.804  1.00  0.00    -0.203 F 
ATOM     80  C   UNL     1      14.270   6.714  11.610  1.00  0.00     0.198 A 
ATOM     81  C   UNL     1      11.917   6.243  11.636  1.00  0.00     0.198 A 
ATOM     82  F   UNL     1      10.558   6.921   9.839  1.00  0.00    -0.203 F 
ATOM     83  F   UNL     1      15.482   6.608  12.174  1.00  0.00    -0.200 F 
ATOM     84  C   UNL     1      13.165   6.157  12.235  1.00  0.00     0.200 A 
ATOM     85  F   UNL     1      10.845   5.715  12.245  1.00  0.00    -0.200 F 
ATOM     86  F   UNL     1      13.303   5.530  13.412  1.00  0.00    -0.200 F 
ENDBRANCH  62  76
BRANCH  63  87
ATOM     87  C   UNL     1      11.826  11.543   0.715  1.00  0.00     0.064 A 
ATOM     88  C   UNL     1      12.481  12.724   0.343  1.00  0.00     0.173 A 
ATOM     89  C   UNL     1      10.995  10.928  -0.233  1.00  0.00     0.173 A 
ATOM     90  F   UNL     1      13.270  13.357   1.223  1.00  0.00    -0.203 F 
ATOM     91  C   UNL     1      12.301  13.278  -0.923  1.00  0.00     0.198 A 
ATOM     92  C   UNL     1      10.835  11.470  -1.506  1.00  0.00     0.198 A 
ATOM     93  F   UNL     1      10.351   9.793   0.073  1.00  0.00    -0.203 F 
ATOM     94  F   UNL     1      12.911  14.427  -1.241  1.00  0.00    -0.200 F 
ATOM     95  C   UNL     1      11.484  12.647  -1.849  1.00  0.00     0.200 A 
ATOM     96  F   UNL     1      10.055  10.850  -2.402  1.00  0.00    -0.200 F 
ATOM     97  F   UNL     1      11.317  13.175  -3.068  1.00  0.00    -0.200 F 
ENDBRANCH  63  87
BRANCH  75  98
ATOM     98  C   UNL     1       9.856  13.443   7.123  1.00  0.00     0.064 A 
ATOM     99  C   UNL     1       8.477  13.594   6.918  1.00  0.00     0.173 A 
ATOM    100  C   UNL     1      10.522  14.427   7.869  1.00  0.00     0.173 A 
ATOM    101  F   UNL     1       7.799  12.687   6.197  1.00  0.00    -0.203 F 
ATOM    102  C   UNL     1       7.796  14.698   7.422  1.00  0.00     0.198 A 
ATOM    103  C   UNL     1       9.833  15.516   8.393  1.00  0.00     0.198 A 
ATOM    104  F   UNL     1      11.841  14.325   8.096  1.00  0.00    -0.203 F 
ATOM    105  F   UNL     1       6.486  14.843   7.179  1.00  0.00    -0.200 F 
ATOM    106  C   UNL     1       8.473  15.654   8.165  1.00  0.00     0.200 A 
ATOM    107  F   UNL     1      10.487  16.434   9.119  1.00  0.00    -0.200 F 
ATOM    108  F   UNL     1       7.814  16.713   8.655  1.00  0.00    -0.200 F 
ENDBRANCH  75  98
ENDBRANCH  49  50
ENDBRANCH  41  44
ENDBRANCH  39  40
ENDBRANCH  38  39
ENDBRANCH  37  38
ENDBRANCH  36  37
ENDBRANCH   1  36
TORSDOF 18
