REMARK SMILES CC1(C)CSC[C@H]([NH2+][C@H](C(=O)NCCCCCCNC(=O)c2ccc(-c3c4nc(c(-c5c(F)c(F)c(F)c(F)c5F)c5ccc([nH]5)c(-c5c(F)c(F)c(F)c(F)c5F)c5nc(c(-c6c(F)c(F)c(F)c(F)c6F)c6ccc3[nH]6)C=C5)C=C4)cc2)c2ccccc2)C1
REMARK SMILES IDX 15 1 14 2 13 3 12 4 10 5 11 6 9 8 8 9 7 12 1 13 2 14 3 15
REMARK SMILES IDX 4 16 91 17 5 18 6 19 85 20 86 21 90 22 87 23 89 24 88 25
REMARK SMILES IDX 16 26 17 27 18 28 19 29 20 30 21 32 22 33 23 34 84 35 24 36
REMARK SMILES IDX 83 37 25 38 26 39 27 40 77 41 28 42 82 43 76 44 78 45 29 46
REMARK SMILES IDX 81 47 75 48 74 49 30 51 62 52 42 53 61 54 43 55 46 56 60 57
REMARK SMILES IDX 79 58 44 59 45 60 59 62 80 63 47 64 31 65 32 66 40 67 33 68
REMARK SMILES IDX 34 69 38 70 41 71 35 72 36 73 39 74 37 75 63 76 64 77 72 78
REMARK SMILES IDX 65 79 66 80 70 81 73 82 67 83 68 84 71 85 69 86 48 87 49 88
REMARK SMILES IDX 57 89 50 90 51 91 55 92 58 93 52 94 53 95 56 96 54 97
REMARK H PARENT 12 7 8 10 8 11 19 31 78 50 46 61
REMARK Flexibility Score: inf
ROOT
ATOM      1  C   UNL     1       3.525   5.467  -2.945  1.00  0.00     0.002 C 
ENDROOT
BRANCH   1   2
ATOM      2  C   UNL     1       3.297   4.772  -1.593  1.00  0.00     0.021 C 
BRANCH   2   3
ATOM      3  C   UNL     1       1.978   5.064  -0.872  1.00  0.00     0.116 C 
BRANCH   3   4
ATOM      4  N   UNL     1       1.910   4.359   0.404  1.00  0.00    -0.351 N 
ATOM      5  C   UNL     1       1.007   4.741   1.396  1.00  0.00     0.283 C 
ATOM      6  O   UNL     1       0.019   5.422   1.129  1.00  0.00    -0.268 OA
ATOM      7  H   UNL     1       2.513   3.599   0.569  1.00  0.00     0.163 HD
BRANCH   5   8
ATOM      8  C   UNL     1       1.478   4.388   2.847  1.00  0.00     0.304 C 
BRANCH   8   9
ATOM      9  N   UNL     1       2.467   5.358   3.417  1.00  0.00    -0.329 N 
ATOM     10  H   UNL     1       2.044   5.766   4.250  1.00  0.00     0.347 HD
ATOM     11  H   UNL     1       3.307   4.800   3.570  1.00  0.00     0.347 HD
BRANCH   9  12
ATOM     12  C   UNL     1       2.918   6.469   2.568  1.00  0.00     0.193 C 
ATOM     13  C   UNL     1       5.709   6.803   0.960  1.00  0.00     0.012 C 
ATOM     14  C   UNL     1       5.032   7.774   1.954  1.00  0.00    -0.021 C 
ATOM     15  C   UNL     1       6.147   8.617   2.591  1.00  0.00     0.012 C 
ATOM     16  C   UNL     1       4.061   8.696   1.174  1.00  0.00     0.076 C 
ATOM     17  C   UNL     1       4.300   6.951   3.060  1.00  0.00     0.073 C 
ATOM     18  S   UNL     1       2.667   9.281   2.172  1.00  0.00    -0.155 SA
ATOM     19  C   UNL     1       1.907   7.645   2.483  1.00  0.00     0.134 C 
ENDBRANCH   9  12
ENDBRANCH   8   9
BRANCH   8  20
ATOM     20  C   UNL     1       0.369   4.140   3.868  1.00  0.00     0.019 A 
ATOM     21  C   UNL     1      -0.711   5.022   4.027  1.00  0.00     0.010 A 
ATOM     22  C   UNL     1       0.481   3.066   4.772  1.00  0.00     0.010 A 
ATOM     23  C   UNL     1      -1.666   4.817   5.027  1.00  0.00     0.001 A 
ATOM     24  C   UNL     1      -0.472   2.865   5.775  1.00  0.00     0.001 A 
ATOM     25  C   UNL     1      -1.549   3.739   5.899  1.00  0.00     0.000 A 
ENDBRANCH   8  20
ENDBRANCH   5   8
ENDBRANCH   3   4
ENDBRANCH   2   3
ENDBRANCH   1   2
BRANCH   1  26
ATOM     26  C   UNL     1       3.301   6.981  -3.073  1.00  0.00     0.002 C 
BRANCH  26  27
ATOM     27  C   UNL     1       4.366   7.941  -2.530  1.00  0.00     0.021 C 
BRANCH  27  28
ATOM     28  C   UNL     1       5.823   7.751  -2.946  1.00  0.00     0.116 C 
BRANCH  28  29
ATOM     29  N   UNL     1       6.074   8.071  -4.338  1.00  0.00    -0.352 N 
ATOM     30  C   UNL     1       6.830   9.060  -4.925  1.00  0.00     0.251 C 
ATOM     31  H   UNL     1       5.621   7.475  -4.977  1.00  0.00     0.163 HD
ATOM     32  O   UNL     1       6.770   9.200  -6.144  1.00  0.00    -0.269 OA
BRANCH  30  33
ATOM     33  C   UNL     1       7.707   9.975  -4.145  1.00  0.00     0.039 A 
ATOM     34  C   UNL     1       7.790  11.314  -4.555  1.00  0.00     0.014 A 
ATOM     35  C   UNL     1       8.526   9.538  -3.101  1.00  0.00     0.014 A 
ATOM     36  C   UNL     1       8.646  12.211  -3.901  1.00  0.00     0.010 A 
ATOM     37  C   UNL     1       9.343  10.447  -2.413  1.00  0.00     0.010 A 
ATOM     38  C   UNL     1       9.419  11.793  -2.809  1.00  0.00    -0.014 A 
BRANCH  38  39
ATOM     39  C   UNL     1      10.316  12.746  -2.091  1.00  0.00     0.031 A 
ATOM     40  C   UNL     1      11.813  12.578  -2.139  1.00  0.00     0.074 A 
ATOM     41  C   UNL     1       9.788  13.745  -1.356  1.00  0.00     0.049 A 
ATOM     42  N   UNL     1      12.746  13.269  -1.529  1.00  0.00    -0.248 NA
ATOM     43  C   UNL     1      12.330  11.479  -2.968  1.00  0.00     0.031 C 
ATOM     44  C   UNL     1       8.359  14.008  -1.191  1.00  0.00     0.029 A 
ATOM     45  N   UNL     1      10.394  14.718  -0.595  1.00  0.00    -0.354 N 
ATOM     46  C   UNL     1      13.952  12.677  -1.882  1.00  0.00     0.074 A 
ATOM     47  C   UNL     1      13.634  11.552  -2.736  1.00  0.00     0.031 C 
ATOM     48  C   UNL     1       8.197  15.069  -0.383  1.00  0.00     0.029 A 
ATOM     49  C   UNL     1       9.507  15.545   0.052  1.00  0.00     0.049 A 
ATOM     50  H   UNL     1      11.371  14.812  -0.521  1.00  0.00     0.167 HD
ATOM     51  C   UNL     1      15.211  13.045  -1.539  1.00  0.00     0.037 A 
ATOM     52  C   UNL     1       9.722  16.562   0.911  1.00  0.00     0.037 A 
ATOM     53  C   UNL     1      15.539  14.188  -0.726  1.00  0.00     0.049 A 
ATOM     54  C   UNL     1      11.131  16.954   1.266  1.00  0.00     0.074 A 
ATOM     55  C   UNL     1      16.792  14.682  -0.400  1.00  0.00     0.029 A 
ATOM     56  N   UNL     1      14.613  15.015  -0.112  1.00  0.00    -0.354 N 
ATOM     57  N   UNL     1      12.263  16.429   0.865  1.00  0.00    -0.248 NA
ATOM     58  C   UNL     1      11.293  18.088   2.190  1.00  0.00     0.031 C 
ATOM     59  C   UNL     1      16.624  15.781   0.448  1.00  0.00     0.029 A 
ATOM     60  C   UNL     1      15.266  15.999   0.613  1.00  0.00     0.049 A 
ATOM     61  H   UNL     1      13.635  14.918  -0.180  1.00  0.00     0.167 HD
ATOM     62  C   UNL     1      13.265  17.179   1.466  1.00  0.00     0.074 A 
ATOM     63  C   UNL     1      12.612  18.208   2.245  1.00  0.00     0.031 C 
ATOM     64  C   UNL     1      14.609  17.024   1.380  1.00  0.00     0.037 A 
BRANCH  51  65
ATOM     65  C   UNL     1      16.349  12.206  -2.041  1.00  0.00     0.064 A 
ATOM     66  C   UNL     1      16.756  12.245  -3.382  1.00  0.00     0.173 A 
ATOM     67  C   UNL     1      17.093  11.415  -1.152  1.00  0.00     0.173 A 
ATOM     68  F   UNL     1      16.075  12.982  -4.273  1.00  0.00    -0.203 F 
ATOM     69  C   UNL     1      17.856  11.511  -3.819  1.00  0.00     0.198 A 
ATOM     70  C   UNL     1      18.207  10.701  -1.586  1.00  0.00     0.198 A 
ATOM     71  F   UNL     1      16.751  11.350   0.144  1.00  0.00    -0.203 F 
ATOM     72  F   UNL     1      18.209  11.540  -5.111  1.00  0.00    -0.200 F 
ATOM     73  C   UNL     1      18.585  10.747  -2.919  1.00  0.00     0.200 A 
ATOM     74  F   UNL     1      18.918   9.974  -0.713  1.00  0.00    -0.200 F 
ATOM     75  F   UNL     1      19.652  10.053  -3.338  1.00  0.00    -0.200 F 
ENDBRANCH  51  65
BRANCH  52  76
ATOM     76  C   UNL     1       8.569  17.288   1.506  1.00  0.00     0.064 A 
ATOM     77  C   UNL     1       8.293  18.617   1.156  1.00  0.00     0.173 A 
ATOM     78  C   UNL     1       7.741  16.679   2.460  1.00  0.00     0.173 A 
ATOM     79  F   UNL     1       9.074  19.252   0.269  1.00  0.00    -0.203 F 
ATOM     80  C   UNL     1       7.247  19.317   1.754  1.00  0.00     0.198 A 
ATOM     81  C   UNL     1       6.678  17.370   3.037  1.00  0.00     0.198 A 
ATOM     82  F   UNL     1       7.965  15.409   2.830  1.00  0.00    -0.203 F 
ATOM     83  F   UNL     1       7.039  20.603   1.442  1.00  0.00    -0.200 F 
ATOM     84  C   UNL     1       6.438  18.692   2.691  1.00  0.00     0.200 A 
ATOM     85  F   UNL     1       5.893  16.760   3.935  1.00  0.00    -0.200 F 
ATOM     86  F   UNL     1       5.435  19.366   3.269  1.00  0.00    -0.200 F 
ENDBRANCH  52  76
BRANCH  64  87
ATOM     87  C   UNL     1      15.466  18.004   2.126  1.00  0.00     0.064 A 
ATOM     88  C   UNL     1      15.582  17.964   3.523  1.00  0.00     0.173 A 
ATOM     89  C   UNL     1      16.212  18.970   1.433  1.00  0.00     0.173 A 
ATOM     90  F   UNL     1      14.877  17.069   4.232  1.00  0.00    -0.203 F 
ATOM     91  C   UNL     1      16.395  18.869   4.201  1.00  0.00     0.198 A 
ATOM     92  C   UNL     1      17.045  19.855   2.111  1.00  0.00     0.198 A 
ATOM     93  F   UNL     1      16.142  19.046   0.095  1.00  0.00    -0.203 F 
ATOM     94  F   UNL     1      16.457  18.839   5.539  1.00  0.00    -0.200 F 
ATOM     95  C   UNL     1      17.131  19.808   3.494  1.00  0.00     0.200 A 
ATOM     96  F   UNL     1      17.764  20.755   1.426  1.00  0.00    -0.200 F 
ATOM     97  F   UNL     1      17.918  20.674   4.148  1.00  0.00    -0.200 F 
ENDBRANCH  64  87
ENDBRANCH  38  39
ENDBRANCH  30  33
ENDBRANCH  28  29
ENDBRANCH  27  28
ENDBRANCH  26  27
ENDBRANCH   1  26
TORSDOF 16
