REMARK SMILES O=C(NCCCCCCNC(=O)c1ccc([C@@H]2CC(O)=Nc3c2ncn3-c2cccc(Cl)c2)cc1)c1ccc(-c2c3nc(c(-c4c(F)c(F)c(F)c(F)c4F)c4ccc([nH]4)c(-c4c(F)c(F)c(F)c(F)c4F)c4nc(c(-c5c(F)c(F)c(F)c(F)c5F)c5ccc2[nH]5)C=C4)C=C3)cc1
REMARK SMILES IDX 6 1 5 2 4 3 3 4 1 5 2 6 36 8 37 9 98 10 38 11 97 12 39 13
REMARK SMILES IDX 40 14 41 15 91 16 42 17 96 18 90 19 92 20 43 21 95 22 89 23
REMARK SMILES IDX 88 24 44 26 76 27 56 28 75 29 57 30 60 31 74 32 93 33 58 34
REMARK SMILES IDX 59 35 73 37 94 38 61 39 45 40 46 41 54 42 47 43 48 44 52 45
REMARK SMILES IDX 55 46 49 47 50 48 53 49 51 50 77 51 78 52 86 53 79 54 80 55
REMARK SMILES IDX 84 56 87 57 81 58 82 59 85 60 83 61 62 62 63 63 71 64 64 65
REMARK SMILES IDX 65 66 69 67 72 68 66 69 67 70 70 71 68 72 7 73 8 74 9 75
REMARK SMILES IDX 10 76 11 77 12 79 13 80 14 81 35 82 15 83 34 84 16 85 17 86
REMARK SMILES IDX 18 87 23 88 19 89 22 90 24 91 21 92 26 93 25 94 20 95 27 97
REMARK SMILES IDX 28 98 33 99 29 100 31 101 30 102 32 103
REMARK H PARENT 3 7 92 25 60 36 10 78 20 96
REMARK Flexibility Score: inf
ROOT
ATOM      1  C   UNL     1       4.199  -3.232   1.434  1.00  0.00     0.002 C 
ENDROOT
BRANCH   1   2
ATOM      2  C   UNL     1       4.741  -1.798   1.430  1.00  0.00     0.021 C 
BRANCH   2   3
ATOM      3  C   UNL     1       4.574  -1.055   0.105  1.00  0.00     0.116 C 
BRANCH   3   4
ATOM      4  N   UNL     1       3.201  -0.880  -0.316  1.00  0.00    -0.352 N 
ATOM      5  O   UNL     1       1.167  -0.069  -0.645  1.00  0.00    -0.269 OA
ATOM      6  C   UNL     1       2.198  -0.018   0.029  1.00  0.00     0.251 C 
ATOM      7  H   UNL     1       2.928  -1.527  -1.006  1.00  0.00     0.163 HD
BRANCH   6   8
ATOM      8  C   UNL     1       2.243   0.910   1.190  1.00  0.00     0.039 A 
ATOM      9  C   UNL     1       3.397   1.340   1.846  1.00  0.00     0.014 A 
ATOM     10  C   UNL     1       0.995   1.381   1.641  1.00  0.00     0.014 A 
ATOM     11  C   UNL     1       3.307   2.154   2.970  1.00  0.00     0.010 A 
ATOM     12  C   UNL     1       0.897   2.209   2.751  1.00  0.00     0.010 A 
ATOM     13  C   UNL     1       2.057   2.577   3.428  1.00  0.00    -0.014 A 
BRANCH  13  14
ATOM     14  C   UNL     1       2.019   3.610   4.461  1.00  0.00     0.031 A 
ATOM     15  C   UNL     1       2.563   4.919   4.000  1.00  0.00     0.074 A 
ATOM     16  C   UNL     1       1.403   3.458   5.651  1.00  0.00     0.049 A 
ATOM     17  N   UNL     1       3.547   5.594   4.498  1.00  0.00    -0.248 NA
ATOM     18  C   UNL     1       2.025   5.489   2.751  1.00  0.00     0.031 C 
ATOM     19  C   UNL     1       0.594   2.314   6.075  1.00  0.00     0.029 A 
ATOM     20  N   UNL     1       1.265   4.337   6.690  1.00  0.00    -0.354 N 
ATOM     21  C   UNL     1       3.624   6.766   3.745  1.00  0.00     0.074 A 
ATOM     22  C   UNL     1       2.791   6.569   2.593  1.00  0.00     0.031 C 
ATOM     23  C   UNL     1      -0.131   2.660   7.161  1.00  0.00     0.029 A 
ATOM     24  C   UNL     1       0.244   4.002   7.575  1.00  0.00     0.049 A 
ATOM     25  H   UNL     1       1.834   5.132   6.802  1.00  0.00     0.167 HD
ATOM     26  C   UNL     1       4.127   7.905   4.294  1.00  0.00     0.037 A 
ATOM     27  C   UNL     1      -0.305   4.792   8.532  1.00  0.00     0.037 A 
ATOM     28  C   UNL     1       4.930   7.598   5.450  1.00  0.00     0.049 A 
ATOM     29  C   UNL     1       0.651   5.884   8.819  1.00  0.00     0.074 A 
ATOM     30  C   UNL     1       6.118   6.949   5.707  1.00  0.00     0.029 A 
ATOM     31  N   UNL     1       4.273   7.711   6.644  1.00  0.00    -0.354 N 
ATOM     32  N   UNL     1       1.788   5.718   9.430  1.00  0.00    -0.248 NA
ATOM     33  C   UNL     1       0.492   7.159   8.132  1.00  0.00     0.031 C 
ATOM     34  C   UNL     1       5.995   6.426   7.030  1.00  0.00     0.029 A 
ATOM     35  C   UNL     1       4.757   6.809   7.545  1.00  0.00     0.049 A 
ATOM     36  H   UNL     1       3.551   8.355   6.828  1.00  0.00     0.167 HD
ATOM     37  C   UNL     1       2.633   6.632   8.831  1.00  0.00     0.074 A 
ATOM     38  C   UNL     1       1.749   7.602   8.197  1.00  0.00     0.031 C 
ATOM     39  C   UNL     1       3.949   6.323   8.640  1.00  0.00     0.037 A 
BRANCH  26  40
ATOM     40  C   UNL     1       3.459   9.271   4.156  1.00  0.00     0.064 A 
ATOM     41  C   UNL     1       4.035  10.368   4.836  1.00  0.00     0.173 A 
ATOM     42  C   UNL     1       2.127   9.468   3.726  1.00  0.00     0.173 A 
ATOM     43  F   UNL     1       5.294  10.302   5.296  1.00  0.00    -0.203 F 
ATOM     44  C   UNL     1       3.296  11.508   5.170  1.00  0.00     0.198 A 
ATOM     45  C   UNL     1       1.409  10.628   4.019  1.00  0.00     0.198 A 
ATOM     46  F   UNL     1       1.420   8.518   3.108  1.00  0.00    -0.203 F 
ATOM     47  F   UNL     1       3.841  12.450   5.951  1.00  0.00    -0.200 F 
ATOM     48  C   UNL     1       1.978  11.629   4.774  1.00  0.00     0.200 A 
ATOM     49  F   UNL     1       0.126  10.718   3.640  1.00  0.00    -0.200 F 
ATOM     50  F   UNL     1       1.242  12.680   5.159  1.00  0.00    -0.200 F 
ENDBRANCH  26  40
BRANCH  27  51
ATOM     51  C   UNL     1      -1.692   4.814   9.064  1.00  0.00     0.064 A 
ATOM     52  C   UNL     1      -2.006   5.510  10.247  1.00  0.00     0.173 A 
ATOM     53  C   UNL     1      -2.785   4.396   8.283  1.00  0.00     0.173 A 
ATOM     54  F   UNL     1      -1.029   5.983  11.034  1.00  0.00    -0.203 F 
ATOM     55  C   UNL     1      -3.329   5.801  10.602  1.00  0.00     0.198 A 
ATOM     56  C   UNL     1      -4.105   4.676   8.645  1.00  0.00     0.198 A 
ATOM     57  F   UNL     1      -2.596   3.793   7.101  1.00  0.00    -0.203 F 
ATOM     58  F   UNL     1      -3.582   6.530  11.698  1.00  0.00    -0.200 F 
ATOM     59  C   UNL     1      -4.376   5.393   9.794  1.00  0.00     0.200 A 
ATOM     60  F   UNL     1      -5.107   4.304   7.835  1.00  0.00    -0.200 F 
ATOM     61  F   UNL     1      -5.638   5.726  10.098  1.00  0.00    -0.200 F 
ENDBRANCH  27  51
BRANCH  39  62
ATOM     62  C   UNL     1       4.539   5.268   9.524  1.00  0.00     0.064 A 
ATOM     63  C   UNL     1       4.127   3.926   9.555  1.00  0.00     0.173 A 
ATOM     64  C   UNL     1       5.624   5.634  10.333  1.00  0.00     0.173 A 
ATOM     65  F   UNL     1       3.162   3.477   8.741  1.00  0.00    -0.203 F 
ATOM     66  C   UNL     1       4.739   3.009  10.407  1.00  0.00     0.198 A 
ATOM     67  C   UNL     1       6.261   4.706  11.148  1.00  0.00     0.198 A 
ATOM     68  F   UNL     1       6.089   6.893  10.306  1.00  0.00    -0.203 F 
ATOM     69  F   UNL     1       4.309   1.739  10.447  1.00  0.00    -0.200 F 
ATOM     70  C   UNL     1       5.808   3.398  11.198  1.00  0.00     0.200 A 
ATOM     71  F   UNL     1       7.325   5.078  11.873  1.00  0.00    -0.200 F 
ATOM     72  F   UNL     1       6.417   2.508  11.993  1.00  0.00    -0.200 F 
ENDBRANCH  39  62
ENDBRANCH  13  14
ENDBRANCH   6   8
ENDBRANCH   3   4
ENDBRANCH   2   3
ENDBRANCH   1   2
BRANCH   1  73
ATOM     73  C   UNL     1       4.715  -4.138   0.312  1.00  0.00     0.002 C 
BRANCH  73  74
ATOM     74  C   UNL     1       6.238  -4.228   0.186  1.00  0.00     0.021 C 
BRANCH  74  75
ATOM     75  C   UNL     1       6.955  -4.738   1.432  1.00  0.00     0.116 C 
BRANCH  75  76
ATOM     76  N   UNL     1       6.628  -6.125   1.720  1.00  0.00    -0.352 N 
ATOM     77  C   UNL     1       7.474  -7.195   1.834  1.00  0.00     0.251 C 
ATOM     78  H   UNL     1       5.672  -6.320   1.852  1.00  0.00     0.163 HD
ATOM     79  O   UNL     1       7.024  -8.344   1.898  1.00  0.00    -0.269 OA
BRANCH  77  80
ATOM     80  C   UNL     1       8.932  -6.978   1.863  1.00  0.00     0.039 A 
ATOM     81  C   UNL     1       9.741  -7.712   0.997  1.00  0.00     0.014 A 
ATOM     82  C   UNL     1       9.499  -6.056   2.749  1.00  0.00     0.014 A 
ATOM     83  C   UNL     1      11.116  -7.480   0.978  1.00  0.00     0.005 A 
ATOM     84  C   UNL     1      10.872  -5.814   2.717  1.00  0.00     0.005 A 
ATOM     85  C   UNL     1      11.699  -6.522   1.829  1.00  0.00    -0.038 A 
BRANCH  85  86
ATOM     86  C   UNL     1      13.206  -6.340   1.813  1.00  0.00     0.081 C 
ATOM     87  C   UNL     1      13.836  -6.617   3.197  1.00  0.00     0.111 C 
ATOM     88  C   UNL     1      13.485  -4.955   1.355  1.00  0.00     0.093 A 
ATOM     89  C   UNL     1      14.342  -5.386   3.929  1.00  0.00     0.188 C 
ATOM     90  C   UNL     1      14.175  -4.066   2.148  1.00  0.00     0.164 A 
ATOM     91  N   UNL     1      13.123  -4.389   0.162  1.00  0.00    -0.238 NA
ATOM     92  N   UNL     1      14.565  -4.210   3.437  1.00  0.00    -0.198 NA
ATOM     93  N   UNL     1      14.290  -2.914   1.394  1.00  0.00    -0.283 N 
ATOM     94  C   UNL     1      13.576  -3.152   0.236  1.00  0.00     0.206 A 
BRANCH  89  95
ATOM     95  O   UNL     1      14.629  -5.595   5.228  1.00  0.00    -0.496 OA
ATOM     96  H   UNL     1      14.478  -6.436   5.611  1.00  0.00     0.294 HD
ENDBRANCH  89  95
BRANCH  93  97
ATOM     97  C   UNL     1      15.018  -1.746   1.719  1.00  0.00     0.050 A 
ATOM     98  C   UNL     1      14.518  -0.481   1.388  1.00  0.00     0.027 A 
ATOM     99  C   UNL     1      16.254  -1.869   2.369  1.00  0.00     0.047 A 
ATOM    100  C   UNL     1      15.239   0.659   1.752  1.00  0.00     0.004 A 
ATOM    101  C   UNL     1      16.986  -0.726   2.679  1.00  0.00     0.043 A 
ATOM    102  C   UNL     1      16.477   0.537   2.389  1.00  0.00     0.020 A 
ATOM    103  Cl  UNL     1      18.538  -0.877   3.407  1.00  0.00    -0.084 Cl
ENDBRANCH  93  97
ENDBRANCH  85  86
ENDBRANCH  77  80
ENDBRANCH  75  76
ENDBRANCH  74  75
ENDBRANCH  73  74
ENDBRANCH   1  73
TORSDOF 16
