REMARK SMILES Cc1cscc1-c1ncc(C(=O)NCCCCCCNC(=O)c2ccc(-c3c4nc(c(-c5c(F)c(F)c(F)c(F)c5F)c5ccc([nH]5)c(-c5c(F)c(F)c(F)c(F)c5F)c5nc(c(-c6c(F)c(F)c(F)c(F)c6F)c6ccc3[nH]6)C=C5)C=C4)cc2)c(=O)[nH]1
REMARK SMILES IDX 17 1 16 2 15 3 14 4 13 5 11 6 12 7 10 9 7 10 8 11 88 12 9 13
REMARK SMILES IDX 86 14 87 16 6 17 1 18 2 19 3 20 4 21 5 22 18 23 19 24 20 25
REMARK SMILES IDX 21 26 22 28 23 29 24 30 85 31 25 32 84 33 26 34 27 35 28 36
REMARK SMILES IDX 78 37 29 38 83 39 77 40 79 41 30 42 82 43 76 44 75 45 31 47
REMARK SMILES IDX 63 48 43 49 62 50 44 51 47 52 61 53 80 54 45 55 46 56 60 58
REMARK SMILES IDX 81 59 48 60 32 61 33 62 41 63 34 64 35 65 39 66 42 67 36 68
REMARK SMILES IDX 37 69 40 70 38 71 64 72 65 73 73 74 66 75 67 76 71 77 74 78
REMARK SMILES IDX 68 79 69 80 72 81 70 82 49 83 50 84 58 85 51 86 52 87 56 88
REMARK SMILES IDX 59 89 53 90 54 91 57 92 55 93
REMARK H PARENT 13 8 88 15 20 27 79 46 47 57
REMARK Flexibility Score: inf
ROOT
ATOM      1  C   UNL     1       2.908   9.887   3.384  1.00  0.00     0.002 C 
ENDROOT
BRANCH   1   2
ATOM      2  C   UNL     1       3.847   8.682   3.254  1.00  0.00     0.002 C 
BRANCH   2   3
ATOM      3  C   UNL     1       3.139   7.338   3.028  1.00  0.00     0.021 C 
BRANCH   3   4
ATOM      4  C   UNL     1       2.335   7.295   1.726  1.00  0.00     0.116 C 
BRANCH   4   5
ATOM      5  N   UNL     1       3.218   7.032   0.608  1.00  0.00    -0.352 N 
ATOM      6  C   UNL     1       3.489   5.907  -0.102  1.00  0.00     0.258 C 
ATOM      7  O   UNL     1       4.365   6.009  -0.967  1.00  0.00    -0.269 OA
ATOM      8  H   UNL     1       3.718   7.823   0.303  1.00  0.00     0.163 HD
BRANCH   6   9
ATOM      9  C   UNL     1       2.740   4.635   0.058  1.00  0.00     0.123 A 
ATOM     10  C   UNL     1       1.309   2.304  -0.109  1.00  0.00     0.141 A 
ATOM     11  N   UNL     1       2.051   2.626  -1.114  1.00  0.00    -0.237 NA
ATOM     12  N   UNL     1       1.218   3.042   1.031  1.00  0.00    -0.306 N 
ATOM     13  C   UNL     1       2.712   3.827  -1.019  1.00  0.00     0.133 A 
ATOM     14  C   UNL     1       2.050   4.102   1.251  1.00  0.00     0.264 A 
ATOM     15  H   UNL     1       0.541   2.809   1.707  1.00  0.00     0.171 HD
ATOM     16  O   UNL     1       2.237   4.501   2.396  1.00  0.00    -0.269 OA
BRANCH  10  17
ATOM     17  C   UNL     1       0.568   1.062  -0.125  1.00  0.00     0.031 A 
ATOM     18  C   UNL     1       2.623  -0.525  -0.117  1.00  0.00     0.046 C 
ATOM     19  C   UNL     1       1.153  -0.258  -0.126  1.00  0.00    -0.029 A 
ATOM     20  C   UNL     1       0.176  -1.235  -0.115  1.00  0.00     0.069 A 
ATOM     21  S   UNL     1      -1.406  -0.592  -0.111  1.00  0.00    -0.151 S 
ATOM     22  C   UNL     1      -0.813   1.009  -0.119  1.00  0.00     0.077 A 
ENDBRANCH  10  17
ENDBRANCH   6   9
ENDBRANCH   4   5
ENDBRANCH   3   4
ENDBRANCH   2   3
ENDBRANCH   1   2
BRANCH   1  23
ATOM     23  C   UNL     1       1.819   9.741   4.450  1.00  0.00     0.021 C 
BRANCH  23  24
ATOM     24  C   UNL     1       2.355   9.559   5.865  1.00  0.00     0.116 C 
BRANCH  24  25
ATOM     25  N   UNL     1       3.090  10.732   6.312  1.00  0.00    -0.352 N 
ATOM     26  C   UNL     1       2.886  11.519   7.415  1.00  0.00     0.251 C 
ATOM     27  H   UNL     1       3.845  10.999   5.738  1.00  0.00     0.163 HD
ATOM     28  O   UNL     1       3.441  12.608   7.508  1.00  0.00    -0.269 OA
BRANCH  26  29
ATOM     29  C   UNL     1       1.990  11.055   8.494  1.00  0.00     0.039 A 
ATOM     30  C   UNL     1       1.122  11.972   9.093  1.00  0.00     0.014 A 
ATOM     31  C   UNL     1       2.030   9.731   8.939  1.00  0.00     0.014 A 
ATOM     32  C   UNL     1       0.270  11.550  10.114  1.00  0.00     0.010 A 
ATOM     33  C   UNL     1       1.125   9.294   9.901  1.00  0.00     0.010 A 
ATOM     34  C   UNL     1       0.249  10.203  10.511  1.00  0.00    -0.014 A 
BRANCH  34  35
ATOM     35  C   UNL     1      -0.662   9.737  11.586  1.00  0.00     0.031 A 
ATOM     36  C   UNL     1      -0.097   9.204  12.874  1.00  0.00     0.074 A 
ATOM     37  C   UNL     1      -1.993   9.753  11.383  1.00  0.00     0.049 A 
ATOM     38  N   UNL     1      -0.725   8.717  13.915  1.00  0.00    -0.248 NA
ATOM     39  C   UNL     1       1.369   9.190  12.998  1.00  0.00     0.031 C 
ATOM     40  C   UNL     1      -2.656  10.201  10.159  1.00  0.00     0.029 A 
ATOM     41  N   UNL     1      -3.027   9.376  12.203  1.00  0.00    -0.354 N 
ATOM     42  C   UNL     1       0.268   8.330  14.806  1.00  0.00     0.074 A 
ATOM     43  C   UNL     1       1.538   8.579  14.161  1.00  0.00     0.031 C 
ATOM     44  C   UNL     1      -3.985  10.102  10.317  1.00  0.00     0.029 A 
ATOM     45  C   UNL     1      -4.266   9.549  11.639  1.00  0.00     0.049 A 
ATOM     46  H   UNL     1      -2.893   9.016  13.110  1.00  0.00     0.167 HD
ATOM     47  C   UNL     1       0.132   7.838  16.061  1.00  0.00     0.037 A 
ATOM     48  C   UNL     1      -5.491   9.288  12.133  1.00  0.00     0.037 A 
ATOM     49  C   UNL     1      -1.135   7.612  16.706  1.00  0.00     0.049 A 
ATOM     50  C   UNL     1      -5.615   8.737  13.528  1.00  0.00     0.074 A 
ATOM     51  C   UNL     1      -1.382   7.166  17.992  1.00  0.00     0.029 A 
ATOM     52  N   UNL     1      -2.371   7.813  16.108  1.00  0.00    -0.354 N 
ATOM     53  N   UNL     1      -4.671   8.441  14.389  1.00  0.00    -0.248 NA
ATOM     54  C   UNL     1      -6.976   8.495  14.024  1.00  0.00     0.031 C 
ATOM     55  C   UNL     1      -2.767   7.048  18.155  1.00  0.00     0.029 A 
ATOM     56  C   UNL     1      -3.384   7.479  16.992  1.00  0.00     0.049 A 
ATOM     57  H   UNL     1      -2.508   8.144  15.191  1.00  0.00     0.167 HD
ATOM     58  C   UNL     1      -5.323   8.010  15.537  1.00  0.00     0.074 A 
ATOM     59  C   UNL     1      -6.743   8.098  15.266  1.00  0.00     0.031 C 
ATOM     60  C   UNL     1      -4.794   7.581  16.710  1.00  0.00     0.037 A 
BRANCH  47  61
ATOM     61  C   UNL     1       1.389   7.511  16.818  1.00  0.00     0.064 A 
ATOM     62  C   UNL     1       2.270   8.514  17.252  1.00  0.00     0.173 A 
ATOM     63  C   UNL     1       1.704   6.182  17.137  1.00  0.00     0.173 A 
ATOM     64  F   UNL     1       2.023   9.801  16.965  1.00  0.00    -0.203 F 
ATOM     65  C   UNL     1       3.436   8.196  17.945  1.00  0.00     0.198 A 
ATOM     66  C   UNL     1       2.853   5.870  17.859  1.00  0.00     0.198 A 
ATOM     67  F   UNL     1       0.895   5.183  16.752  1.00  0.00    -0.203 F 
ATOM     68  F   UNL     1       4.290   9.166  18.297  1.00  0.00    -0.200 F 
ATOM     69  C   UNL     1       3.723   6.875  18.254  1.00  0.00     0.200 A 
ATOM     70  F   UNL     1       3.121   4.594  18.170  1.00  0.00    -0.200 F 
ATOM     71  F   UNL     1       4.841   6.571  18.926  1.00  0.00    -0.200 F 
ENDBRANCH  47  61
BRANCH  48  72
ATOM     72  C   UNL     1      -6.699   9.578  11.316  1.00  0.00     0.064 A 
ATOM     73  C   UNL     1      -7.580  10.608  11.674  1.00  0.00     0.173 A 
ATOM     74  C   UNL     1      -7.000   8.832  10.167  1.00  0.00     0.173 A 
ATOM     75  F   UNL     1      -7.345  11.337  12.775  1.00  0.00    -0.203 F 
ATOM     76  C   UNL     1      -8.729  10.866  10.928  1.00  0.00     0.198 A 
ATOM     77  C   UNL     1      -8.133   9.111   9.405  1.00  0.00     0.198 A 
ATOM     78  F   UNL     1      -6.186   7.840   9.777  1.00  0.00    -0.203 F 
ATOM     79  F   UNL     1      -9.579  11.823  11.322  1.00  0.00    -0.200 F 
ATOM     80  C   UNL     1      -9.001  10.120   9.791  1.00  0.00     0.200 A 
ATOM     81  F   UNL     1      -8.384   8.399   8.297  1.00  0.00    -0.200 F 
ATOM     82  F   UNL     1     -10.104  10.371   9.072  1.00  0.00    -0.200 F 
ENDBRANCH  48  72
BRANCH  60  83
ATOM     83  C   UNL     1      -5.755   7.218  17.805  1.00  0.00     0.064 A 
ATOM     84  C   UNL     1      -6.562   6.073  17.733  1.00  0.00     0.173 A 
ATOM     85  C   UNL     1      -5.847   8.014  18.958  1.00  0.00     0.173 A 
ATOM     86  F   UNL     1      -6.522   5.286  16.647  1.00  0.00    -0.203 F 
ATOM     87  C   UNL     1      -7.449   5.756  18.759  1.00  0.00     0.198 A 
ATOM     88  C   UNL     1      -6.709   7.676  19.997  1.00  0.00     0.198 A 
ATOM     89  F   UNL     1      -5.092   9.116  19.081  1.00  0.00    -0.203 F 
ATOM     90  F   UNL     1      -8.251   4.689  18.643  1.00  0.00    -0.200 F 
ATOM     91  C   UNL     1      -7.516   6.553  19.892  1.00  0.00     0.200 A 
ATOM     92  F   UNL     1      -6.761   8.438  21.098  1.00  0.00    -0.200 F 
ATOM     93  F   UNL     1      -8.367   6.244  20.881  1.00  0.00    -0.200 F 
ENDBRANCH  60  83
ENDBRANCH  34  35
ENDBRANCH  26  29
ENDBRANCH  24  25
ENDBRANCH  23  24
ENDBRANCH   1  23
TORSDOF 14
