REMARK SMILES O=C(NCCCCCCNC(=O)[C@]1(NC(=O)C2CCN(C(=O)C3CC3)CC2)CCCc2ccccc21)c1ccc(-c2c3nc(c(-c4c(F)c(F)c(F)c(F)c4F)c4ccc([nH]4)c(-c4c(F)c(F)c(F)c(F)c4F)c4nc(c(-c5c(F)c(F)c(F)c(F)c5F)c5ccc2[nH]5)C=C4)C=C3)cc1
REMARK SMILES IDX 7 1 6 2 5 3 4 4 3 5 1 6 2 7 37 9 38 10 99 11 39 12 98 13
REMARK SMILES IDX 40 14 41 15 42 16 92 17 43 18 97 19 91 20 93 21 44 22 96 23
REMARK SMILES IDX 90 24 89 25 45 27 77 28 57 29 76 30 58 31 61 32 75 33 94 34
REMARK SMILES IDX 59 35 60 36 74 38 95 39 62 40 46 41 47 42 55 43 48 44 49 45
REMARK SMILES IDX 53 46 56 47 50 48 51 49 54 50 52 51 78 52 79 53 87 54 80 55
REMARK SMILES IDX 81 56 85 57 88 58 82 59 83 60 86 61 84 62 63 63 64 64 72 65
REMARK SMILES IDX 65 66 66 67 70 68 73 69 67 70 68 71 71 72 69 73 8 74 9 75
REMARK SMILES IDX 10 76 11 77 12 79 13 80 28 81 36 82 29 83 31 84 35 85 30 86
REMARK SMILES IDX 32 87 34 88 33 89 14 90 15 91 16 93 17 94 18 95 27 96 19 97
REMARK SMILES IDX 26 98 20 99 21 100 22 101 23 102 24 103 25 104
REMARK H PARENT 3 8 93 26 61 37 10 78 14 92
REMARK Flexibility Score: inf
ROOT
ATOM      1  C   UNL     1       3.423  -3.688   3.383  1.00  0.00     0.002 C 
ENDROOT
BRANCH   1   2
ATOM      2  C   UNL     1       2.726  -2.326   3.550  1.00  0.00     0.002 C 
BRANCH   2   3
ATOM      3  C   UNL     1       3.152  -1.171   2.620  1.00  0.00     0.021 C 
BRANCH   3   4
ATOM      4  C   UNL     1       2.916  -1.349   1.110  1.00  0.00     0.116 C 
BRANCH   4   5
ATOM      5  N   UNL     1       1.586  -0.931   0.692  1.00  0.00    -0.352 N 
ATOM      6  O   UNL     1      -0.060   0.352  -0.132  1.00  0.00    -0.269 OA
ATOM      7  C   UNL     1       1.150   0.172  -0.007  1.00  0.00     0.251 C 
ATOM      8  H   UNL     1       0.867  -1.550   0.957  1.00  0.00     0.163 HD
BRANCH   7   9
ATOM      9  C   UNL     1       2.066   1.183  -0.600  1.00  0.00     0.039 A 
ATOM     10  C   UNL     1       3.014   0.866  -1.571  1.00  0.00     0.014 A 
ATOM     11  C   UNL     1       1.844   2.533  -0.303  1.00  0.00     0.014 A 
ATOM     12  C   UNL     1       3.794   1.886  -2.166  1.00  0.00     0.010 A 
ATOM     13  C   UNL     1       2.590   3.547  -0.934  1.00  0.00     0.010 A 
ATOM     14  C   UNL     1       3.602   3.247  -1.862  1.00  0.00    -0.014 A 
BRANCH  14  15
ATOM     15  C   UNL     1       4.407   4.356  -2.497  1.00  0.00     0.031 A 
ATOM     16  C   UNL     1       5.100   5.411  -1.653  1.00  0.00     0.074 A 
ATOM     17  C   UNL     1       4.498   4.491  -3.838  1.00  0.00     0.049 A 
ATOM     18  N   UNL     1       5.647   6.551  -2.016  1.00  0.00    -0.248 NA
ATOM     19  C   UNL     1       5.184   5.152  -0.209  1.00  0.00     0.031 C 
ATOM     20  C   UNL     1       3.928   3.580  -4.826  1.00  0.00     0.029 A 
ATOM     21  N   UNL     1       5.096   5.473  -4.605  1.00  0.00    -0.354 N 
ATOM     22  C   UNL     1       6.083   7.165  -0.847  1.00  0.00     0.074 A 
ATOM     23  C   UNL     1       5.740   6.269   0.240  1.00  0.00     0.031 C 
ATOM     24  C   UNL     1       4.215   4.027  -6.059  1.00  0.00     0.029 A 
ATOM     25  C   UNL     1       4.915   5.305  -5.958  1.00  0.00     0.049 A 
ATOM     26  H   UNL     1       5.604   6.223  -4.219  1.00  0.00     0.167 HD
ATOM     27  C   UNL     1       6.709   8.359  -0.682  1.00  0.00     0.037 A 
ATOM     28  C   UNL     1       5.221   6.094  -7.009  1.00  0.00     0.037 A 
ATOM     29  C   UNL     1       7.118   9.246  -1.745  1.00  0.00     0.049 A 
ATOM     30  C   UNL     1       5.877   7.432  -6.808  1.00  0.00     0.074 A 
ATOM     31  C   UNL     1       7.805  10.447  -1.647  1.00  0.00     0.029 A 
ATOM     32  N   UNL     1       6.889   9.034  -3.094  1.00  0.00    -0.354 N 
ATOM     33  N   UNL     1       6.254   8.009  -5.695  1.00  0.00    -0.248 NA
ATOM     34  C   UNL     1       6.135   8.237  -8.014  1.00  0.00     0.031 C 
ATOM     35  C   UNL     1       7.953  10.982  -2.931  1.00  0.00     0.029 A 
ATOM     36  C   UNL     1       7.402  10.091  -3.834  1.00  0.00     0.049 A 
ATOM     37  H   UNL     1       6.430   8.249  -3.472  1.00  0.00     0.167 HD
ATOM     38  C   UNL     1       6.808   9.228  -6.065  1.00  0.00     0.074 A 
ATOM     39  C   UNL     1       6.727   9.311  -7.506  1.00  0.00     0.031 C 
ATOM     40  C   UNL     1       7.336  10.188  -5.269  1.00  0.00     0.037 A 
BRANCH  27  41
ATOM     41  C   UNL     1       6.982   8.816   0.724  1.00  0.00     0.064 A 
ATOM     42  C   UNL     1       7.989   8.239   1.510  1.00  0.00     0.173 A 
ATOM     43  C   UNL     1       6.269   9.901   1.262  1.00  0.00     0.173 A 
ATOM     44  F   UNL     1       8.697   7.199   1.045  1.00  0.00    -0.203 F 
ATOM     45  C   UNL     1       8.254   8.712   2.794  1.00  0.00     0.198 A 
ATOM     46  C   UNL     1       6.556  10.389   2.534  1.00  0.00     0.198 A 
ATOM     47  F   UNL     1       5.308  10.501   0.544  1.00  0.00    -0.203 F 
ATOM     48  F   UNL     1       9.192   8.118   3.544  1.00  0.00    -0.200 F 
ATOM     49  C   UNL     1       7.543   9.790   3.301  1.00  0.00     0.200 A 
ATOM     50  F   UNL     1       5.881  11.442   3.015  1.00  0.00    -0.200 F 
ATOM     51  F   UNL     1       7.806  10.249   4.533  1.00  0.00    -0.200 F 
ENDBRANCH  27  41
BRANCH  28  52
ATOM     52  C   UNL     1       4.861   5.642  -8.380  1.00  0.00     0.064 A 
ATOM     53  C   UNL     1       5.848   5.231  -9.285  1.00  0.00     0.173 A 
ATOM     54  C   UNL     1       3.524   5.593  -8.799  1.00  0.00     0.173 A 
ATOM     55  F   UNL     1       7.143   5.297  -8.940  1.00  0.00    -0.203 F 
ATOM     56  C   UNL     1       5.509   4.782 -10.559  1.00  0.00     0.198 A 
ATOM     57  C   UNL     1       3.184   5.116 -10.062  1.00  0.00     0.198 A 
ATOM     58  F   UNL     1       2.545   5.985  -7.970  1.00  0.00    -0.203 F 
ATOM     59  F   UNL     1       6.472   4.422 -11.419  1.00  0.00    -0.200 F 
ATOM     60  C   UNL     1       4.178   4.713 -10.942  1.00  0.00     0.200 A 
ATOM     61  F   UNL     1       1.897   5.040 -10.424  1.00  0.00    -0.200 F 
ATOM     62  F   UNL     1       3.852   4.262 -12.161  1.00  0.00    -0.200 F 
ENDBRANCH  28  52
BRANCH  40  63
ATOM     63  C   UNL     1       7.916  11.407  -5.927  1.00  0.00     0.064 A 
ATOM     64  C   UNL     1       7.101  12.406  -6.479  1.00  0.00     0.173 A 
ATOM     65  C   UNL     1       9.306  11.601  -5.965  1.00  0.00     0.173 A 
ATOM     66  F   UNL     1       5.767  12.264  -6.483  1.00  0.00    -0.203 F 
ATOM     67  C   UNL     1       7.657  13.547  -7.057  1.00  0.00     0.198 A 
ATOM     68  C   UNL     1       9.857  12.752  -6.523  1.00  0.00     0.198 A 
ATOM     69  F   UNL     1      10.131  10.678  -5.448  1.00  0.00    -0.203 F 
ATOM     70  F   UNL     1       6.860  14.474  -7.608  1.00  0.00    -0.200 F 
ATOM     71  C   UNL     1       9.032  13.722  -7.072  1.00  0.00     0.200 A 
ATOM     72  F   UNL     1      11.186  12.924  -6.528  1.00  0.00    -0.200 F 
ATOM     73  F   UNL     1       9.564  14.823  -7.621  1.00  0.00    -0.200 F 
ENDBRANCH  40  63
ENDBRANCH  14  15
ENDBRANCH   7   9
ENDBRANCH   4   5
ENDBRANCH   3   4
ENDBRANCH   2   3
ENDBRANCH   1   2
BRANCH   1  74
ATOM     74  C   UNL     1       4.955  -3.683   3.343  1.00  0.00     0.021 C 
BRANCH  74  75
ATOM     75  C   UNL     1       5.723  -3.665   4.689  1.00  0.00     0.116 C 
BRANCH  75  76
ATOM     76  N   UNL     1       6.073  -5.021   5.088  1.00  0.00    -0.354 N 
ATOM     77  C   UNL     1       7.165  -5.828   5.062  1.00  0.00     0.250 C 
ATOM     78  H   UNL     1       5.301  -5.483   5.488  1.00  0.00     0.163 HD
ATOM     79  O   UNL     1       6.835  -7.008   5.282  1.00  0.00    -0.272 OA
BRANCH  77  80
ATOM     80  C   UNL     1       8.742  -5.451   5.001  1.00  0.00     0.145 C 
ATOM     81  C   UNL     1       9.493  -6.773   4.597  1.00  0.00     0.044 C 
ATOM     82  C   UNL     1       9.174  -5.013   6.432  1.00  0.00    -0.010 A 
ATOM     83  C   UNL     1       9.650  -7.792   5.724  1.00  0.00     0.008 C 
ATOM     84  C   UNL     1       9.954  -5.826   7.280  1.00  0.00    -0.042 A 
ATOM     85  C   UNL     1       8.864  -3.705   6.866  1.00  0.00     0.007 A 
ATOM     86  C   UNL     1      10.428  -7.199   6.884  1.00  0.00     0.036 C 
ATOM     87  C   UNL     1      10.403  -5.318   8.513  1.00  0.00     0.004 A 
ATOM     88  C   UNL     1       9.326  -3.211   8.086  1.00  0.00     0.000 A 
ATOM     89  C   UNL     1      10.094  -4.019   8.911  1.00  0.00     0.000 A 
BRANCH  80  90
ATOM     90  N   UNL     1       9.336  -4.389   4.126  1.00  0.00    -0.338 N 
ATOM     91  C   UNL     1       9.330  -4.343   2.754  1.00  0.00     0.224 C 
ATOM     92  H   UNL     1       9.780  -3.640   4.587  1.00  0.00     0.164 HD
ATOM     93  O   UNL     1      10.366  -4.461   2.102  1.00  0.00    -0.275 OA
BRANCH  91  94
ATOM     94  C   UNL     1       8.057  -3.792   2.183  1.00  0.00     0.082 C 
ATOM     95  C   UNL     1       7.698  -4.267   0.772  1.00  0.00     0.035 C 
ATOM     96  C   UNL     1       8.094  -2.268   2.423  1.00  0.00     0.035 C 
ATOM     97  C   UNL     1       7.757  -3.226  -0.346  1.00  0.00     0.120 C 
ATOM     98  C   UNL     1       8.452  -1.486   1.180  1.00  0.00     0.120 C 
ATOM     99  N   UNL     1       7.529  -1.865   0.132  1.00  0.00    -0.342 N 
ATOM    100  C   UNL     1       6.459  -1.141  -0.364  1.00  0.00     0.225 C 
ATOM    101  O   UNL     1       5.667  -1.657  -1.170  1.00  0.00    -0.275 OA
BRANCH 100 102
ATOM    102  C   UNL     1       6.129   0.264   0.008  1.00  0.00     0.079 C 
ATOM    103  C   UNL     1       6.065   0.804   1.409  1.00  0.00     0.014 C 
ATOM    104  C   UNL     1       7.021   1.398   0.403  1.00  0.00     0.014 C 
ENDBRANCH 100 102
ENDBRANCH  91  94
ENDBRANCH  80  90
ENDBRANCH  77  80
ENDBRANCH  75  76
ENDBRANCH  74  75
ENDBRANCH   1  74
TORSDOF 16
