REMARK SMILES Cc1ccc(/N=N/c2ccc(NC(=O)CCC(=O)NCCCCCCNC(=O)c3ccc(-c4c5nc(c(-c6c(F)c(F)c(F)c(F)c6F)c6ccc([nH]6)c(-c6c(F)c(F)c(F)c(F)c6F)c6nc(c(-c7c(F)c(F)c(F)c(F)c7F)c7ccc4[nH]7)C=C6)C=C5)cc3)cc2)cc1
REMARK SMILES IDX 21 1 20 2 19 3 17 4 18 5 16 7 15 8 13 9 12 10 14 12 11 13
REMARK SMILES IDX 8 14 9 15 93 16 10 17 92 18 7 19 6 20 5 21 1 22 2 23 3 24
REMARK SMILES IDX 95 25 4 26 94 27 22 28 23 29 24 30 25 31 26 32 27 33 28 35
REMARK SMILES IDX 29 36 30 37 91 38 31 39 90 40 32 41 33 42 34 43 84 44 35 45
REMARK SMILES IDX 89 46 83 47 85 48 36 49 88 50 82 51 81 52 37 54 69 55 49 56
REMARK SMILES IDX 68 57 50 58 53 59 67 60 86 61 51 62 52 63 66 65 87 66 54 67
REMARK SMILES IDX 38 68 39 69 47 70 40 71 41 72 45 73 48 74 42 75 43 76 46 77
REMARK SMILES IDX 44 78 70 79 71 80 79 81 72 82 73 83 77 84 80 85 74 86 75 87
REMARK SMILES IDX 78 88 76 89 55 90 56 91 64 92 57 93 58 94 62 95 65 96 59 97
REMARK SMILES IDX 60 98 63 99 61 100
REMARK H PARENT 19 6 12 11 26 34 85 53 53 64
REMARK Flexibility Score: inf
ROOT
ATOM      1  C   UNL     1     -10.200   0.652   1.470  1.00  0.00     0.021 C 
ENDROOT
BRANCH   1   2
ATOM      2  C   UNL     1     -10.029   2.167   1.573  1.00  0.00     0.116 C 
BRANCH   2   3
ATOM      3  N   UNL     1      -8.679   2.610   1.280  1.00  0.00    -0.356 N 
ATOM      4  C   UNL     1      -8.253   3.603   0.451  1.00  0.00     0.220 C 
ATOM      5  O   UNL     1      -7.061   3.910   0.455  1.00  0.00    -0.275 OA
ATOM      6  H   UNL     1      -7.966   2.120   1.750  1.00  0.00     0.163 HD
BRANCH   4   7
ATOM      7  C   UNL     1      -9.231   4.303  -0.464  1.00  0.00     0.110 C 
BRANCH   7   8
ATOM      8  C   UNL     1      -9.292   3.718  -1.870  1.00  0.00     0.110 C 
BRANCH   8   9
ATOM      9  C   UNL     1      -9.767   2.281  -1.934  1.00  0.00     0.224 C 
ATOM     10  N   UNL     1      -8.930   1.209  -1.823  1.00  0.00    -0.326 N 
ATOM     11  H   UNL     1      -9.373   0.336  -1.924  1.00  0.00     0.169 HD
ATOM     12  O   UNL     1     -10.981   2.046  -1.989  1.00  0.00    -0.275 OA
BRANCH  10  13
ATOM     13  C   UNL     1      -7.551   1.133  -1.591  1.00  0.00     0.041 A 
ATOM     14  C   UNL     1      -4.865   1.051  -0.762  1.00  0.00     0.086 A 
ATOM     15  C   UNL     1      -5.290   1.965  -1.729  1.00  0.00     0.032 A 
ATOM     16  C   UNL     1      -5.787   0.127  -0.262  1.00  0.00     0.032 A 
ATOM     17  C   UNL     1      -6.619   1.997  -2.154  1.00  0.00     0.028 A 
ATOM     18  C   UNL     1      -7.112   0.144  -0.703  1.00  0.00     0.028 A 
BRANCH  14  19
ATOM     19  N   UNL     1      -3.530   1.126  -0.334  1.00  0.00    -0.151 NA
ATOM     20  N   UNL     1      -3.006  -0.001  -0.254  1.00  0.00    -0.151 NA
BRANCH  20  21
ATOM     21  C   UNL     1      -1.606   0.055  -0.085  1.00  0.00     0.086 A 
ATOM     22  C   UNL     1       2.712  -0.082   0.072  1.00  0.00     0.044 C 
ATOM     23  C   UNL     1       1.214  -0.025   0.056  1.00  0.00    -0.051 A 
ATOM     24  C   UNL     1       0.471  -1.209   0.022  1.00  0.00     0.006 A 
ATOM     25  C   UNL     1       0.541   1.200   0.051  1.00  0.00     0.006 A 
ATOM     26  C   UNL     1      -0.923  -1.165  -0.047  1.00  0.00     0.030 A 
ATOM     27  C   UNL     1      -0.854   1.238  -0.016  1.00  0.00     0.030 A 
ENDBRANCH  20  21
ENDBRANCH  14  19
ENDBRANCH  10  13
ENDBRANCH   8   9
ENDBRANCH   7   8
ENDBRANCH   4   7
ENDBRANCH   2   3
ENDBRANCH   1   2
BRANCH   1  28
ATOM     28  C   UNL     1      -9.344  -0.184   2.426  1.00  0.00     0.002 C 
BRANCH  28  29
ATOM     29  C   UNL     1      -9.533   0.092   3.923  1.00  0.00     0.002 C 
BRANCH  29  30
ATOM     30  C   UNL     1     -10.980   0.203   4.407  1.00  0.00     0.021 C 
BRANCH  30  31
ATOM     31  C   UNL     1     -11.810  -1.050   4.181  1.00  0.00     0.116 C 
BRANCH  31  32
ATOM     32  N   UNL     1     -11.767  -1.995   5.280  1.00  0.00    -0.352 N 
ATOM     33  C   UNL     1     -12.398  -3.212   5.426  1.00  0.00     0.251 C 
ATOM     34  H   UNL     1     -11.200  -1.727   6.039  1.00  0.00     0.163 HD
ATOM     35  O   UNL     1     -12.410  -3.747   6.533  1.00  0.00    -0.269 OA
BRANCH  33  36
ATOM     36  C   UNL     1     -12.910  -3.959   4.246  1.00  0.00     0.039 A 
ATOM     37  C   UNL     1     -12.783  -5.357   4.271  1.00  0.00     0.014 A 
ATOM     38  C   UNL     1     -13.306  -3.330   3.070  1.00  0.00     0.014 A 
ATOM     39  C   UNL     1     -12.812  -6.079   3.082  1.00  0.00     0.010 A 
ATOM     40  C   UNL     1     -13.234  -4.019   1.879  1.00  0.00     0.010 A 
ATOM     41  C   UNL     1     -12.929  -5.379   1.885  1.00  0.00    -0.014 A 
BRANCH  41  42
ATOM     42  C   UNL     1     -12.717  -5.971   0.578  1.00  0.00     0.031 A 
ATOM     43  C   UNL     1     -13.878  -6.404  -0.217  1.00  0.00     0.074 A 
ATOM     44  C   UNL     1     -11.467  -6.007   0.070  1.00  0.00     0.049 A 
ATOM     45  N   UNL     1     -13.826  -7.303  -1.136  1.00  0.00    -0.248 NA
ATOM     46  C   UNL     1     -15.216  -5.861  -0.014  1.00  0.00     0.031 C 
ATOM     47  C   UNL     1     -11.073  -6.317  -1.300  1.00  0.00     0.029 A 
ATOM     48  N   UNL     1     -10.255  -5.950   0.777  1.00  0.00    -0.354 N 
ATOM     49  C   UNL     1     -15.017  -7.264  -1.823  1.00  0.00     0.074 A 
ATOM     50  C   UNL     1     -15.874  -6.398  -1.046  1.00  0.00     0.031 C 
ATOM     51  C   UNL     1      -9.795  -6.730  -1.297  1.00  0.00     0.029 A 
ATOM     52  C   UNL     1      -9.381  -6.825   0.092  1.00  0.00     0.049 A 
ATOM     53  H   UNL     1     -10.056  -5.415   1.580  1.00  0.00     0.167 HD
ATOM     54  C   UNL     1     -15.091  -7.855  -3.049  1.00  0.00     0.037 A 
ATOM     55  C   UNL     1      -8.910  -7.956   0.692  1.00  0.00     0.037 A 
ATOM     56  C   UNL     1     -13.827  -8.498  -3.393  1.00  0.00     0.049 A 
ATOM     57  C   UNL     1      -9.304  -9.224  -0.026  1.00  0.00     0.074 A 
ATOM     58  C   UNL     1     -12.742  -8.074  -4.144  1.00  0.00     0.029 A 
ATOM     59  N   UNL     1     -13.390  -9.592  -2.653  1.00  0.00    -0.354 N 
ATOM     60  N   UNL     1     -10.325  -9.311  -0.835  1.00  0.00    -0.248 NA
ATOM     61  C   UNL     1      -8.582 -10.486   0.099  1.00  0.00     0.031 C 
ATOM     62  C   UNL     1     -11.632  -8.889  -3.814  1.00  0.00     0.029 A 
ATOM     63  C   UNL     1     -12.048  -9.825  -2.883  1.00  0.00     0.049 A 
ATOM     64  H   UNL     1     -13.957 -10.125  -2.050  1.00  0.00     0.167 HD
ATOM     65  C   UNL     1     -10.395 -10.580  -1.351  1.00  0.00     0.074 A 
ATOM     66  C   UNL     1      -9.280 -11.276  -0.737  1.00  0.00     0.031 C 
ATOM     67  C   UNL     1     -11.359 -10.939  -2.252  1.00  0.00     0.037 A 
BRANCH  54  68
ATOM     68  C   UNL     1     -16.192  -7.568  -4.042  1.00  0.00     0.064 A 
ATOM     69  C   UNL     1     -15.927  -7.519  -5.428  1.00  0.00     0.173 A 
ATOM     70  C   UNL     1     -17.521  -7.280  -3.684  1.00  0.00     0.173 A 
ATOM     71  F   UNL     1     -14.735  -7.869  -5.927  1.00  0.00    -0.203 F 
ATOM     72  C   UNL     1     -16.878  -7.098  -6.360  1.00  0.00     0.198 A 
ATOM     73  C   UNL     1     -18.459  -6.807  -4.609  1.00  0.00     0.198 A 
ATOM     74  F   UNL     1     -17.962  -7.489  -2.436  1.00  0.00    -0.203 F 
ATOM     75  F   UNL     1     -16.561  -7.060  -7.662  1.00  0.00    -0.200 F 
ATOM     76  C   UNL     1     -18.133  -6.704  -5.946  1.00  0.00     0.200 A 
ATOM     77  F   UNL     1     -19.682  -6.447  -4.191  1.00  0.00    -0.200 F 
ATOM     78  F   UNL     1     -19.029  -6.251  -6.832  1.00  0.00    -0.200 F 
ENDBRANCH  54  68
BRANCH  55  79
ATOM     79  C   UNL     1      -8.734  -7.791   2.161  1.00  0.00     0.064 A 
ATOM     80  C   UNL     1      -7.794  -6.836   2.599  1.00  0.00     0.173 A 
ATOM     81  C   UNL     1      -9.716  -8.195   3.072  1.00  0.00     0.173 A 
ATOM     82  F   UNL     1      -6.829  -6.416   1.765  1.00  0.00    -0.203 F 
ATOM     83  C   UNL     1      -7.920  -6.207   3.836  1.00  0.00     0.198 A 
ATOM     84  C   UNL     1      -9.825  -7.577   4.323  1.00  0.00     0.198 A 
ATOM     85  F   UNL     1     -10.645  -9.093   2.716  1.00  0.00    -0.203 F 
ATOM     86  F   UNL     1      -7.090  -5.206   4.164  1.00  0.00    -0.200 F 
ATOM     87  C   UNL     1      -8.956  -6.556   4.684  1.00  0.00     0.200 A 
ATOM     88  F   UNL     1     -10.831  -7.910   5.144  1.00  0.00    -0.200 F 
ATOM     89  F   UNL     1      -9.139  -5.884   5.829  1.00  0.00    -0.200 F 
ENDBRANCH  55  79
BRANCH  67  90
ATOM     90  C   UNL     1     -11.695 -12.338  -2.725  1.00  0.00     0.064 A 
ATOM     91  C   UNL     1     -11.432 -13.505  -1.992  1.00  0.00     0.173 A 
ATOM     92  C   UNL     1     -12.459 -12.528  -3.908  1.00  0.00     0.173 A 
ATOM     93  F   UNL     1     -10.820 -13.460  -0.802  1.00  0.00    -0.203 F 
ATOM     94  C   UNL     1     -11.851 -14.766  -2.431  1.00  0.00     0.198 A 
ATOM     95  C   UNL     1     -12.931 -13.777  -4.307  1.00  0.00     0.198 A 
ATOM     96  F   UNL     1     -12.801 -11.502  -4.701  1.00  0.00    -0.203 F 
ATOM     97  F   UNL     1     -11.537 -15.853  -1.714  1.00  0.00    -0.200 F 
ATOM     98  C   UNL     1     -12.613 -14.899  -3.577  1.00  0.00     0.200 A 
ATOM     99  F   UNL     1     -13.714 -13.877  -5.391  1.00  0.00    -0.200 F 
ATOM    100  F   UNL     1     -13.057 -16.103  -3.962  1.00  0.00    -0.200 F 
ENDBRANCH  67  90
ENDBRANCH  41  42
ENDBRANCH  33  36
ENDBRANCH  31  32
ENDBRANCH  30  31
ENDBRANCH  29  30
ENDBRANCH  28  29
ENDBRANCH   1  28
TORSDOF 18
