REMARK SMILES CCOc1cc(C(=O)NCCCCCCNC(=O)c2ccc(-c3c4nc(c(-c5c(F)c(F)c(F)c(F)c5F)c5ccc([nH]5)c(-c5c(F)c(F)c(F)c(F)c5F)c5nc(c(-c6c(F)c(F)c(F)c(F)c6F)c6ccc3[nH]6)C=C5)C=C4)cc2)ccc1OCc1ccc(Cl)c(Cl)c1
REMARK SMILES IDX 12 1 11 2 10 3 9 4 7 5 8 6 6 8 4 9 5 10 84 11 83 12 82 13
REMARK SMILES IDX 3 14 2 15 1 16 85 17 86 18 87 19 88 20 94 21 89 22 92 23
REMARK SMILES IDX 90 24 93 25 91 26 13 27 14 28 15 29 16 30 17 31 18 33 19 34
REMARK SMILES IDX 20 35 81 36 21 37 80 38 22 39 23 40 24 41 74 42 25 43 79 44
REMARK SMILES IDX 73 45 75 46 26 47 78 48 72 49 71 50 27 52 59 53 39 54 58 55
REMARK SMILES IDX 40 56 43 57 57 58 76 59 41 60 42 61 56 63 77 64 44 65 28 66
REMARK SMILES IDX 29 67 37 68 30 69 31 70 35 71 38 72 32 73 33 74 36 75 34 76
REMARK SMILES IDX 60 77 61 78 69 79 62 80 63 81 67 82 70 83 64 84 65 85 68 86
REMARK SMILES IDX 66 87 45 88 46 89 54 90 47 91 48 92 52 93 55 94 49 95 50 96
REMARK SMILES IDX 53 97 51 98
REMARK H PARENT 9 7 16 32 75 51 43 62
REMARK Flexibility Score: inf
ROOT
ATOM      1  C   UNL     1       8.093   6.096   3.510  1.00  0.00     0.002 C 
ENDROOT
BRANCH   1   2
ATOM      2  C   UNL     1       7.182   5.407   2.497  1.00  0.00     0.021 C 
BRANCH   2   3
ATOM      3  C   UNL     1       6.608   4.064   2.930  1.00  0.00     0.116 C 
BRANCH   3   4
ATOM      4  N   UNL     1       5.581   4.155   3.963  1.00  0.00    -0.352 N 
ATOM      5  C   UNL     1       4.319   3.591   4.004  1.00  0.00     0.251 C 
ATOM      6  O   UNL     1       3.557   3.844   4.932  1.00  0.00    -0.269 OA
ATOM      7  H   UNL     1       5.823   4.699   4.747  1.00  0.00     0.163 HD
BRANCH   5   8
ATOM      8  C   UNL     1       3.873   2.682   2.917  1.00  0.00     0.043 A 
ATOM      9  C   UNL     1       2.230   2.022   1.259  1.00  0.00     0.161 A 
ATOM     10  C   UNL     1       2.574   2.789   2.380  1.00  0.00     0.064 A 
ATOM     11  C   UNL     1       3.202   1.193   0.681  1.00  0.00     0.161 A 
ATOM     12  C   UNL     1       4.469   1.059   1.244  1.00  0.00     0.051 A 
ATOM     13  C   UNL     1       4.772   1.739   2.409  1.00  0.00     0.018 A 
BRANCH   9  14
ATOM     14  O   UNL     1       1.011   2.139   0.647  1.00  0.00    -0.490 OA
BRANCH  14  15
ATOM     15  C   UNL     1      -0.071   1.511   1.352  1.00  0.00     0.226 C 
ATOM     16  C   UNL     1      -0.941   0.755   0.351  1.00  0.00     0.049 C 
ENDBRANCH  14  15
ENDBRANCH   9  14
BRANCH  11  17
ATOM     17  O   UNL     1       3.005   0.473  -0.446  1.00  0.00    -0.485 OA
BRANCH  17  18
ATOM     18  C   UNL     1       2.252  -0.737  -0.335  1.00  0.00     0.265 C 
BRANCH  18  19
ATOM     19  C   UNL     1       2.010  -1.578   0.926  1.00  0.00    -0.009 A 
ATOM     20  C   UNL     1       2.159  -1.179   2.261  1.00  0.00     0.009 A 
ATOM     21  C   UNL     1       1.474  -2.863   0.711  1.00  0.00     0.029 A 
ATOM     22  C   UNL     1       1.759  -1.991   3.329  1.00  0.00     0.022 A 
ATOM     23  C   UNL     1       1.081  -3.689   1.774  1.00  0.00     0.060 A 
ATOM     24  C   UNL     1       1.210  -3.244   3.089  1.00  0.00     0.059 A 
ATOM     25  Cl  UNL     1       0.423  -5.236   1.381  1.00  0.00    -0.083 Cl
ATOM     26  Cl  UNL     1       0.696  -4.172   4.449  1.00  0.00    -0.083 Cl
ENDBRANCH  18  19
ENDBRANCH  17  18
ENDBRANCH  11  17
ENDBRANCH   5   8
ENDBRANCH   3   4
ENDBRANCH   2   3
ENDBRANCH   1   2
BRANCH   1  27
ATOM     27  C   UNL     1       9.327   5.304   3.955  1.00  0.00     0.002 C 
BRANCH  27  28
ATOM     28  C   UNL     1      10.238   4.782   2.839  1.00  0.00     0.021 C 
BRANCH  28  29
ATOM     29  C   UNL     1      10.743   5.830   1.850  1.00  0.00     0.116 C 
BRANCH  29  30
ATOM     30  N   UNL     1      11.530   6.875   2.487  1.00  0.00    -0.352 N 
ATOM     31  C   UNL     1      12.805   7.306   2.219  1.00  0.00     0.251 C 
ATOM     32  H   UNL     1      11.078   7.346   3.225  1.00  0.00     0.163 HD
ATOM     33  O   UNL     1      13.359   8.105   2.972  1.00  0.00    -0.269 OA
BRANCH  31  34
ATOM     34  C   UNL     1      13.535   6.789   1.042  1.00  0.00     0.039 A 
ATOM     35  C   UNL     1      14.858   6.366   1.200  1.00  0.00     0.014 A 
ATOM     36  C   UNL     1      12.921   6.714  -0.212  1.00  0.00     0.014 A 
ATOM     37  C   UNL     1      15.535   5.784   0.125  1.00  0.00     0.010 A 
ATOM     38  C   UNL     1      13.573   6.074  -1.264  1.00  0.00     0.010 A 
ATOM     39  C   UNL     1      14.879   5.587  -1.101  1.00  0.00    -0.014 A 
BRANCH  39  40
ATOM     40  C   UNL     1      15.519   4.825  -2.206  1.00  0.00     0.031 A 
ATOM     41  C   UNL     1      15.820   5.492  -3.517  1.00  0.00     0.074 A 
ATOM     42  C   UNL     1      15.746   3.506  -2.052  1.00  0.00     0.049 A 
ATOM     43  N   UNL     1      16.276   4.967  -4.627  1.00  0.00    -0.248 NA
ATOM     44  C   UNL     1      15.553   6.936  -3.602  1.00  0.00     0.031 C 
ATOM     45  C   UNL     1      15.464   2.737  -0.838  1.00  0.00     0.029 A 
ATOM     46  N   UNL     1      16.248   2.572  -2.925  1.00  0.00    -0.354 N 
ATOM     47  C   UNL     1      16.337   6.009  -5.542  1.00  0.00     0.074 A 
ATOM     48  C   UNL     1      15.831   7.188  -4.873  1.00  0.00     0.031 C 
ATOM     49  C   UNL     1      15.812   1.456  -1.037  1.00  0.00     0.029 A 
ATOM     50  C   UNL     1      16.291   1.300  -2.406  1.00  0.00     0.049 A 
ATOM     51  H   UNL     1      16.548   2.793  -3.836  1.00  0.00     0.167 HD
ATOM     52  C   UNL     1      16.789   5.984  -6.819  1.00  0.00     0.037 A 
ATOM     53  C   UNL     1      16.654   0.134  -2.977  1.00  0.00     0.037 A 
ATOM     54  C   UNL     1      17.309   4.810  -7.472  1.00  0.00     0.049 A 
ATOM     55  C   UNL     1      17.107   0.130  -4.412  1.00  0.00     0.074 A 
ATOM     56  C   UNL     1      17.862   4.702  -8.736  1.00  0.00     0.029 A 
ATOM     57  N   UNL     1      17.327   3.539  -6.918  1.00  0.00    -0.354 N 
ATOM     58  N   UNL     1      17.238   1.136  -5.242  1.00  0.00    -0.248 NA
ATOM     59  C   UNL     1      17.458  -1.175  -4.993  1.00  0.00     0.031 C 
ATOM     60  C   UNL     1      18.152   3.355  -8.973  1.00  0.00     0.029 A 
ATOM     61  C   UNL     1      17.838   2.632  -7.833  1.00  0.00     0.049 A 
ATOM     62  H   UNL     1      17.021   3.314  -6.010  1.00  0.00     0.167 HD
ATOM     63  C   UNL     1      17.706   0.593  -6.430  1.00  0.00     0.074 A 
ATOM     64  C   UNL     1      17.855  -0.830  -6.210  1.00  0.00     0.031 C 
ATOM     65  C   UNL     1      17.983   1.217  -7.601  1.00  0.00     0.037 A 
BRANCH  52  66
ATOM     66  C   UNL     1      16.737   7.262  -7.606  1.00  0.00     0.064 A 
ATOM     67  C   UNL     1      17.575   8.348  -7.310  1.00  0.00     0.173 A 
ATOM     68  C   UNL     1      15.877   7.381  -8.709  1.00  0.00     0.173 A 
ATOM     69  F   UNL     1      18.411   8.290  -6.262  1.00  0.00    -0.203 F 
ATOM     70  C   UNL     1      17.534   9.514  -8.071  1.00  0.00     0.198 A 
ATOM     71  C   UNL     1      15.862   8.536  -9.487  1.00  0.00     0.198 A 
ATOM     72  F   UNL     1      15.061   6.370  -9.043  1.00  0.00    -0.203 F 
ATOM     73  F   UNL     1      18.311  10.555  -7.740  1.00  0.00    -0.200 F 
ATOM     74  C   UNL     1      16.685   9.604  -9.163  1.00  0.00     0.200 A 
ATOM     75  F   UNL     1      15.053   8.613 -10.553  1.00  0.00    -0.200 F 
ATOM     76  F   UNL     1      16.656  10.721  -9.902  1.00  0.00    -0.200 F 
ENDBRANCH  52  66
BRANCH  53  77
ATOM     77  C   UNL     1      16.601  -1.128  -2.192  1.00  0.00     0.064 A 
ATOM     78  C   UNL     1      17.776  -1.815  -1.854  1.00  0.00     0.173 A 
ATOM     79  C   UNL     1      15.381  -1.682  -1.776  1.00  0.00     0.173 A 
ATOM     80  F   UNL     1      18.966  -1.338  -2.249  1.00  0.00    -0.203 F 
ATOM     81  C   UNL     1      17.732  -3.016  -1.150  1.00  0.00     0.198 A 
ATOM     82  C   UNL     1      15.340  -2.867  -1.043  1.00  0.00     0.198 A 
ATOM     83  F   UNL     1      14.227  -1.066  -2.070  1.00  0.00    -0.203 F 
ATOM     84  F   UNL     1      18.867  -3.677  -0.886  1.00  0.00    -0.200 F 
ATOM     85  C   UNL     1      16.515  -3.538  -0.740  1.00  0.00     0.200 A 
ATOM     86  F   UNL     1      14.162  -3.359  -0.635  1.00  0.00    -0.200 F 
ATOM     87  F   UNL     1      16.473  -4.692  -0.059  1.00  0.00    -0.200 F 
ENDBRANCH  53  77
BRANCH  65  88
ATOM     88  C   UNL     1      18.492   0.373  -8.733  1.00  0.00     0.064 A 
ATOM     89  C   UNL     1      17.654  -0.518  -9.419  1.00  0.00     0.173 A 
ATOM     90  C   UNL     1      19.817   0.503  -9.178  1.00  0.00     0.173 A 
ATOM     91  F   UNL     1      16.384  -0.692  -9.022  1.00  0.00    -0.203 F 
ATOM     92  C   UNL     1      18.127  -1.259 -10.499  1.00  0.00     0.198 A 
ATOM     93  C   UNL     1      20.278  -0.215 -10.278  1.00  0.00     0.198 A 
ATOM     94  F   UNL     1      20.659   1.345  -8.560  1.00  0.00    -0.203 F 
ATOM     95  F   UNL     1      17.320  -2.134 -11.114  1.00  0.00    -0.200 F 
ATOM     96  C   UNL     1      19.434  -1.099 -10.934  1.00  0.00     0.200 A 
ATOM     97  F   UNL     1      21.536  -0.047 -10.707  1.00  0.00    -0.200 F 
ATOM     98  F   UNL     1      19.883  -1.800 -11.985  1.00  0.00    -0.200 F 
ENDBRANCH  65  88
ENDBRANCH  39  40
ENDBRANCH  31  34
ENDBRANCH  29  30
ENDBRANCH  28  29
ENDBRANCH  27  28
ENDBRANCH   1  27
TORSDOF 18
