REMARK SMILES O=C(NCCCCCCNC(=O)c1ccc(S(=O)(=O)Cc2cnoc2)c(F)c1)c1ccc(-c2c3nc(c(-c4c(F)c(F)c(F)c(F)c4F)c4ccc([nH]4)c(-c4c(F)c(F)c(F)c(F)c4F)c4nc(c(-c5c(F)c(F)c(F)c(F)c5F)c5ccc2[nH]5)C=C4)C=C3)cc1
REMARK SMILES IDX 7 1 6 2 5 3 4 4 3 5 1 6 2 7 29 9 30 10 91 11 31 12 90 13
REMARK SMILES IDX 32 14 33 15 34 16 84 17 35 18 89 19 83 20 85 21 36 22 88 23
REMARK SMILES IDX 82 24 81 25 37 27 69 28 49 29 68 30 50 31 53 32 67 33 86 34
REMARK SMILES IDX 51 35 52 36 66 38 87 39 54 40 38 41 39 42 47 43 40 44 41 45
REMARK SMILES IDX 45 46 48 47 42 48 43 49 46 50 44 51 70 52 71 53 79 54 72 55
REMARK SMILES IDX 73 56 77 57 80 58 74 59 75 60 78 61 76 62 55 63 56 64 64 65
REMARK SMILES IDX 57 66 58 67 62 68 65 69 59 70 60 71 63 72 61 73 8 74 9 75
REMARK SMILES IDX 10 76 11 77 12 79 13 80 14 81 28 82 15 83 26 84 16 85 27 86
REMARK SMILES IDX 17 87 18 88 19 89 20 90 21 91 22 92 25 93 23 94 24 95
REMARK H PARENT 3 8 85 26 53 37 10 78
REMARK Flexibility Score: inf
ROOT
ATOM      1  C   UNL     1       4.863  -3.252  -2.919  1.00  0.00     0.002 C 
ENDROOT
BRANCH   1   2
ATOM      2  C   UNL     1       4.246  -3.558  -1.551  1.00  0.00     0.002 C 
BRANCH   2   3
ATOM      3  C   UNL     1       4.692  -2.652  -0.404  1.00  0.00     0.021 C 
BRANCH   3   4
ATOM      4  C   UNL     1       4.493  -1.160  -0.636  1.00  0.00     0.116 C 
BRANCH   4   5
ATOM      5  N   UNL     1       3.093  -0.779  -0.734  1.00  0.00    -0.352 N 
ATOM      6  O   UNL     1       1.181   0.278  -0.165  1.00  0.00    -0.269 OA
ATOM      7  C   UNL     1       2.398   0.182  -0.038  1.00  0.00     0.251 C 
ATOM      8  H   UNL     1       2.566  -1.284  -1.394  1.00  0.00     0.163 HD
BRANCH   7   9
ATOM      9  C   UNL     1       3.112   1.081   0.896  1.00  0.00     0.039 A 
ATOM     10  C   UNL     1       4.322   1.675   0.535  1.00  0.00     0.014 A 
ATOM     11  C   UNL     1       2.563   1.324   2.159  1.00  0.00     0.014 A 
ATOM     12  C   UNL     1       5.061   2.368   1.488  1.00  0.00     0.010 A 
ATOM     13  C   UNL     1       3.267   2.097   3.088  1.00  0.00     0.010 A 
ATOM     14  C   UNL     1       4.544   2.586   2.777  1.00  0.00    -0.014 A 
BRANCH  14  15
ATOM     15  C   UNL     1       5.355   3.345   3.764  1.00  0.00     0.031 A 
ATOM     16  C   UNL     1       5.877   2.687   5.012  1.00  0.00     0.074 A 
ATOM     17  C   UNL     1       5.670   4.627   3.499  1.00  0.00     0.049 A 
ATOM     18  N   UNL     1       6.648   3.186   5.947  1.00  0.00    -0.248 NA
ATOM     19  C   UNL     1       5.482   1.290   5.247  1.00  0.00     0.031 C 
ATOM     20  C   UNL     1       5.215   5.377   2.327  1.00  0.00     0.029 A 
ATOM     21  N   UNL     1       6.468   5.516   4.174  1.00  0.00    -0.354 N 
ATOM     22  C   UNL     1       6.816   2.175   6.884  1.00  0.00     0.074 A 
ATOM     23  C   UNL     1       6.045   1.041   6.422  1.00  0.00     0.031 C 
ATOM     24  C   UNL     1       5.788   6.589   2.332  1.00  0.00     0.029 A 
ATOM     25  C   UNL     1       6.607   6.722   3.533  1.00  0.00     0.049 A 
ATOM     26  H   UNL     1       6.900   5.309   5.034  1.00  0.00     0.167 HD
ATOM     27  C   UNL     1       7.557   2.189   8.018  1.00  0.00     0.037 A 
ATOM     28  C   UNL     1       7.314   7.817   3.871  1.00  0.00     0.037 A 
ATOM     29  C   UNL     1       8.340   3.313   8.465  1.00  0.00     0.049 A 
ATOM     30  C   UNL     1       8.126   7.806   5.133  1.00  0.00     0.074 A 
ATOM     31  C   UNL     1       9.133   3.416   9.595  1.00  0.00     0.029 A 
ATOM     32  N   UNL     1       8.431   4.528   7.802  1.00  0.00    -0.354 N 
ATOM     33  N   UNL     1       8.284   6.839   6.003  1.00  0.00    -0.248 NA
ATOM     34  C   UNL     1       8.855   9.038   5.462  1.00  0.00     0.031 C 
ATOM     35  C   UNL     1       9.675   4.705   9.635  1.00  0.00     0.029 A 
ATOM     36  C   UNL     1       9.259   5.389   8.505  1.00  0.00     0.049 A 
ATOM     37  H   UNL     1       7.976   4.746   6.957  1.00  0.00     0.167 HD
ATOM     38  C   UNL     1       9.139   7.338   6.975  1.00  0.00     0.074 A 
ATOM     39  C   UNL     1       9.482   8.688   6.577  1.00  0.00     0.031 C 
ATOM     40  C   UNL     1       9.594   6.730   8.097  1.00  0.00     0.037 A 
BRANCH  27  41
ATOM     41  C   UNL     1       7.560   0.951   8.868  1.00  0.00     0.064 A 
ATOM     42  C   UNL     1       6.928   0.946  10.121  1.00  0.00     0.173 A 
ATOM     43  C   UNL     1       8.244  -0.208   8.474  1.00  0.00     0.173 A 
ATOM     44  F   UNL     1       6.266   2.032  10.548  1.00  0.00    -0.203 F 
ATOM     45  C   UNL     1       6.990  -0.170  10.951  1.00  0.00     0.198 A 
ATOM     46  C   UNL     1       8.282  -1.332   9.296  1.00  0.00     0.198 A 
ATOM     47  F   UNL     1       8.855  -0.259   7.280  1.00  0.00    -0.203 F 
ATOM     48  F   UNL     1       6.402  -0.141  12.155  1.00  0.00    -0.200 F 
ATOM     49  C   UNL     1       7.663  -1.309  10.537  1.00  0.00     0.200 A 
ATOM     50  F   UNL     1       8.914  -2.440   8.884  1.00  0.00    -0.200 F 
ATOM     51  F   UNL     1       7.712  -2.387  11.332  1.00  0.00    -0.200 F 
ENDBRANCH  27  41
BRANCH  28  52
ATOM     52  C   UNL     1       7.296   8.997   2.971  1.00  0.00     0.064 A 
ATOM     53  C   UNL     1       6.139   9.775   2.815  1.00  0.00     0.173 A 
ATOM     54  C   UNL     1       8.420   9.335   2.206  1.00  0.00     0.173 A 
ATOM     55  F   UNL     1       5.036   9.485   3.520  1.00  0.00    -0.203 F 
ATOM     56  C   UNL     1       6.099  10.829   1.907  1.00  0.00     0.198 A 
ATOM     57  C   UNL     1       8.387  10.407   1.317  1.00  0.00     0.198 A 
ATOM     58  F   UNL     1       9.553   8.629   2.334  1.00  0.00    -0.203 F 
ATOM     59  F   UNL     1       4.968  11.529   1.745  1.00  0.00    -0.200 F 
ATOM     60  C   UNL     1       7.224  11.146   1.161  1.00  0.00     0.200 A 
ATOM     61  F   UNL     1       9.482  10.722   0.611  1.00  0.00    -0.200 F 
ATOM     62  F   UNL     1       7.187  12.163   0.289  1.00  0.00    -0.200 F 
ENDBRANCH  28  52
BRANCH  40  63
ATOM     63  C   UNL     1      10.532   7.508   8.971  1.00  0.00     0.064 A 
ATOM     64  C   UNL     1      11.888   7.158   9.045  1.00  0.00     0.173 A 
ATOM     65  C   UNL     1      10.077   8.558   9.781  1.00  0.00     0.173 A 
ATOM     66  F   UNL     1      12.370   6.155   8.295  1.00  0.00    -0.203 F 
ATOM     67  C   UNL     1      12.754   7.827   9.906  1.00  0.00     0.198 A 
ATOM     68  C   UNL     1      10.951   9.242  10.621  1.00  0.00     0.198 A 
ATOM     69  F   UNL     1       8.791   8.938   9.735  1.00  0.00    -0.203 F 
ATOM     70  F   UNL     1      14.040   7.459   9.979  1.00  0.00    -0.200 F 
ATOM     71  C   UNL     1      12.286   8.871  10.689  1.00  0.00     0.200 A 
ATOM     72  F   UNL     1      10.502  10.266  11.361  1.00  0.00    -0.200 F 
ATOM     73  F   UNL     1      13.123   9.523  11.508  1.00  0.00    -0.200 F 
ENDBRANCH  40  63
ENDBRANCH  14  15
ENDBRANCH   7   9
ENDBRANCH   4   5
ENDBRANCH   3   4
ENDBRANCH   2   3
ENDBRANCH   1   2
BRANCH   1  74
ATOM     74  C   UNL     1       6.393  -3.170  -2.962  1.00  0.00     0.021 C 
BRANCH  74  75
ATOM     75  C   UNL     1       7.129  -4.392  -2.412  1.00  0.00     0.116 C 
BRANCH  75  76
ATOM     76  N   UNL     1       6.837  -5.591  -3.178  1.00  0.00    -0.352 N 
ATOM     77  C   UNL     1       7.696  -6.394  -3.881  1.00  0.00     0.251 C 
ATOM     78  H   UNL     1       5.892  -5.866  -3.193  1.00  0.00     0.163 HD
ATOM     79  O   UNL     1       7.280  -7.289  -4.607  1.00  0.00    -0.269 OA
BRANCH  77  80
ATOM     80  C   UNL     1       9.146  -6.161  -3.775  1.00  0.00     0.042 A 
ATOM     81  C   UNL     1       9.799  -6.336  -2.550  1.00  0.00     0.015 A 
ATOM     82  C   UNL     1       9.849  -5.762  -4.912  1.00  0.00     0.054 A 
ATOM     83  C   UNL     1      11.166  -6.071  -2.459  1.00  0.00     0.024 A 
ATOM     84  C   UNL     1      11.207  -5.479  -4.806  1.00  0.00     0.142 A 
ATOM     85  C   UNL     1      11.865  -5.632  -3.592  1.00  0.00     0.103 A 
ATOM     86  F   UNL     1      11.841  -5.021  -5.891  1.00  0.00    -0.206 F 
BRANCH  85  87
ATOM     87  S   UNL     1      13.575  -5.232  -3.411  1.00  0.00     0.185 S 
ATOM     88  O   UNL     1      13.604  -3.820  -3.074  1.00  0.00    -0.223 OA
ATOM     89  O   UNL     1      14.123  -6.208  -2.482  1.00  0.00    -0.223 OA
BRANCH  87  90
ATOM     90  C   UNL     1      14.421  -5.441  -4.965  1.00  0.00     0.183 C 
BRANCH  90  91
ATOM     91  C   UNL     1      14.290  -6.775  -5.600  1.00  0.00     0.027 A 
ATOM     92  C   UNL     1      13.872  -7.064  -6.919  1.00  0.00     0.162 A 
ATOM     93  C   UNL     1      14.579  -8.017  -5.085  1.00  0.00     0.235 A 
ATOM     94  N   UNL     1      13.885  -8.372  -7.179  1.00  0.00    -0.088 NA
ATOM     95  O   UNL     1      14.334  -8.972  -6.016  1.00  0.00    -0.364 OA
ENDBRANCH  90  91
ENDBRANCH  87  90
ENDBRANCH  85  87
ENDBRANCH  77  80
ENDBRANCH  75  76
ENDBRANCH  74  75
ENDBRANCH   1  74
TORSDOF 16
