REMARK SMILES O=C(NCCCCCCNC(=O)c1cn(C2C[NH+](CCC[C@@H]3CCCO3)C2)nn1)c1ccc(-c2c3nc(c(-c4c(F)c(F)c(F)c(F)c4F)c4ccc([nH]4)c(-c4c(F)c(F)c(F)c(F)c4F)c4nc(c(-c5c(F)c(F)c(F)c(F)c5F)c5ccc2[nH]5)C=C4)C=C3)cc1
REMARK SMILES IDX 8 1 7 2 6 3 5 4 4 5 3 6 1 7 2 8 30 10 31 11 92 12 32 13
REMARK SMILES IDX 91 14 33 15 34 16 35 17 85 18 36 19 90 20 84 21 86 22 37 23
REMARK SMILES IDX 89 24 83 25 82 26 38 28 70 29 50 30 69 31 51 32 54 33 68 34
REMARK SMILES IDX 87 35 52 36 53 37 67 39 88 40 55 41 39 42 40 43 48 44 41 45
REMARK SMILES IDX 42 46 46 47 49 48 43 49 44 50 47 51 45 52 71 53 72 54 80 55
REMARK SMILES IDX 73 56 74 57 78 58 81 59 75 60 76 61 79 62 77 63 56 64 57 65
REMARK SMILES IDX 65 66 58 67 59 68 63 69 66 70 60 71 61 72 64 73 62 74 9 75
REMARK SMILES IDX 10 76 11 77 12 79 13 80 14 81 29 82 15 83 28 84 16 85 17 86
REMARK SMILES IDX 27 87 18 88 19 90 20 91 21 92 22 93 23 94 26 95 24 96 25 97
REMARK H PARENT 3 9 86 27 54 38 10 78 18 89
REMARK Flexibility Score: inf
ROOT
ATOM      1  C   UNL     1       6.359   2.448   3.411  1.00  0.00     0.021 C 
ENDROOT
BRANCH   1   2
ATOM      2  C   UNL     1       4.831   2.425   3.282  1.00  0.00     0.002 C 
BRANCH   2   3
ATOM      3  C   UNL     1       4.279   2.872   1.924  1.00  0.00     0.002 C 
BRANCH   3   4
ATOM      4  C   UNL     1       4.807   2.097   0.710  1.00  0.00     0.021 C 
BRANCH   4   5
ATOM      5  C   UNL     1       4.655   0.581   0.815  1.00  0.00     0.116 C 
BRANCH   5   6
ATOM      6  N   UNL     1       3.281   0.130   0.899  1.00  0.00    -0.352 N 
ATOM      7  O   UNL     1       1.219  -0.524   0.428  1.00  0.00    -0.269 OA
ATOM      8  C   UNL     1       2.274  -0.054  -0.006  1.00  0.00     0.251 C 
ATOM      9  H   UNL     1       3.011  -0.095   1.819  1.00  0.00     0.163 HD
BRANCH   8  10
ATOM     10  C   UNL     1       2.345   0.320  -1.443  1.00  0.00     0.039 A 
ATOM     11  C   UNL     1       3.517   0.506  -2.177  1.00  0.00     0.014 A 
ATOM     12  C   UNL     1       1.110   0.464  -2.102  1.00  0.00     0.014 A 
ATOM     13  C   UNL     1       3.461   0.895  -3.513  1.00  0.00     0.010 A 
ATOM     14  C   UNL     1       1.046   0.828  -3.443  1.00  0.00     0.010 A 
ATOM     15  C   UNL     1       2.226   1.067  -4.142  1.00  0.00    -0.014 A 
BRANCH  15  16
ATOM     16  C   UNL     1       2.220   1.327  -5.581  1.00  0.00     0.031 A 
ATOM     17  C   UNL     1       2.768   0.225  -6.431  1.00  0.00     0.074 A 
ATOM     18  C   UNL     1       1.610   2.392  -6.140  1.00  0.00     0.049 A 
ATOM     19  N   UNL     1       3.693   0.281  -7.336  1.00  0.00    -0.248 NA
ATOM     20  C   UNL     1       2.253  -1.135  -6.191  1.00  0.00     0.031 C 
ATOM     21  C   UNL     1       0.767   3.392  -5.483  1.00  0.00     0.029 A 
ATOM     22  N   UNL     1       1.530   2.737  -7.458  1.00  0.00    -0.354 N 
ATOM     23  C   UNL     1       3.777  -0.999  -7.886  1.00  0.00     0.074 A 
ATOM     24  C   UNL     1       2.946  -1.851  -7.076  1.00  0.00     0.031 C 
ATOM     25  C   UNL     1       0.092   4.091  -6.423  1.00  0.00     0.029 A 
ATOM     26  C   UNL     1       0.547   3.675  -7.740  1.00  0.00     0.049 A 
ATOM     27  H   UNL     1       2.119   2.354  -8.148  1.00  0.00     0.167 HD
ATOM     28  C   UNL     1       4.381  -1.241  -9.082  1.00  0.00     0.037 A 
ATOM     29  C   UNL     1       0.090   4.029  -8.966  1.00  0.00     0.037 A 
ATOM     30  C   UNL     1       5.300  -0.197  -9.439  1.00  0.00     0.049 A 
ATOM     31  C   UNL     1       1.097   3.608  -9.969  1.00  0.00     0.074 A 
ATOM     32  C   UNL     1       6.451   0.317  -8.874  1.00  0.00     0.029 A 
ATOM     33  N   UNL     1       4.921   0.719 -10.386  1.00  0.00    -0.354 N 
ATOM     34  N   UNL     1       2.272   4.154 -10.105  1.00  0.00    -0.248 NA
ATOM     35  C   UNL     1       0.945   2.292 -10.570  1.00  0.00     0.031 C 
ATOM     36  C   UNL     1       6.402   1.716  -9.145  1.00  0.00     0.029 A 
ATOM     37  C   UNL     1       5.250   1.954  -9.892  1.00  0.00     0.049 A 
ATOM     38  H   UNL     1       4.495   0.526 -11.253  1.00  0.00     0.167 HD
ATOM     39  C   UNL     1       3.114   3.098 -10.416  1.00  0.00     0.074 A 
ATOM     40  C   UNL     1       2.229   2.000 -10.789  1.00  0.00     0.031 C 
ATOM     41  C   UNL     1       4.435   3.129 -10.076  1.00  0.00     0.037 A 
BRANCH  28  42
ATOM     42  C   UNL     1       3.905  -2.272 -10.075  1.00  0.00     0.064 A 
ATOM     43  C   UNL     1       4.699  -2.583 -11.197  1.00  0.00     0.173 A 
ATOM     44  C   UNL     1       2.573  -2.738 -10.123  1.00  0.00     0.173 A 
ATOM     45  F   UNL     1       5.971  -2.164 -11.272  1.00  0.00    -0.203 F 
ATOM     46  C   UNL     1       4.176  -3.252 -12.308  1.00  0.00     0.198 A 
ATOM     47  C   UNL     1       2.071  -3.452 -11.210  1.00  0.00     0.198 A 
ATOM     48  F   UNL     1       1.680  -2.426  -9.176  1.00  0.00    -0.203 F 
ATOM     49  F   UNL     1       4.933  -3.419 -13.402  1.00  0.00    -0.200 F 
ATOM     50  C   UNL     1       2.862  -3.682 -12.315  1.00  0.00     0.200 A 
ATOM     51  F   UNL     1       0.788  -3.840 -11.207  1.00  0.00    -0.200 F 
ATOM     52  F   UNL     1       2.343  -4.270 -13.401  1.00  0.00    -0.200 F 
ENDBRANCH  28  42
BRANCH  29  53
ATOM     53  C   UNL     1      -1.281   4.432  -9.357  1.00  0.00     0.064 A 
ATOM     54  C   UNL     1      -1.528   5.086 -10.575  1.00  0.00     0.173 A 
ATOM     55  C   UNL     1      -2.408   3.936  -8.674  1.00  0.00     0.173 A 
ATOM     56  F   UNL     1      -0.507   5.545 -11.314  1.00  0.00    -0.203 F 
ATOM     57  C   UNL     1      -2.823   5.215 -11.089  1.00  0.00     0.198 A 
ATOM     58  C   UNL     1      -3.700   4.074  -9.182  1.00  0.00     0.198 A 
ATOM     59  F   UNL     1      -2.270   3.221  -7.548  1.00  0.00    -0.203 F 
ATOM     60  F   UNL     1      -3.014   5.789 -12.286  1.00  0.00    -0.200 F 
ATOM     61  C   UNL     1      -3.906   4.701 -10.396  1.00  0.00     0.200 A 
ATOM     62  F   UNL     1      -4.735   3.538  -8.519  1.00  0.00    -0.200 F 
ATOM     63  F   UNL     1      -5.140   4.771 -10.916  1.00  0.00    -0.200 F 
ENDBRANCH  29  53
BRANCH  41  64
ATOM     64  C   UNL     1       5.007   4.436  -9.607  1.00  0.00     0.064 A 
ATOM     65  C   UNL     1       4.575   5.112  -8.453  1.00  0.00     0.173 A 
ATOM     66  C   UNL     1       6.127   4.951 -10.274  1.00  0.00     0.173 A 
ATOM     67  F   UNL     1       3.583   4.626  -7.697  1.00  0.00    -0.203 F 
ATOM     68  C   UNL     1       5.205   6.278  -8.020  1.00  0.00     0.198 A 
ATOM     69  C   UNL     1       6.778   6.093  -9.817  1.00  0.00     0.198 A 
ATOM     70  F   UNL     1       6.622   4.314 -11.347  1.00  0.00    -0.203 F 
ATOM     71  F   UNL     1       4.764   6.912  -6.923  1.00  0.00    -0.200 F 
ATOM     72  C   UNL     1       6.310   6.763  -8.698  1.00  0.00     0.200 A 
ATOM     73  F   UNL     1       7.879   6.528 -10.445  1.00  0.00    -0.200 F 
ATOM     74  F   UNL     1       6.943   7.859  -8.257  1.00  0.00    -0.200 F 
ENDBRANCH  41  64
ENDBRANCH  15  16
ENDBRANCH   8  10
ENDBRANCH   5   6
ENDBRANCH   4   5
ENDBRANCH   3   4
ENDBRANCH   2   3
ENDBRANCH   1   2
BRANCH   1  75
ATOM     75  C   UNL     1       6.999   3.824   3.224  1.00  0.00     0.116 C 
BRANCH  75  76
ATOM     76  N   UNL     1       6.567   4.759   4.248  1.00  0.00    -0.351 N 
ATOM     77  C   UNL     1       7.321   5.466   5.157  1.00  0.00     0.273 C 
ATOM     78  H   UNL     1       5.596   4.909   4.299  1.00  0.00     0.163 HD
ATOM     79  O   UNL     1       6.753   6.012   6.098  1.00  0.00    -0.267 OA
BRANCH  77  80
ATOM     80  C   UNL     1       8.756   5.538   4.961  1.00  0.00     0.170 A 
ATOM     81  C   UNL     1       9.452   5.870   3.813  1.00  0.00     0.145 A 
ATOM     82  N   UNL     1       9.653   5.267   5.962  1.00  0.00    -0.125 NA
ATOM     83  N   UNL     1      10.757   5.661   4.150  1.00  0.00    -0.237 N 
ATOM     84  N   UNL     1      10.873   5.334   5.451  1.00  0.00    -0.066 NA
BRANCH  83  85
ATOM     85  C   UNL     1      11.883   5.524   3.285  1.00  0.00     0.218 C 
ATOM     86  C   UNL     1      11.555   4.756   1.973  1.00  0.00     0.295 C 
ATOM     87  C   UNL     1      12.203   6.690   2.331  1.00  0.00     0.295 C 
ATOM     88  N   UNL     1      12.380   5.712   1.231  1.00  0.00    -0.331 N 
ATOM     89  H   UNL     1      12.155   5.974   0.271  1.00  0.00     0.348 HD
BRANCH  88  90
ATOM     90  C   UNL     1      13.764   5.260   1.001  1.00  0.00     0.262 C 
BRANCH  90  91
ATOM     91  C   UNL     1      14.708   4.718   2.098  1.00  0.00     0.064 C 
BRANCH  91  92
ATOM     92  C   UNL     1      14.427   3.347   2.740  1.00  0.00     0.038 C 
BRANCH  92  93
ATOM     93  C   UNL     1      14.370   2.155   1.775  1.00  0.00     0.118 C 
ATOM     94  C   UNL     1      13.052   1.379   1.829  1.00  0.00     0.034 C 
ATOM     95  O   UNL     1      15.399   1.215   2.156  1.00  0.00    -0.378 OA
ATOM     96  C   UNL     1      13.486  -0.055   1.678  1.00  0.00     0.031 C 
ATOM     97  C   UNL     1      14.790  -0.051   2.435  1.00  0.00     0.160 C 
ENDBRANCH  92  93
ENDBRANCH  91  92
ENDBRANCH  90  91
ENDBRANCH  88  90
ENDBRANCH  83  85
ENDBRANCH  77  80
ENDBRANCH  75  76
ENDBRANCH   1  75
TORSDOF 18
