REMARK SMILES O=C(NCCCCCCNC(=O)c1ccc(Br)c(NC(=S)NC(=O)c2cccs2)c1)c1ccc(-c2c3nc(c(-c4c(F)c(F)c(F)c(F)c4F)c4ccc([nH]4)c(-c4c(F)c(F)c(F)c(F)c4F)c4nc(c(-c5c(F)c(F)c(F)c(F)c5F)c5ccc2[nH]5)C=C4)C=C3)cc1
REMARK SMILES IDX 7 1 6 2 5 3 4 4 3 5 1 6 2 7 31 9 32 10 93 11 33 12 92 13
REMARK SMILES IDX 34 14 35 15 36 16 86 17 37 18 91 19 85 20 87 21 38 22 90 23
REMARK SMILES IDX 84 24 83 25 39 27 71 28 51 29 70 30 52 31 55 32 69 33 88 34
REMARK SMILES IDX 53 35 54 36 68 38 89 39 56 40 40 41 41 42 49 43 42 44 43 45
REMARK SMILES IDX 47 46 50 47 44 48 45 49 48 50 46 51 72 52 73 53 81 54 74 55
REMARK SMILES IDX 75 56 79 57 82 58 76 59 77 60 80 61 78 62 57 63 58 64 66 65
REMARK SMILES IDX 59 66 60 67 64 68 67 69 61 70 62 71 65 72 63 73 8 74 9 75
REMARK SMILES IDX 10 76 11 77 12 79 13 80 14 81 30 82 15 83 18 84 16 85 17 86
REMARK SMILES IDX 19 87 20 89 21 90 22 91 23 92 24 94 25 95 26 96 29 97 27 98
REMARK SMILES IDX 28 99
REMARK H PARENT 3 8 87 26 55 37 10 78 19 88 22 93
REMARK Flexibility Score: inf
ROOT
ATOM      1  C   UNL     1       4.771  -2.886   3.006  1.00  0.00     0.002 C 
ENDROOT
BRANCH   1   2
ATOM      2  C   UNL     1       4.216  -1.488   3.295  1.00  0.00     0.002 C 
BRANCH   2   3
ATOM      3  C   UNL     1       4.671  -0.412   2.313  1.00  0.00     0.021 C 
BRANCH   3   4
ATOM      4  C   UNL     1       4.391  -0.759   0.861  1.00  0.00     0.116 C 
BRANCH   4   5
ATOM      5  N   UNL     1       2.967  -0.873   0.605  1.00  0.00    -0.352 N 
ATOM      6  O   UNL     1       0.961  -0.169  -0.154  1.00  0.00    -0.269 OA
ATOM      7  C   UNL     1       2.183  -0.108  -0.216  1.00  0.00     0.251 C 
ATOM      8  H   UNL     1       2.504  -1.597   1.086  1.00  0.00     0.163 HD
BRANCH   7   9
ATOM      9  C   UNL     1       2.834   0.810  -1.169  1.00  0.00     0.039 A 
ATOM     10  C   UNL     1       3.918   0.380  -1.941  1.00  0.00     0.014 A 
ATOM     11  C   UNL     1       2.354   2.115  -1.280  1.00  0.00     0.014 A 
ATOM     12  C   UNL     1       4.600   1.288  -2.739  1.00  0.00     0.010 A 
ATOM     13  C   UNL     1       2.979   2.998  -2.156  1.00  0.00     0.010 A 
ATOM     14  C   UNL     1       4.116   2.596  -2.879  1.00  0.00    -0.014 A 
BRANCH  14  15
ATOM     15  C   UNL     1       4.752   3.529  -3.838  1.00  0.00     0.031 A 
ATOM     16  C   UNL     1       5.371   4.807  -3.365  1.00  0.00     0.074 A 
ATOM     17  C   UNL     1       4.707   3.239  -5.151  1.00  0.00     0.049 A 
ATOM     18  N   UNL     1       5.852   5.801  -4.067  1.00  0.00    -0.248 NA
ATOM     19  C   UNL     1       5.444   5.001  -1.911  1.00  0.00     0.031 C 
ATOM     20  C   UNL     1       4.134   2.022  -5.725  1.00  0.00     0.029 A 
ATOM     21  N   UNL     1       5.129   3.957  -6.241  1.00  0.00    -0.354 N 
ATOM     22  C   UNL     1       6.261   6.751  -3.142  1.00  0.00     0.074 A 
ATOM     23  C   UNL     1       5.938   6.228  -1.831  1.00  0.00     0.031 C 
ATOM     24  C   UNL     1       4.240   2.073  -7.059  1.00  0.00     0.029 A 
ATOM     25  C   UNL     1       4.815   3.360  -7.436  1.00  0.00     0.049 A 
ATOM     26  H   UNL     1       5.609   4.814  -6.173  1.00  0.00     0.167 HD
ATOM     27  C   UNL     1       6.852   7.948  -3.374  1.00  0.00     0.037 A 
ATOM     28  C   UNL     1       4.925   3.815  -8.698  1.00  0.00     0.037 A 
ATOM     29  C   UNL     1       7.141   8.459  -4.691  1.00  0.00     0.049 A 
ATOM     30  C   UNL     1       5.509   5.178  -8.935  1.00  0.00     0.074 A 
ATOM     31  C   UNL     1       7.768   9.643  -5.035  1.00  0.00     0.029 A 
ATOM     32  N   UNL     1       6.793   7.831  -5.880  1.00  0.00    -0.354 N 
ATOM     33  N   UNL     1       5.928   6.058  -8.059  1.00  0.00    -0.248 NA
ATOM     34  C   UNL     1       5.638   5.612 -10.331  1.00  0.00     0.031 C 
ATOM     35  C   UNL     1       7.707   9.779  -6.425  1.00  0.00     0.029 A 
ATOM     36  C   UNL     1       7.150   8.627  -6.957  1.00  0.00     0.049 A 
ATOM     37  H   UNL     1       6.357   6.951  -5.947  1.00  0.00     0.167 HD
ATOM     38  C   UNL     1       6.406   7.133  -8.795  1.00  0.00     0.074 A 
ATOM     39  C   UNL     1       6.217   6.798 -10.191  1.00  0.00     0.031 C 
ATOM     40  C   UNL     1       6.966   8.283  -8.347  1.00  0.00     0.037 A 
BRANCH  27  41
ATOM     41  C   UNL     1       7.160   8.810  -2.180  1.00  0.00     0.064 A 
ATOM     42  C   UNL     1       8.076   8.419  -1.191  1.00  0.00     0.173 A 
ATOM     43  C   UNL     1       6.512  10.045  -2.014  1.00  0.00     0.173 A 
ATOM     44  F   UNL     1       8.728   7.251  -1.296  1.00  0.00    -0.203 F 
ATOM     45  C   UNL     1       8.275   9.193  -0.050  1.00  0.00     0.198 A 
ATOM     46  C   UNL     1       6.752  10.840  -0.898  1.00  0.00     0.198 A 
ATOM     47  F   UNL     1       5.639  10.482  -2.934  1.00  0.00    -0.203 F 
ATOM     48  F   UNL     1       9.080   8.749   0.925  1.00  0.00    -0.200 F 
ATOM     49  C   UNL     1       7.616  10.404   0.094  1.00  0.00     0.200 A 
ATOM     50  F   UNL     1       6.134  12.023  -0.774  1.00  0.00    -0.200 F 
ATOM     51  F   UNL     1       7.801  11.142   1.197  1.00  0.00    -0.200 F 
ENDBRANCH  27  41
BRANCH  28  52
ATOM     52  C   UNL     1       4.442   2.966  -9.816  1.00  0.00     0.064 A 
ATOM     53  C   UNL     1       5.337   2.380 -10.719  1.00  0.00     0.173 A 
ATOM     54  C   UNL     1       3.076   2.678  -9.967  1.00  0.00     0.173 A 
ATOM     55  F   UNL     1       6.650   2.635 -10.623  1.00  0.00    -0.203 F 
ATOM     56  C   UNL     1       4.883   1.544 -11.738  1.00  0.00     0.198 A 
ATOM     57  C   UNL     1       2.628   1.814 -10.963  1.00  0.00     0.198 A 
ATOM     58  F   UNL     1       2.180   3.205  -9.119  1.00  0.00    -0.203 F 
ATOM     59  F   UNL     1       5.756   1.023 -12.611  1.00  0.00    -0.200 F 
ATOM     60  C   UNL     1       3.532   1.253 -11.851  1.00  0.00     0.200 A 
ATOM     61  F   UNL     1       1.325   1.515 -11.051  1.00  0.00    -0.200 F 
ATOM     62  F   UNL     1       3.100   0.431 -12.818  1.00  0.00    -0.200 F 
ENDBRANCH  28  52
BRANCH  40  63
ATOM     63  C   UNL     1       7.493   9.255  -9.366  1.00  0.00     0.064 A 
ATOM     64  C   UNL     1       6.649  10.017 -10.185  1.00  0.00     0.173 A 
ATOM     65  C   UNL     1       8.875   9.496  -9.444  1.00  0.00     0.173 A 
ATOM     66  F   UNL     1       5.323   9.817 -10.162  1.00  0.00    -0.203 F 
ATOM     67  C   UNL     1       7.169  10.980 -11.047  1.00  0.00     0.198 A 
ATOM     68  C   UNL     1       9.387  10.486 -10.276  1.00  0.00     0.198 A 
ATOM     69  F   UNL     1       9.728   8.796  -8.680  1.00  0.00    -0.203 F 
ATOM     70  F   UNL     1       6.348  11.676 -11.845  1.00  0.00    -0.200 F 
ATOM     71  C   UNL     1       8.535  11.225 -11.079  1.00  0.00     0.200 A 
ATOM     72  F   UNL     1      10.704  10.735 -10.286  1.00  0.00    -0.200 F 
ATOM     73  F   UNL     1       9.029  12.175 -11.885  1.00  0.00    -0.200 F 
ENDBRANCH  40  63
ENDBRANCH  14  15
ENDBRANCH   7   9
ENDBRANCH   4   5
ENDBRANCH   3   4
ENDBRANCH   2   3
ENDBRANCH   1   2
BRANCH   1  74
ATOM     74  C   UNL     1       6.297  -2.963   2.864  1.00  0.00     0.021 C 
BRANCH  74  75
ATOM     75  C   UNL     1       7.078  -2.293   3.992  1.00  0.00     0.116 C 
BRANCH  75  76
ATOM     76  N   UNL     1       6.660  -2.790   5.282  1.00  0.00    -0.352 N 
ATOM     77  C   UNL     1       7.325  -3.472   6.264  1.00  0.00     0.251 C 
ATOM     78  H   UNL     1       5.717  -2.603   5.495  1.00  0.00     0.163 HD
ATOM     79  O   UNL     1       6.604  -3.963   7.127  1.00  0.00    -0.269 OA
BRANCH  77  80
ATOM     80  C   UNL     1       8.900  -3.541   6.214  1.00  0.00     0.041 A 
ATOM     81  C   UNL     1       9.563  -1.888   5.847  1.00  0.00     0.015 A 
ATOM     82  C   UNL     1      10.352  -4.986   6.413  1.00  0.00     0.041 A 
ATOM     83  C   UNL     1      11.332  -1.748   5.673  1.00  0.00     0.018 A 
ATOM     84  C   UNL     1      11.958  -4.767   6.124  1.00  0.00     0.055 A 
ATOM     85  C   UNL     1      12.453  -3.142   5.798  1.00  0.00     0.041 A 
ATOM     86  Br  UNL     1      14.275  -2.825   5.383  1.00  0.00    -0.049 Br
BRANCH  84  87
ATOM     87  N   UNL     1      12.530  -6.041   5.916  1.00  0.00    -0.331 N 
ATOM     88  H   UNL     1      13.506  -6.045   5.790  1.00  0.00     0.169 HD
BRANCH  87  89
ATOM     89  C   UNL     1      11.918  -7.299   5.862  1.00  0.00     0.177 C 
ATOM     90  S   UNL     1      12.940  -8.609   5.598  1.00  0.00    -0.040 S 
BRANCH  89  91
ATOM     91  N   UNL     1      10.511  -7.637   6.027  1.00  0.00    -0.298 N 
ATOM     92  C   UNL     1       9.030  -7.303   6.278  1.00  0.00     0.267 C 
ATOM     93  H   UNL     1      10.502  -8.615   5.918  1.00  0.00     0.172 HD
ATOM     94  O   UNL     1       8.268  -8.242   6.503  1.00  0.00    -0.268 OA
BRANCH  92  95
ATOM     95  C   UNL     1       8.564  -5.846   6.189  1.00  0.00     0.092 A 
ATOM     96  C   UNL     1       9.118  -5.075   4.770  1.00  0.00     0.025 A 
ATOM     97  S   UNL     1       9.044  -4.726   8.158  1.00  0.00    -0.139 S 
ATOM     98  C   UNL     1      10.383  -3.685   5.106  1.00  0.00     0.012 A 
ATOM     99  C   UNL     1      10.536  -3.310   7.051  1.00  0.00     0.065 A 
ENDBRANCH  92  95
ENDBRANCH  89  91
ENDBRANCH  87  89
ENDBRANCH  84  87
ENDBRANCH  77  80
ENDBRANCH  75  76
ENDBRANCH  74  75
ENDBRANCH   1  74
TORSDOF 17
