REMARK SMILES CCC(CC)NC(=O)NC[C@H]1CC[C@H](C(=O)NCCCCCCNC(=O)c2ccc(-c3c4nc(c(-c5c(F)c(F)c(F)c(F)c5F)c5ccc([nH]5)c(-c5c(F)c(F)c(F)c(F)c5F)c5nc(c(-c6c(F)c(F)c(F)c(F)c6F)c6ccc3[nH]6)C=C5)C=C4)cc2)O1
REMARK SMILES IDX 19 1 18 2 17 3 15 4 16 5 14 7 11 8 12 9 90 10 13 11 10 12
REMARK SMILES IDX 9 13 6 14 7 15 8 17 3 19 2 20 1 21 4 22 5 23 20 24 21 25
REMARK SMILES IDX 22 26 23 27 24 28 25 29 26 31 27 32 28 33 89 34 29 35 88 36
REMARK SMILES IDX 30 37 31 38 32 39 82 40 33 41 87 42 81 43 83 44 34 45 86 46
REMARK SMILES IDX 80 47 79 48 35 50 67 51 47 52 66 53 48 54 51 55 65 56 84 57
REMARK SMILES IDX 49 58 50 59 64 61 85 62 52 63 36 64 37 65 45 66 38 67 39 68
REMARK SMILES IDX 43 69 46 70 40 71 41 72 44 73 42 74 68 75 69 76 77 77 70 78
REMARK SMILES IDX 71 79 75 80 78 81 72 82 73 83 76 84 74 85 53 86 54 87 62 88
REMARK SMILES IDX 55 89 56 90 60 91 63 92 57 93 58 94 61 95 59 96
REMARK H PARENT 17 6 6 16 9 18 24 30 83 49 51 60
REMARK Flexibility Score: inf
ROOT
ATOM      1  C   UNL     1       0.561   1.542  -4.862  1.00  0.00     0.021 C 
ENDROOT
BRANCH   1   2
ATOM      2  C   UNL     1       1.204   0.740  -3.732  1.00  0.00     0.116 C 
BRANCH   2   3
ATOM      3  N   UNL     1       1.432  -0.630  -4.134  1.00  0.00    -0.354 N 
ATOM      4  C   UNL     1       2.594  -1.265  -4.461  1.00  0.00     0.249 C 
ATOM      5  O   UNL     1       2.514  -2.438  -4.836  1.00  0.00    -0.272 OA
ATOM      6  H   UNL     1       0.624  -1.191  -4.178  1.00  0.00     0.163 HD
BRANCH   4   7
ATOM      7  C   UNL     1       3.957  -0.542  -4.420  1.00  0.00     0.207 C 
ATOM      8  C   UNL     1       4.776   1.484  -3.567  1.00  0.00     0.138 C 
ATOM      9  C   UNL     1       4.313   1.756  -4.991  1.00  0.00     0.037 C 
ATOM     10  O   UNL     1       4.213   0.199  -3.224  1.00  0.00    -0.363 OA
ATOM     11  C   UNL     1       4.179   0.386  -5.605  1.00  0.00     0.045 C 
BRANCH   8  12
ATOM     12  C   UNL     1       6.295   1.453  -3.286  1.00  0.00     0.149 C 
BRANCH  12  13
ATOM     13  N   UNL     1       7.155   1.765  -4.408  1.00  0.00    -0.336 N 
ATOM     14  N   UNL     1       7.037   4.109  -4.708  1.00  0.00    -0.335 N 
ATOM     15  C   UNL     1       7.476   2.893  -5.052  1.00  0.00     0.315 C 
ATOM     16  H   UNL     1       7.224   4.786  -5.398  1.00  0.00     0.165 HD
ATOM     17  O   UNL     1       8.196   2.800  -6.048  1.00  0.00    -0.249 OA
ATOM     18  H   UNL     1       7.604   0.971  -4.779  1.00  0.00     0.165 HD
BRANCH  14  19
ATOM     19  C   UNL     1       6.344   4.668  -3.549  1.00  0.00     0.083 C 
BRANCH  19  20
ATOM     20  C   UNL     1       7.379   5.149  -2.521  1.00  0.00     0.021 C 
ATOM     21  C   UNL     1       6.766   5.542  -1.185  1.00  0.00     0.006 C 
ENDBRANCH  19  20
BRANCH  19  22
ATOM     22  C   UNL     1       5.318   5.731  -3.990  1.00  0.00     0.021 C 
ATOM     23  C   UNL     1       5.905   7.008  -4.575  1.00  0.00     0.006 C 
ENDBRANCH  19  22
ENDBRANCH  14  19
ENDBRANCH  12  13
ENDBRANCH   8  12
ENDBRANCH   4   7
ENDBRANCH   2   3
ENDBRANCH   1   2
BRANCH   1  24
ATOM     24  C   UNL     1      -0.961   1.384  -4.925  1.00  0.00     0.002 C 
BRANCH  24  25
ATOM     25  C   UNL     1      -1.706   1.886  -3.681  1.00  0.00     0.002 C 
BRANCH  25  26
ATOM     26  C   UNL     1      -1.422   3.342  -3.300  1.00  0.00     0.021 C 
BRANCH  26  27
ATOM     27  C   UNL     1      -1.792   4.356  -4.378  1.00  0.00     0.116 C 
BRANCH  27  28
ATOM     28  N   UNL     1      -3.217   4.331  -4.667  1.00  0.00    -0.352 N 
ATOM     29  C   UNL     1      -4.144   5.336  -4.567  1.00  0.00     0.251 C 
ATOM     30  H   UNL     1      -3.567   3.466  -4.982  1.00  0.00     0.163 HD
ATOM     31  O   UNL     1      -5.342   5.079  -4.609  1.00  0.00    -0.269 OA
BRANCH  29  32
ATOM     32  C   UNL     1      -3.697   6.734  -4.404  1.00  0.00     0.039 A 
ATOM     33  C   UNL     1      -4.359   7.555  -3.488  1.00  0.00     0.014 A 
ATOM     34  C   UNL     1      -2.649   7.242  -5.178  1.00  0.00     0.014 A 
ATOM     35  C   UNL     1      -3.938   8.875  -3.314  1.00  0.00     0.010 A 
ATOM     36  C   UNL     1      -2.186   8.534  -4.953  1.00  0.00     0.010 A 
ATOM     37  C   UNL     1      -2.832   9.366  -4.026  1.00  0.00    -0.014 A 
BRANCH  37  38
ATOM     38  C   UNL     1      -2.346  10.755  -3.830  1.00  0.00     0.031 A 
ATOM     39  C   UNL     1      -2.414  11.742  -4.962  1.00  0.00     0.074 A 
ATOM     40  C   UNL     1      -1.793  11.107  -2.654  1.00  0.00     0.049 A 
ATOM     41  N   UNL     1      -1.972  12.973  -5.015  1.00  0.00    -0.248 NA
ATOM     42  C   UNL     1      -3.038  11.275  -6.210  1.00  0.00     0.031 C 
ATOM     43  C   UNL     1      -1.635  10.225  -1.496  1.00  0.00     0.029 A 
ATOM     44  N   UNL     1      -1.250  12.297  -2.241  1.00  0.00    -0.354 N 
ATOM     45  C   UNL     1      -2.253  13.420  -6.299  1.00  0.00     0.074 A 
ATOM     46  C   UNL     1      -2.853  12.313  -7.012  1.00  0.00     0.031 C 
ATOM     47  C   UNL     1      -1.053  10.910  -0.498  1.00  0.00     0.029 A 
ATOM     48  C   UNL     1      -0.761  12.264  -0.957  1.00  0.00     0.049 A 
ATOM     49  H   UNL     1      -1.213  13.099  -2.811  1.00  0.00     0.167 HD
ATOM     50  C   UNL     1      -2.053  14.651  -6.827  1.00  0.00     0.037 A 
ATOM     51  C   UNL     1      -0.141  13.218  -0.237  1.00  0.00     0.037 A 
ATOM     52  C   UNL     1      -1.480  15.756  -6.106  1.00  0.00     0.049 A 
ATOM     53  C   UNL     1       0.079  14.573  -0.854  1.00  0.00     0.074 A 
ATOM     54  C   UNL     1      -1.280  17.057  -6.535  1.00  0.00     0.029 A 
ATOM     55  N   UNL     1      -1.016  15.690  -4.800  1.00  0.00    -0.354 N 
ATOM     56  N   UNL     1      -0.247  15.003  -2.049  1.00  0.00    -0.248 NA
ATOM     57  C   UNL     1       0.748  15.580  -0.018  1.00  0.00     0.031 C 
ATOM     58  C   UNL     1      -0.655  17.766  -5.505  1.00  0.00     0.029 A 
ATOM     59  C   UNL     1      -0.513  16.922  -4.415  1.00  0.00     0.049 A 
ATOM     60  H   UNL     1      -1.041  14.887  -4.231  1.00  0.00     0.167 HD
ATOM     61  C   UNL     1       0.146  16.333  -2.097  1.00  0.00     0.074 A 
ATOM     62  C   UNL     1       0.721  16.646  -0.806  1.00  0.00     0.031 C 
ATOM     63  C   UNL     1       0.042  17.218  -3.119  1.00  0.00     0.037 A 
BRANCH  50  64
ATOM     64  C   UNL     1      -2.465  14.873  -8.254  1.00  0.00     0.064 A 
ATOM     65  C   UNL     1      -3.816  14.913  -8.630  1.00  0.00     0.173 A 
ATOM     66  C   UNL     1      -1.501  15.100  -9.248  1.00  0.00     0.173 A 
ATOM     67  F   UNL     1      -4.777  14.691  -7.721  1.00  0.00    -0.203 F 
ATOM     68  C   UNL     1      -4.186  15.148  -9.952  1.00  0.00     0.198 A 
ATOM     69  C   UNL     1      -1.875  15.365 -10.563  1.00  0.00     0.198 A 
ATOM     70  F   UNL     1      -0.195  15.078  -8.941  1.00  0.00    -0.203 F 
ATOM     71  F   UNL     1      -5.481  15.137 -10.295  1.00  0.00    -0.200 F 
ATOM     72  C   UNL     1      -3.216  15.382 -10.915  1.00  0.00     0.200 A 
ATOM     73  F   UNL     1      -0.937  15.605 -11.489  1.00  0.00    -0.200 F 
ATOM     74  F   UNL     1      -3.574  15.620 -12.184  1.00  0.00    -0.200 F 
ENDBRANCH  50  64
BRANCH  51  75
ATOM     75  C   UNL     1       0.305  12.935   1.153  1.00  0.00     0.064 A 
ATOM     76  C   UNL     1      -0.302  13.569   2.246  1.00  0.00     0.173 A 
ATOM     77  C   UNL     1       1.358  12.047   1.416  1.00  0.00     0.173 A 
ATOM     78  F   UNL     1      -1.300  14.441   2.045  1.00  0.00    -0.203 F 
ATOM     79  C   UNL     1       0.147  13.348   3.547  1.00  0.00     0.198 A 
ATOM     80  C   UNL     1       1.785  11.803   2.720  1.00  0.00     0.198 A 
ATOM     81  F   UNL     1       1.969  11.409   0.406  1.00  0.00    -0.203 F 
ATOM     82  F   UNL     1      -0.414  14.011   4.568  1.00  0.00    -0.200 F 
ATOM     83  C   UNL     1       1.188  12.463   3.783  1.00  0.00     0.200 A 
ATOM     84  F   UNL     1       2.781  10.935   2.944  1.00  0.00    -0.200 F 
ATOM     85  F   UNL     1       1.621  12.252   5.033  1.00  0.00    -0.200 F 
ENDBRANCH  51  75
BRANCH  63  86
ATOM     86  C   UNL     1       0.521  18.618  -2.869  1.00  0.00     0.064 A 
ATOM     87  C   UNL     1       1.886  18.921  -2.754  1.00  0.00     0.173 A 
ATOM     88  C   UNL     1      -0.397  19.676  -2.783  1.00  0.00     0.173 A 
ATOM     89  F   UNL     1       2.802  17.943  -2.814  1.00  0.00    -0.203 F 
ATOM     90  C   UNL     1       2.312  20.228  -2.536  1.00  0.00     0.198 A 
ATOM     91  C   UNL     1       0.034  20.986  -2.596  1.00  0.00     0.198 A 
ATOM     92  F   UNL     1      -1.713  19.440  -2.893  1.00  0.00    -0.203 F 
ATOM     93  F   UNL     1       3.617  20.488  -2.379  1.00  0.00    -0.200 F 
ATOM     94  C   UNL     1       1.387  21.260  -2.465  1.00  0.00     0.200 A 
ATOM     95  F   UNL     1      -0.859  21.983  -2.543  1.00  0.00    -0.200 F 
ATOM     96  F   UNL     1       1.800  22.519  -2.263  1.00  0.00    -0.200 F 
ENDBRANCH  63  86
ENDBRANCH  37  38
ENDBRANCH  29  32
ENDBRANCH  27  28
ENDBRANCH  26  27
ENDBRANCH  25  26
ENDBRANCH  24  25
ENDBRANCH   1  24
TORSDOF 18
