REMARK SMILES CCn1c(N2CCC[C@H](C(=O)NCCCCCCNC(=O)c3ccc(-c4c5nc(c(-c6c(F)c(F)c(F)c(F)c6F)c6ccc([nH]6)c(-c6c(F)c(F)c(F)c(F)c6F)c6nc(c(-c7c(F)c(F)c(F)c(F)c7F)c7ccc4[nH]7)C=C6)C=C5)cc3)C2)nc2cc(C)ccc21
REMARK SMILES IDX 15 1 14 2 13 3 12 4 10 5 11 6 9 8 5 9 6 10 85 11 7 12 8 13
REMARK SMILES IDX 4 14 3 15 93 16 86 17 87 18 92 19 88 20 91 21 89 22 90 23
REMARK SMILES IDX 2 24 1 25 16 26 17 27 18 28 19 29 20 30 21 32 22 33 23 34
REMARK SMILES IDX 84 35 24 36 83 37 25 38 26 39 27 40 77 41 28 42 82 43 76 44
REMARK SMILES IDX 78 45 29 46 81 47 75 48 74 49 30 51 62 52 42 53 61 54 43 55
REMARK SMILES IDX 46 56 60 57 79 58 44 59 45 60 59 62 80 63 47 64 31 65 32 66
REMARK SMILES IDX 40 67 33 68 34 69 38 70 41 71 35 72 36 73 39 74 37 75 63 76
REMARK SMILES IDX 64 77 72 78 65 79 66 80 70 81 73 82 67 83 68 84 71 85 69 86
REMARK SMILES IDX 48 87 49 88 57 89 50 90 51 91 55 92 58 93 52 94 53 95 56 96
REMARK SMILES IDX 54 97
REMARK H PARENT 12 7 19 31 78 50 46 61
REMARK Flexibility Score: inf
ROOT
ATOM      1  C   UNL     1       4.674  -5.914  -4.247  1.00  0.00     0.002 C 
ENDROOT
BRANCH   1   2
ATOM      2  C   UNL     1       4.872  -4.412  -4.448  1.00  0.00     0.021 C 
BRANCH   2   3
ATOM      3  C   UNL     1       4.480  -3.566  -3.240  1.00  0.00     0.116 C 
BRANCH   3   4
ATOM      4  N   UNL     1       5.586  -2.968  -2.531  1.00  0.00    -0.356 N 
ATOM      5  C   UNL     1       5.711  -1.692  -2.080  1.00  0.00     0.224 C 
ATOM      6  O   UNL     1       6.509  -1.510  -1.152  1.00  0.00    -0.275 OA
ATOM      7  H   UNL     1       6.350  -3.562  -2.350  1.00  0.00     0.163 HD
BRANCH   5   8
ATOM      8  C   UNL     1       4.963  -0.487  -2.668  1.00  0.00     0.098 C 
ATOM      9  N   UNL     1       2.530  -0.867  -3.110  1.00  0.00    -0.341 N 
ATOM     10  C   UNL     1       2.646  -0.598  -4.540  1.00  0.00     0.119 C 
ATOM     11  C   UNL     1       3.523  -0.307  -2.200  1.00  0.00     0.133 C 
ATOM     12  C   UNL     1       4.073  -0.732  -5.081  1.00  0.00     0.022 C 
ATOM     13  C   UNL     1       5.178  -0.230  -4.158  1.00  0.00     0.017 C 
BRANCH   9  14
ATOM     14  C   UNL     1       1.613  -1.758  -2.644  1.00  0.00     0.206 A 
ATOM     15  N   UNL     1       0.655  -1.433  -1.702  1.00  0.00    -0.310 N 
ATOM     16  C   UNL     1       0.018  -2.594  -1.315  1.00  0.00     0.070 A 
ATOM     17  N   UNL     1       1.536  -3.036  -2.949  1.00  0.00    -0.213 NA
ATOM     18  C   UNL     1       0.627  -3.581  -2.077  1.00  0.00     0.091 A 
ATOM     19  C   UNL     1      -0.993  -2.879  -0.387  1.00  0.00     0.029 A 
ATOM     20  C   UNL     1       0.274  -4.923  -1.865  1.00  0.00     0.034 A 
ATOM     21  C   UNL     1      -1.335  -4.226  -0.197  1.00  0.00     0.006 A 
ATOM     22  C   UNL     1      -0.704  -5.250  -0.912  1.00  0.00    -0.049 A 
ATOM     23  C   UNL     1      -1.019  -6.694  -0.648  1.00  0.00     0.044 C 
BRANCH  15  24
ATOM     24  C   UNL     1       0.300  -0.104  -1.246  1.00  0.00     0.122 C 
ATOM     25  C   UNL     1       0.786   0.199   0.162  1.00  0.00     0.028 C 
ENDBRANCH  15  24
ENDBRANCH   9  14
ENDBRANCH   5   8
ENDBRANCH   3   4
ENDBRANCH   2   3
ENDBRANCH   1   2
BRANCH   1  26
ATOM     26  C   UNL     1       3.244  -6.357  -3.908  1.00  0.00     0.002 C 
BRANCH  26  27
ATOM     27  C   UNL     1       2.147  -5.980  -4.914  1.00  0.00     0.021 C 
BRANCH  27  28
ATOM     28  C   UNL     1       2.357  -6.502  -6.331  1.00  0.00     0.116 C 
BRANCH  28  29
ATOM     29  N   UNL     1       2.675  -7.915  -6.383  1.00  0.00    -0.352 N 
ATOM     30  C   UNL     1       1.971  -9.081  -6.353  1.00  0.00     0.251 C 
ATOM     31  H   UNL     1       3.643  -8.072  -6.459  1.00  0.00     0.163 HD
ATOM     32  O   UNL     1       2.647 -10.115  -6.446  1.00  0.00    -0.269 OA
BRANCH  30  33
ATOM     33  C   UNL     1       0.500  -9.219  -6.173  1.00  0.00     0.039 A 
ATOM     34  C   UNL     1      -0.423  -8.176  -6.109  1.00  0.00     0.014 A 
ATOM     35  C   UNL     1       0.026 -10.540  -6.032  1.00  0.00     0.014 A 
ATOM     36  C   UNL     1      -1.764  -8.443  -5.829  1.00  0.00     0.010 A 
ATOM     37  C   UNL     1      -1.312 -10.813  -5.769  1.00  0.00     0.010 A 
ATOM     38  C   UNL     1      -2.203  -9.759  -5.628  1.00  0.00    -0.014 A 
BRANCH  38  39
ATOM     39  C   UNL     1      -3.632  -9.989  -5.411  1.00  0.00     0.031 A 
ATOM     40  C   UNL     1      -4.498  -9.516  -6.528  1.00  0.00     0.074 A 
ATOM     41  C   UNL     1      -4.151 -10.651  -4.354  1.00  0.00     0.049 A 
ATOM     42  N   UNL     1      -5.388  -8.579  -6.497  1.00  0.00    -0.248 NA
ATOM     43  C   UNL     1      -4.261 -10.068  -7.871  1.00  0.00     0.031 C 
ATOM     44  C   UNL     1      -3.433 -11.403  -3.321  1.00  0.00     0.029 A 
ATOM     45  N   UNL     1      -5.462 -10.851  -4.019  1.00  0.00    -0.354 N 
ATOM     46  C   UNL     1      -5.940  -8.524  -7.776  1.00  0.00     0.074 A 
ATOM     47  C   UNL     1      -5.125  -9.368  -8.608  1.00  0.00     0.031 C 
ATOM     48  C   UNL     1      -4.313 -12.141  -2.605  1.00  0.00     0.029 A 
ATOM     49  C   UNL     1      -5.662 -11.803  -3.025  1.00  0.00     0.049 A 
ATOM     50  H   UNL     1      -6.202 -10.362  -4.446  1.00  0.00     0.167 HD
ATOM     51  C   UNL     1      -7.158  -7.955  -7.990  1.00  0.00     0.037 A 
ATOM     52  C   UNL     1      -6.851 -12.294  -2.596  1.00  0.00     0.037 A 
ATOM     53  C   UNL     1      -7.535  -7.117  -6.883  1.00  0.00     0.049 A 
ATOM     54  C   UNL     1      -7.889 -11.305  -2.956  1.00  0.00     0.074 A 
ATOM     55  C   UNL     1      -7.122  -5.911  -6.363  1.00  0.00     0.029 A 
ATOM     56  N   UNL     1      -8.287  -7.733  -5.920  1.00  0.00    -0.354 N 
ATOM     57  N   UNL     1      -7.996 -10.129  -2.406  1.00  0.00    -0.248 NA
ATOM     58  C   UNL     1      -8.639 -11.493  -4.189  1.00  0.00     0.031 C 
ATOM     59  C   UNL     1      -7.375  -5.992  -4.962  1.00  0.00     0.029 A 
ATOM     60  C   UNL     1      -7.966  -7.228  -4.692  1.00  0.00     0.049 A 
ATOM     61  H   UNL     1      -8.957  -8.435  -6.087  1.00  0.00     0.167 HD
ATOM     62  C   UNL     1      -8.455  -9.316  -3.424  1.00  0.00     0.074 A 
ATOM     63  C   UNL     1      -8.991 -10.227  -4.428  1.00  0.00     0.031 C 
ATOM     64  C   UNL     1      -8.081  -8.006  -3.480  1.00  0.00     0.037 A 
BRANCH  51  65
ATOM     65  C   UNL     1      -8.201  -8.490  -8.950  1.00  0.00     0.064 A 
ATOM     66  C   UNL     1      -9.417  -7.787  -9.103  1.00  0.00     0.173 A 
ATOM     67  C   UNL     1      -8.201  -9.809  -9.450  1.00  0.00     0.173 A 
ATOM     68  F   UNL     1      -9.544  -6.531  -8.647  1.00  0.00    -0.203 F 
ATOM     69  C   UNL     1     -10.561  -8.389  -9.635  1.00  0.00     0.198 A 
ATOM     70  C   UNL     1      -9.332 -10.391 -10.025  1.00  0.00     0.198 A 
ATOM     71  F   UNL     1      -7.155 -10.629  -9.300  1.00  0.00    -0.203 F 
ATOM     72  F   UNL     1     -11.725  -7.725  -9.638  1.00  0.00    -0.200 F 
ATOM     73  C   UNL     1     -10.520  -9.694 -10.088  1.00  0.00     0.200 A 
ATOM     74  F   UNL     1      -9.278 -11.665 -10.437  1.00  0.00    -0.200 F 
ATOM     75  F   UNL     1     -11.628 -10.296 -10.537  1.00  0.00    -0.200 F 
ENDBRANCH  51  65
BRANCH  52  76
ATOM     76  C   UNL     1      -7.208 -13.649  -2.109  1.00  0.00     0.064 A 
ATOM     77  C   UNL     1      -8.418 -13.884  -1.428  1.00  0.00     0.173 A 
ATOM     78  C   UNL     1      -6.527 -14.787  -2.578  1.00  0.00     0.173 A 
ATOM     79  F   UNL     1      -9.151 -12.854  -0.979  1.00  0.00    -0.203 F 
ATOM     80  C   UNL     1      -8.935 -15.174  -1.270  1.00  0.00     0.198 A 
ATOM     81  C   UNL     1      -7.043 -16.075  -2.415  1.00  0.00     0.198 A 
ATOM     82  F   UNL     1      -5.400 -14.663  -3.294  1.00  0.00    -0.203 F 
ATOM     83  F   UNL     1     -10.128 -15.350  -0.683  1.00  0.00    -0.200 F 
ATOM     84  C   UNL     1      -8.255 -16.267  -1.778  1.00  0.00     0.200 A 
ATOM     85  F   UNL     1      -6.394 -17.122  -2.944  1.00  0.00    -0.200 F 
ATOM     86  F   UNL     1      -8.786 -17.495  -1.694  1.00  0.00    -0.200 F 
ENDBRANCH  52  76
BRANCH  64  87
ATOM     87  C   UNL     1      -7.547  -7.384  -2.224  1.00  0.00     0.064 A 
ATOM     88  C   UNL     1      -6.322  -7.726  -1.628  1.00  0.00     0.173 A 
ATOM     89  C   UNL     1      -8.249  -6.295  -1.691  1.00  0.00     0.173 A 
ATOM     90  F   UNL     1      -5.561  -8.708  -2.126  1.00  0.00    -0.203 F 
ATOM     91  C   UNL     1      -5.834  -7.012  -0.534  1.00  0.00     0.198 A 
ATOM     92  C   UNL     1      -7.742  -5.563  -0.624  1.00  0.00     0.198 A 
ATOM     93  F   UNL     1      -9.406  -5.903  -2.250  1.00  0.00    -0.203 F 
ATOM     94  F   UNL     1      -4.662  -7.352   0.022  1.00  0.00    -0.200 F 
ATOM     95  C   UNL     1      -6.537  -5.924  -0.043  1.00  0.00     0.200 A 
ATOM     96  F   UNL     1      -8.404  -4.485  -0.182  1.00  0.00    -0.200 F 
ATOM     97  F   UNL     1      -6.041  -5.205   0.974  1.00  0.00    -0.200 F 
ENDBRANCH  64  87
ENDBRANCH  38  39
ENDBRANCH  30  33
ENDBRANCH  28  29
ENDBRANCH  27  28
ENDBRANCH  26  27
ENDBRANCH   1  26
TORSDOF 15
