REMARK SMILES Cc1ccc(Cn2c(C)c(C[NH2+]Cc3ccco3)c(C(=O)NCCCCCCNC(=O)c3ccc(-c4c5nc(c(-c6c(F)c(F)c(F)c(F)c6F)c6ccc([nH]6)c(-c6c(F)c(F)c(F)c(F)c6F)c6nc(c(-c7c(F)c(F)c(F)c(F)c7F)c7ccc4[nH]7)C=C6)C=C5)cc3)c2C)cc1
REMARK SMILES IDX 24 1 23 2 22 3 20 4 21 5 19 7 7 8 8 9 95 10 9 11 10 12 96 13
REMARK SMILES IDX 6 14 5 15 1 16 2 17 3 18 98 19 4 20 97 21 11 22 12 23 13 26
REMARK SMILES IDX 14 27 15 28 18 29 16 30 17 31 25 32 26 33 27 34 28 35 29 36
REMARK SMILES IDX 30 37 31 39 32 40 33 41 94 42 34 43 93 44 35 45 36 46 37 47
REMARK SMILES IDX 87 48 38 49 92 50 86 51 88 52 39 53 91 54 85 55 84 56 40 58
REMARK SMILES IDX 72 59 52 60 71 61 53 62 56 63 70 64 89 65 54 66 55 67 69 69
REMARK SMILES IDX 90 70 57 71 41 72 42 73 50 74 43 75 44 76 48 77 51 78 45 79
REMARK SMILES IDX 46 80 49 81 47 82 73 83 74 84 82 85 75 86 76 87 80 88 83 89
REMARK SMILES IDX 77 90 78 91 81 92 79 93 58 94 59 95 67 96 60 97 61 98 65 99
REMARK SMILES IDX 68 100 62 101 63 102 66 103 64 104
REMARK H PARENT 22 6 12 24 12 25 29 38 88 57 56 68
REMARK Flexibility Score: inf
ROOT
ATOM      1  C   UNL     1      -2.533  -5.669  -0.965  1.00  0.00     0.021 C 
ENDROOT
BRANCH   1   2
ATOM      2  C   UNL     1      -2.438  -4.760  -2.197  1.00  0.00     0.116 C 
BRANCH   2   3
ATOM      3  N   UNL     1      -3.692  -4.772  -2.917  1.00  0.00    -0.352 N 
ATOM      4  C   UNL     1      -4.659  -3.816  -3.090  1.00  0.00     0.253 C 
ATOM      5  O   UNL     1      -5.629  -4.146  -3.771  1.00  0.00    -0.269 OA
ATOM      6  H   UNL     1      -3.887  -5.626  -3.366  1.00  0.00     0.163 HD
BRANCH   4   7
ATOM      7  C   UNL     1      -4.513  -2.452  -2.567  1.00  0.00     0.069 A 
ATOM      8  N   UNL     1      -3.994  -0.645  -1.328  1.00  0.00    -0.343 N 
ATOM      9  C   UNL     1      -4.737  -0.178  -2.401  1.00  0.00     0.025 A 
ATOM     10  C   UNL     1      -4.144  -2.029  -1.290  1.00  0.00     0.028 A 
ATOM     11  C   UNL     1      -5.213   1.225  -2.589  1.00  0.00     0.065 C 
ATOM     12  C   UNL     1      -5.029  -1.270  -3.214  1.00  0.00     0.040 A 
ATOM     13  C   UNL     1      -4.043  -2.825  -0.036  1.00  0.00     0.065 C 
BRANCH   8  14
ATOM     14  C   UNL     1      -3.387   0.174  -0.269  1.00  0.00     0.157 C 
BRANCH  14  15
ATOM     15  C   UNL     1      -1.869   0.212  -0.284  1.00  0.00    -0.028 A 
ATOM     16  C   UNL     1       2.461   0.412  -0.046  1.00  0.00     0.044 C 
ATOM     17  C   UNL     1       0.963   0.359  -0.122  1.00  0.00    -0.051 A 
ATOM     18  C   UNL     1       0.291  -0.817   0.212  1.00  0.00     0.004 A 
ATOM     19  C   UNL     1       0.215   1.457  -0.559  1.00  0.00     0.004 A 
ATOM     20  C   UNL     1      -1.104  -0.880   0.146  1.00  0.00     0.006 A 
ATOM     21  C   UNL     1      -1.184   1.384  -0.641  1.00  0.00     0.006 A 
ENDBRANCH  14  15
ENDBRANCH   8  14
BRANCH  12  22
ATOM     22  C   UNL     1      -5.855  -1.256  -4.481  1.00  0.00     0.300 C 
BRANCH  22  23
ATOM     23  N   UNL     1      -7.239  -1.524  -4.089  1.00  0.00    -0.336 N 
ATOM     24  H   UNL     1      -7.561  -0.762  -3.492  1.00  0.00     0.346 HD
ATOM     25  H   UNL     1      -7.251  -2.420  -3.602  1.00  0.00     0.346 HD
BRANCH  23  26
ATOM     26  C   UNL     1      -8.146  -1.636  -5.233  1.00  0.00     0.337 C 
BRANCH  26  27
ATOM     27  C   UNL     1      -8.089  -2.970  -5.893  1.00  0.00     0.157 A 
ATOM     28  C   UNL     1      -7.724  -3.398  -7.152  1.00  0.00     0.052 A 
ATOM     29  O   UNL     1      -8.479  -4.039  -5.136  1.00  0.00    -0.463 OA
ATOM     30  C   UNL     1      -7.870  -4.807  -7.155  1.00  0.00     0.042 A 
ATOM     31  C   UNL     1      -8.322  -5.148  -5.902  1.00  0.00     0.195 A 
ENDBRANCH  26  27
ENDBRANCH  23  26
ENDBRANCH  22  23
ENDBRANCH  12  22
ENDBRANCH   4   7
ENDBRANCH   2   3
ENDBRANCH   1   2
BRANCH   1  32
ATOM     32  C   UNL     1      -2.156  -7.136  -1.208  1.00  0.00     0.002 C 
BRANCH  32  33
ATOM     33  C   UNL     1      -0.712  -7.397  -1.667  1.00  0.00     0.002 C 
BRANCH  33  34
ATOM     34  C   UNL     1       0.382  -6.662  -0.889  1.00  0.00     0.021 C 
BRANCH  34  35
ATOM     35  C   UNL     1       0.560  -7.153   0.543  1.00  0.00     0.116 C 
BRANCH  35  36
ATOM     36  N   UNL     1       1.542  -8.220   0.680  1.00  0.00    -0.352 N 
ATOM     37  C   UNL     1       1.887  -8.988   1.780  1.00  0.00     0.251 C 
ATOM     38  H   UNL     1       2.042  -8.430  -0.142  1.00  0.00     0.163 HD
ATOM     39  O   UNL     1       2.809  -9.780   1.704  1.00  0.00    -0.269 OA
BRANCH  37  40
ATOM     40  C   UNL     1       1.044  -8.949   3.003  1.00  0.00     0.039 A 
ATOM     41  C   UNL     1       0.730 -10.169   3.620  1.00  0.00     0.014 A 
ATOM     42  C   UNL     1       0.416  -7.780   3.415  1.00  0.00     0.014 A 
ATOM     43  C   UNL     1      -0.380 -10.250   4.458  1.00  0.00     0.010 A 
ATOM     44  C   UNL     1      -0.745  -7.874   4.152  1.00  0.00     0.010 A 
ATOM     45  C   UNL     1      -1.178  -9.119   4.618  1.00  0.00    -0.014 A 
BRANCH  45  46
ATOM     46  C   UNL     1      -2.533  -9.154   5.149  1.00  0.00     0.031 A 
ATOM     47  C   UNL     1      -2.834  -8.595   6.481  1.00  0.00     0.074 A 
ATOM     48  C   UNL     1      -3.538  -9.558   4.340  1.00  0.00     0.049 A 
ATOM     49  N   UNL     1      -3.876  -8.905   7.177  1.00  0.00    -0.248 NA
ATOM     50  C   UNL     1      -1.954  -7.652   7.159  1.00  0.00     0.031 C 
ATOM     51  C   UNL     1      -4.967  -9.332   4.531  1.00  0.00     0.029 A 
ATOM     52  N   UNL     1      -3.466 -10.418   3.231  1.00  0.00    -0.354 N 
ATOM     53  C   UNL     1      -3.961  -8.018   8.227  1.00  0.00     0.074 A 
ATOM     54  C   UNL     1      -2.700  -7.313   8.215  1.00  0.00     0.031 C 
ATOM     55  C   UNL     1      -5.651 -10.218   3.792  1.00  0.00     0.029 A 
ATOM     56  C   UNL     1      -4.682 -11.139   3.227  1.00  0.00     0.049 A 
ATOM     57  H   UNL     1      -2.723 -10.501   2.590  1.00  0.00     0.167 HD
ATOM     58  C   UNL     1      -5.149  -7.889   8.890  1.00  0.00     0.037 A 
ATOM     59  C   UNL     1      -4.715 -12.494   3.391  1.00  0.00     0.037 A 
ATOM     60  C   UNL     1      -6.145  -8.819   8.358  1.00  0.00     0.049 A 
ATOM     61  C   UNL     1      -5.526 -12.947   4.579  1.00  0.00     0.074 A 
ATOM     62  C   UNL     1      -7.181  -8.651   7.453  1.00  0.00     0.029 A 
ATOM     63  N   UNL     1      -5.974 -10.190   8.515  1.00  0.00    -0.354 N 
ATOM     64  N   UNL     1      -5.799 -12.184   5.600  1.00  0.00    -0.248 NA
ATOM     65  C   UNL     1      -6.067 -14.294   4.727  1.00  0.00     0.031 C 
ATOM     66  C   UNL     1      -7.623  -9.932   7.048  1.00  0.00     0.029 A 
ATOM     67  C   UNL     1      -6.864 -10.878   7.713  1.00  0.00     0.049 A 
ATOM     68  H   UNL     1      -5.313 -10.609   9.112  1.00  0.00     0.167 HD
ATOM     69  C   UNL     1      -6.515 -12.897   6.526  1.00  0.00     0.074 A 
ATOM     70  C   UNL     1      -6.669 -14.209   5.928  1.00  0.00     0.031 C 
ATOM     71  C   UNL     1      -6.909 -12.333   7.706  1.00  0.00     0.037 A 
BRANCH  58  72
ATOM     72  C   UNL     1      -5.520  -6.726   9.794  1.00  0.00     0.064 A 
ATOM     73  C   UNL     1      -6.875  -6.357   9.974  1.00  0.00     0.173 A 
ATOM     74  C   UNL     1      -4.603  -5.898  10.465  1.00  0.00     0.173 A 
ATOM     75  F   UNL     1      -7.878  -7.120   9.522  1.00  0.00    -0.203 F 
ATOM     76  C   UNL     1      -7.259  -5.186  10.634  1.00  0.00     0.198 A 
ATOM     77  C   UNL     1      -4.981  -4.701  11.085  1.00  0.00     0.198 A 
ATOM     78  F   UNL     1      -3.321  -6.247  10.607  1.00  0.00    -0.203 F 
ATOM     79  F   UNL     1      -8.560  -4.885  10.751  1.00  0.00    -0.200 F 
ATOM     80  C   UNL     1      -6.308  -4.335  11.154  1.00  0.00     0.200 A 
ATOM     81  F   UNL     1      -4.042  -3.906  11.620  1.00  0.00    -0.200 F 
ATOM     82  F   UNL     1      -6.670  -3.191  11.748  1.00  0.00    -0.200 F 
ENDBRANCH  58  72
BRANCH  59  83
ATOM     83  C   UNL     1      -3.494 -13.171   2.888  1.00  0.00     0.064 A 
ATOM     84  C   UNL     1      -3.245 -13.149   1.503  1.00  0.00     0.173 A 
ATOM     85  C   UNL     1      -2.417 -13.453   3.738  1.00  0.00     0.173 A 
ATOM     86  F   UNL     1      -4.246 -12.880   0.648  1.00  0.00    -0.203 F 
ATOM     87  C   UNL     1      -1.954 -13.279   0.998  1.00  0.00     0.198 A 
ATOM     88  C   UNL     1      -1.125 -13.592   3.227  1.00  0.00     0.198 A 
ATOM     89  F   UNL     1      -2.589 -13.471   5.067  1.00  0.00    -0.203 F 
ATOM     90  F   UNL     1      -1.733 -13.140  -0.317  1.00  0.00    -0.200 F 
ATOM     91  C   UNL     1      -0.890 -13.469   1.864  1.00  0.00     0.200 A 
ATOM     92  F   UNL     1      -0.091 -13.748   4.065  1.00  0.00    -0.200 F 
ATOM     93  F   UNL     1       0.364 -13.494   1.392  1.00  0.00    -0.200 F 
ENDBRANCH  59  83
BRANCH  71  94
ATOM     94  C   UNL     1      -7.472 -13.047   8.915  1.00  0.00     0.064 A 
ATOM     95  C   UNL     1      -7.248 -14.403   9.207  1.00  0.00     0.173 A 
ATOM     96  C   UNL     1      -8.157 -12.319   9.922  1.00  0.00     0.173 A 
ATOM     97  F   UNL     1      -6.513 -15.180   8.403  1.00  0.00    -0.203 F 
ATOM     98  C   UNL     1      -7.724 -14.997  10.381  1.00  0.00     0.198 A 
ATOM     99  C   UNL     1      -8.576 -12.901  11.118  1.00  0.00     0.198 A 
ATOM    100  F   UNL     1      -8.415 -11.010   9.793  1.00  0.00    -0.203 F 
ATOM    101  F   UNL     1      -7.518 -16.305  10.591  1.00  0.00    -0.200 F 
ATOM    102  C   UNL     1      -8.375 -14.245  11.341  1.00  0.00     0.200 A 
ATOM    103  F   UNL     1      -9.156 -12.143  12.059  1.00  0.00    -0.200 F 
ATOM    104  F   UNL     1      -8.784 -14.809  12.485  1.00  0.00    -0.200 F 
ENDBRANCH  71  94
ENDBRANCH  45  46
ENDBRANCH  37  40
ENDBRANCH  35  36
ENDBRANCH  34  35
ENDBRANCH  33  34
ENDBRANCH  32  33
ENDBRANCH   1  32
TORSDOF 19
