REMARK SMILES CC[C@H](C)[C@@H](C(=O)NCCCCCCNC(=O)c1ccc(-c2c3nc(c(-c4c(F)c(F)c(F)c(F)c4F)c4ccc([nH]4)c(-c4c(F)c(F)c(F)c(F)c4F)c4nc(c(-c5c(F)c(F)c(F)c(F)c5F)c5ccc2[nH]5)C=C4)C=C3)cc1)N1C(=O)/C(=C/c2ccccc2OC)SC1=S
REMARK SMILES IDX 11 1 10 2 9 3 8 4 6 5 7 6 5 8 3 9 4 10 2 11 1 12 81 13 82 14
REMARK SMILES IDX 95 15 83 16 84 17 94 18 96 19 85 20 86 21 87 22 91 23 88 24
REMARK SMILES IDX 90 25 89 26 92 27 93 28 12 29 13 30 14 31 15 32 16 33 17 35
REMARK SMILES IDX 18 36 19 37 80 38 20 39 79 40 21 41 22 42 23 43 73 44 24 45
REMARK SMILES IDX 78 46 72 47 74 48 25 49 77 50 71 51 70 52 26 54 58 55 38 56
REMARK SMILES IDX 57 57 39 58 42 59 56 60 75 61 40 62 41 63 55 65 76 66 43 67
REMARK SMILES IDX 27 68 28 69 36 70 29 71 30 72 34 73 37 74 31 75 32 76 35 77
REMARK SMILES IDX 33 78 59 79 60 80 68 81 61 82 62 83 66 84 69 85 63 86 64 87
REMARK SMILES IDX 67 88 65 89 44 90 45 91 53 92 46 93 47 94 51 95 54 96 48 97
REMARK SMILES IDX 49 98 52 99 50 100
REMARK H PARENT 8 7 15 34 74 53 42 64
REMARK Flexibility Score: inf
ROOT
ATOM      1  C   UNL     1       0.703   2.393  -4.199  1.00  0.00     0.002 C 
ENDROOT
BRANCH   1   2
ATOM      2  C   UNL     1       0.516   1.430  -3.026  1.00  0.00     0.021 C 
BRANCH   2   3
ATOM      3  C   UNL     1      -0.264   0.152  -3.344  1.00  0.00     0.116 C 
BRANCH   3   4
ATOM      4  N   UNL     1       0.615  -0.856  -3.891  1.00  0.00    -0.354 N 
ATOM      5  C   UNL     1       1.009  -2.076  -3.440  1.00  0.00     0.243 C 
ATOM      6  O   UNL     1       1.646  -2.734  -4.275  1.00  0.00    -0.273 OA
ATOM      7  H   UNL     1       1.005  -0.611  -4.761  1.00  0.00     0.163 HD
BRANCH   5   8
ATOM      8  C   UNL     1       0.602  -2.674  -2.045  1.00  0.00     0.184 C 
BRANCH   8   9
ATOM      9  C   UNL     1       1.191  -2.127  -0.697  1.00  0.00     0.018 C 
ATOM     10  C   UNL     1       0.852  -0.675  -0.394  1.00  0.00     0.010 C 
BRANCH   9  11
ATOM     11  C   UNL     1       0.712  -3.017   0.489  1.00  0.00     0.002 C 
ATOM     12  C   UNL     1       1.302  -2.648   1.843  1.00  0.00     0.004 C 
ENDBRANCH   9  11
ENDBRANCH   8   9
BRANCH   8  13
ATOM     13  N   UNL     1       0.933  -4.126  -2.162  1.00  0.00    -0.280 N 
ATOM     14  C   UNL     1       2.272  -4.495  -2.217  1.00  0.00     0.266 C 
ATOM     15  C   UNL     1       0.021  -5.158  -2.200  1.00  0.00     0.149 C 
ATOM     16  O   UNL     1       3.246  -3.759  -2.108  1.00  0.00    -0.268 OA
ATOM     17  C   UNL     1       2.391  -5.955  -2.411  1.00  0.00     0.081 C 
ATOM     18  S   UNL     1       0.867  -6.705  -2.200  1.00  0.00    -0.054 SA
ATOM     19  S   UNL     1      -1.645  -5.065  -2.197  1.00  0.00    -0.052 S 
ATOM     20  C   UNL     1       3.560  -6.489  -2.782  1.00  0.00     0.033 C 
BRANCH  20  21
ATOM     21  C   UNL     1       3.820  -7.901  -3.063  1.00  0.00     0.018 A 
ATOM     22  C   UNL     1       4.714  -8.530  -2.173  1.00  0.00     0.012 A 
ATOM     23  C   UNL     1       3.254  -8.650  -4.108  1.00  0.00     0.126 A 
ATOM     24  C   UNL     1       5.014  -9.886  -2.291  1.00  0.00     0.001 A 
ATOM     25  C   UNL     1       3.549 -10.018  -4.198  1.00  0.00     0.047 A 
ATOM     26  C   UNL     1       4.423 -10.634  -3.301  1.00  0.00     0.004 A 
BRANCH  23  27
ATOM     27  O   UNL     1       2.366  -8.235  -5.064  1.00  0.00    -0.496 OA
ATOM     28  C   UNL     1       2.477  -6.911  -5.570  1.00  0.00     0.278 C 
ENDBRANCH  23  27
ENDBRANCH  20  21
ENDBRANCH   8  13
ENDBRANCH   5   8
ENDBRANCH   3   4
ENDBRANCH   2   3
ENDBRANCH   1   2
BRANCH   1  29
ATOM     29  C   UNL     1      -0.575   3.053  -4.719  1.00  0.00     0.002 C 
BRANCH  29  30
ATOM     30  C   UNL     1      -1.452   3.722  -3.658  1.00  0.00     0.021 C 
BRANCH  30  31
ATOM     31  C   UNL     1      -0.740   4.730  -2.757  1.00  0.00     0.116 C 
BRANCH  31  32
ATOM     32  N   UNL     1      -0.169   5.835  -3.506  1.00  0.00    -0.352 N 
ATOM     33  C   UNL     1      -0.421   7.181  -3.418  1.00  0.00     0.251 C 
ATOM     34  H   UNL     1       0.501   5.580  -4.181  1.00  0.00     0.163 HD
ATOM     35  O   UNL     1       0.022   7.945  -4.270  1.00  0.00    -0.269 OA
BRANCH  33  36
ATOM     36  C   UNL     1      -1.240   7.717  -2.310  1.00  0.00     0.039 A 
ATOM     37  C   UNL     1      -2.209   8.681  -2.600  1.00  0.00     0.014 A 
ATOM     38  C   UNL     1      -1.035   7.306  -0.990  1.00  0.00     0.014 A 
ATOM     39  C   UNL     1      -3.006   9.194  -1.575  1.00  0.00     0.010 A 
ATOM     40  C   UNL     1      -1.877   7.766   0.021  1.00  0.00     0.010 A 
ATOM     41  C   UNL     1      -2.866   8.720  -0.260  1.00  0.00    -0.014 A 
BRANCH  41  42
ATOM     42  C   UNL     1      -3.752   9.219   0.823  1.00  0.00     0.031 A 
ATOM     43  C   UNL     1      -3.188  10.014   1.966  1.00  0.00     0.074 A 
ATOM     44  C   UNL     1      -5.064   8.914   0.796  1.00  0.00     0.049 A 
ATOM     45  N   UNL     1      -3.803  10.522   3.005  1.00  0.00    -0.248 NA
ATOM     46  C   UNL     1      -1.736  10.247   1.958  1.00  0.00     0.031 C 
ATOM     47  C   UNL     1      -5.720   8.098  -0.227  1.00  0.00     0.029 A 
ATOM     48  N   UNL     1      -6.079   9.250   1.656  1.00  0.00    -0.354 N 
ATOM     49  C   UNL     1      -2.816  11.122   3.775  1.00  0.00     0.074 A 
ATOM     50  C   UNL     1      -1.554  10.869   3.114  1.00  0.00     0.031 C 
ATOM     51  C   UNL     1      -7.031   8.019   0.049  1.00  0.00     0.029 A 
ATOM     52  C   UNL     1      -7.303   8.752   1.282  1.00  0.00     0.049 A 
ATOM     53  H   UNL     1      -5.944   9.797   2.463  1.00  0.00     0.167 HD
ATOM     54  C   UNL     1      -2.952  11.840   4.916  1.00  0.00     0.037 A 
ATOM     55  C   UNL     1      -8.510   8.873   1.867  1.00  0.00     0.037 A 
ATOM     56  C   UNL     1      -4.213  12.110   5.558  1.00  0.00     0.049 A 
ATOM     57  C   UNL     1      -8.637   9.691   3.123  1.00  0.00     0.074 A 
ATOM     58  C   UNL     1      -4.464  12.886   6.676  1.00  0.00     0.029 A 
ATOM     59  N   UNL     1      -5.436  11.607   5.138  1.00  0.00    -0.354 N 
ATOM     60  N   UNL     1      -7.708  10.325   3.796  1.00  0.00    -0.248 NA
ATOM     61  C   UNL     1      -9.985   9.821   3.692  1.00  0.00     0.031 C 
ATOM     62  C   UNL     1      -5.832  12.812   6.962  1.00  0.00     0.029 A 
ATOM     63  C   UNL     1      -6.442  12.034   5.991  1.00  0.00     0.049 A 
ATOM     64  H   UNL     1      -5.569  11.031   4.351  1.00  0.00     0.167 HD
ATOM     65  C   UNL     1      -8.359  10.946   4.853  1.00  0.00     0.074 A 
ATOM     66  C   UNL     1      -9.766  10.630   4.719  1.00  0.00     0.031 C 
ATOM     67  C   UNL     1      -7.838  11.707   5.847  1.00  0.00     0.037 A 
BRANCH  54  68
ATOM     68  C   UNL     1      -1.702  12.386   5.546  1.00  0.00     0.064 A 
ATOM     69  C   UNL     1      -0.964  13.418   4.946  1.00  0.00     0.173 A 
ATOM     70  C   UNL     1      -1.252  11.892   6.780  1.00  0.00     0.173 A 
ATOM     71  F   UNL     1      -1.344  13.919   3.761  1.00  0.00    -0.203 F 
ATOM     72  C   UNL     1       0.194  13.912   5.541  1.00  0.00     0.198 A 
ATOM     73  C   UNL     1      -0.111  12.410   7.388  1.00  0.00     0.198 A 
ATOM     74  F   UNL     1      -1.922  10.910   7.401  1.00  0.00    -0.203 F 
ATOM     75  F   UNL     1       0.911  14.861   4.923  1.00  0.00    -0.200 F 
ATOM     76  C   UNL     1       0.616  13.413   6.764  1.00  0.00     0.200 A 
ATOM     77  F   UNL     1       0.288  11.936   8.576  1.00  0.00    -0.200 F 
ATOM     78  F   UNL     1       1.728  13.893   7.338  1.00  0.00    -0.200 F 
ENDBRANCH  54  68
BRANCH  55  79
ATOM     79  C   UNL     1      -9.698   8.231   1.249  1.00  0.00     0.064 A 
ATOM     80  C   UNL     1     -10.702   9.001   0.646  1.00  0.00     0.173 A 
ATOM     81  C   UNL     1      -9.851   6.837   1.241  1.00  0.00     0.173 A 
ATOM     82  F   UNL     1     -10.610  10.339   0.646  1.00  0.00    -0.203 F 
ATOM     83  C   UNL     1     -11.824   8.403   0.076  1.00  0.00     0.198 A 
ATOM     84  C   UNL     1     -10.959   6.238   0.645  1.00  0.00     0.198 A 
ATOM     85  F   UNL     1      -8.915   6.055   1.798  1.00  0.00    -0.203 F 
ATOM     86  F   UNL     1     -12.789   9.165  -0.455  1.00  0.00    -0.200 F 
ATOM     87  C   UNL     1     -11.948   7.022   0.070  1.00  0.00     0.200 A 
ATOM     88  F   UNL     1     -11.068   4.903   0.627  1.00  0.00    -0.200 F 
ATOM     89  F   UNL     1     -13.024   6.446  -0.485  1.00  0.00    -0.200 F 
ENDBRANCH  55  79
BRANCH  67  90
ATOM     90  C   UNL     1      -8.800  12.267   6.855  1.00  0.00     0.064 A 
ATOM     91  C   UNL     1      -9.440  11.448   7.797  1.00  0.00     0.173 A 
ATOM     92  C   UNL     1      -9.073  13.643   6.889  1.00  0.00     0.173 A 
ATOM     93  F   UNL     1      -9.225  10.123   7.796  1.00  0.00    -0.203 F 
ATOM     94  C   UNL     1     -10.342  11.980   8.714  1.00  0.00     0.198 A 
ATOM     95  C   UNL     1      -9.950  14.177   7.829  1.00  0.00     0.198 A 
ATOM     96  F   UNL     1      -8.483  14.472   6.015  1.00  0.00    -0.203 F 
ATOM     97  F   UNL     1     -10.984  11.170   9.567  1.00  0.00    -0.200 F 
ATOM     98  C   UNL     1     -10.592  13.345   8.734  1.00  0.00     0.200 A 
ATOM     99  F   UNL     1     -10.181  15.497   7.855  1.00  0.00    -0.200 F 
ATOM    100  F   UNL     1     -11.459  13.855   9.618  1.00  0.00    -0.200 F 
ENDBRANCH  67  90
ENDBRANCH  41  42
ENDBRANCH  33  36
ENDBRANCH  31  32
ENDBRANCH  30  31
ENDBRANCH  29  30
ENDBRANCH   1  29
TORSDOF 18
