REMARK SMILES Cc1ccc(O[C@H](C)C(=O)NNC(=O)[C@@H]2[C@@H](C(=O)NCCCCCCNC(=O)c3ccc(-c4c5nc(c(-c6c(F)c(F)c(F)c(F)c6F)c6ccc([nH]6)c(-c6c(F)c(F)c(F)c(F)c6F)c6nc(c(-c7c(F)c(F)c(F)c(F)c7F)c7ccc4[nH]7)C=C6)C=C5)cc3)[C@@H]3C=C[C@H]2C3)cc1C
REMARK SMILES IDX 21 1 20 2 19 3 17 4 18 5 16 7 15 8 95 9 92 10 94 11 96 12
REMARK SMILES IDX 93 13 13 14 12 15 14 17 11 18 9 19 10 20 7 22 8 23 6 24 5 25
REMARK SMILES IDX 1 26 2 27 3 28 98 29 4 30 97 31 99 32 22 33 23 34 24 35
REMARK SMILES IDX 25 36 26 37 27 38 28 40 29 41 30 42 91 43 31 44 90 45 32 46
REMARK SMILES IDX 33 47 34 48 84 49 35 50 89 51 83 52 85 53 36 54 88 55 82 56
REMARK SMILES IDX 81 57 37 59 69 60 49 61 68 62 50 63 53 64 67 65 86 66 51 67
REMARK SMILES IDX 52 68 66 70 87 71 54 72 38 73 39 74 47 75 40 76 41 77 45 78
REMARK SMILES IDX 48 79 42 80 43 81 46 82 44 83 70 84 71 85 79 86 72 87 73 88
REMARK SMILES IDX 77 89 80 90 74 91 75 92 78 93 76 94 55 95 56 96 64 97 57 98
REMARK SMILES IDX 58 99 62 100 65 101 59 102 60 103 63 104 61 105
REMARK H PARENT 19 6 12 16 11 21 26 39 85 58 53 69
REMARK Flexibility Score: inf
ROOT
ATOM      1  C   UNL     1       1.550   3.613  -0.342  1.00  0.00     0.021 C 
ENDROOT
BRANCH   1   2
ATOM      2  C   UNL     1       0.729   4.849   0.017  1.00  0.00     0.116 C 
BRANCH   2   3
ATOM      3  N   UNL     1       0.450   5.623  -1.169  1.00  0.00    -0.356 N 
ATOM      4  C   UNL     1      -0.682   5.678  -1.915  1.00  0.00     0.224 C 
ATOM      5  O   UNL     1      -0.647   6.388  -2.921  1.00  0.00    -0.275 OA
ATOM      6  H   UNL     1       1.189   6.194  -1.481  1.00  0.00     0.163 HD
BRANCH   4   7
ATOM      7  C   UNL     1      -1.937   4.910  -1.491  1.00  0.00     0.098 C 
ATOM      8  C   UNL     1      -1.955   3.382  -1.923  1.00  0.00     0.100 C 
ATOM      9  C   UNL     1      -3.168   3.345  -2.893  1.00  0.00     0.025 C 
ATOM     10  C   UNL     1      -3.157   5.484  -2.265  1.00  0.00     0.025 C 
ATOM     11  C   UNL     1      -4.435   3.578  -2.107  1.00  0.00    -0.027 C 
ATOM     12  C   UNL     1      -3.078   4.707  -3.580  1.00  0.00     0.017 C 
ATOM     13  C   UNL     1      -4.416   4.857  -1.707  1.00  0.00    -0.027 C 
BRANCH   8  14
ATOM     14  C   UNL     1      -2.002   2.454  -0.693  1.00  0.00     0.242 C 
ATOM     15  N   UNL     1      -2.457   1.166  -0.721  1.00  0.00    -0.267 N 
ATOM     16  H   UNL     1      -2.179   0.587   0.025  1.00  0.00     0.191 HD
ATOM     17  O   UNL     1      -1.503   2.799   0.384  1.00  0.00    -0.273 OA
BRANCH  15  18
ATOM     18  N   UNL     1      -3.262   0.587  -1.680  1.00  0.00    -0.264 N 
ATOM     19  C   UNL     1      -4.222  -0.357  -1.399  1.00  0.00     0.279 C 
ATOM     20  O   UNL     1      -5.051  -0.630  -2.272  1.00  0.00    -0.269 OA
ATOM     21  H   UNL     1      -3.143   0.865  -2.617  1.00  0.00     0.191 HD
BRANCH  19  22
ATOM     22  C   UNL     1      -4.166  -1.141  -0.073  1.00  0.00     0.260 C 
ATOM     23  C   UNL     1      -2.877  -1.975  -0.065  1.00  0.00     0.064 C 
BRANCH  22  24
ATOM     24  O   UNL     1      -4.240  -0.288   1.072  1.00  0.00    -0.481 OA
BRANCH  24  25
ATOM     25  C   UNL     1      -4.512  -0.870   2.288  1.00  0.00     0.120 A 
ATOM     26  C   UNL     1      -5.114  -2.445   6.283  1.00  0.00     0.044 C 
ATOM     27  C   UNL     1      -4.925  -1.855   4.913  1.00  0.00    -0.048 A 
ATOM     28  C   UNL     1      -4.968  -2.707   3.802  1.00  0.00     0.007 A 
ATOM     29  C   UNL     1      -4.706  -0.480   4.704  1.00  0.00    -0.045 A 
ATOM     30  C   UNL     1      -4.774  -2.220   2.506  1.00  0.00     0.047 A 
ATOM     31  C   UNL     1      -4.498  -0.007   3.389  1.00  0.00     0.050 A 
ATOM     32  C   UNL     1      -4.686   0.520   5.829  1.00  0.00     0.045 C 
ENDBRANCH  24  25
ENDBRANCH  22  24
ENDBRANCH  19  22
ENDBRANCH  15  18
ENDBRANCH   8  14
ENDBRANCH   4   7
ENDBRANCH   2   3
ENDBRANCH   1   2
BRANCH   1  33
ATOM     33  C   UNL     1       3.040   3.924  -0.534  1.00  0.00     0.002 C 
BRANCH  33  34
ATOM     34  C   UNL     1       3.736   4.500   0.706  1.00  0.00     0.002 C 
BRANCH  34  35
ATOM     35  C   UNL     1       3.549   3.678   1.982  1.00  0.00     0.021 C 
BRANCH  35  36
ATOM     36  C   UNL     1       4.085   2.256   1.879  1.00  0.00     0.116 C 
BRANCH  36  37
ATOM     37  N   UNL     1       5.533   2.243   1.723  1.00  0.00    -0.352 N 
ATOM     38  C   UNL     1       6.471   1.633   2.515  1.00  0.00     0.251 C 
ATOM     39  H   UNL     1       5.884   2.738   0.948  1.00  0.00     0.163 HD
ATOM     40  O   UNL     1       7.663   1.903   2.404  1.00  0.00    -0.269 OA
BRANCH  38  41
ATOM     41  C   UNL     1       6.025   0.644   3.513  1.00  0.00     0.039 A 
ATOM     42  C   UNL     1       6.493   0.731   4.826  1.00  0.00     0.014 A 
ATOM     43  C   UNL     1       5.124  -0.358   3.141  1.00  0.00     0.014 A 
ATOM     44  C   UNL     1       6.013  -0.162   5.785  1.00  0.00     0.010 A 
ATOM     45  C   UNL     1       4.594  -1.197   4.111  1.00  0.00     0.010 A 
ATOM     46  C   UNL     1       5.041  -1.114   5.439  1.00  0.00    -0.014 A 
BRANCH  46  47
ATOM     47  C   UNL     1       4.491  -2.071   6.428  1.00  0.00     0.031 A 
ATOM     48  C   UNL     1       4.734  -3.542   6.239  1.00  0.00     0.074 A 
ATOM     49  C   UNL     1       3.702  -1.633   7.426  1.00  0.00     0.049 A 
ATOM     50  N   UNL     1       4.215  -4.559   6.876  1.00  0.00    -0.248 NA
ATOM     51  C   UNL     1       5.664  -3.917   5.161  1.00  0.00     0.031 C 
ATOM     52  C   UNL     1       3.380  -0.233   7.699  1.00  0.00     0.029 A 
ATOM     53  N   UNL     1       3.010  -2.328   8.386  1.00  0.00    -0.354 N 
ATOM     54  C   UNL     1       4.735  -5.690   6.262  1.00  0.00     0.074 A 
ATOM     55  C   UNL     1       5.566  -5.237   5.168  1.00  0.00     0.031 C 
ATOM     56  C   UNL     1       2.565  -0.170   8.765  1.00  0.00     0.029 A 
ATOM     57  C   UNL     1       2.268  -1.526   9.218  1.00  0.00     0.049 A 
ATOM     58  H   UNL     1       3.041  -3.308   8.470  1.00  0.00     0.167 HD
ATOM     59  C   UNL     1       4.553  -6.990   6.595  1.00  0.00     0.037 A 
ATOM     60  C   UNL     1       1.429  -1.853  10.220  1.00  0.00     0.037 A 
ATOM     61  C   UNL     1       3.742  -7.429   7.699  1.00  0.00     0.049 A 
ATOM     62  C   UNL     1       1.211  -3.307  10.547  1.00  0.00     0.074 A 
ATOM     63  C   UNL     1       3.520  -8.718   8.148  1.00  0.00     0.029 A 
ATOM     64  N   UNL     1       3.019  -6.584   8.529  1.00  0.00    -0.354 N 
ATOM     65  N   UNL     1       1.738  -4.369   9.988  1.00  0.00    -0.248 NA
ATOM     66  C   UNL     1       0.279  -3.607  11.643  1.00  0.00     0.031 C 
ATOM     67  C   UNL     1       2.625  -8.657   9.221  1.00  0.00     0.029 A 
ATOM     68  C   UNL     1       2.334  -7.326   9.476  1.00  0.00     0.049 A 
ATOM     69  H   UNL     1       2.995  -5.603   8.454  1.00  0.00     0.167 HD
ATOM     70  C   UNL     1       1.240  -5.458  10.691  1.00  0.00     0.074 A 
ATOM     71  C   UNL     1       0.364  -4.928  11.715  1.00  0.00     0.031 C 
ATOM     72  C   UNL     1       1.492  -6.777  10.508  1.00  0.00     0.037 A 
BRANCH  59  73
ATOM     73  C   UNL     1       5.242  -8.023   5.751  1.00  0.00     0.064 A 
ATOM     74  C   UNL     1       6.639  -8.161   5.749  1.00  0.00     0.173 A 
ATOM     75  C   UNL     1       4.498  -8.894   4.941  1.00  0.00     0.173 A 
ATOM     76  F   UNL     1       7.399  -7.346   6.496  1.00  0.00    -0.203 F 
ATOM     77  C   UNL     1       7.266  -9.104   4.938  1.00  0.00     0.198 A 
ATOM     78  C   UNL     1       5.126  -9.859   4.159  1.00  0.00     0.198 A 
ATOM     79  F   UNL     1       3.159  -8.811   4.909  1.00  0.00    -0.203 F 
ATOM     80  F   UNL     1       8.604  -9.172   4.906  1.00  0.00    -0.200 F 
ATOM     81  C   UNL     1       6.509  -9.956   4.149  1.00  0.00     0.200 A 
ATOM     82  F   UNL     1       4.392 -10.691   3.407  1.00  0.00    -0.200 F 
ATOM     83  F   UNL     1       7.114 -10.863   3.370  1.00  0.00    -0.200 F 
ENDBRANCH  59  73
BRANCH  60  84
ATOM     84  C   UNL     1       0.756  -0.785  11.004  1.00  0.00     0.064 A 
ATOM     85  C   UNL     1       1.107  -0.553  12.341  1.00  0.00     0.173 A 
ATOM     86  C   UNL     1      -0.245   0.021  10.443  1.00  0.00     0.173 A 
ATOM     87  F   UNL     1       2.045  -1.313  12.928  1.00  0.00    -0.203 F 
ATOM     88  C   UNL     1       0.471   0.432  13.093  1.00  0.00     0.198 A 
ATOM     89  C   UNL     1      -0.861   1.025  11.188  1.00  0.00     0.198 A 
ATOM     90  F   UNL     1      -0.617  -0.158   9.167  1.00  0.00    -0.203 F 
ATOM     91  F   UNL     1       0.796   0.602  14.382  1.00  0.00    -0.200 F 
ATOM     92  C   UNL     1      -0.509   1.224  12.515  1.00  0.00     0.200 A 
ATOM     93  F   UNL     1      -1.799   1.797  10.622  1.00  0.00    -0.200 F 
ATOM     94  F   UNL     1      -1.118   2.173  13.237  1.00  0.00    -0.200 F 
ENDBRANCH  60  84
BRANCH  72  95
ATOM     95  C   UNL     1       0.871  -7.745  11.472  1.00  0.00     0.064 A 
ATOM     96  C   UNL     1      -0.493  -8.062  11.427  1.00  0.00     0.173 A 
ATOM     97  C   UNL     1       1.677  -8.427  12.397  1.00  0.00     0.173 A 
ATOM     98  F   UNL     1      -1.307  -7.426  10.571  1.00  0.00    -0.203 F 
ATOM     99  C   UNL     1      -1.030  -9.022  12.281  1.00  0.00     0.198 A 
ATOM    100  C   UNL     1       1.142  -9.406  13.229  1.00  0.00     0.198 A 
ATOM    101  F   UNL     1       2.990  -8.163  12.474  1.00  0.00    -0.203 F 
ATOM    102  F   UNL     1      -2.343  -9.290  12.243  1.00  0.00    -0.200 F 
ATOM    103  C   UNL     1      -0.211  -9.701  13.172  1.00  0.00     0.200 A 
ATOM    104  F   UNL     1       1.939 -10.071  14.076  1.00  0.00    -0.200 F 
ATOM    105  F   UNL     1      -0.727 -10.640  13.977  1.00  0.00    -0.200 F 
ENDBRANCH  72  95
ENDBRANCH  46  47
ENDBRANCH  38  41
ENDBRANCH  36  37
ENDBRANCH  35  36
ENDBRANCH  34  35
ENDBRANCH  33  34
ENDBRANCH   1  33
TORSDOF 18
