REMARK SMILES CCCCNC(=O)c1ncccc1C(=O)NCCCCCCNC(=O)c1ccc(-c2c3nc(c(-c4c(F)c(F)c(F)c(F)c4F)c4ccc([nH]4)c(-c4c(F)c(F)c(F)c(F)c4F)c4nc(c(-c5c(F)c(F)c(F)c(F)c5F)c5ccc2[nH]5)C=C4)C=C3)cc1
REMARK SMILES IDX 18 1 17 2 16 3 14 4 15 5 13 7 8 8 9 9 10 10 12 11 11 12 6 13
REMARK SMILES IDX 5 14 7 16 4 17 3 18 2 19 1 20 19 21 20 22 21 23 22 24 23 25
REMARK SMILES IDX 24 26 25 28 26 29 27 30 88 31 28 32 87 33 29 34 30 35 31 36
REMARK SMILES IDX 81 37 32 38 86 39 80 40 82 41 33 42 85 43 79 44 78 45 34 47
REMARK SMILES IDX 66 48 46 49 65 50 47 51 50 52 64 53 83 54 48 55 49 56 63 58
REMARK SMILES IDX 84 59 51 60 35 61 36 62 44 63 37 64 38 65 42 66 45 67 39 68
REMARK SMILES IDX 40 69 43 70 41 71 67 72 68 73 76 74 69 75 70 76 74 77 77 78
REMARK SMILES IDX 71 79 72 80 75 81 73 82 52 83 53 84 61 85 54 86 55 87 59 88
REMARK SMILES IDX 62 89 56 90 57 91 60 92 58 93
REMARK H PARENT 16 6 5 15 23 27 82 46 50 57
REMARK Flexibility Score: inf
ROOT
ATOM      1  C   UNL     1       3.766   5.790   1.001  1.00  0.00     0.021 C 
ENDROOT
BRANCH   1   2
ATOM      2  C   UNL     1       2.457   6.502   1.341  1.00  0.00     0.116 C 
BRANCH   2   3
ATOM      3  N   UNL     1       1.288   5.933   0.696  1.00  0.00    -0.352 N 
ATOM      4  C   UNL     1       0.072   5.494   1.168  1.00  0.00     0.253 C 
ATOM      5  O   UNL     1      -0.753   5.136   0.333  1.00  0.00    -0.269 OA
ATOM      6  H   UNL     1       1.385   5.841  -0.279  1.00  0.00     0.163 HD
BRANCH   4   7
ATOM      7  C   UNL     1      -0.258   5.417   2.611  1.00  0.00     0.071 A 
ATOM      8  C   UNL     1      -1.025   4.367   3.120  1.00  0.00     0.140 A 
ATOM      9  N   UNL     1      -1.334   4.221   4.447  1.00  0.00    -0.250 NA
ATOM     10  C   UNL     1      -0.909   5.179   5.289  1.00  0.00     0.112 A 
ATOM     11  C   UNL     1       0.113   6.416   3.519  1.00  0.00     0.018 A 
ATOM     12  C   UNL     1      -0.196   6.288   4.876  1.00  0.00     0.021 A 
BRANCH   8  13
ATOM     13  C   UNL     1      -1.645   3.323   2.259  1.00  0.00     0.270 C 
ATOM     14  N   UNL     1      -0.869   2.333   1.705  1.00  0.00    -0.351 N 
ATOM     15  H   UNL     1      -1.354   1.664   1.170  1.00  0.00     0.163 HD
ATOM     16  O   UNL     1      -2.862   3.316   2.086  1.00  0.00    -0.267 OA
BRANCH  14  17
ATOM     17  C   UNL     1       0.561   2.138   1.798  1.00  0.00     0.116 C 
BRANCH  17  18
ATOM     18  C   UNL     1       0.924   0.719   2.233  1.00  0.00     0.021 C 
BRANCH  18  19
ATOM     19  C   UNL     1       0.436  -0.398   1.305  1.00  0.00    -0.002 C 
ATOM     20  C   UNL     1       0.944  -0.273  -0.123  1.00  0.00     0.004 C 
ENDBRANCH  18  19
ENDBRANCH  17  18
ENDBRANCH  14  17
ENDBRANCH   8  13
ENDBRANCH   4   7
ENDBRANCH   2   3
ENDBRANCH   1   2
BRANCH   1  21
ATOM     21  C   UNL     1       4.209   5.802  -0.464  1.00  0.00     0.002 C 
BRANCH  21  22
ATOM     22  C   UNL     1       4.268   7.162  -1.165  1.00  0.00     0.002 C 
BRANCH  22  23
ATOM     23  C   UNL     1       5.019   8.281  -0.441  1.00  0.00     0.021 C 
BRANCH  23  24
ATOM     24  C   UNL     1       6.472   7.990  -0.079  1.00  0.00     0.116 C 
BRANCH  24  25
ATOM     25  N   UNL     1       7.321   7.829  -1.244  1.00  0.00    -0.352 N 
ATOM     26  C   UNL     1       8.533   8.405  -1.537  1.00  0.00     0.251 C 
ATOM     27  H   UNL     1       6.976   7.211  -1.929  1.00  0.00     0.163 HD
ATOM     28  O   UNL     1       9.024   8.250  -2.651  1.00  0.00    -0.269 OA
BRANCH  26  29
ATOM     29  C   UNL     1       9.255   9.224  -0.533  1.00  0.00     0.039 A 
ATOM     30  C   UNL     1       9.926  10.372  -0.968  1.00  0.00     0.014 A 
ATOM     31  C   UNL     1       9.339   8.841   0.809  1.00  0.00     0.014 A 
ATOM     32  C   UNL     1      10.657  11.144  -0.060  1.00  0.00     0.010 A 
ATOM     33  C   UNL     1      10.012   9.648   1.728  1.00  0.00     0.010 A 
ATOM     34  C   UNL     1      10.698  10.794   1.298  1.00  0.00    -0.014 A 
BRANCH  34  35
ATOM     35  C   UNL     1      11.505  11.583   2.265  1.00  0.00     0.031 A 
ATOM     36  C   UNL     1      12.717  10.966   2.912  1.00  0.00     0.074 A 
ATOM     37  C   UNL     1      11.136  12.837   2.587  1.00  0.00     0.049 A 
ATOM     38  N   UNL     1      13.532  11.473   3.803  1.00  0.00    -0.248 NA
ATOM     39  C   UNL     1      13.040   9.584   2.525  1.00  0.00     0.031 C 
ATOM     40  C   UNL     1       9.960  13.532   2.063  1.00  0.00     0.029 A 
ATOM     41  N   UNL     1      11.711  13.748   3.437  1.00  0.00    -0.354 N 
ATOM     42  C   UNL     1      14.448  10.470   4.093  1.00  0.00     0.074 A 
ATOM     43  C   UNL     1      14.059   9.308   3.324  1.00  0.00     0.031 C 
ATOM     44  C   UNL     1       9.913  14.769   2.586  1.00  0.00     0.029 A 
ATOM     45  C   UNL     1      11.040  14.945   3.498  1.00  0.00     0.049 A 
ATOM     46  H   UNL     1      12.528  13.562   3.954  1.00  0.00     0.167 HD
ATOM     47  C   UNL     1      15.530  10.520   4.907  1.00  0.00     0.037 A 
ATOM     48  C   UNL     1      11.307  16.058   4.207  1.00  0.00     0.037 A 
ATOM     49  C   UNL     1      15.937  11.687   5.643  1.00  0.00     0.049 A 
ATOM     50  C   UNL     1      12.533  16.099   5.080  1.00  0.00     0.074 A 
ATOM     51  C   UNL     1      17.044  11.855   6.457  1.00  0.00     0.029 A 
ATOM     52  N   UNL     1      15.252  12.894   5.646  1.00  0.00    -0.354 N 
ATOM     53  N   UNL     1      13.423  15.163   5.301  1.00  0.00    -0.248 NA
ATOM     54  C   UNL     1      12.798  17.358   5.790  1.00  0.00     0.031 C 
ATOM     55  C   UNL     1      17.012  13.153   6.978  1.00  0.00     0.029 A 
ATOM     56  C   UNL     1      15.909  13.808   6.454  1.00  0.00     0.049 A 
ATOM     57  H   UNL     1      14.422  13.074   5.148  1.00  0.00     0.167 HD
ATOM     58  C   UNL     1      14.370  15.728   6.145  1.00  0.00     0.074 A 
ATOM     59  C   UNL     1      13.951  17.093   6.388  1.00  0.00     0.031 C 
ATOM     60  C   UNL     1      15.487  15.168   6.669  1.00  0.00     0.037 A 
BRANCH  47  61
ATOM     61  C   UNL     1      16.355   9.272   5.038  1.00  0.00     0.064 A 
ATOM     62  C   UNL     1      17.149   8.801   3.981  1.00  0.00     0.173 A 
ATOM     63  C   UNL     1      16.373   8.553   6.243  1.00  0.00     0.173 A 
ATOM     64  F   UNL     1      17.157   9.445   2.804  1.00  0.00    -0.203 F 
ATOM     65  C   UNL     1      17.905   7.639   4.115  1.00  0.00     0.198 A 
ATOM     66  C   UNL     1      17.154   7.408   6.382  1.00  0.00     0.198 A 
ATOM     67  F   UNL     1      15.637   8.961   7.287  1.00  0.00    -0.203 F 
ATOM     68  F   UNL     1      18.614   7.180   3.074  1.00  0.00    -0.200 F 
ATOM     69  C   UNL     1      17.912   6.947   5.316  1.00  0.00     0.200 A 
ATOM     70  F   UNL     1      17.169   6.747   7.548  1.00  0.00    -0.200 F 
ATOM     71  F   UNL     1      18.643   5.832   5.445  1.00  0.00    -0.200 F 
ENDBRANCH  47  61
BRANCH  48  72
ATOM     72  C   UNL     1      10.423  17.245   4.083  1.00  0.00     0.064 A 
ATOM     73  C   UNL     1      10.860  18.402   3.422  1.00  0.00     0.173 A 
ATOM     74  C   UNL     1       9.129  17.252   4.624  1.00  0.00     0.173 A 
ATOM     75  F   UNL     1      12.097  18.450   2.906  1.00  0.00    -0.203 F 
ATOM     76  C   UNL     1      10.045  19.527   3.325  1.00  0.00     0.198 A 
ATOM     77  C   UNL     1       8.305  18.369   4.503  1.00  0.00     0.198 A 
ATOM     78  F   UNL     1       8.662  16.168   5.261  1.00  0.00    -0.203 F 
ATOM     79  F   UNL     1      10.505  20.635   2.726  1.00  0.00    -0.200 F 
ATOM     80  C   UNL     1       8.766  19.509   3.861  1.00  0.00     0.200 A 
ATOM     81  F   UNL     1       7.066  18.343   5.011  1.00  0.00    -0.200 F 
ATOM     82  F   UNL     1       7.981  20.590   3.764  1.00  0.00    -0.200 F 
ENDBRANCH  48  72
BRANCH  60  83
ATOM     83  C   UNL     1      16.362  16.044   7.518  1.00  0.00     0.064 A 
ATOM     84  C   UNL     1      15.981  16.437   8.809  1.00  0.00     0.173 A 
ATOM     85  C   UNL     1      17.612  16.467   7.042  1.00  0.00     0.173 A 
ATOM     86  F   UNL     1      14.789  16.070   9.303  1.00  0.00    -0.203 F 
ATOM     87  C   UNL     1      16.809  17.247   9.582  1.00  0.00     0.198 A 
ATOM     88  C   UNL     1      18.449  17.252   7.828  1.00  0.00     0.198 A 
ATOM     89  F   UNL     1      18.025  16.111   5.816  1.00  0.00    -0.203 F 
ATOM     90  F   UNL     1      16.405  17.651  10.794  1.00  0.00    -0.200 F 
ATOM     91  C   UNL     1      18.044  17.648   9.094  1.00  0.00     0.200 A 
ATOM     92  F   UNL     1      19.647  17.629   7.360  1.00  0.00    -0.200 F 
ATOM     93  F   UNL     1      18.841  18.424   9.841  1.00  0.00    -0.200 F 
ENDBRANCH  60  83
ENDBRANCH  34  35
ENDBRANCH  26  29
ENDBRANCH  24  25
ENDBRANCH  23  24
ENDBRANCH  22  23
ENDBRANCH  21  22
ENDBRANCH   1  21
TORSDOF 17
