REMARK SMILES NC(=O)c1c(-c2ccc(Cl)cc2)csc1NC(=O)[C@H]1[C@@H](C(=O)NCCCCCCNC(=O)c2ccc(-c3c4nc(c(-c5c(F)c(F)c(F)c(F)c5F)c5ccc([nH]5)c(-c5c(F)c(F)c(F)c(F)c5F)c5nc(c(-c6c(F)c(F)c(F)c(F)c6F)c6ccc3[nH]6)C=C5)C=C4)cc2)[C@@H]2CC[C@H]1O2
REMARK SMILES IDX 26 1 25 2 24 3 23 4 21 5 22 6 20 8 19 9 99 10 96 11 98 12
REMARK SMILES IDX 100 13 97 14 17 15 16 16 18 18 15 19 4 20 5 21 13 22 14 23
REMARK SMILES IDX 2 24 1 25 3 28 6 29 7 30 12 31 8 32 11 33 9 34 10 35 27 36
REMARK SMILES IDX 28 37 29 38 30 39 31 40 32 42 33 43 34 44 95 45 35 46 94 47
REMARK SMILES IDX 36 48 37 49 38 50 88 51 39 52 93 53 87 54 89 55 40 56 92 57
REMARK SMILES IDX 86 58 85 59 41 61 73 62 53 63 72 64 54 65 57 66 71 67 90 68
REMARK SMILES IDX 55 69 56 70 70 72 91 73 58 74 42 75 43 76 51 77 44 78 45 79
REMARK SMILES IDX 49 80 52 81 46 82 47 83 50 84 48 85 74 86 75 87 83 88 76 89
REMARK SMILES IDX 77 90 81 91 84 92 78 93 79 94 82 95 80 96 59 97 60 98 68 99
REMARK SMILES IDX 61 100 62 101 66 102 69 103 63 104 64 105 67 106 65 107
REMARK H PARENT 23 7 16 17 1 26 1 27 30 41 89 60 57 71
REMARK Flexibility Score: inf
ROOT
ATOM      1  C   UNL     1      -1.023 -11.169   1.906  1.00  0.00     0.002 C 
ENDROOT
BRANCH   1   2
ATOM      2  C   UNL     1      -1.254  -9.200   1.504  1.00  0.00     0.021 C 
BRANCH   2   3
ATOM      3  C   UNL     1      -1.437  -8.088   3.445  1.00  0.00     0.116 C 
BRANCH   3   4
ATOM      4  N   UNL     1      -0.398  -8.221   4.740  1.00  0.00    -0.356 N 
ATOM      5  C   UNL     1       0.517  -7.336   5.238  1.00  0.00     0.226 C 
ATOM      6  O   UNL     1       1.414  -7.738   5.971  1.00  0.00    -0.275 OA
ATOM      7  H   UNL     1      -0.452  -9.076   5.226  1.00  0.00     0.163 HD
BRANCH   5   8
ATOM      8  C   UNL     1       0.261  -5.894   4.919  1.00  0.00     0.122 C 
ATOM      9  C   UNL     1       0.825  -5.281   3.626  1.00  0.00     0.123 C 
ATOM     10  C   UNL     1       1.553  -4.047   4.209  1.00  0.00     0.132 C 
ATOM     11  C   UNL     1       0.843  -4.998   6.021  1.00  0.00     0.132 C 
ATOM     12  C   UNL     1       0.544  -3.023   4.752  1.00  0.00     0.035 C 
ATOM     13  O   UNL     1       2.087  -4.558   5.449  1.00  0.00    -0.373 OA
ATOM     14  C   UNL     1       0.050  -3.692   6.037  1.00  0.00     0.035 C 
BRANCH   9  15
ATOM     15  C   UNL     1       1.768  -6.094   2.727  1.00  0.00     0.231 C 
ATOM     16  N   UNL     1       1.356  -7.215   2.048  1.00  0.00    -0.317 N 
ATOM     17  H   UNL     1       1.943  -7.566   1.340  1.00  0.00     0.170 HD
ATOM     18  O   UNL     1       2.925  -5.724   2.504  1.00  0.00    -0.274 OA
BRANCH  16  19
ATOM     19  C   UNL     1       0.180  -7.875   2.295  1.00  0.00     0.108 A 
ATOM     20  C   UNL     1      -0.182  -9.480   2.944  1.00  0.00     0.082 A 
ATOM     21  C   UNL     1      -2.246  -9.767   2.909  1.00  0.00     0.007 A 
ATOM     22  C   UNL     1      -3.029  -8.341   2.228  1.00  0.00     0.076 A 
ATOM     23  S   UNL     1      -1.575  -6.874   1.387  1.00  0.00    -0.125 S 
BRANCH  20  24
ATOM     24  C   UNL     1       1.187 -10.173   2.485  1.00  0.00     0.252 C 
ATOM     25  N   UNL     1       1.375 -10.392   1.099  1.00  0.00    -0.365 N 
ATOM     26  H   UNL     1       2.203 -10.815   0.775  1.00  0.00     0.159 HD
ATOM     27  H   UNL     1       0.678 -10.121   0.458  1.00  0.00     0.159 HD
ATOM     28  O   UNL     1       2.142 -10.328   3.233  1.00  0.00    -0.269 OA
ENDBRANCH  20  24
BRANCH  21  29
ATOM     29  C   UNL     1      -3.240 -11.020   2.068  1.00  0.00    -0.017 A 
ATOM     30  C   UNL     1      -4.915 -10.702   2.600  1.00  0.00     0.010 A 
ATOM     31  C   UNL     1      -2.700 -12.845   1.924  1.00  0.00     0.010 A 
ATOM     32  C   UNL     1      -5.923 -12.012   3.153  1.00  0.00     0.021 A 
ATOM     33  C   UNL     1      -3.805 -14.152   2.552  1.00  0.00     0.021 A 
ATOM     34  C   UNL     1      -5.396 -13.683   3.130  1.00  0.00     0.041 A 
ATOM     35  Cl  UNL     1      -6.569 -14.894   3.470  1.00  0.00    -0.084 Cl
ENDBRANCH  21  29
ENDBRANCH  16  19
ENDBRANCH   9  15
ENDBRANCH   5   8
ENDBRANCH   3   4
ENDBRANCH   2   3
ENDBRANCH   1   2
BRANCH   1  36
ATOM     36  C   UNL     1      -1.788 -11.893   3.564  1.00  0.00     0.002 C 
BRANCH  36  37
ATOM     37  C   UNL     1      -3.703 -12.290   3.477  1.00  0.00     0.021 C 
BRANCH  37  38
ATOM     38  C   UNL     1      -4.577 -12.523   1.472  1.00  0.00     0.116 C 
BRANCH  38  39
ATOM     39  N   UNL     1      -4.003 -13.647   0.280  1.00  0.00    -0.352 N 
ATOM     40  C   UNL     1      -4.634 -14.444  -0.606  1.00  0.00     0.251 C 
ATOM     41  H   UNL     1      -3.021 -13.717   0.244  1.00  0.00     0.163 HD
ATOM     42  O   UNL     1      -4.137 -15.453  -1.079  1.00  0.00    -0.269 OA
BRANCH  40  43
ATOM     43  C   UNL     1      -5.885 -13.910  -1.054  1.00  0.00     0.039 A 
ATOM     44  C   UNL     1      -7.058 -14.598  -0.795  1.00  0.00     0.014 A 
ATOM     45  C   UNL     1      -5.816 -12.634  -1.622  1.00  0.00     0.014 A 
ATOM     46  C   UNL     1      -8.231 -13.974  -1.151  1.00  0.00     0.010 A 
ATOM     47  C   UNL     1      -6.987 -11.984  -1.894  1.00  0.00     0.010 A 
ATOM     48  C   UNL     1      -8.187 -12.680  -1.704  1.00  0.00    -0.014 A 
BRANCH  48  49
ATOM     49  C   UNL     1      -9.411 -12.075  -2.217  1.00  0.00     0.031 A 
ATOM     50  C   UNL     1      -9.559 -11.932  -3.697  1.00  0.00     0.074 A 
ATOM     51  C   UNL     1     -10.344 -11.676  -1.343  1.00  0.00     0.049 A 
ATOM     52  N   UNL     1     -10.556 -11.436  -4.375  1.00  0.00    -0.248 NA
ATOM     53  C   UNL     1      -8.428 -12.385  -4.530  1.00  0.00     0.031 C 
ATOM     54  C   UNL     1     -10.237 -11.770   0.115  1.00  0.00     0.029 A 
ATOM     55  N   UNL     1     -11.571 -11.124  -1.561  1.00  0.00    -0.354 N 
ATOM     56  C   UNL     1     -10.174 -11.520  -5.704  1.00  0.00     0.074 A 
ATOM     57  C   UNL     1      -8.827 -12.037  -5.741  1.00  0.00     0.031 C 
ATOM     58  C   UNL     1     -11.378 -11.322   0.661  1.00  0.00     0.029 A 
ATOM     59  C   UNL     1     -12.266 -10.876  -0.408  1.00  0.00     0.049 A 
ATOM     60  H   UNL     1     -11.922 -10.924  -2.459  1.00  0.00     0.167 HD
ATOM     61  C   UNL     1     -10.909 -11.223  -6.796  1.00  0.00     0.037 A 
ATOM     62  C   UNL     1     -13.488 -10.340  -0.254  1.00  0.00     0.037 A 
ATOM     63  C   UNL     1     -12.254 -10.725  -6.723  1.00  0.00     0.049 A 
ATOM     64  C   UNL     1     -14.264  -9.976  -1.491  1.00  0.00     0.074 A 
ATOM     65  C   UNL     1     -13.114 -10.415  -7.758  1.00  0.00     0.029 A 
ATOM     66  N   UNL     1     -12.929 -10.458  -5.539  1.00  0.00    -0.354 N 
ATOM     67  N   UNL     1     -13.928 -10.113  -2.753  1.00  0.00    -0.248 NA
ATOM     68  C   UNL     1     -15.593  -9.393  -1.282  1.00  0.00     0.031 C 
ATOM     69  C   UNL     1     -14.285  -9.895  -7.201  1.00  0.00     0.029 A 
ATOM     70  C   UNL     1     -14.186  -9.953  -5.819  1.00  0.00     0.049 A 
ATOM     71  H   UNL     1     -12.567 -10.607  -4.636  1.00  0.00     0.167 HD
ATOM     72  C   UNL     1     -15.016  -9.663  -3.489  1.00  0.00     0.074 A 
ATOM     73  C   UNL     1     -16.027  -9.270  -2.528  1.00  0.00     0.031 C 
ATOM     74  C   UNL     1     -15.170  -9.578  -4.834  1.00  0.00     0.037 A 
BRANCH  61  75
ATOM     75  C   UNL     1     -10.270 -11.418  -8.137  1.00  0.00     0.064 A 
ATOM     76  C   UNL     1      -9.950 -12.694  -8.628  1.00  0.00     0.173 A 
ATOM     77  C   UNL     1      -9.989 -10.312  -8.951  1.00  0.00     0.173 A 
ATOM     78  F   UNL     1     -10.175 -13.784  -7.878  1.00  0.00    -0.203 F 
ATOM     79  C   UNL     1      -9.350 -12.852  -9.874  1.00  0.00     0.198 A 
ATOM     80  C   UNL     1      -9.423 -10.477 -10.212  1.00  0.00     0.198 A 
ATOM     81  F   UNL     1     -10.266  -9.071  -8.526  1.00  0.00    -0.203 F 
ATOM     82  F   UNL     1      -9.001 -14.074 -10.298  1.00  0.00    -0.200 F 
ATOM     83  C   UNL     1      -9.097 -11.744 -10.669  1.00  0.00     0.200 A 
ATOM     84  F   UNL     1      -9.190  -9.406 -10.983  1.00  0.00    -0.200 F 
ATOM     85  F   UNL     1      -8.530 -11.898 -11.874  1.00  0.00    -0.200 F 
ENDBRANCH  61  75
BRANCH  62  86
ATOM     86  C   UNL     1     -14.042 -10.130   1.106  1.00  0.00     0.064 A 
ATOM     87  C   UNL     1     -15.172 -10.833   1.544  1.00  0.00     0.173 A 
ATOM     88  C   UNL     1     -13.460  -9.211   1.992  1.00  0.00     0.173 A 
ATOM     89  F   UNL     1     -15.766 -11.719   0.732  1.00  0.00    -0.203 F 
ATOM     90  C   UNL     1     -15.725 -10.593   2.800  1.00  0.00     0.198 A 
ATOM     91  C   UNL     1     -13.992  -8.999   3.261  1.00  0.00     0.198 A 
ATOM     92  F   UNL     1     -12.366  -8.526   1.629  1.00  0.00    -0.203 F 
ATOM     93  F   UNL     1     -16.843 -11.232   3.169  1.00  0.00    -0.200 F 
ATOM     94  C   UNL     1     -15.133  -9.679   3.658  1.00  0.00     0.200 A 
ATOM     95  F   UNL     1     -13.402  -8.132   4.095  1.00  0.00    -0.200 F 
ATOM     96  F   UNL     1     -15.666  -9.447   4.865  1.00  0.00    -0.200 F 
ENDBRANCH  62  86
BRANCH  74  97
ATOM     97  C   UNL     1     -16.492  -9.078  -5.340  1.00  0.00     0.064 A 
ATOM     98  C   UNL     1     -16.889  -7.744  -5.176  1.00  0.00     0.173 A 
ATOM     99  C   UNL     1     -17.351  -9.940  -6.041  1.00  0.00     0.173 A 
ATOM    100  F   UNL     1     -16.109  -6.884  -4.504  1.00  0.00    -0.203 F 
ATOM    101  C   UNL     1     -18.115  -7.299  -5.663  1.00  0.00     0.198 A 
ATOM    102  C   UNL     1     -18.555  -9.481  -6.563  1.00  0.00     0.198 A 
ATOM    103  F   UNL     1     -17.011 -11.223  -6.236  1.00  0.00    -0.203 F 
ATOM    104  F   UNL     1     -18.502  -6.035  -5.441  1.00  0.00    -0.200 F 
ATOM    105  C   UNL     1     -18.941  -8.164  -6.364  1.00  0.00     0.200 A 
ATOM    106  F   UNL     1     -19.341 -10.313  -7.260  1.00  0.00    -0.200 F 
ATOM    107  F   UNL     1     -20.115  -7.731  -6.843  1.00  0.00    -0.200 F 
ENDBRANCH  74  97
ENDBRANCH  48  49
ENDBRANCH  40  43
ENDBRANCH  38  39
ENDBRANCH  37  38
ENDBRANCH  36  37
ENDBRANCH   1  36
TORSDOF 17
