REMARK SMILES O=C(NCCCCCCNC(=O)[C@H]1CC[C@H](CN2C(=O)c3cccnc3C2=O)O1)c1ccc(-c2c3nc(c(-c4c(F)c(F)c(F)c(F)c4F)c4ccc([nH]4)c(-c4c(F)c(F)c(F)c(F)c4F)c4nc(c(-c5c(F)c(F)c(F)c(F)c5F)c5ccc2[nH]5)C=C4)C=C3)cc1
REMARK SMILES IDX 6 1 5 2 4 3 3 4 1 5 2 6 30 8 31 9 92 10 32 11 91 12 33 13
REMARK SMILES IDX 34 14 35 15 85 16 36 17 90 18 84 19 86 20 37 21 89 22 83 23
REMARK SMILES IDX 82 24 38 26 70 27 50 28 69 29 51 30 54 31 68 32 87 33 52 34
REMARK SMILES IDX 53 35 67 37 88 38 55 39 39 40 40 41 48 42 41 43 42 44 46 45
REMARK SMILES IDX 49 46 43 47 44 48 47 49 45 50 71 51 72 52 80 53 73 54 74 55
REMARK SMILES IDX 78 56 81 57 75 58 76 59 79 60 77 61 56 62 57 63 65 64 58 65
REMARK SMILES IDX 59 66 63 67 66 68 60 69 61 70 64 71 62 72 7 73 8 74 9 75
REMARK SMILES IDX 10 76 11 77 12 79 13 80 14 81 29 82 15 83 16 84 17 85 18 86
REMARK SMILES IDX 19 87 27 88 20 89 21 90 26 91 28 92 22 93 25 94 23 95 24 96
REMARK H PARENT 3 7 86 25 54 36 10 78
REMARK Flexibility Score: inf
ROOT
ATOM      1  C   UNL     1       6.160   5.129  -2.094  1.00  0.00     0.002 C 
ENDROOT
BRANCH   1   2
ATOM      2  C   UNL     1       5.080   6.053  -2.648  1.00  0.00     0.021 C 
BRANCH   2   3
ATOM      3  C   UNL     1       3.663   5.591  -2.351  1.00  0.00     0.116 C 
BRANCH   3   4
ATOM      4  N   UNL     1       3.337   5.663  -0.934  1.00  0.00    -0.352 N 
ATOM      5  O   UNL     1       2.248   6.428   0.898  1.00  0.00    -0.269 OA
ATOM      6  C   UNL     1       2.296   6.323  -0.322  1.00  0.00     0.251 C 
ATOM      7  H   UNL     1       3.943   5.173  -0.332  1.00  0.00     0.163 HD
BRANCH   6   8
ATOM      8  C   UNL     1       1.244   6.930  -1.163  1.00  0.00     0.039 A 
ATOM      9  C   UNL     1       0.732   6.221  -2.249  1.00  0.00     0.014 A 
ATOM     10  C   UNL     1       0.798   8.227  -0.895  1.00  0.00     0.014 A 
ATOM     11  C   UNL     1      -0.072   6.870  -3.171  1.00  0.00     0.010 A 
ATOM     12  C   UNL     1      -0.121   8.834  -1.757  1.00  0.00     0.010 A 
ATOM     13  C   UNL     1      -0.539   8.172  -2.921  1.00  0.00    -0.014 A 
BRANCH  13  14
ATOM     14  C   UNL     1      -1.531   8.752  -3.863  1.00  0.00     0.031 A 
ATOM     15  C   UNL     1      -1.246   9.999  -4.651  1.00  0.00     0.074 A 
ATOM     16  C   UNL     1      -2.686   8.082  -4.048  1.00  0.00     0.049 A 
ATOM     17  N   UNL     1      -1.988  10.581  -5.562  1.00  0.00    -0.248 NA
ATOM     18  C   UNL     1       0.023  10.691  -4.383  1.00  0.00     0.031 C 
ATOM     19  C   UNL     1      -3.079   6.872  -3.317  1.00  0.00     0.029 A 
ATOM     20  N   UNL     1      -3.722   8.290  -4.920  1.00  0.00    -0.354 N 
ATOM     21  C   UNL     1      -1.280  11.703  -5.973  1.00  0.00     0.074 A 
ATOM     22  C   UNL     1      -0.068  11.746  -5.183  1.00  0.00     0.031 C 
ATOM     23  C   UNL     1      -4.232   6.410  -3.816  1.00  0.00     0.029 A 
ATOM     24  C   UNL     1      -4.705   7.334  -4.838  1.00  0.00     0.049 A 
ATOM     25  H   UNL     1      -3.759   9.050  -5.544  1.00  0.00     0.167 HD
ATOM     26  C   UNL     1      -1.609  12.603  -6.932  1.00  0.00     0.037 A 
ATOM     27  C   UNL     1      -5.874   7.223  -5.492  1.00  0.00     0.037 A 
ATOM     28  C   UNL     1      -2.824  12.554  -7.710  1.00  0.00     0.049 A 
ATOM     29  C   UNL     1      -6.223   8.257  -6.522  1.00  0.00     0.074 A 
ATOM     30  C   UNL     1      -3.247  13.416  -8.708  1.00  0.00     0.029 A 
ATOM     31  N   UNL     1      -3.815  11.591  -7.573  1.00  0.00    -0.354 N 
ATOM     32  N   UNL     1      -5.529   9.294  -6.922  1.00  0.00    -0.248 NA
ATOM     33  C   UNL     1      -7.518   8.102  -7.194  1.00  0.00     0.031 C 
ATOM     34  C   UNL     1      -4.513  13.007  -9.136  1.00  0.00     0.029 A 
ATOM     35  C   UNL     1      -4.855  11.851  -8.454  1.00  0.00     0.049 A 
ATOM     36  H   UNL     1      -3.784  10.836  -6.943  1.00  0.00     0.167 HD
ATOM     37  C   UNL     1      -6.295   9.908  -7.902  1.00  0.00     0.074 A 
ATOM     38  C   UNL     1      -7.488   9.103  -8.062  1.00  0.00     0.031 C 
ATOM     39  C   UNL     1      -6.039  11.042  -8.599  1.00  0.00     0.037 A 
BRANCH  26  40
ATOM     40  C   UNL     1      -0.647  13.728  -7.199  1.00  0.00     0.064 A 
ATOM     41  C   UNL     1       0.596  13.504  -7.812  1.00  0.00     0.173 A 
ATOM     42  C   UNL     1      -0.997  15.055  -6.900  1.00  0.00     0.173 A 
ATOM     43  F   UNL     1       0.985  12.255  -8.111  1.00  0.00    -0.203 F 
ATOM     44  C   UNL     1       1.458  14.560  -8.096  1.00  0.00     0.198 A 
ATOM     45  C   UNL     1      -0.145  16.112  -7.215  1.00  0.00     0.198 A 
ATOM     46  F   UNL     1      -2.175  15.330  -6.322  1.00  0.00    -0.203 F 
ATOM     47  F   UNL     1       2.656  14.315  -8.645  1.00  0.00    -0.200 F 
ATOM     48  C   UNL     1       1.084  15.863  -7.806  1.00  0.00     0.200 A 
ATOM     49  F   UNL     1      -0.517  17.372  -6.950  1.00  0.00    -0.200 F 
ATOM     50  F   UNL     1       1.909  16.880  -8.095  1.00  0.00    -0.200 F 
ENDBRANCH  26  40
BRANCH  27  51
ATOM     51  C   UNL     1      -6.806   6.112  -5.162  1.00  0.00     0.064 A 
ATOM     52  C   UNL     1      -7.126   5.124  -6.103  1.00  0.00     0.173 A 
ATOM     53  C   UNL     1      -7.405   6.025  -3.896  1.00  0.00     0.173 A 
ATOM     54  F   UNL     1      -6.591   5.170  -7.332  1.00  0.00    -0.203 F 
ATOM     55  C   UNL     1      -8.035   4.112  -5.801  1.00  0.00     0.198 A 
ATOM     56  C   UNL     1      -8.280   4.989  -3.581  1.00  0.00     0.198 A 
ATOM     57  F   UNL     1      -7.125   6.938  -2.954  1.00  0.00    -0.203 F 
ATOM     58  F   UNL     1      -8.373   3.217  -6.739  1.00  0.00    -0.200 F 
ATOM     59  C   UNL     1      -8.607   4.042  -4.539  1.00  0.00     0.200 A 
ATOM     60  F   UNL     1      -8.809   4.913  -2.353  1.00  0.00    -0.200 F 
ATOM     61  F   UNL     1      -9.478   3.067  -4.248  1.00  0.00    -0.200 F 
ENDBRANCH  27  51
BRANCH  39  62
ATOM     62  C   UNL     1      -7.063  11.454  -9.619  1.00  0.00     0.064 A 
ATOM     63  C   UNL     1      -8.340  11.901  -9.245  1.00  0.00     0.173 A 
ATOM     64  C   UNL     1      -6.765  11.393 -10.989  1.00  0.00     0.173 A 
ATOM     65  F   UNL     1      -8.682  11.962  -7.949  1.00  0.00    -0.203 F 
ATOM     66  C   UNL     1      -9.294  12.226 -10.206  1.00  0.00     0.198 A 
ATOM     67  C   UNL     1      -7.709  11.757 -11.945  1.00  0.00     0.198 A 
ATOM     68  F   UNL     1      -5.557  10.979 -11.401  1.00  0.00    -0.203 F 
ATOM     69  F   UNL     1     -10.530  12.578  -9.826  1.00  0.00    -0.200 F 
ATOM     70  C   UNL     1      -8.976  12.159 -11.553  1.00  0.00     0.200 A 
ATOM     71  F   UNL     1      -7.394  11.706 -13.247  1.00  0.00    -0.200 F 
ATOM     72  F   UNL     1      -9.897  12.470 -12.476  1.00  0.00    -0.200 F 
ENDBRANCH  39  62
ENDBRANCH  13  14
ENDBRANCH   6   8
ENDBRANCH   3   4
ENDBRANCH   2   3
ENDBRANCH   1   2
BRANCH   1  73
ATOM     73  C   UNL     1       6.079   3.681  -2.591  1.00  0.00     0.002 C 
BRANCH  73  74
ATOM     74  C   UNL     1       6.053   3.520  -4.118  1.00  0.00     0.021 C 
BRANCH  74  75
ATOM     75  C   UNL     1       7.237   4.177  -4.824  1.00  0.00     0.116 C 
BRANCH  75  76
ATOM     76  N   UNL     1       8.477   3.538  -4.432  1.00  0.00    -0.354 N 
ATOM     77  C   UNL     1       9.279   2.707  -5.160  1.00  0.00     0.249 C 
ATOM     78  H   UNL     1       8.782   3.728  -3.516  1.00  0.00     0.163 HD
ATOM     79  O   UNL     1      10.206   2.139  -4.581  1.00  0.00    -0.272 OA
BRANCH  77  80
ATOM     80  C   UNL     1       9.032   2.584  -6.675  1.00  0.00     0.207 C 
ATOM     81  C   UNL     1       9.715   3.749  -7.378  1.00  0.00     0.045 C 
ATOM     82  O   UNL     1       9.580   1.389  -7.236  1.00  0.00    -0.363 OA
ATOM     83  C   UNL     1      11.080   3.174  -7.672  1.00  0.00     0.037 C 
ATOM     84  C   UNL     1      10.769   1.715  -7.978  1.00  0.00     0.139 C 
BRANCH  84  85
ATOM     85  C   UNL     1      10.492   1.440  -9.467  1.00  0.00     0.161 C 
BRANCH  85  86
ATOM     86  N   UNL     1      11.636   1.723 -10.310  1.00  0.00    -0.270 N 
ATOM     87  C   UNL     1      11.710   2.766 -11.192  1.00  0.00     0.263 C 
ATOM     88  C   UNL     1      12.801   1.002 -10.271  1.00  0.00     0.280 C 
ATOM     89  O   UNL     1      10.879   3.610 -11.458  1.00  0.00    -0.269 OA
ATOM     90  C   UNL     1      13.048   2.728 -11.767  1.00  0.00     0.071 A 
ATOM     91  C   UNL     1      13.717   1.667 -11.205  1.00  0.00     0.141 A 
ATOM     92  O   UNL     1      13.052   0.026  -9.588  1.00  0.00    -0.267 OA
ATOM     93  C   UNL     1      13.690   3.550 -12.666  1.00  0.00     0.018 A 
ATOM     94  N   UNL     1      14.998   1.333 -11.436  1.00  0.00    -0.250 NA
ATOM     95  C   UNL     1      15.025   3.246 -12.947  1.00  0.00     0.021 A 
ATOM     96  C   UNL     1      15.628   2.148 -12.315  1.00  0.00     0.112 A 
ENDBRANCH  85  86
ENDBRANCH  84  85
ENDBRANCH  77  80
ENDBRANCH  75  76
ENDBRANCH  74  75
ENDBRANCH  73  74
ENDBRANCH   1  73
TORSDOF 15
