REMARK SMILES CC(C)c1ccc(NC(=O)C(=O)N/N=C/c2ccccc2C(=O)NCCCCCCNC(=O)c2ccc(-c3c4nc(c(-c5c(F)c(F)c(F)c(F)c5F)c5ccc([nH]5)c(-c5c(F)c(F)c(F)c(F)c5F)c5nc(c(-c6c(F)c(F)c(F)c(F)c6F)c6ccc3[nH]6)C=C5)C=C4)cc2)cc1
REMARK SMILES IDX 26 1 25 2 24 3 22 4 23 5 21 7 16 8 17 9 18 10 20 11 19 12
REMARK SMILES IDX 15 13 14 14 13 15 11 16 12 17 9 19 8 20 10 22 7 23 4 24 5 25
REMARK SMILES IDX 98 26 6 27 97 28 2 29 1 30 3 31 27 32 28 33 29 34 30 35
REMARK SMILES IDX 31 36 32 37 33 39 34 40 35 41 96 42 36 43 95 44 37 45 38 46
REMARK SMILES IDX 39 47 89 48 40 49 94 50 88 51 90 52 41 53 93 54 87 55 86 56
REMARK SMILES IDX 42 58 74 59 54 60 73 61 55 62 58 63 72 64 91 65 56 66 57 67
REMARK SMILES IDX 71 69 92 70 59 71 43 72 44 73 52 74 45 75 46 76 50 77 53 78
REMARK SMILES IDX 47 79 48 80 51 81 49 82 75 83 76 84 84 85 77 86 78 87 82 88
REMARK SMILES IDX 85 89 79 90 80 91 83 92 81 93 60 94 61 95 69 96 62 97 63 98
REMARK SMILES IDX 67 99 70 100 64 101 65 102 68 103 66 104
REMARK H PARENT 24 6 13 18 8 21 31 38 90 57 58 68
REMARK Flexibility Score: inf
ROOT
ATOM      1  C   UNL     1      -5.924   3.301  -0.838  1.00  0.00     0.021 C 
ENDROOT
BRANCH   1   2
ATOM      2  C   UNL     1      -7.056   3.302   0.184  1.00  0.00     0.116 C 
BRANCH   2   3
ATOM      3  N   UNL     1      -8.147   4.201  -0.066  1.00  0.00    -0.352 N 
ATOM      4  C   UNL     1      -9.473   4.184   0.289  1.00  0.00     0.251 C 
ATOM      5  O   UNL     1     -10.097   5.199  -0.049  1.00  0.00    -0.269 OA
ATOM      6  H   UNL     1      -7.893   4.989  -0.600  1.00  0.00     0.163 HD
BRANCH   4   7
ATOM      7  C   UNL     1     -10.255   3.096   0.986  1.00  0.00     0.048 A 
ATOM      8  C   UNL     1      -9.857   2.082   1.872  1.00  0.00     0.007 A 
ATOM      9  C   UNL     1     -10.805   1.243   2.504  1.00  0.00     0.010 A 
ATOM     10  C   UNL     1     -12.165   1.374   2.252  1.00  0.00     0.001 A 
ATOM     11  C   UNL     1     -11.654   3.184   0.746  1.00  0.00     0.014 A 
ATOM     12  C   UNL     1     -12.591   2.339   1.356  1.00  0.00     0.001 A 
BRANCH   8  13
ATOM     13  C   UNL     1      -8.491   1.662   2.185  1.00  0.00     0.142 C 
ATOM     14  N   UNL     1      -7.853   2.116   3.210  1.00  0.00    -0.180 NA
BRANCH  14  15
ATOM     15  N   UNL     1      -6.576   1.657   3.476  1.00  0.00    -0.239 N 
ATOM     16  C   UNL     1      -5.714   1.024   2.584  1.00  0.00     0.329 C 
ATOM     17  O   UNL     1      -4.741   1.618   2.151  1.00  0.00    -0.262 OA
ATOM     18  H   UNL     1      -6.240   1.793   4.391  1.00  0.00     0.194 HD
BRANCH  16  19
ATOM     19  C   UNL     1      -5.922  -0.494   2.368  1.00  0.00     0.315 C 
ATOM     20  N   UNL     1      -4.895  -1.333   1.966  1.00  0.00    -0.318 N 
ATOM     21  H   UNL     1      -5.075  -2.275   2.190  1.00  0.00     0.170 HD
ATOM     22  O   UNL     1      -6.993  -1.003   2.702  1.00  0.00    -0.263 OA
BRANCH  20  23
ATOM     23  C   UNL     1      -3.656  -1.167   1.316  1.00  0.00     0.041 A 
ATOM     24  C   UNL     1      -1.105  -1.055   0.037  1.00  0.00    -0.045 A 
ATOM     25  C   UNL     1      -2.051  -0.037  -0.130  1.00  0.00     0.006 A 
ATOM     26  C   UNL     1      -1.472  -2.156   0.820  1.00  0.00     0.006 A 
ATOM     27  C   UNL     1      -3.314  -0.104   0.488  1.00  0.00     0.026 A 
ATOM     28  C   UNL     1      -2.731  -2.213   1.440  1.00  0.00     0.026 A 
BRANCH  24  29
ATOM     29  C   UNL     1       0.262  -1.007  -0.629  1.00  0.00     0.013 C 
ATOM     30  C   UNL     1       0.152  -1.065  -2.153  1.00  0.00     0.012 C 
ATOM     31  C   UNL     1       1.082   0.222  -0.233  1.00  0.00     0.012 C 
ENDBRANCH  24  29
ENDBRANCH  20  23
ENDBRANCH  16  19
ENDBRANCH  14  15
ENDBRANCH   8  13
ENDBRANCH   4   7
ENDBRANCH   2   3
ENDBRANCH   1   2
BRANCH   1  32
ATOM     32  C   UNL     1      -4.981   4.499  -0.987  1.00  0.00     0.002 C 
BRANCH  32  33
ATOM     33  C   UNL     1      -4.527   5.325   0.219  1.00  0.00     0.002 C 
BRANCH  33  34
ATOM     34  C   UNL     1      -3.968   4.648   1.472  1.00  0.00     0.021 C 
BRANCH  34  35
ATOM     35  C   UNL     1      -2.828   3.634   1.335  1.00  0.00     0.116 C 
BRANCH  35  36
ATOM     36  N   UNL     1      -1.527   4.219   1.081  1.00  0.00    -0.352 N 
ATOM     37  C   UNL     1      -0.250   3.882   1.470  1.00  0.00     0.251 C 
ATOM     38  H   UNL     1      -1.564   5.023   0.514  1.00  0.00     0.163 HD
ATOM     39  O   UNL     1       0.647   4.631   1.069  1.00  0.00    -0.269 OA
BRANCH  37  40
ATOM     40  C   UNL     1       0.149   2.703   2.317  1.00  0.00     0.039 A 
ATOM     41  C   UNL     1       1.485   2.675   2.777  1.00  0.00     0.014 A 
ATOM     42  C   UNL     1      -0.647   1.600   2.628  1.00  0.00     0.014 A 
ATOM     43  C   UNL     1       2.002   1.592   3.511  1.00  0.00     0.010 A 
ATOM     44  C   UNL     1      -0.140   0.516   3.373  1.00  0.00     0.010 A 
ATOM     45  C   UNL     1       1.191   0.495   3.813  1.00  0.00    -0.014 A 
BRANCH  45  46
ATOM     46  C   UNL     1       1.672  -0.614   4.678  1.00  0.00     0.031 A 
ATOM     47  C   UNL     1       2.261  -1.878   4.118  1.00  0.00     0.074 A 
ATOM     48  C   UNL     1       1.490  -0.497   6.006  1.00  0.00     0.049 A 
ATOM     49  N   UNL     1       2.642  -2.969   4.741  1.00  0.00    -0.248 NA
ATOM     50  C   UNL     1       2.430  -1.938   2.664  1.00  0.00     0.031 C 
ATOM     51  C   UNL     1       0.901   0.666   6.666  1.00  0.00     0.029 A 
ATOM     52  N   UNL     1       1.750  -1.373   7.028  1.00  0.00    -0.354 N 
ATOM     53  C   UNL     1       3.080  -3.845   3.753  1.00  0.00     0.074 A 
ATOM     54  C   UNL     1       2.889  -3.171   2.486  1.00  0.00     0.031 C 
ATOM     55  C   UNL     1       0.808   0.419   7.981  1.00  0.00     0.029 A 
ATOM     56  C   UNL     1       1.332  -0.917   8.252  1.00  0.00     0.049 A 
ATOM     57  H   UNL     1       2.192  -2.243   6.896  1.00  0.00     0.167 HD
ATOM     58  C   UNL     1       3.607  -5.087   3.896  1.00  0.00     0.037 A 
ATOM     59  C   UNL     1       1.365  -1.508   9.461  1.00  0.00     0.037 A 
ATOM     60  C   UNL     1       3.834  -5.732   5.167  1.00  0.00     0.049 A 
ATOM     61  C   UNL     1       2.002  -2.858   9.605  1.00  0.00     0.074 A 
ATOM     62  C   UNL     1       4.448  -6.947   5.424  1.00  0.00     0.029 A 
ATOM     63  N   UNL     1       3.457  -5.211   6.396  1.00  0.00    -0.354 N 
ATOM     64  N   UNL     1       2.473  -3.649   8.672  1.00  0.00    -0.248 NA
ATOM     65  C   UNL     1       2.144  -3.381  10.969  1.00  0.00     0.031 C 
ATOM     66  C   UNL     1       4.413  -7.176   6.805  1.00  0.00     0.029 A 
ATOM     67  C   UNL     1       3.814  -6.084   7.412  1.00  0.00     0.049 A 
ATOM     68  H   UNL     1       3.001  -4.348   6.528  1.00  0.00     0.167 HD
ATOM     69  C   UNL     1       2.990  -4.752   9.335  1.00  0.00     0.074 A 
ATOM     70  C   UNL     1       2.782  -4.523  10.751  1.00  0.00     0.031 C 
ATOM     71  C   UNL     1       3.591  -5.850   8.816  1.00  0.00     0.037 A 
BRANCH  58  72
ATOM     72  C   UNL     1       3.999  -5.843   2.655  1.00  0.00     0.064 A 
ATOM     73  C   UNL     1       5.112  -5.472   1.887  1.00  0.00     0.173 A 
ATOM     74  C   UNL     1       3.308  -7.007   2.282  1.00  0.00     0.173 A 
ATOM     75  F   UNL     1       5.808  -4.368   2.196  1.00  0.00    -0.203 F 
ATOM     76  C   UNL     1       5.507  -6.225   0.782  1.00  0.00     0.198 A 
ATOM     77  C   UNL     1       3.721  -7.773   1.194  1.00  0.00     0.198 A 
ATOM     78  F   UNL     1       2.242  -7.417   2.987  1.00  0.00    -0.203 F 
ATOM     79  F   UNL     1       6.555  -5.831   0.045  1.00  0.00    -0.200 F 
ATOM     80  C   UNL     1       4.817  -7.379   0.442  1.00  0.00     0.200 A 
ATOM     81  F   UNL     1       3.063  -8.897   0.877  1.00  0.00    -0.200 F 
ATOM     82  F   UNL     1       5.209  -8.111  -0.610  1.00  0.00    -0.200 F 
ENDBRANCH  58  72
BRANCH  59  83
ATOM     83  C   UNL     1       0.824  -0.769  10.626  1.00  0.00     0.064 A 
ATOM     84  C   UNL     1       1.682  -0.138  11.533  1.00  0.00     0.173 A 
ATOM     85  C   UNL     1      -0.558  -0.599  10.797  1.00  0.00     0.173 A 
ATOM     86  F   UNL     1       3.010  -0.285  11.411  1.00  0.00    -0.203 F 
ATOM     87  C   UNL     1       1.179   0.644  12.570  1.00  0.00     0.198 A 
ATOM     88  C   UNL     1      -1.059   0.199  11.822  1.00  0.00     0.198 A 
ATOM     89  F   UNL     1      -1.417  -1.175   9.943  1.00  0.00    -0.203 F 
ATOM     90  F   UNL     1       2.021   1.232  13.430  1.00  0.00    -0.200 F 
ATOM     91  C   UNL     1      -0.190   0.820  12.707  1.00  0.00     0.200 A 
ATOM     92  F   UNL     1      -2.381   0.382  11.941  1.00  0.00    -0.200 F 
ATOM     93  F   UNL     1      -0.671   1.595  13.689  1.00  0.00    -0.200 F 
ENDBRANCH  59  83
BRANCH  71  94
ATOM     94  C   UNL     1       4.081  -6.881   9.787  1.00  0.00     0.064 A 
ATOM     95  C   UNL     1       3.194  -7.739  10.452  1.00  0.00     0.173 A 
ATOM     96  C   UNL     1       5.453  -7.024  10.041  1.00  0.00     0.173 A 
ATOM     97  F   UNL     1       1.872  -7.630  10.251  1.00  0.00    -0.203 F 
ATOM     98  C   UNL     1       3.661  -8.687  11.357  1.00  0.00     0.198 A 
ATOM     99  C   UNL     1       5.919  -7.989  10.930  1.00  0.00     0.198 A 
ATOM    100  F   UNL     1       6.342  -6.230   9.425  1.00  0.00    -0.203 F 
ATOM    101  F   UNL     1       2.793  -9.468  12.015  1.00  0.00    -0.200 F 
ATOM    102  C   UNL     1       5.022  -8.814  11.593  1.00  0.00     0.200 A 
ATOM    103  F   UNL     1       7.234  -8.115  11.152  1.00  0.00    -0.200 F 
ATOM    104  F   UNL     1       5.470  -9.726  12.467  1.00  0.00    -0.200 F 
ENDBRANCH  71  94
ENDBRANCH  45  46
ENDBRANCH  37  40
ENDBRANCH  35  36
ENDBRANCH  34  35
ENDBRANCH  33  34
ENDBRANCH  32  33
ENDBRANCH   1  32
TORSDOF 18
