REMARK SMILES O=C(NCCCCCCNC(=O)c1nnn(-c2cccc(OC(F)(F)F)c2)c1-c1ccncc1)c1ccc(-c2c3nc(c(-c4c(F)c(F)c(F)c(F)c4F)c4ccc([nH]4)c(-c4c(F)c(F)c(F)c(F)c4F)c4nc(c(-c5c(F)c(F)c(F)c(F)c5F)c5ccc2[nH]5)C=C4)C=C3)cc1
REMARK SMILES IDX 7 1 6 2 5 3 4 4 3 5 1 6 2 7 35 9 36 10 97 11 37 12 96 13
REMARK SMILES IDX 38 14 39 15 40 16 90 17 41 18 95 19 89 20 91 21 42 22 94 23
REMARK SMILES IDX 88 24 87 25 43 27 75 28 55 29 74 30 56 31 59 32 73 33 92 34
REMARK SMILES IDX 57 35 58 36 72 38 93 39 60 40 44 41 45 42 53 43 46 44 47 45
REMARK SMILES IDX 51 46 54 47 48 48 49 49 52 50 50 51 76 52 77 53 85 54 78 55
REMARK SMILES IDX 79 56 83 57 86 58 80 59 81 60 84 61 82 62 61 63 62 64 70 65
REMARK SMILES IDX 63 66 64 67 68 68 71 69 65 70 66 71 69 72 67 73 8 74 9 75
REMARK SMILES IDX 10 76 11 77 12 79 13 80 14 81 28 82 15 83 16 84 29 85 30 86
REMARK SMILES IDX 34 87 31 88 33 89 32 90 17 91 18 92 27 93 19 94 21 95 20 96
REMARK SMILES IDX 22 97 23 98 24 99 25 100 26 101
REMARK H PARENT 3 8 91 26 59 37 10 78
REMARK Flexibility Score: inf
ROOT
ATOM      1  C   UNL     1       4.765  -2.923   2.931  1.00  0.00     0.002 C 
ENDROOT
BRANCH   1   2
ATOM      2  C   UNL     1       4.319  -1.486   3.240  1.00  0.00     0.002 C 
BRANCH   2   3
ATOM      3  C   UNL     1       4.850  -0.404   2.290  1.00  0.00     0.021 C 
BRANCH   3   4
ATOM      4  C   UNL     1       4.579  -0.678   0.817  1.00  0.00     0.116 C 
BRANCH   4   5
ATOM      5  N   UNL     1       3.179  -0.816   0.506  1.00  0.00    -0.352 N 
ATOM      6  O   UNL     1       1.188  -0.455  -0.370  1.00  0.00    -0.269 OA
ATOM      7  C   UNL     1       2.239   0.049   0.035  1.00  0.00     0.251 C 
ATOM      8  H   UNL     1       2.830  -1.722   0.669  1.00  0.00     0.163 HD
BRANCH   7   9
ATOM      9  C   UNL     1       2.341   1.530   0.118  1.00  0.00     0.039 A 
ATOM     10  C   UNL     1       3.485   2.329   0.178  1.00  0.00     0.014 A 
ATOM     11  C   UNL     1       1.099   2.172   0.103  1.00  0.00     0.014 A 
ATOM     12  C   UNL     1       3.367   3.695   0.500  1.00  0.00     0.010 A 
ATOM     13  C   UNL     1       0.996   3.537   0.275  1.00  0.00     0.010 A 
ATOM     14  C   UNL     1       2.098   4.275   0.674  1.00  0.00    -0.014 A 
BRANCH  14  15
ATOM     15  C   UNL     1       1.878   5.721   0.870  1.00  0.00     0.031 A 
ATOM     16  C   UNL     1       2.309   6.429  -0.386  1.00  0.00     0.074 A 
ATOM     17  C   UNL     1       1.240   6.287   1.945  1.00  0.00     0.049 A 
ATOM     18  N   UNL     1       3.376   7.144  -0.526  1.00  0.00    -0.248 NA
ATOM     19  C   UNL     1       1.684   6.097  -1.689  1.00  0.00     0.031 C 
ATOM     20  C   UNL     1       0.649   5.643   3.134  1.00  0.00     0.029 A 
ATOM     21  N   UNL     1       0.942   7.621   2.207  1.00  0.00    -0.354 N 
ATOM     22  C   UNL     1       3.367   7.600  -1.844  1.00  0.00     0.074 A 
ATOM     23  C   UNL     1       2.468   6.744  -2.556  1.00  0.00     0.031 C 
ATOM     24  C   UNL     1      -0.146   6.513   3.815  1.00  0.00     0.029 A 
ATOM     25  C   UNL     1      -0.040   7.832   3.222  1.00  0.00     0.049 A 
ATOM     26  H   UNL     1       1.377   8.364   1.728  1.00  0.00     0.167 HD
ATOM     27  C   UNL     1       3.831   8.850  -2.124  1.00  0.00     0.037 A 
ATOM     28  C   UNL     1      -0.652   9.019   3.566  1.00  0.00     0.037 A 
ATOM     29  C   UNL     1       4.606   9.327  -1.006  1.00  0.00     0.049 A 
ATOM     30  C   UNL     1       0.212  10.107   3.034  1.00  0.00     0.074 A 
ATOM     31  C   UNL     1       5.791   8.966  -0.403  1.00  0.00     0.029 A 
ATOM     32  N   UNL     1       3.874  10.007  -0.070  1.00  0.00    -0.354 N 
ATOM     33  N   UNL     1       1.419  10.313   3.482  1.00  0.00    -0.248 NA
ATOM     34  C   UNL     1      -0.048  10.477   1.650  1.00  0.00     0.031 C 
ATOM     35  C   UNL     1       5.551   9.099   0.998  1.00  0.00     0.029 A 
ATOM     36  C   UNL     1       4.301   9.687   1.186  1.00  0.00     0.049 A 
ATOM     37  H   UNL     1       3.145  10.636  -0.274  1.00  0.00     0.167 HD
ATOM     38  C   UNL     1       2.188  10.341   2.331  1.00  0.00     0.074 A 
ATOM     39  C   UNL     1       1.219  10.419   1.229  1.00  0.00     0.031 C 
ATOM     40  C   UNL     1       3.497   9.951   2.353  1.00  0.00     0.037 A 
BRANCH  27  41
ATOM     41  C   UNL     1       3.178   9.826  -3.086  1.00  0.00     0.064 A 
ATOM     42  C   UNL     1       3.791  11.083  -3.285  1.00  0.00     0.173 A 
ATOM     43  C   UNL     1       1.848   9.727  -3.551  1.00  0.00     0.173 A 
ATOM     44  F   UNL     1       5.044  11.304  -2.860  1.00  0.00    -0.203 F 
ATOM     45  C   UNL     1       3.103  12.168  -3.838  1.00  0.00     0.198 A 
ATOM     46  C   UNL     1       1.181  10.800  -4.146  1.00  0.00     0.198 A 
ATOM     47  F   UNL     1       1.101   8.636  -3.354  1.00  0.00    -0.203 F 
ATOM     48  F   UNL     1       3.692  13.370  -3.896  1.00  0.00    -0.200 F 
ATOM     49  C   UNL     1       1.797  12.027  -4.266  1.00  0.00     0.200 A 
ATOM     50  F   UNL     1      -0.096  10.651  -4.530  1.00  0.00    -0.200 F 
ATOM     51  F   UNL     1       1.121  13.075  -4.753  1.00  0.00    -0.200 F 
ENDBRANCH  27  41
BRANCH  28  52
ATOM     52  C   UNL     1      -2.088   9.322   3.913  1.00  0.00     0.064 A 
ATOM     53  C   UNL     1      -2.541  10.573   4.407  1.00  0.00     0.173 A 
ATOM     54  C   UNL     1      -3.098   8.471   3.435  1.00  0.00     0.173 A 
ATOM     55  F   UNL     1      -1.664  11.498   4.827  1.00  0.00    -0.203 F 
ATOM     56  C   UNL     1      -3.906  10.932   4.410  1.00  0.00     0.198 A 
ATOM     57  C   UNL     1      -4.451   8.833   3.425  1.00  0.00     0.198 A 
ATOM     58  F   UNL     1      -2.776   7.302   2.866  1.00  0.00    -0.203 F 
ATOM     59  F   UNL     1      -4.295  12.141   4.847  1.00  0.00    -0.200 F 
ATOM     60  C   UNL     1      -4.857  10.064   3.904  1.00  0.00     0.200 A 
ATOM     61  F   UNL     1      -5.350   8.002   2.881  1.00  0.00    -0.200 F 
ATOM     62  F   UNL     1      -6.149  10.421   3.837  1.00  0.00    -0.200 F 
ENDBRANCH  28  52
BRANCH  40  63
ATOM     63  C   UNL     1       4.147   9.709   3.686  1.00  0.00     0.064 A 
ATOM     64  C   UNL     1       3.849   8.645   4.558  1.00  0.00     0.173 A 
ATOM     65  C   UNL     1       5.238  10.521   4.012  1.00  0.00     0.173 A 
ATOM     66  F   UNL     1       2.890   7.758   4.262  1.00  0.00    -0.203 F 
ATOM     67  C   UNL     1       4.591   8.442   5.726  1.00  0.00     0.198 A 
ATOM     68  C   UNL     1       5.997  10.295   5.153  1.00  0.00     0.198 A 
ATOM     69  F   UNL     1       5.608  11.504   3.177  1.00  0.00    -0.203 F 
ATOM     70  F   UNL     1       4.293   7.424   6.548  1.00  0.00    -0.200 F 
ATOM     71  C   UNL     1       5.664   9.268   6.020  1.00  0.00     0.200 A 
ATOM     72  F   UNL     1       7.073  11.056   5.391  1.00  0.00    -0.200 F 
ATOM     73  F   UNL     1       6.397   9.060   7.123  1.00  0.00    -0.200 F 
ENDBRANCH  40  63
ENDBRANCH  14  15
ENDBRANCH   7   9
ENDBRANCH   4   5
ENDBRANCH   3   4
ENDBRANCH   2   3
ENDBRANCH   1   2
BRANCH   1  74
ATOM     74  C   UNL     1       6.274  -3.130   2.840  1.00  0.00     0.021 C 
BRANCH  74  75
ATOM     75  C   UNL     1       7.016  -2.792   4.118  1.00  0.00     0.116 C 
BRANCH  75  76
ATOM     76  N   UNL     1       6.778  -3.731   5.198  1.00  0.00    -0.351 N 
ATOM     77  C   UNL     1       7.714  -4.350   5.993  1.00  0.00     0.274 C 
ATOM     78  H   UNL     1       5.837  -3.951   5.383  1.00  0.00     0.163 HD
ATOM     79  O   UNL     1       7.339  -5.197   6.814  1.00  0.00    -0.267 OA
BRANCH  77  80
ATOM     80  C   UNL     1       9.109  -3.973   5.851  1.00  0.00     0.178 A 
ATOM     81  N   UNL     1      10.086  -4.868   5.486  1.00  0.00    -0.124 NA
ATOM     82  C   UNL     1       9.662  -2.699   5.928  1.00  0.00     0.108 A 
ATOM     83  N   UNL     1      11.203  -4.192   5.244  1.00  0.00    -0.061 NA
ATOM     84  N   UNL     1      10.998  -2.916   5.623  1.00  0.00    -0.212 N 
BRANCH  82  85
ATOM     85  C   UNL     1       9.034  -1.377   6.043  1.00  0.00     0.006 A 
ATOM     86  C   UNL     1       8.242  -1.043   7.138  1.00  0.00     0.030 A 
ATOM     87  C   UNL     1       9.161  -0.453   4.993  1.00  0.00     0.030 A 
ATOM     88  C   UNL     1       7.608   0.189   7.129  1.00  0.00     0.111 A 
ATOM     89  C   UNL     1       8.475   0.745   5.073  1.00  0.00     0.111 A 
ATOM     90  N   UNL     1       7.696   1.081   6.117  1.00  0.00    -0.265 NA
ENDBRANCH  82  85
BRANCH  84  91
ATOM     91  C   UNL     1      12.014  -1.942   5.625  1.00  0.00     0.071 A 
ATOM     92  C   UNL     1      12.871  -1.807   4.535  1.00  0.00     0.029 A 
ATOM     93  C   UNL     1      12.036  -1.025   6.686  1.00  0.00     0.075 A 
ATOM     94  C   UNL     1      13.694  -0.682   4.479  1.00  0.00     0.006 A 
ATOM     95  C   UNL     1      12.872   0.081   6.643  1.00  0.00     0.131 A 
ATOM     96  C   UNL     1      13.688   0.257   5.522  1.00  0.00     0.047 A 
BRANCH  95  97
ATOM     97  O   UNL     1      12.959   1.044   7.607  1.00  0.00    -0.406 OA
BRANCH  97  98
ATOM     98  C   UNL     1      12.153   0.877   8.768  1.00  0.00     0.573 C 
ATOM     99  F   UNL     1      10.839   0.908   8.456  1.00  0.00    -0.132 F 
ATOM    100  F   UNL     1      12.432  -0.289   9.393  1.00  0.00    -0.132 F 
ATOM    101  F   UNL     1      12.405   1.884   9.631  1.00  0.00    -0.132 F 
ENDBRANCH  97  98
ENDBRANCH  95  97
ENDBRANCH  84  91
ENDBRANCH  77  80
ENDBRANCH  75  76
ENDBRANCH  74  75
ENDBRANCH   1  74
TORSDOF 17
