REMARK SMILES Cc1ccc([C@@H]2[C@H](C(=O)NCCCCCCNC(=O)c3ccc(-c4c5nc(c(-c6c(F)c(F)c(F)c(F)c6F)c6ccc([nH]6)c(-c6c(F)c(F)c(F)c(F)c6F)c6nc(c(-c7c(F)c(F)c(F)c(F)c7F)c7ccc4[nH]7)C=C6)C=C5)cc3)c3ccccc3C(=O)N2c2ccccc2)cc1
REMARK SMILES IDX 14 1 13 2 12 3 11 4 10 5 8 6 9 7 7 9 6 10 91 11 83 12 89 13
REMARK SMILES IDX 84 14 88 15 90 16 85 17 87 18 86 19 5 20 1 21 2 22 3 23
REMARK SMILES IDX 99 24 4 25 98 26 92 27 93 28 97 29 94 30 96 31 95 32 15 33
REMARK SMILES IDX 16 34 17 35 18 36 19 38 20 39 21 40 82 41 22 42 81 43 23 44
REMARK SMILES IDX 24 45 25 46 75 47 26 48 80 49 74 50 76 51 27 52 79 53 73 54
REMARK SMILES IDX 72 55 28 57 60 58 40 59 59 60 41 61 44 62 58 63 77 64 42 65
REMARK SMILES IDX 43 66 57 68 78 69 45 70 29 71 30 72 38 73 31 74 32 75 36 76
REMARK SMILES IDX 39 77 33 78 34 79 37 80 35 81 61 82 62 83 70 84 63 85 64 86
REMARK SMILES IDX 68 87 71 88 65 89 66 90 69 91 67 92 46 93 47 94 55 95 48 96
REMARK SMILES IDX 49 97 53 98 56 99 50 100 51 101 54 102 52 103
REMARK H PARENT 10 8 17 37 76 56 44 67
REMARK Flexibility Score: inf
ROOT
ATOM      1  C   UNL     1      -2.694  -6.346   6.798  1.00  0.00     0.002 C 
ENDROOT
BRANCH   1   2
ATOM      2  C   UNL     1      -3.858  -5.703   6.023  1.00  0.00     0.002 C 
BRANCH   2   3
ATOM      3  C   UNL     1      -3.973  -4.175   6.094  1.00  0.00     0.021 C 
BRANCH   3   4
ATOM      4  C   UNL     1      -2.726  -3.408   5.650  1.00  0.00     0.116 C 
BRANCH   4   5
ATOM      5  N   UNL     1      -2.833  -2.986   4.273  1.00  0.00    -0.355 N 
ATOM      6  C   UNL     1      -2.106  -1.906   3.823  1.00  0.00     0.230 C 
ATOM      7  O   UNL     1      -0.877  -1.922   3.855  1.00  0.00    -0.274 OA
ATOM      8  H   UNL     1      -3.427  -3.470   3.655  1.00  0.00     0.163 HD
BRANCH   6   9
ATOM      9  C   UNL     1      -2.899  -0.698   3.309  1.00  0.00     0.137 C 
ATOM     10  C   UNL     1      -2.873  -0.559   1.758  1.00  0.00     0.138 C 
ATOM     11  N   UNL     1      -3.897  -1.442   1.174  1.00  0.00    -0.300 N 
ATOM     12  C   UNL     1      -4.352  -0.626   3.803  1.00  0.00    -0.020 A 
ATOM     13  C   UNL     1      -5.185  -0.936   1.430  1.00  0.00     0.259 C 
ATOM     14  C   UNL     1      -4.636  -0.505   5.172  1.00  0.00     0.005 A 
ATOM     15  C   UNL     1      -5.430  -0.681   2.891  1.00  0.00     0.044 A 
ATOM     16  O   UNL     1      -6.079  -0.830   0.601  1.00  0.00    -0.269 OA
ATOM     17  C   UNL     1      -5.958  -0.491   5.623  1.00  0.00     0.000 A 
ATOM     18  C   UNL     1      -6.751  -0.620   3.345  1.00  0.00     0.014 A 
ATOM     19  C   UNL     1      -7.012  -0.541   4.712  1.00  0.00     0.001 A 
BRANCH  10  20
ATOM     20  C   UNL     1      -1.539  -0.289   1.069  1.00  0.00    -0.024 A 
ATOM     21  C   UNL     1       2.485   0.381  -0.388  1.00  0.00     0.044 C 
ATOM     22  C   UNL     1       1.051   0.231   0.025  1.00  0.00    -0.051 A 
ATOM     23  C   UNL     1       0.229  -0.743  -0.546  1.00  0.00     0.004 A 
ATOM     24  C   UNL     1       0.535   1.022   1.050  1.00  0.00     0.004 A 
ATOM     25  C   UNL     1      -1.071  -0.958  -0.066  1.00  0.00     0.006 A 
ATOM     26  C   UNL     1      -0.737   0.762   1.563  1.00  0.00     0.006 A 
ENDBRANCH  10  20
BRANCH  11  27
ATOM     27  C   UNL     1      -3.782  -2.887   1.117  1.00  0.00     0.045 A 
ATOM     28  C   UNL     1      -4.949  -3.680   1.163  1.00  0.00     0.026 A 
ATOM     29  C   UNL     1      -2.561  -3.572   1.147  1.00  0.00     0.026 A 
ATOM     30  C   UNL     1      -4.899  -5.069   1.315  1.00  0.00     0.002 A 
ATOM     31  C   UNL     1      -2.506  -4.970   1.252  1.00  0.00     0.002 A 
ATOM     32  C   UNL     1      -3.674  -5.715   1.361  1.00  0.00     0.000 A 
ENDBRANCH  11  27
ENDBRANCH   6   9
ENDBRANCH   4   5
ENDBRANCH   3   4
ENDBRANCH   2   3
ENDBRANCH   1   2
BRANCH   1  33
ATOM     33  C   UNL     1      -2.443  -5.817   8.212  1.00  0.00     0.021 C 
BRANCH  33  34
ATOM     34  C   UNL     1      -3.510  -6.207   9.229  1.00  0.00     0.116 C 
BRANCH  34  35
ATOM     35  N   UNL     1      -3.140  -7.343  10.064  1.00  0.00    -0.352 N 
ATOM     36  C   UNL     1      -3.839  -7.986  11.072  1.00  0.00     0.251 C 
ATOM     37  H   UNL     1      -2.248  -7.716   9.880  1.00  0.00     0.163 HD
ATOM     38  O   UNL     1      -3.295  -8.869  11.714  1.00  0.00    -0.269 OA
BRANCH  36  39
ATOM     39  C   UNL     1      -5.285  -7.709  11.278  1.00  0.00     0.039 A 
ATOM     40  C   UNL     1      -6.128  -8.800  11.537  1.00  0.00     0.014 A 
ATOM     41  C   UNL     1      -5.834  -6.455  11.039  1.00  0.00     0.014 A 
ATOM     42  C   UNL     1      -7.497  -8.685  11.305  1.00  0.00     0.010 A 
ATOM     43  C   UNL     1      -7.168  -6.361  10.707  1.00  0.00     0.010 A 
ATOM     44  C   UNL     1      -7.983  -7.493  10.773  1.00  0.00    -0.014 A 
BRANCH  44  45
ATOM     45  C   UNL     1      -9.284  -7.364  10.134  1.00  0.00     0.031 A 
ATOM     46  C   UNL     1     -10.379  -6.621  10.787  1.00  0.00     0.074 A 
ATOM     47  C   UNL     1      -9.418  -7.793   8.859  1.00  0.00     0.049 A 
ATOM     48  N   UNL     1     -11.625  -6.762  10.486  1.00  0.00    -0.248 NA
ATOM     49  C   UNL     1     -10.155  -5.663  11.862  1.00  0.00     0.031 C 
ATOM     50  C   UNL     1     -10.485  -7.460   7.920  1.00  0.00     0.029 A 
ATOM     51  N   UNL     1      -8.668  -8.781   8.199  1.00  0.00    -0.354 N 
ATOM     52  C   UNL     1     -12.326  -5.753  11.104  1.00  0.00     0.074 A 
ATOM     53  C   UNL     1     -11.375  -5.132  11.997  1.00  0.00     0.031 C 
ATOM     54  C   UNL     1     -10.518  -8.391   6.953  1.00  0.00     0.029 A 
ATOM     55  C   UNL     1      -9.575  -9.428   7.329  1.00  0.00     0.049 A 
ATOM     56  H   UNL     1      -7.711  -8.981   8.318  1.00  0.00     0.167 HD
ATOM     57  C   UNL     1     -13.596  -5.475  10.686  1.00  0.00     0.037 A 
ATOM     58  C   UNL     1      -9.895 -10.745   7.485  1.00  0.00     0.037 A 
ATOM     59  C   UNL     1     -14.012  -6.393   9.628  1.00  0.00     0.049 A 
ATOM     60  C   UNL     1     -11.365 -10.992   7.710  1.00  0.00     0.074 A 
ATOM     61  C   UNL     1     -14.029  -6.274   8.247  1.00  0.00     0.029 A 
ATOM     62  N   UNL     1     -14.188  -7.743   9.910  1.00  0.00    -0.354 N 
ATOM     63  N   UNL     1     -12.189 -10.093   8.171  1.00  0.00    -0.248 NA
ATOM     64  C   UNL     1     -12.018 -12.271   7.450  1.00  0.00     0.031 C 
ATOM     65  C   UNL     1     -14.191  -7.566   7.696  1.00  0.00     0.029 A 
ATOM     66  C   UNL     1     -14.286  -8.470   8.740  1.00  0.00     0.049 A 
ATOM     67  H   UNL     1     -14.235  -8.126  10.816  1.00  0.00     0.167 HD
ATOM     68  C   UNL     1     -13.444 -10.636   8.280  1.00  0.00     0.074 A 
ATOM     69  C   UNL     1     -13.287 -11.997   7.803  1.00  0.00     0.031 C 
ATOM     70  C   UNL     1     -14.499  -9.909   8.757  1.00  0.00     0.037 A 
BRANCH  57  71
ATOM     71  C   UNL     1     -14.345  -4.201  11.018  1.00  0.00     0.064 A 
ATOM     72  C   UNL     1     -15.283  -3.652  10.114  1.00  0.00     0.173 A 
ATOM     73  C   UNL     1     -14.152  -3.446  12.189  1.00  0.00     0.173 A 
ATOM     74  F   UNL     1     -15.664  -4.308   9.011  1.00  0.00    -0.203 F 
ATOM     75  C   UNL     1     -15.870  -2.398  10.304  1.00  0.00     0.198 A 
ATOM     76  C   UNL     1     -14.697  -2.167  12.356  1.00  0.00     0.198 A 
ATOM     77  F   UNL     1     -13.478  -3.943  13.233  1.00  0.00    -0.203 F 
ATOM     78  F   UNL     1     -16.741  -1.928   9.401  1.00  0.00    -0.200 F 
ATOM     79  C   UNL     1     -15.545  -1.637  11.406  1.00  0.00     0.200 A 
ATOM     80  F   UNL     1     -14.392  -1.453  13.449  1.00  0.00    -0.200 F 
ATOM     81  F   UNL     1     -16.068  -0.414  11.566  1.00  0.00    -0.200 F 
ENDBRANCH  57  71
BRANCH  58  82
ATOM     82  C   UNL     1      -8.793 -11.548   8.075  1.00  0.00     0.064 A 
ATOM     83  C   UNL     1      -7.612 -11.704   7.325  1.00  0.00     0.173 A 
ATOM     84  C   UNL     1      -8.725 -11.795   9.451  1.00  0.00     0.173 A 
ATOM     85  F   UNL     1      -7.625 -11.476   6.002  1.00  0.00    -0.203 F 
ATOM     86  C   UNL     1      -6.393 -11.975   7.942  1.00  0.00     0.198 A 
ATOM     87  C   UNL     1      -7.502 -12.077  10.065  1.00  0.00     0.198 A 
ATOM     88  F   UNL     1      -9.812 -11.646  10.222  1.00  0.00    -0.203 F 
ATOM     89  F   UNL     1      -5.267 -12.004   7.214  1.00  0.00    -0.200 F 
ATOM     90  C   UNL     1      -6.334 -12.131   9.316  1.00  0.00     0.200 A 
ATOM     91  F   UNL     1      -7.439 -12.202  11.398  1.00  0.00    -0.200 F 
ATOM     92  F   UNL     1      -5.151 -12.292   9.924  1.00  0.00    -0.200 F 
ENDBRANCH  58  82
BRANCH  70  93
ATOM     93  C   UNL     1     -15.856 -10.437   9.170  1.00  0.00     0.064 A 
ATOM     94  C   UNL     1     -16.106 -11.765   9.554  1.00  0.00     0.173 A 
ATOM     95  C   UNL     1     -16.953  -9.550   9.331  1.00  0.00     0.173 A 
ATOM     96  F   UNL     1     -15.132 -12.682   9.578  1.00  0.00    -0.203 F 
ATOM     97  C   UNL     1     -17.365 -12.187   9.994  1.00  0.00     0.198 A 
ATOM     98  C   UNL     1     -18.188  -9.961   9.830  1.00  0.00     0.198 A 
ATOM     99  F   UNL     1     -16.853  -8.245   9.040  1.00  0.00    -0.203 F 
ATOM    100  F   UNL     1     -17.559 -13.477  10.304  1.00  0.00    -0.200 F 
ATOM    101  C   UNL     1     -18.401 -11.285  10.144  1.00  0.00     0.200 A 
ATOM    102  F   UNL     1     -19.161  -9.060  10.023  1.00  0.00    -0.200 F 
ATOM    103  F   UNL     1     -19.590 -11.686  10.613  1.00  0.00    -0.200 F 
ENDBRANCH  70  93
ENDBRANCH  44  45
ENDBRANCH  36  39
ENDBRANCH  34  35
ENDBRANCH  33  34
ENDBRANCH   1  33
TORSDOF 15
