REMARK SMILES CCC(CC)(NC(=O)CC1([NH3+])CCCC1)C(=O)NCCCCCCNC(=O)c1ccc(-c2c3nc(c(-c4c(F)c(F)c(F)c(F)c4F)c4ccc([nH]4)c(-c4c(F)c(F)c(F)c(F)c4F)c4nc(c(-c5c(F)c(F)c(F)c(F)c5F)c5ccc2[nH]5)C=C4)C=C3)cc1
REMARK SMILES IDX 20 1 19 2 18 3 16 4 17 5 3 7 2 8 1 9 4 10 5 11 6 12 7 13
REMARK SMILES IDX 8 15 9 16 10 17 12 18 15 19 13 20 14 21 11 22 21 26 22 27
REMARK SMILES IDX 23 28 24 29 25 30 26 31 27 33 28 34 29 35 90 36 30 37 89 38
REMARK SMILES IDX 31 39 32 40 33 41 83 42 34 43 88 44 82 45 84 46 35 47 87 48
REMARK SMILES IDX 81 49 80 50 36 52 68 53 48 54 67 55 49 56 52 57 66 58 85 59
REMARK SMILES IDX 50 60 51 61 65 63 86 64 53 65 37 66 38 67 46 68 39 69 40 70
REMARK SMILES IDX 44 71 47 72 41 73 42 74 45 75 43 76 69 77 70 78 78 79 71 80
REMARK SMILES IDX 72 81 76 82 79 83 73 84 74 85 77 86 75 87 54 88 55 89 63 90
REMARK SMILES IDX 56 91 57 92 61 93 64 94 58 95 59 96 62 97 60 98
REMARK H PARENT 18 6 6 14 11 23 11 24 11 25 25 32 84 51 52 62
REMARK Flexibility Score: inf
ROOT
ATOM      1  C   UNL     1       2.978   2.722   5.510  1.00  0.00     0.021 C 
ENDROOT
BRANCH   1   2
ATOM      2  C   UNL     1       2.327   3.192   4.209  1.00  0.00     0.116 C 
BRANCH   2   3
ATOM      3  N   UNL     1       2.916   2.623   3.006  1.00  0.00    -0.354 N 
ATOM      4  C   UNL     1       2.432   1.745   2.070  1.00  0.00     0.245 C 
ATOM      5  O   UNL     1       3.140   1.610   1.068  1.00  0.00    -0.272 OA
ATOM      6  H   UNL     1       3.836   2.926   2.831  1.00  0.00     0.163 HD
BRANCH   4   7
ATOM      7  C   UNL     1       0.994   1.132   2.194  1.00  0.00     0.118 C 
BRANCH   7   8
ATOM      8  C   UNL     1       0.660  -0.063   1.254  1.00  0.00     0.035 C 
ATOM      9  C   UNL     1       0.950   0.091  -0.232  1.00  0.00     0.007 C 
ENDBRANCH   7   8
BRANCH   7  10
ATOM     10  C   UNL     1       0.057   2.342   1.832  1.00  0.00     0.035 C 
ATOM     11  C   UNL     1      -1.446   2.104   1.894  1.00  0.00     0.007 C 
ENDBRANCH   7  10
BRANCH   7  12
ATOM     12  N   UNL     1       0.740   0.667   3.586  1.00  0.00    -0.342 N 
ATOM     13  C   UNL     1       1.397  -0.271   4.334  1.00  0.00     0.227 C 
ATOM     14  H   UNL     1      -0.018   1.103   4.038  1.00  0.00     0.164 HD
ATOM     15  O   UNL     1       0.736  -0.839   5.211  1.00  0.00    -0.275 OA
BRANCH  13  16
ATOM     16  C   UNL     1       2.904  -0.502   4.253  1.00  0.00     0.168 C 
BRANCH  16  17
ATOM     17  C   UNL     1       3.444  -1.625   3.369  1.00  0.00     0.103 C 
ATOM     18  C   UNL     1       4.879  -2.015   3.775  1.00  0.00     0.069 C 
ATOM     19  C   UNL     1       2.709  -2.958   3.545  1.00  0.00     0.069 C 
ATOM     20  C   UNL     1       5.091  -3.376   3.121  1.00  0.00     0.007 C 
ATOM     21  C   UNL     1       3.716  -4.044   3.149  1.00  0.00     0.007 C 
BRANCH  17  22
ATOM     22  N   UNL     1       3.464  -1.221   1.964  1.00  0.00    -0.352 N 
ATOM     23  H   UNL     1       3.957  -0.332   1.873  1.00  0.00     0.344 HD
ATOM     24  H   UNL     1       2.507  -1.114   1.628  1.00  0.00     0.344 HD
ATOM     25  H   UNL     1       3.941  -1.933   1.412  1.00  0.00     0.344 HD
ENDBRANCH  17  22
ENDBRANCH  16  17
ENDBRANCH  13  16
ENDBRANCH   7  12
ENDBRANCH   4   7
ENDBRANCH   2   3
ENDBRANCH   1   2
BRANCH   1  26
ATOM     26  C   UNL     1       4.508   2.786   5.543  1.00  0.00     0.002 C 
BRANCH  26  27
ATOM     27  C   UNL     1       5.100   4.171   5.283  1.00  0.00     0.002 C 
BRANCH  27  28
ATOM     28  C   UNL     1       4.514   5.290   6.144  1.00  0.00     0.021 C 
BRANCH  28  29
ATOM     29  C   UNL     1       4.557   5.026   7.643  1.00  0.00     0.116 C 
BRANCH  29  30
ATOM     30  N   UNL     1       5.917   4.973   8.149  1.00  0.00    -0.352 N 
ATOM     31  C   UNL     1       6.481   5.702   9.162  1.00  0.00     0.251 C 
ATOM     32  H   UNL     1       6.512   4.327   7.705  1.00  0.00     0.163 HD
ATOM     33  O   UNL     1       7.699   5.689   9.334  1.00  0.00    -0.269 OA
BRANCH  31  34
ATOM     34  C   UNL     1       5.622   6.529  10.034  1.00  0.00     0.039 A 
ATOM     35  C   UNL     1       6.015   7.837  10.318  1.00  0.00     0.014 A 
ATOM     36  C   UNL     1       4.430   6.019  10.560  1.00  0.00     0.014 A 
ATOM     37  C   UNL     1       5.187   8.652  11.090  1.00  0.00     0.010 A 
ATOM     38  C   UNL     1       3.568   6.858  11.262  1.00  0.00     0.010 A 
ATOM     39  C   UNL     1       3.942   8.180  11.541  1.00  0.00    -0.014 A 
BRANCH  39  40
ATOM     40  C   UNL     1       3.027   9.075  12.294  1.00  0.00     0.031 A 
ATOM     41  C   UNL     1       2.675   8.783  13.726  1.00  0.00     0.074 A 
ATOM     42  C   UNL     1       2.492  10.143  11.672  1.00  0.00     0.049 A 
ATOM     43  N   UNL     1       1.933   9.477  14.553  1.00  0.00    -0.248 NA
ATOM     44  C   UNL     1       3.204   7.536  14.299  1.00  0.00     0.031 C 
ATOM     45  C   UNL     1       2.708  10.496  10.268  1.00  0.00     0.029 A 
ATOM     46  N   UNL     1       1.665  11.132  12.140  1.00  0.00    -0.354 N 
ATOM     47  C   UNL     1       1.900   8.748  15.735  1.00  0.00     0.074 A 
ATOM     48  C   UNL     1       2.646   7.531  15.500  1.00  0.00     0.031 C 
ATOM     49  C   UNL     1       2.074  11.648  10.002  1.00  0.00     0.029 A 
ATOM     50  C   UNL     1       1.378  12.096  11.205  1.00  0.00     0.049 A 
ATOM     51  H   UNL     1       1.312  11.150  13.059  1.00  0.00     0.167 HD
ATOM     52  C   UNL     1       1.320   9.076  16.915  1.00  0.00     0.037 A 
ATOM     53  C   UNL     1       0.645  13.220  11.309  1.00  0.00     0.037 A 
ATOM     54  C   UNL     1       0.592  10.298  17.146  1.00  0.00     0.049 A 
ATOM     55  C   UNL     1       0.012  13.560  12.631  1.00  0.00     0.074 A 
ATOM     56  C   UNL     1       0.034  10.761  18.324  1.00  0.00     0.029 A 
ATOM     57  N   UNL     1       0.309  11.245  16.172  1.00  0.00    -0.354 N 
ATOM     58  N   UNL     1       0.070  12.914  13.770  1.00  0.00    -0.248 NA
ATOM     59  C   UNL     1      -0.782  14.795  12.680  1.00  0.00     0.031 C 
ATOM     60  C   UNL     1      -0.640  11.957  18.049  1.00  0.00     0.029 A 
ATOM     61  C   UNL     1      -0.449  12.272  16.714  1.00  0.00     0.049 A 
ATOM     62  H   UNL     1       0.602  11.195  15.233  1.00  0.00     0.167 HD
ATOM     63  C   UNL     1      -0.657  13.673  14.677  1.00  0.00     0.074 A 
ATOM     64  C   UNL     1      -1.123  14.842  13.959  1.00  0.00     0.031 C 
ATOM     65  C   UNL     1      -0.918  13.424  15.985  1.00  0.00     0.037 A 
BRANCH  52  66
ATOM     66  C   UNL     1       1.442   8.092  18.045  1.00  0.00     0.064 A 
ATOM     67  C   UNL     1       2.673   7.821  18.663  1.00  0.00     0.173 A 
ATOM     68  C   UNL     1       0.307   7.426  18.532  1.00  0.00     0.173 A 
ATOM     69  F   UNL     1       3.793   8.422  18.232  1.00  0.00    -0.203 F 
ATOM     70  C   UNL     1       2.769   6.893  19.698  1.00  0.00     0.198 A 
ATOM     71  C   UNL     1       0.401   6.525  19.590  1.00  0.00     0.198 A 
ATOM     72  F   UNL     1      -0.897   7.650  17.984  1.00  0.00    -0.203 F 
ATOM     73  F   UNL     1       3.965   6.607  20.230  1.00  0.00    -0.200 F 
ATOM     74  C   UNL     1       1.633   6.251  20.165  1.00  0.00     0.200 A 
ATOM     75  F   UNL     1      -0.701   5.917  20.050  1.00  0.00    -0.200 F 
ATOM     76  F   UNL     1       1.726   5.362  21.163  1.00  0.00    -0.200 F 
ENDBRANCH  52  66
BRANCH  53  77
ATOM     77  C   UNL     1       0.510  14.129  10.142  1.00  0.00     0.064 A 
ATOM     78  C   UNL     1       1.113  15.395  10.145  1.00  0.00     0.173 A 
ATOM     79  C   UNL     1      -0.218  13.757   9.003  1.00  0.00     0.173 A 
ATOM     80  F   UNL     1       1.803  15.805  11.219  1.00  0.00    -0.203 F 
ATOM     81  C   UNL     1       0.976  16.261   9.062  1.00  0.00     0.198 A 
ATOM     82  C   UNL     1      -0.329  14.611   7.908  1.00  0.00     0.198 A 
ATOM     83  F   UNL     1      -0.809  12.554   8.947  1.00  0.00    -0.203 F 
ATOM     84  F   UNL     1       1.524  17.483   9.110  1.00  0.00    -0.200 F 
ATOM     85  C   UNL     1       0.260  15.866   7.942  1.00  0.00     0.200 A 
ATOM     86  F   UNL     1      -1.007  14.219   6.821  1.00  0.00    -0.200 F 
ATOM     87  F   UNL     1       0.134  16.696   6.897  1.00  0.00    -0.200 F 
ENDBRANCH  53  77
BRANCH  65  88
ATOM     88  C   UNL     1      -1.731  14.450  16.724  1.00  0.00     0.064 A 
ATOM     89  C   UNL     1      -3.089  14.660  16.439  1.00  0.00     0.173 A 
ATOM     90  C   UNL     1      -1.144  15.234  17.729  1.00  0.00     0.173 A 
ATOM     91  F   UNL     1      -3.696  13.948  15.477  1.00  0.00    -0.203 F 
ATOM     92  C   UNL     1      -3.817  15.645  17.102  1.00  0.00     0.198 A 
ATOM     93  C   UNL     1      -1.885  16.192  18.416  1.00  0.00     0.198 A 
ATOM     94  F   UNL     1       0.148  15.070  18.048  1.00  0.00    -0.203 F 
ATOM     95  F   UNL     1      -5.093  15.875  16.763  1.00  0.00    -0.200 F 
ATOM     96  C   UNL     1      -3.216  16.407  18.093  1.00  0.00     0.200 A 
ATOM     97  F   UNL     1      -1.306  16.916  19.384  1.00  0.00    -0.200 F 
ATOM     98  F   UNL     1      -3.916  17.357  18.727  1.00  0.00    -0.200 F 
ENDBRANCH  65  88
ENDBRANCH  39  40
ENDBRANCH  31  34
ENDBRANCH  29  30
ENDBRANCH  28  29
ENDBRANCH  27  28
ENDBRANCH  26  27
ENDBRANCH   1  26
TORSDOF 19
