REMARK SMILES Cc1nn(-c2ccc(C(=O)NCCCCCCNC(=O)c3ccc(-c4c5nc(c(-c6c(F)c(F)c(F)c(F)c6F)c6ccc([nH]6)c(-c6c(F)c(F)c(F)c(F)c6F)c6nc(c(-c7c(F)c(F)c(F)c(F)c7F)c7ccc4[nH]7)C=C6)C=C5)cc3)cc2)c2c1[C@@H](c1ccc[nH]c1=O)SCC(O)=N2
REMARK SMILES IDX 13 1 12 2 11 3 9 4 10 5 8 7 5 8 6 9 85 10 7 11 84 12 4 13
REMARK SMILES IDX 1 14 2 15 3 16 87 17 86 18 88 19 89 20 90 21 94 22 91 23
REMARK SMILES IDX 93 24 95 25 92 26 96 28 97 29 100 31 98 32 99 34 14 36 15 37
REMARK SMILES IDX 16 38 17 39 18 40 19 41 20 43 21 44 22 45 83 46 23 47 82 48
REMARK SMILES IDX 24 49 25 50 26 51 76 52 27 53 81 54 75 55 77 56 28 57 80 58
REMARK SMILES IDX 74 59 73 60 29 62 61 63 41 64 60 65 42 66 45 67 59 68 78 69
REMARK SMILES IDX 43 70 44 71 58 73 79 74 46 75 30 76 31 77 39 78 32 79 33 80
REMARK SMILES IDX 37 81 40 82 34 83 35 84 38 85 36 86 62 87 63 88 71 89 64 90
REMARK SMILES IDX 65 91 69 92 72 93 66 94 67 95 70 96 68 97 47 98 48 99 56 100
REMARK SMILES IDX 49 101 50 102 54 103 57 104 51 105 52 106 55 107 53 108
REMARK H PARENT 11 6 93 27 99 35 18 42 77 61 45 72
REMARK Flexibility Score: 90.00
ROOT
ATOM      1  C   UNL     1       1.750  -5.776   8.633  1.00  0.00     0.021 C 
ENDROOT
BRANCH   1   2
ATOM      2  C   UNL     1       0.503  -6.074   7.798  1.00  0.00     0.116 C 
BRANCH   2   3
ATOM      3  N   UNL     1      -0.639  -5.388   8.360  1.00  0.00    -0.352 N 
ATOM      4  C   UNL     1      -1.310  -4.254   7.993  1.00  0.00     0.251 C 
ATOM      5  O   UNL     1      -2.258  -3.908   8.700  1.00  0.00    -0.269 OA
ATOM      6  H   UNL     1      -1.006  -5.822   9.164  1.00  0.00     0.163 HD
BRANCH   4   7
ATOM      7  C   UNL     1      -0.984  -3.463   6.774  1.00  0.00     0.039 A 
ATOM      8  C   UNL     1      -0.530  -1.861   4.533  1.00  0.00     0.067 A 
ATOM      9  C   UNL     1      -1.775  -1.823   5.168  1.00  0.00     0.029 A 
ATOM     10  C   UNL     1       0.479  -2.707   4.982  1.00  0.00     0.029 A 
ATOM     11  C   UNL     1      -2.007  -2.647   6.266  1.00  0.00     0.016 A 
ATOM     12  C   UNL     1       0.269  -3.441   6.148  1.00  0.00     0.016 A 
BRANCH   8  13
ATOM     13  N   UNL     1      -0.188  -0.886   3.572  1.00  0.00    -0.215 N 
ATOM     14  C   UNL     1       1.491  -0.082   0.579  1.00  0.00     0.069 C 
ATOM     15  C   UNL     1       0.732  -0.045   1.860  1.00  0.00     0.067 A 
ATOM     16  N   UNL     1       0.522  -1.209   2.476  1.00  0.00    -0.171 NA
ATOM     17  C   UNL     1       0.190   1.073   2.593  1.00  0.00     0.038 A 
ATOM     18  C   UNL     1      -0.324   0.488   3.747  1.00  0.00     0.164 A 
BRANCH  17  19
ATOM     19  C   UNL     1       0.317   2.534   2.196  1.00  0.00     0.118 C 
BRANCH  19  20
ATOM     20  C   UNL     1      -0.177   2.833   0.792  1.00  0.00     0.035 A 
ATOM     21  C   UNL     1      -1.050   2.100   0.069  1.00  0.00     0.012 A 
ATOM     22  C   UNL     1       0.466   4.014   0.118  1.00  0.00     0.252 A 
ATOM     23  C   UNL     1      -1.326   2.394  -1.317  1.00  0.00     0.018 A 
ATOM     24  N   UNL     1       0.100   4.246  -1.186  1.00  0.00    -0.329 N 
ATOM     25  O   UNL     1       1.291   4.728   0.677  1.00  0.00    -0.269 OA
ATOM     26  C   UNL     1      -0.754   3.452  -1.899  1.00  0.00     0.086 A 
ATOM     27  H   UNL     1       0.477   5.037  -1.636  1.00  0.00     0.169 HD
ENDBRANCH  19  20
BRANCH  19  28
ATOM     28  S   UNL     1      -0.432   3.785   3.325  1.00  0.00    -0.139 SA
BRANCH  28  29
ATOM     29  C   UNL     1      -1.882   2.898   3.922  1.00  0.00     0.167 CG0
ATOM     30  G   UNL     1      -1.434   2.023   5.052  1.00  0.00     0.000 G0
ENDBRANCH  28  29
ENDBRANCH  19  28
ENDBRANCH  17  19
BRANCH  18  31
ATOM     31  N   UNL     1      -0.744   0.945   4.957  1.00  0.00    -0.197 NA
ATOM     32  C   UNL     1      -1.434   2.023   5.052  1.00  0.00     0.197 CG0
ATOM     33  G   UNL     1      -1.882   2.898   3.922  1.00  0.00     0.000 G0
BRANCH  32  34
ATOM     34  O   UNL     1      -1.774   2.430   6.290  1.00  0.00    -0.496 OA
ATOM     35  H   UNL     1      -2.277   3.212   6.404  1.00  0.00     0.295 HD
ENDBRANCH  32  34
ENDBRANCH  18  31
ENDBRANCH   8  13
ENDBRANCH   4   7
ENDBRANCH   2   3
ENDBRANCH   1   2
BRANCH   1  36
ATOM     36  C   UNL     1       1.842  -6.653   9.888  1.00  0.00     0.002 C 
BRANCH  36  37
ATOM     37  C   UNL     1       1.834  -8.167   9.621  1.00  0.00     0.002 C 
BRANCH  37  38
ATOM     38  C   UNL     1       2.825  -8.659   8.556  1.00  0.00     0.021 C 
BRANCH  38  39
ATOM     39  C   UNL     1       4.279  -8.504   8.973  1.00  0.00     0.116 C 
BRANCH  39  40
ATOM     40  N   UNL     1       4.607  -9.375  10.097  1.00  0.00    -0.352 N 
ATOM     41  C   UNL     1       5.771  -9.442  10.830  1.00  0.00     0.251 C 
ATOM     42  H   UNL     1       3.898 -10.001  10.369  1.00  0.00     0.163 HD
ATOM     43  O   UNL     1       6.045 -10.439  11.477  1.00  0.00    -0.269 OA
BRANCH  41  44
ATOM     44  C   UNL     1       6.692  -8.293  10.810  1.00  0.00     0.039 A 
ATOM     45  C   UNL     1       8.070  -8.502  10.739  1.00  0.00     0.014 A 
ATOM     46  C   UNL     1       6.169  -7.001  10.852  1.00  0.00     0.014 A 
ATOM     47  C   UNL     1       8.910  -7.399  10.627  1.00  0.00     0.010 A 
ATOM     48  C   UNL     1       6.986  -5.920  10.609  1.00  0.00     0.010 A 
ATOM     49  C   UNL     1       8.361  -6.106  10.530  1.00  0.00    -0.014 A 
BRANCH  49  50
ATOM     50  C   UNL     1       9.233  -4.979  10.199  1.00  0.00     0.031 A 
ATOM     51  C   UNL     1      10.115  -5.220   9.020  1.00  0.00     0.074 A 
ATOM     52  C   UNL     1       9.153  -3.753  10.761  1.00  0.00     0.049 A 
ATOM     53  N   UNL     1      11.405  -5.280   8.999  1.00  0.00    -0.248 NA
ATOM     54  C   UNL     1       9.480  -5.562   7.735  1.00  0.00     0.031 C 
ATOM     55  C   UNL     1       8.151  -3.241  11.701  1.00  0.00     0.029 A 
ATOM     56  N   UNL     1       9.928  -2.655  10.528  1.00  0.00    -0.354 N 
ATOM     57  C   UNL     1      11.759  -5.483   7.668  1.00  0.00     0.074 A 
ATOM     58  C   UNL     1      10.544  -5.803   6.965  1.00  0.00     0.031 C 
ATOM     59  C   UNL     1       8.242  -1.895  11.775  1.00  0.00     0.029 A 
ATOM     60  C   UNL     1       9.412  -1.466  11.033  1.00  0.00     0.049 A 
ATOM     61  H   UNL     1      10.783  -2.700  10.042  1.00  0.00     0.167 HD
ATOM     62  C   UNL     1      12.993  -5.133   7.211  1.00  0.00     0.037 A 
ATOM     63  C   UNL     1       9.903  -0.216  10.837  1.00  0.00     0.037 A 
ATOM     64  C   UNL     1      13.938  -5.018   8.293  1.00  0.00     0.049 A 
ATOM     65  C   UNL     1      11.316  -0.361  10.415  1.00  0.00     0.074 A 
ATOM     66  C   UNL     1      14.401  -5.881   9.268  1.00  0.00     0.029 A 
ATOM     67  N   UNL     1      14.275  -3.762   8.729  1.00  0.00    -0.354 N 
ATOM     68  N   UNL     1      12.271  -0.787  11.191  1.00  0.00    -0.248 NA
ATOM     69  C   UNL     1      11.587  -0.428   8.989  1.00  0.00     0.031 C 
ATOM     70  C   UNL     1      14.518  -5.080  10.444  1.00  0.00     0.029 A 
ATOM     71  C   UNL     1      14.193  -3.768  10.098  1.00  0.00     0.049 A 
ATOM     72  H   UNL     1      14.529  -2.997   8.163  1.00  0.00     0.167 HD
ATOM     73  C   UNL     1      13.056  -1.579  10.369  1.00  0.00     0.074 A 
ATOM     74  C   UNL     1      12.647  -1.239   9.009  1.00  0.00     0.031 C 
ATOM     75  C   UNL     1      13.759  -2.633  10.876  1.00  0.00     0.037 A 
BRANCH  62  76
ATOM     76  C   UNL     1      13.235  -4.524   5.851  1.00  0.00     0.064 A 
ATOM     77  C   UNL     1      14.557  -4.314   5.410  1.00  0.00     0.173 A 
ATOM     78  C   UNL     1      12.235  -3.868   5.099  1.00  0.00     0.173 A 
ATOM     79  F   UNL     1      15.591  -4.859   6.070  1.00  0.00    -0.203 F 
ATOM     80  C   UNL     1      14.854  -3.461   4.343  1.00  0.00     0.198 A 
ATOM     81  C   UNL     1      12.531  -3.062   4.002  1.00  0.00     0.198 A 
ATOM     82  F   UNL     1      10.947  -3.880   5.462  1.00  0.00    -0.203 F 
ATOM     83  F   UNL     1      16.131  -3.192   4.041  1.00  0.00    -0.200 F 
ATOM     84  C   UNL     1      13.841  -2.834   3.641  1.00  0.00     0.200 A 
ATOM     85  F   UNL     1      11.534  -2.444   3.352  1.00  0.00    -0.200 F 
ATOM     86  F   UNL     1      14.124  -1.972   2.657  1.00  0.00    -0.200 F 
ENDBRANCH  62  76
BRANCH  63  87
ATOM     87  C   UNL     1       9.185   1.075  10.708  1.00  0.00     0.064 A 
ATOM     88  C   UNL     1       9.888   2.292  10.758  1.00  0.00     0.173 A 
ATOM     89  C   UNL     1       7.866   1.134  10.220  1.00  0.00     0.173 A 
ATOM     90  F   UNL     1      11.161   2.320  11.178  1.00  0.00    -0.203 F 
ATOM     91  C   UNL     1       9.325   3.486  10.296  1.00  0.00     0.198 A 
ATOM     92  C   UNL     1       7.303   2.329   9.766  1.00  0.00     0.198 A 
ATOM     93  F   UNL     1       7.136   0.019  10.075  1.00  0.00    -0.203 F 
ATOM     94  F   UNL     1      10.057   4.609  10.283  1.00  0.00    -0.200 F 
ATOM     95  C   UNL     1       8.038   3.500   9.786  1.00  0.00     0.200 A 
ATOM     96  F   UNL     1       6.069   2.324   9.243  1.00  0.00    -0.200 F 
ATOM     97  F   UNL     1       7.525   4.627   9.273  1.00  0.00    -0.200 F 
ENDBRANCH  63  87
BRANCH  75  98
ATOM     98  C   UNL     1      13.902  -2.730  12.372  1.00  0.00     0.064 A 
ATOM     99  C   UNL     1      12.828  -2.857  13.272  1.00  0.00     0.173 A 
ATOM    100  C   UNL     1      15.196  -2.817  12.903  1.00  0.00     0.173 A 
ATOM    101  F   UNL     1      11.560  -2.883  12.840  1.00  0.00    -0.203 F 
ATOM    102  C   UNL     1      13.045  -3.015  14.641  1.00  0.00     0.198 A 
ATOM    103  C   UNL     1      15.410  -3.015  14.264  1.00  0.00     0.198 A 
ATOM    104  F   UNL     1      16.262  -2.752  12.089  1.00  0.00    -0.203 F 
ATOM    105  F   UNL     1      12.004  -3.113  15.481  1.00  0.00    -0.200 F 
ATOM    106  C   UNL     1      14.336  -3.101  15.134  1.00  0.00     0.200 A 
ATOM    107  F   UNL     1      16.661  -3.145  14.728  1.00  0.00    -0.200 F 
ATOM    108  F   UNL     1      14.547  -3.291  16.444  1.00  0.00    -0.200 F 
ENDBRANCH  75  98
ENDBRANCH  49  50
ENDBRANCH  41  44
ENDBRANCH  39  40
ENDBRANCH  38  39
ENDBRANCH  37  38
ENDBRANCH  36  37
ENDBRANCH   1  36
TORSDOF 16
