REMARK SMILES COc1ccc([C@H]2CC(c3ccc(S(C)(=O)=O)cc3)=NN2c2ccc(C(=O)NCCCCCCNC(=O)c3ccc(-c4c5nc(c(-c6c(F)c(F)c(F)c(F)c6F)c6ccc([nH]6)c(-c6c(F)c(F)c(F)c(F)c6F)c6nc(c(-c7c(F)c(F)c(F)c(F)c7F)c7ccc4[nH]7)C=C6)C=C5)cc3)cc2)cc1
REMARK SMILES IDX 31 1 30 2 29 3 28 4 26 5 27 6 25 8 22 9 23 10 102 11 24 12
REMARK SMILES IDX 101 13 21 14 7 15 8 16 9 17 20 18 6 19 3 20 4 21 104 22 5 23
REMARK SMILES IDX 103 24 2 25 1 26 10 27 11 28 19 29 12 30 18 31 13 32 14 33
REMARK SMILES IDX 15 34 16 35 17 36 32 37 33 38 34 39 35 40 36 41 37 43 38 44
REMARK SMILES IDX 39 45 100 46 40 47 99 48 41 49 42 50 43 51 93 52 44 53 98 54
REMARK SMILES IDX 92 55 94 56 45 57 97 58 91 59 90 60 46 62 78 63 58 64 77 65
REMARK SMILES IDX 59 66 62 67 76 68 95 69 60 70 61 71 75 73 96 74 63 75 47 76
REMARK SMILES IDX 48 77 56 78 49 79 50 80 54 81 57 82 51 83 52 84 55 85 53 86
REMARK SMILES IDX 79 87 80 88 88 89 81 90 82 91 86 92 89 93 83 94 84 95 87 96
REMARK SMILES IDX 85 97 64 98 65 99 73 100 66 101 67 102 71 103 74 104 68 105
REMARK SMILES IDX 69 106 72 107 70 108
REMARK H PARENT 28 7 35 42 94 61 62 72
REMARK Flexibility Score: inf
ROOT
ATOM      1  C   UNL     1      -0.018 -12.713  -2.372  1.00  0.00     0.002 C 
ENDROOT
BRANCH   1   2
ATOM      2  C   UNL     1       0.154 -11.328  -3.012  1.00  0.00     0.021 C 
BRANCH   2   3
ATOM      3  C   UNL     1       0.381 -10.214  -1.987  1.00  0.00     0.116 C 
BRANCH   3   4
ATOM      4  N   UNL     1       1.744 -10.265  -1.500  1.00  0.00    -0.352 N 
ATOM      5  C   UNL     1       2.865  -9.532  -1.786  1.00  0.00     0.251 C 
ATOM      6  O   UNL     1       3.907  -9.853  -1.212  1.00  0.00    -0.269 OA
ATOM      7  H   UNL     1       1.896 -10.969  -0.828  1.00  0.00     0.163 HD
BRANCH   5   8
ATOM      8  C   UNL     1       2.872  -8.349  -2.692  1.00  0.00     0.039 A 
ATOM      9  C   UNL     1       2.997  -5.976  -4.235  1.00  0.00     0.060 A 
ATOM     10  C   UNL     1       3.923  -6.219  -3.216  1.00  0.00     0.029 A 
ATOM     11  C   UNL     1       2.049  -6.964  -4.511  1.00  0.00     0.029 A 
ATOM     12  C   UNL     1       3.850  -7.377  -2.439  1.00  0.00     0.016 A 
ATOM     13  C   UNL     1       2.013  -8.158  -3.776  1.00  0.00     0.016 A 
BRANCH   9  14
ATOM     14  N   UNL     1       3.061  -4.794  -4.950  1.00  0.00    -0.257 N 
ATOM     15  C   UNL     1       1.955  -3.852  -5.108  1.00  0.00     0.144 C 
ATOM     16  C   UNL     1       2.506  -2.854  -6.136  1.00  0.00     0.091 C 
ATOM     17  C   UNL     1       3.816  -3.511  -6.459  1.00  0.00     0.071 C 
ATOM     18  N   UNL     1       4.104  -4.582  -5.792  1.00  0.00    -0.176 NA
BRANCH  15  19
ATOM     19  C   UNL     1       1.588  -3.182  -3.793  1.00  0.00    -0.023 A 
ATOM     20  C   UNL     1       0.881  -1.909  -1.381  1.00  0.00     0.118 A 
ATOM     21  C   UNL     1      -0.081  -2.587  -2.128  1.00  0.00     0.047 A 
ATOM     22  C   UNL     1       2.206  -1.898  -1.811  1.00  0.00     0.047 A 
ATOM     23  C   UNL     1       0.265  -3.211  -3.331  1.00  0.00     0.010 A 
ATOM     24  C   UNL     1       2.555  -2.530  -3.009  1.00  0.00     0.010 A 
BRANCH  20  25
ATOM     25  O   UNL     1       0.441  -1.337  -0.219  1.00  0.00    -0.497 OA
ATOM     26  C   UNL     1       1.043  -0.081   0.084  1.00  0.00     0.278 C 
ENDBRANCH  20  25
ENDBRANCH  15  19
BRANCH  17  27
ATOM     27  C   UNL     1       4.690  -2.977  -7.504  1.00  0.00    -0.002 A 
ATOM     28  C   UNL     1       4.960  -3.773  -8.621  1.00  0.00     0.011 A 
ATOM     29  C   UNL     1       5.259  -1.710  -7.363  1.00  0.00     0.011 A 
ATOM     30  C   UNL     1       5.800  -3.289  -9.623  1.00  0.00     0.021 A 
ATOM     31  C   UNL     1       6.120  -1.234  -8.353  1.00  0.00     0.021 A 
ATOM     32  C   UNL     1       6.388  -2.028  -9.475  1.00  0.00     0.067 A 
BRANCH  32  33
ATOM     33  S   UNL     1       7.473  -1.428 -10.749  1.00  0.00     0.175 S 
ATOM     34  C   UNL     1       8.820  -2.583 -10.751  1.00  0.00     0.163 C 
ATOM     35  O   UNL     1       6.755  -1.556 -12.002  1.00  0.00    -0.224 OA
ATOM     36  O   UNL     1       7.995  -0.146 -10.313  1.00  0.00    -0.224 OA
ENDBRANCH  32  33
ENDBRANCH  17  27
ENDBRANCH   9  14
ENDBRANCH   5   8
ENDBRANCH   3   4
ENDBRANCH   2   3
ENDBRANCH   1   2
BRANCH   1  37
ATOM     37  C   UNL     1      -1.273 -12.872  -1.503  1.00  0.00     0.002 C 
BRANCH  37  38
ATOM     38  C   UNL     1      -2.593 -12.547  -2.207  1.00  0.00     0.021 C 
BRANCH  38  39
ATOM     39  C   UNL     1      -2.893 -13.423  -3.421  1.00  0.00     0.116 C 
BRANCH  39  40
ATOM     40  N   UNL     1      -3.132 -14.807  -3.043  1.00  0.00    -0.352 N 
ATOM     41  C   UNL     1      -4.219 -15.602  -3.309  1.00  0.00     0.251 C 
ATOM     42  H   UNL     1      -2.413 -15.234  -2.524  1.00  0.00     0.163 HD
ATOM     43  O   UNL     1      -4.355 -16.680  -2.740  1.00  0.00    -0.269 OA
BRANCH  41  44
ATOM     44  C   UNL     1      -5.240 -15.149  -4.276  1.00  0.00     0.039 A 
ATOM     45  C   UNL     1      -6.591 -15.253  -3.933  1.00  0.00     0.014 A 
ATOM     46  C   UNL     1      -4.865 -14.635  -5.520  1.00  0.00     0.014 A 
ATOM     47  C   UNL     1      -7.566 -14.783  -4.815  1.00  0.00     0.010 A 
ATOM     48  C   UNL     1      -5.835 -14.116  -6.375  1.00  0.00     0.010 A 
ATOM     49  C   UNL     1      -7.193 -14.182  -6.028  1.00  0.00    -0.014 A 
BRANCH  49  50
ATOM     50  C   UNL     1      -8.207 -13.611  -6.949  1.00  0.00     0.031 A 
ATOM     51  C   UNL     1      -8.427 -14.226  -8.302  1.00  0.00     0.074 A 
ATOM     52  C   UNL     1      -8.878 -12.498  -6.593  1.00  0.00     0.049 A 
ATOM     53  N   UNL     1      -9.180 -13.810  -9.289  1.00  0.00    -0.248 NA
ATOM     54  C   UNL     1      -7.683 -15.462  -8.594  1.00  0.00     0.031 C 
ATOM     55  C   UNL     1      -8.726 -11.790  -5.321  1.00  0.00     0.029 A 
ATOM     56  N   UNL     1      -9.809 -11.757  -7.277  1.00  0.00    -0.354 N 
ATOM     57  C   UNL     1      -8.998 -14.727 -10.315  1.00  0.00     0.074 A 
ATOM     58  C   UNL     1      -8.027 -15.694  -9.852  1.00  0.00     0.031 C 
ATOM     59  C   UNL     1      -9.539 -10.721  -5.314  1.00  0.00     0.029 A 
ATOM     60  C   UNL     1     -10.239 -10.647  -6.592  1.00  0.00     0.049 A 
ATOM     61  H   UNL     1     -10.137 -11.998  -8.174  1.00  0.00     0.167 HD
ATOM     62  C   UNL     1      -9.605 -14.770 -11.525  1.00  0.00     0.037 A 
ATOM     63  C   UNL     1     -11.090  -9.671  -6.962  1.00  0.00     0.037 A 
ATOM     64  C   UNL     1     -10.584 -13.816 -11.977  1.00  0.00     0.049 A 
ATOM     65  C   UNL     1     -11.735  -9.734  -8.320  1.00  0.00     0.074 A 
ATOM     66  C   UNL     1     -11.276 -13.791 -13.175  1.00  0.00     0.029 A 
ATOM     67  N   UNL     1     -11.013 -12.720 -11.244  1.00  0.00    -0.354 N 
ATOM     68  N   UNL     1     -11.586 -10.629  -9.266  1.00  0.00    -0.248 NA
ATOM     69  C   UNL     1     -12.669  -8.652  -8.662  1.00  0.00     0.031 C 
ATOM     70  C   UNL     1     -12.103 -12.663 -13.180  1.00  0.00     0.029 A 
ATOM     71  C   UNL     1     -11.953 -12.006 -11.969  1.00  0.00     0.049 A 
ATOM     72  H   UNL     1     -10.697 -12.485 -10.342  1.00  0.00     0.167 HD
ATOM     73  C   UNL     1     -12.421 -10.233 -10.301  1.00  0.00     0.074 A 
ATOM     74  C   UNL     1     -13.089  -9.026  -9.862  1.00  0.00     0.031 C 
ATOM     75  C   UNL     1     -12.615 -10.814 -11.509  1.00  0.00     0.037 A 
BRANCH  62  76
ATOM     76  C   UNL     1      -9.243 -15.898 -12.444  1.00  0.00     0.064 A 
ATOM     77  C   UNL     1      -9.681 -17.207 -12.197  1.00  0.00     0.173 A 
ATOM     78  C   UNL     1      -8.503 -15.661 -13.612  1.00  0.00     0.173 A 
ATOM     79  F   UNL     1     -10.383 -17.485 -11.088  1.00  0.00    -0.203 F 
ATOM     80  C   UNL     1      -9.378 -18.242 -13.077  1.00  0.00     0.198 A 
ATOM     81  C   UNL     1      -8.222 -16.694 -14.503  1.00  0.00     0.198 A 
ATOM     82  F   UNL     1      -8.065 -14.426 -13.897  1.00  0.00    -0.203 F 
ATOM     83  F   UNL     1      -9.778 -19.491 -12.803  1.00  0.00    -0.200 F 
ATOM     84  C   UNL     1      -8.656 -17.984 -14.232  1.00  0.00     0.200 A 
ATOM     85  F   UNL     1      -7.535 -16.441 -15.625  1.00  0.00    -0.200 F 
ATOM     86  F   UNL     1      -8.375 -18.979 -15.085  1.00  0.00    -0.200 F 
ENDBRANCH  62  76
BRANCH  63  87
ATOM     87  C   UNL     1     -11.385  -8.546  -6.036  1.00  0.00     0.064 A 
ATOM     88  C   UNL     1     -12.650  -8.409  -5.449  1.00  0.00     0.173 A 
ATOM     89  C   UNL     1     -10.420  -7.573  -5.742  1.00  0.00     0.173 A 
ATOM     90  F   UNL     1     -13.613  -9.303  -5.718  1.00  0.00    -0.203 F 
ATOM     91  C   UNL     1     -12.948  -7.327  -4.624  1.00  0.00     0.198 A 
ATOM     92  C   UNL     1     -10.709  -6.506  -4.895  1.00  0.00     0.198 A 
ATOM     93  F   UNL     1      -9.192  -7.660  -6.276  1.00  0.00    -0.203 F 
ATOM     94  F   UNL     1     -14.181  -7.191  -4.120  1.00  0.00    -0.200 F 
ATOM     95  C   UNL     1     -11.976  -6.378  -4.345  1.00  0.00     0.200 A 
ATOM     96  F   UNL     1      -9.764  -5.598  -4.618  1.00  0.00    -0.200 F 
ATOM     97  F   UNL     1     -12.263  -5.334  -3.555  1.00  0.00    -0.200 F 
ENDBRANCH  63  87
BRANCH  75  98
ATOM     98  C   UNL     1     -13.608 -10.169 -12.429  1.00  0.00     0.064 A 
ATOM     99  C   UNL     1     -13.315  -8.973 -13.100  1.00  0.00     0.173 A 
ATOM    100  C   UNL     1     -14.848 -10.777 -12.675  1.00  0.00     0.173 A 
ATOM    101  F   UNL     1     -12.148  -8.347 -12.884  1.00  0.00    -0.203 F 
ATOM    102  C   UNL     1     -14.237  -8.398 -13.970  1.00  0.00     0.198 A 
ATOM    103  C   UNL     1     -15.757 -10.213 -13.564  1.00  0.00     0.198 A 
ATOM    104  F   UNL     1     -15.172 -11.925 -12.060  1.00  0.00    -0.203 F 
ATOM    105  F   UNL     1     -13.953  -7.234 -14.570  1.00  0.00    -0.200 F 
ATOM    106  C   UNL     1     -15.454  -9.021 -14.207  1.00  0.00     0.200 A 
ATOM    107  F   UNL     1     -16.928 -10.821 -13.800  1.00  0.00    -0.200 F 
ATOM    108  F   UNL     1     -16.337  -8.470 -15.050  1.00  0.00    -0.200 F 
ENDBRANCH  75  98
ENDBRANCH  49  50
ENDBRANCH  41  44
ENDBRANCH  39  40
ENDBRANCH  38  39
ENDBRANCH  37  38
ENDBRANCH   1  37
TORSDOF 18
