REMARK SMILES C[C@]1(C(=O)NCCCCCCNC(=O)c2ccc(-c3c4nc(c(-c5c(F)c(F)c(F)c(F)c5F)c5ccc([nH]5)c(-c5c(F)c(F)c(F)c(F)c5F)c5nc(c(-c6c(F)c(F)c(F)c(F)c6F)c6ccc3[nH]6)C=C5)C=C4)cc2)CCN(c2ccc([N+](=O)[O-])c(N)n2)C1
REMARK SMILES IDX 8 1 7 2 6 3 5 4 3 5 4 6 2 8 1 9 78 10 91 11 79 12 80 13
REMARK SMILES IDX 81 14 82 15 90 16 83 17 88 18 84 19 89 20 85 23 86 24 87 25
REMARK SMILES IDX 9 26 10 27 11 28 12 29 13 30 14 32 15 33 16 34 77 35 17 36
REMARK SMILES IDX 76 37 18 38 19 39 20 40 70 41 21 42 75 43 69 44 71 45 22 46
REMARK SMILES IDX 74 47 68 48 67 49 23 51 55 52 35 53 54 54 36 55 39 56 53 57
REMARK SMILES IDX 72 58 37 59 38 60 52 62 73 63 40 64 24 65 25 66 33 67 26 68
REMARK SMILES IDX 27 69 31 70 34 71 28 72 29 73 32 74 30 75 56 76 57 77 65 78
REMARK SMILES IDX 58 79 59 80 63 81 66 82 60 83 61 84 64 85 62 86 41 87 42 88
REMARK SMILES IDX 50 89 43 90 44 91 48 92 51 93 45 94 46 95 49 96 47 97
REMARK H PARENT 5 7 89 21 89 22 12 31 71 50 39 61
REMARK Flexibility Score: inf
ROOT
ATOM      1  C   UNL     1       1.709  -3.256   2.674  1.00  0.00     0.002 C 
ENDROOT
BRANCH   1   2
ATOM      2  C   UNL     1       0.922  -1.977   2.962  1.00  0.00     0.021 C 
BRANCH   2   3
ATOM      3  C   UNL     1       1.531  -0.694   2.409  1.00  0.00     0.116 C 
BRANCH   3   4
ATOM      4  N   UNL     1       1.542  -0.648   0.960  1.00  0.00    -0.356 N 
ATOM      5  C   UNL     1       1.162   0.345   0.103  1.00  0.00     0.227 C 
ATOM      6  O   UNL     1       1.286   0.125  -1.103  1.00  0.00    -0.274 OA
ATOM      7  H   UNL     1       1.877  -1.465   0.523  1.00  0.00     0.163 HD
BRANCH   5   8
ATOM      8  C   UNL     1       0.547   1.645   0.627  1.00  0.00     0.066 C 
ATOM      9  C   UNL     1      -0.869   1.373   1.165  1.00  0.00     0.024 C 
ATOM     10  C   UNL     1       1.452   2.367   1.644  1.00  0.00     0.040 C 
ATOM     11  C   UNL     1       0.507   2.698  -0.512  1.00  0.00     0.134 C 
ATOM     12  C   UNL     1       1.091   3.843   1.529  1.00  0.00     0.119 C 
ATOM     13  N   UNL     1       0.552   3.980   0.189  1.00  0.00    -0.355 N 
BRANCH  13  14
ATOM     14  C   UNL     1       0.770   5.146  -0.506  1.00  0.00     0.131 A 
ATOM     15  C   UNL     1      -0.152   5.584  -1.448  1.00  0.00     0.054 A 
ATOM     16  N   UNL     1       1.872   5.876  -0.218  1.00  0.00    -0.207 NA
ATOM     17  C   UNL     1       0.044   6.812  -2.076  1.00  0.00     0.093 A 
ATOM     18  C   UNL     1       2.101   7.046  -0.852  1.00  0.00     0.204 A 
ATOM     19  C   UNL     1       1.188   7.554  -1.768  1.00  0.00     0.311 A 
BRANCH  18  20
ATOM     20  N   UNL     1       3.246   7.688  -0.429  1.00  0.00    -0.378 N 
ATOM     21  H   UNL     1       3.504   8.550  -0.829  1.00  0.00     0.158 HD
ATOM     22  H   UNL     1       3.806   7.284   0.273  1.00  0.00     0.158 HD
ENDBRANCH  18  20
BRANCH  19  23
ATOM     23  N   UNL     1       1.399   8.837  -2.423  1.00  0.00     0.066 N 
ATOM     24  O   UNL     1       0.408   9.391  -2.923  1.00  0.00    -0.258 OA
ATOM     25  O   UNL     1       2.552   9.293  -2.479  1.00  0.00    -0.258 OA
ENDBRANCH  19  23
ENDBRANCH  13  14
ENDBRANCH   5   8
ENDBRANCH   3   4
ENDBRANCH   2   3
ENDBRANCH   1   2
BRANCH   1  26
ATOM     26  C   UNL     1       3.173  -3.252   3.122  1.00  0.00     0.002 C 
BRANCH  26  27
ATOM     27  C   UNL     1       3.421  -2.871   4.583  1.00  0.00     0.021 C 
BRANCH  27  28
ATOM     28  C   UNL     1       2.657  -3.695   5.613  1.00  0.00     0.116 C 
BRANCH  28  29
ATOM     29  N   UNL     1       3.002  -5.106   5.568  1.00  0.00    -0.352 N 
ATOM     30  C   UNL     1       3.424  -5.935   6.575  1.00  0.00     0.251 C 
ATOM     31  H   UNL     1       2.921  -5.530   4.683  1.00  0.00     0.163 HD
ATOM     32  O   UNL     1       3.829  -7.066   6.313  1.00  0.00    -0.269 OA
BRANCH  30  33
ATOM     33  C   UNL     1       3.420  -5.467   7.978  1.00  0.00     0.039 A 
ATOM     34  C   UNL     1       4.529  -5.742   8.782  1.00  0.00     0.014 A 
ATOM     35  C   UNL     1       2.327  -4.773   8.506  1.00  0.00     0.014 A 
ATOM     36  C   UNL     1       4.570  -5.266  10.095  1.00  0.00     0.010 A 
ATOM     37  C   UNL     1       2.401  -4.236   9.790  1.00  0.00     0.010 A 
ATOM     38  C   UNL     1       3.522  -4.478  10.598  1.00  0.00    -0.014 A 
BRANCH  38  39
ATOM     39  C   UNL     1       3.586  -3.898  11.965  1.00  0.00     0.031 A 
ATOM     40  C   UNL     1       2.586  -4.309  13.011  1.00  0.00     0.074 A 
ATOM     41  C   UNL     1       4.514  -2.962  12.250  1.00  0.00     0.049 A 
ATOM     42  N   UNL     1       2.440  -3.868  14.236  1.00  0.00    -0.248 NA
ATOM     43  C   UNL     1       1.605  -5.334  12.623  1.00  0.00     0.031 C 
ATOM     44  C   UNL     1       5.515  -2.452  11.311  1.00  0.00     0.029 A 
ATOM     45  N   UNL     1       4.761  -2.267  13.408  1.00  0.00    -0.354 N 
ATOM     46  C   UNL     1       1.353  -4.556  14.759  1.00  0.00     0.074 A 
ATOM     47  C   UNL     1       0.838  -5.399  13.702  1.00  0.00     0.031 C 
ATOM     48  C   UNL     1       6.281  -1.544  11.936  1.00  0.00     0.029 A 
ATOM     49  C   UNL     1       5.801  -1.374  13.304  1.00  0.00     0.049 A 
ATOM     50  H   UNL     1       4.242  -2.395  14.234  1.00  0.00     0.167 HD
ATOM     51  C   UNL     1       0.846  -4.508  16.014  1.00  0.00     0.037 A 
ATOM     52  C   UNL     1       6.302  -0.509  14.206  1.00  0.00     0.037 A 
ATOM     53  C   UNL     1       1.370  -3.681  17.069  1.00  0.00     0.049 A 
ATOM     54  C   UNL     1       5.696  -0.455  15.584  1.00  0.00     0.074 A 
ATOM     55  C   UNL     1       0.953  -3.594  18.386  1.00  0.00     0.029 A 
ATOM     56  N   UNL     1       2.428  -2.794  16.927  1.00  0.00    -0.354 N 
ATOM     57  N   UNL     1       4.709  -1.157  16.085  1.00  0.00    -0.248 NA
ATOM     58  C   UNL     1       6.281   0.511  16.526  1.00  0.00     0.031 C 
ATOM     59  C   UNL     1       1.722  -2.618  19.026  1.00  0.00     0.029 A 
ATOM     60  C   UNL     1       2.660  -2.139  18.126  1.00  0.00     0.049 A 
ATOM     61  H   UNL     1       2.937  -2.651  16.097  1.00  0.00     0.167 HD
ATOM     62  C   UNL     1       4.577  -0.745  17.404  1.00  0.00     0.074 A 
ATOM     63  C   UNL     1       5.598   0.256  17.632  1.00  0.00     0.031 C 
ATOM     64  C   UNL     1       3.690  -1.156  18.343  1.00  0.00     0.037 A 
BRANCH  51  65
ATOM     65  C   UNL     1      -0.335  -5.383  16.324  1.00  0.00     0.064 A 
ATOM     66  C   UNL     1      -0.215  -6.779  16.400  1.00  0.00     0.173 A 
ATOM     67  C   UNL     1      -1.588  -4.818  16.606  1.00  0.00     0.173 A 
ATOM     68  F   UNL     1       0.959  -7.372  16.130  1.00  0.00    -0.203 F 
ATOM     69  C   UNL     1      -1.309  -7.578  16.722  1.00  0.00     0.198 A 
ATOM     70  C   UNL     1      -2.672  -5.617  16.959  1.00  0.00     0.198 A 
ATOM     71  F   UNL     1      -1.758  -3.488  16.555  1.00  0.00    -0.203 F 
ATOM     72  F   UNL     1      -1.180  -8.912  16.745  1.00  0.00    -0.200 F 
ATOM     73  C   UNL     1      -2.534  -6.996  17.011  1.00  0.00     0.200 A 
ATOM     74  F   UNL     1      -3.852  -5.052  17.253  1.00  0.00    -0.200 F 
ATOM     75  F   UNL     1      -3.583  -7.765  17.334  1.00  0.00    -0.200 F 
ENDBRANCH  51  65
BRANCH  52  76
ATOM     76  C   UNL     1       7.445   0.373  13.847  1.00  0.00     0.064 A 
ATOM     77  C   UNL     1       8.695   0.221  14.465  1.00  0.00     0.173 A 
ATOM     78  C   UNL     1       7.304   1.407  12.910  1.00  0.00     0.173 A 
ATOM     79  F   UNL     1       8.875  -0.739  15.383  1.00  0.00    -0.203 F 
ATOM     80  C   UNL     1       9.748   1.089  14.184  1.00  0.00     0.198 A 
ATOM     81  C   UNL     1       8.368   2.253  12.605  1.00  0.00     0.198 A 
ATOM     82  F   UNL     1       6.132   1.595  12.286  1.00  0.00    -0.203 F 
ATOM     83  F   UNL     1      10.912   0.959  14.836  1.00  0.00    -0.200 F 
ATOM     84  C   UNL     1       9.586   2.102  13.251  1.00  0.00     0.200 A 
ATOM     85  F   UNL     1       8.211   3.220  11.691  1.00  0.00    -0.200 F 
ATOM     86  F   UNL     1      10.597   2.939  12.984  1.00  0.00    -0.200 F 
ENDBRANCH  52  76
BRANCH  64  87
ATOM     87  C   UNL     1       3.810  -0.558  19.716  1.00  0.00     0.064 A 
ATOM     88  C   UNL     1       3.478   0.780  19.972  1.00  0.00     0.173 A 
ATOM     89  C   UNL     1       4.231  -1.349  20.797  1.00  0.00     0.173 A 
ATOM     90  F   UNL     1       3.085   1.581  18.970  1.00  0.00    -0.203 F 
ATOM     91  C   UNL     1       3.590   1.313  21.253  1.00  0.00     0.198 A 
ATOM     92  C   UNL     1       4.308  -0.822  22.083  1.00  0.00     0.198 A 
ATOM     93  F   UNL     1       4.553  -2.637  20.609  1.00  0.00    -0.203 F 
ATOM     94  F   UNL     1       3.319   2.608  21.463  1.00  0.00    -0.200 F 
ATOM     95  C   UNL     1       3.997   0.510  22.308  1.00  0.00     0.200 A 
ATOM     96  F   UNL     1       4.686  -1.603  23.104  1.00  0.00    -0.200 F 
ATOM     97  F   UNL     1       4.097   1.023  23.542  1.00  0.00    -0.200 F 
ENDBRANCH  64  87
ENDBRANCH  38  39
ENDBRANCH  30  33
ENDBRANCH  28  29
ENDBRANCH  27  28
ENDBRANCH  26  27
ENDBRANCH   1  26
TORSDOF 16
