REMARK SMILES CSCC[C@H](NC(=O)[C@H]1CC[NH2+][C@H]1C)C(=O)NCCCCCCNC(=O)c1ccc(-c2c3nc(c(-c4c(F)c(F)c(F)c(F)c4F)c4ccc([nH]4)c(-c4c(F)c(F)c(F)c(F)c4F)c4nc(c(-c5c(F)c(F)c(F)c(F)c5F)c5ccc2[nH]5)C=C4)C=C3)cc1
REMARK SMILES IDX 20 1 19 2 18 3 17 4 15 5 16 6 5 8 4 9 3 10 2 11 1 12 6 13
REMARK SMILES IDX 7 14 8 16 9 17 10 18 13 19 11 20 12 21 14 22 21 25 22 26
REMARK SMILES IDX 23 27 24 28 25 29 26 31 27 32 28 33 89 34 29 35 88 36 30 37
REMARK SMILES IDX 31 38 32 39 82 40 33 41 87 42 81 43 83 44 34 45 86 46 80 47
REMARK SMILES IDX 79 48 35 50 67 51 47 52 66 53 48 54 51 55 65 56 84 57 49 58
REMARK SMILES IDX 50 59 64 61 85 62 52 63 36 64 37 65 45 66 38 67 39 68 43 69
REMARK SMILES IDX 46 70 40 71 41 72 44 73 42 74 68 75 69 76 77 77 70 78 71 79
REMARK SMILES IDX 75 80 78 81 72 82 73 83 76 84 74 85 53 86 54 87 62 88 55 89
REMARK SMILES IDX 56 90 60 91 63 92 57 93 58 94 61 95 59 96
REMARK H PARENT 17 7 6 15 12 23 12 24 24 30 83 49 51 60
REMARK Flexibility Score: inf
ROOT
ATOM      1  C   UNL     1       0.455  -6.887   4.210  1.00  0.00     0.002 C 
ENDROOT
BRANCH   1   2
ATOM      2  C   UNL     1       0.749  -5.394   4.401  1.00  0.00     0.021 C 
BRANCH   2   3
ATOM      3  C   UNL     1       1.470  -4.763   3.216  1.00  0.00     0.116 C 
BRANCH   3   4
ATOM      4  N   UNL     1       0.615  -4.816   2.048  1.00  0.00    -0.354 N 
ATOM      5  C   UNL     1       0.204  -3.825   1.218  1.00  0.00     0.242 C 
ATOM      6  O   UNL     1      -0.780  -4.050   0.512  1.00  0.00    -0.273 OA
ATOM      7  H   UNL     1       0.278  -5.712   1.821  1.00  0.00     0.163 HD
BRANCH   5   8
ATOM      8  C   UNL     1       0.909  -2.463   1.202  1.00  0.00     0.172 C 
BRANCH   8   9
ATOM      9  C   UNL     1       2.440  -2.526   1.065  1.00  0.00     0.046 C 
BRANCH   9  10
ATOM     10  C   UNL     1       3.040  -3.631   0.190  1.00  0.00     0.072 C 
BRANCH  10  11
ATOM     11  S   UNL     1       2.798  -3.411  -1.601  1.00  0.00    -0.165 SA
ATOM     12  C   UNL     1       1.177  -4.184  -1.827  1.00  0.00     0.085 C 
ENDBRANCH  10  11
ENDBRANCH   9  10
ENDBRANCH   8   9
BRANCH   8  13
ATOM     13  N   UNL     1       0.467  -1.755   2.409  1.00  0.00    -0.344 N 
ATOM     14  C   UNL     1       0.261  -0.430   2.633  1.00  0.00     0.229 C 
ATOM     15  H   UNL     1       0.291  -2.335   3.185  1.00  0.00     0.164 HD
ATOM     16  O   UNL     1      -0.217  -0.105   3.720  1.00  0.00    -0.275 OA
BRANCH  14  17
ATOM     17  C   UNL     1       0.663   0.579   1.575  1.00  0.00     0.142 C 
ATOM     18  C   UNL     1      -0.151   1.873   1.657  1.00  0.00     0.081 C 
ATOM     19  C   UNL     1       2.131   1.022   1.670  1.00  0.00     0.192 C 
ATOM     20  C   UNL     1       0.861   2.956   1.969  1.00  0.00     0.261 C 
ATOM     21  N   UNL     1       2.116   2.470   1.387  1.00  0.00    -0.343 N 
ATOM     22  C   UNL     1       2.844   0.757   2.997  1.00  0.00     0.076 C 
ATOM     23  H   UNL     1       2.915   2.929   1.822  1.00  0.00     0.346 HD
ATOM     24  H   UNL     1       2.176   2.666   0.387  1.00  0.00     0.346 HD
ENDBRANCH  14  17
ENDBRANCH   8  13
ENDBRANCH   5   8
ENDBRANCH   3   4
ENDBRANCH   2   3
ENDBRANCH   1   2
BRANCH   1  25
ATOM     25  C   UNL     1       1.693  -7.743   3.926  1.00  0.00     0.002 C 
BRANCH  25  26
ATOM     26  C   UNL     1       2.797  -7.617   4.976  1.00  0.00     0.021 C 
BRANCH  26  27
ATOM     27  C   UNL     1       2.326  -7.872   6.401  1.00  0.00     0.116 C 
BRANCH  27  28
ATOM     28  N   UNL     1       1.777  -9.208   6.559  1.00  0.00    -0.352 N 
ATOM     29  C   UNL     1       2.032 -10.129   7.542  1.00  0.00     0.251 C 
ATOM     30  H   UNL     1       1.136  -9.489   5.867  1.00  0.00     0.163 HD
ATOM     31  O   UNL     1       1.641 -11.283   7.430  1.00  0.00    -0.269 OA
BRANCH  29  32
ATOM     32  C   UNL     1       2.803  -9.715   8.731  1.00  0.00     0.039 A 
ATOM     33  C   UNL     1       3.820 -10.550   9.195  1.00  0.00     0.014 A 
ATOM     34  C   UNL     1       2.526  -8.507   9.377  1.00  0.00     0.014 A 
ATOM     35  C   UNL     1       4.584 -10.154  10.291  1.00  0.00     0.010 A 
ATOM     36  C   UNL     1       3.345  -8.074  10.413  1.00  0.00     0.010 A 
ATOM     37  C   UNL     1       4.369  -8.903  10.894  1.00  0.00    -0.014 A 
BRANCH  37  38
ATOM     38  C   UNL     1       5.190  -8.463  12.048  1.00  0.00     0.031 A 
ATOM     39  C   UNL     1       4.544  -8.234  13.387  1.00  0.00     0.074 A 
ATOM     40  C   UNL     1       6.507  -8.237  11.881  1.00  0.00     0.049 A 
ATOM     41  N   UNL     1       5.085  -7.830  14.508  1.00  0.00    -0.248 NA
ATOM     42  C   UNL     1       3.093  -8.462  13.471  1.00  0.00     0.031 C 
ATOM     43  C   UNL     1       7.235  -8.377  10.619  1.00  0.00     0.029 A 
ATOM     44  N   UNL     1       7.467  -7.840  12.777  1.00  0.00    -0.354 N 
ATOM     45  C   UNL     1       4.042  -7.748  15.422  1.00  0.00     0.074 A 
ATOM     46  C   UNL     1       2.828  -8.077  14.710  1.00  0.00     0.031 C 
ATOM     47  C   UNL     1       8.532  -8.103  10.828  1.00  0.00     0.029 A 
ATOM     48  C   UNL     1       8.720  -7.730  12.226  1.00  0.00     0.049 A 
ATOM     49  H   UNL     1       7.276  -7.652  13.724  1.00  0.00     0.167 HD
ATOM     50  C   UNL     1       4.096  -7.453  16.742  1.00  0.00     0.037 A 
ATOM     51  C   UNL     1       9.888  -7.365  12.789  1.00  0.00     0.037 A 
ATOM     52  C   UNL     1       5.312  -7.144  17.449  1.00  0.00     0.049 A 
ATOM     53  C   UNL     1       9.919  -7.031  14.256  1.00  0.00     0.074 A 
ATOM     54  C   UNL     1       5.484  -6.883  18.797  1.00  0.00     0.029 A 
ATOM     55  N   UNL     1       6.565  -7.050  16.860  1.00  0.00    -0.354 N 
ATOM     56  N   UNL     1       8.939  -7.029  15.127  1.00  0.00    -0.248 NA
ATOM     57  C   UNL     1      11.223  -6.659  14.821  1.00  0.00     0.031 C 
ATOM     58  C   UNL     1       6.830  -6.574  19.013  1.00  0.00     0.029 A 
ATOM     59  C   UNL     1       7.511  -6.709  17.814  1.00  0.00     0.049 A 
ATOM     60  H   UNL     1       6.754  -7.203  15.906  1.00  0.00     0.167 HD
ATOM     61  C   UNL     1       9.512  -6.691  16.346  1.00  0.00     0.074 A 
ATOM     62  C   UNL     1      10.928  -6.512  16.104  1.00  0.00     0.031 C 
ATOM     63  C   UNL     1       8.919  -6.543  17.557  1.00  0.00     0.037 A 
BRANCH  50  64
ATOM     64  C   UNL     1       2.803  -7.451  17.508  1.00  0.00     0.064 A 
ATOM     65  C   UNL     1       2.083  -8.633  17.746  1.00  0.00     0.173 A 
ATOM     66  C   UNL     1       2.292  -6.257  18.039  1.00  0.00     0.173 A 
ATOM     67  F   UNL     1       2.520  -9.801  17.252  1.00  0.00    -0.203 F 
ATOM     68  C   UNL     1       0.885  -8.613  18.456  1.00  0.00     0.198 A 
ATOM     69  C   UNL     1       1.113  -6.247  18.779  1.00  0.00     0.198 A 
ATOM     70  F   UNL     1       2.941  -5.098  17.846  1.00  0.00    -0.203 F 
ATOM     71  F   UNL     1       0.188  -9.746  18.620  1.00  0.00    -0.200 F 
ATOM     72  C   UNL     1       0.406  -7.423  18.979  1.00  0.00     0.200 A 
ATOM     73  F   UNL     1       0.658  -5.097  19.296  1.00  0.00    -0.200 F 
ATOM     74  F   UNL     1      -0.743  -7.407  19.669  1.00  0.00    -0.200 F 
ENDBRANCH  50  64
BRANCH  51  75
ATOM     75  C   UNL     1      11.129  -7.324  11.970  1.00  0.00     0.064 A 
ATOM     76  C   UNL     1      12.174  -8.231  12.196  1.00  0.00     0.173 A 
ATOM     77  C   UNL     1      11.301  -6.372  10.954  1.00  0.00     0.173 A 
ATOM     78  F   UNL     1      12.065  -9.149  13.167  1.00  0.00    -0.203 F 
ATOM     79  C   UNL     1      13.354  -8.169  11.458  1.00  0.00     0.198 A 
ATOM     80  C   UNL     1      12.468  -6.332  10.194  1.00  0.00     0.198 A 
ATOM     81  F   UNL     1      10.329  -5.487  10.690  1.00  0.00    -0.203 F 
ATOM     82  F   UNL     1      14.358  -9.012  11.732  1.00  0.00    -0.200 F 
ATOM     83  C   UNL     1      13.498  -7.223  10.454  1.00  0.00     0.200 A 
ATOM     84  F   UNL     1      12.595  -5.429   9.213  1.00  0.00    -0.200 F 
ATOM     85  F   UNL     1      14.632  -7.165   9.743  1.00  0.00    -0.200 F 
ENDBRANCH  51  75
BRANCH  63  86
ATOM     86  C   UNL     1       9.809  -6.214  18.723  1.00  0.00     0.064 A 
ATOM     87  C   UNL     1      10.438  -4.966  18.848  1.00  0.00     0.173 A 
ATOM     88  C   UNL     1      10.009  -7.155  19.746  1.00  0.00     0.173 A 
ATOM     89  F   UNL     1      10.289  -4.036  17.893  1.00  0.00    -0.203 F 
ATOM     90  C   UNL     1      11.263  -4.686  19.934  1.00  0.00     0.198 A 
ATOM     91  C   UNL     1      10.804  -6.857  20.849  1.00  0.00     0.198 A 
ATOM     92  F   UNL     1       9.424  -8.360  19.681  1.00  0.00    -0.203 F 
ATOM     93  F   UNL     1      11.902  -3.510  20.002  1.00  0.00    -0.200 F 
ATOM     94  C   UNL     1      11.439  -5.628  20.937  1.00  0.00     0.200 A 
ATOM     95  F   UNL     1      10.959  -7.763  21.825  1.00  0.00    -0.200 F 
ATOM     96  F   UNL     1      12.229  -5.354  21.984  1.00  0.00    -0.200 F 
ENDBRANCH  63  86
ENDBRANCH  37  38
ENDBRANCH  29  32
ENDBRANCH  27  28
ENDBRANCH  26  27
ENDBRANCH  25  26
ENDBRANCH   1  25
TORSDOF 18
