REMARK SMILES COc1cc(C(C)C)cc([C@H]([NH3+])C(=O)NCCCCCCNC(=O)c2ccc(-c3c4nc(c(-c5c(F)c(F)c(F)c(F)c5F)c5ccc([nH]5)c(-c5c(F)c(F)c(F)c(F)c5F)c5nc(c(-c6c(F)c(F)c(F)c(F)c6F)c6ccc3[nH]6)C=C5)C=C4)cc2)c1O
REMARK SMILES IDX 18 1 17 2 16 3 15 4 13 5 14 6 11 8 10 9 3 10 4 11 88 12 5 13
REMARK SMILES IDX 9 14 2 15 1 16 89 17 6 19 7 20 8 21 12 22 19 26 20 27 21 28
REMARK SMILES IDX 22 29 23 30 24 32 25 33 26 34 87 35 27 36 86 37 28 38 29 39
REMARK SMILES IDX 30 40 80 41 31 42 85 43 79 44 81 45 32 46 84 47 78 48 77 49
REMARK SMILES IDX 33 51 65 52 45 53 64 54 46 55 49 56 63 57 82 58 47 59 48 60
REMARK SMILES IDX 62 62 83 63 50 64 34 65 35 66 43 67 36 68 37 69 41 70 44 71
REMARK SMILES IDX 38 72 39 73 42 74 40 75 66 76 67 77 75 78 68 79 69 80 73 81
REMARK SMILES IDX 76 82 70 83 71 84 74 85 72 86 51 87 52 88 60 89 53 90 54 91
REMARK SMILES IDX 58 92 61 93 55 94 56 95 59 96 57 97
REMARK H PARENT 15 7 89 18 12 23 12 24 12 25 22 31 81 50 49 61
REMARK Flexibility Score: inf
ROOT
ATOM      1  C   UNL     1      -0.412   0.699  -8.369  1.00  0.00     0.002 C 
ENDROOT
BRANCH   1   2
ATOM      2  C   UNL     1      -0.898   0.852  -6.925  1.00  0.00     0.021 C 
BRANCH   2   3
ATOM      3  C   UNL     1      -1.739  -0.318  -6.428  1.00  0.00     0.116 C 
BRANCH   3   4
ATOM      4  N   UNL     1      -0.954  -1.537  -6.333  1.00  0.00    -0.351 N 
ATOM      5  C   UNL     1      -0.875  -2.421  -5.288  1.00  0.00     0.283 C 
ATOM      6  O   UNL     1      -0.187  -3.434  -5.439  1.00  0.00    -0.268 OA
ATOM      7  H   UNL     1      -0.408  -1.757  -7.122  1.00  0.00     0.163 HD
BRANCH   5   8
ATOM      8  C   UNL     1      -1.628  -2.141  -3.958  1.00  0.00     0.306 C 
BRANCH   8   9
ATOM      9  C   UNL     1      -3.149  -2.168  -4.086  1.00  0.00     0.065 A 
ATOM     10  C   UNL     1      -5.382  -1.693  -3.220  1.00  0.00     0.161 A 
ATOM     11  C   UNL     1      -5.964  -2.117  -4.417  1.00  0.00     0.054 A 
ATOM     12  C   UNL     1      -3.992  -1.773  -3.041  1.00  0.00     0.167 A 
ATOM     13  C   UNL     1      -5.164  -2.628  -5.445  1.00  0.00    -0.041 A 
ATOM     14  C   UNL     1      -3.772  -2.654  -5.255  1.00  0.00     0.018 A 
BRANCH  10  15
ATOM     15  O   UNL     1      -6.226  -1.330  -2.202  1.00  0.00    -0.493 OA
ATOM     16  C   UNL     1      -6.050   0.019  -1.760  1.00  0.00     0.278 C 
ENDBRANCH  10  15
BRANCH  12  17
ATOM     17  O   UNL     1      -3.453  -1.537  -1.801  1.00  0.00    -0.504 OA
ATOM     18  H   UNL     1      -4.006  -1.272  -1.093  1.00  0.00     0.293 HD
ENDBRANCH  12  17
BRANCH  13  19
ATOM     19  C   UNL     1      -5.734  -3.176  -6.743  1.00  0.00     0.013 C 
ATOM     20  C   UNL     1      -6.651  -4.375  -6.495  1.00  0.00     0.012 C 
ATOM     21  C   UNL     1      -6.440  -2.097  -7.565  1.00  0.00     0.012 C 
ENDBRANCH  13  19
ENDBRANCH   8   9
BRANCH   8  22
ATOM     22  N   UNL     1      -1.103  -0.864  -3.412  1.00  0.00    -0.343 N 
ATOM     23  H   UNL     1      -1.289  -0.109  -4.072  1.00  0.00     0.345 HD
ATOM     24  H   UNL     1      -0.098  -0.945  -3.262  1.00  0.00     0.345 HD
ATOM     25  H   UNL     1      -1.563  -0.659  -2.524  1.00  0.00     0.345 HD
ENDBRANCH   8  22
ENDBRANCH   5   8
ENDBRANCH   3   4
ENDBRANCH   2   3
ENDBRANCH   1   2
BRANCH   1  26
ATOM     26  C   UNL     1      -1.521   0.518  -9.411  1.00  0.00     0.002 C 
BRANCH  26  27
ATOM     27  C   UNL     1      -2.587   1.616  -9.423  1.00  0.00     0.021 C 
BRANCH  27  28
ATOM     28  C   UNL     1      -2.045   3.031  -9.597  1.00  0.00     0.116 C 
BRANCH  28  29
ATOM     29  N   UNL     1      -1.326   3.196 -10.849  1.00  0.00    -0.352 N 
ATOM     30  C   UNL     1      -1.459   4.165 -11.812  1.00  0.00     0.251 C 
ATOM     31  H   UNL     1      -0.642   2.513 -11.034  1.00  0.00     0.163 HD
ATOM     32  O   UNL     1      -0.885   4.051 -12.888  1.00  0.00    -0.269 OA
BRANCH  30  33
ATOM     33  C   UNL     1      -2.319   5.340 -11.558  1.00  0.00     0.039 A 
ATOM     34  C   UNL     1      -3.192   5.762 -12.564  1.00  0.00     0.014 A 
ATOM     35  C   UNL     1      -2.263   6.028 -10.342  1.00  0.00     0.014 A 
ATOM     36  C   UNL     1      -4.051   6.836 -12.329  1.00  0.00     0.010 A 
ATOM     37  C   UNL     1      -3.169   7.052 -10.083  1.00  0.00     0.010 A 
ATOM     38  C   UNL     1      -4.072   7.467 -11.074  1.00  0.00    -0.014 A 
BRANCH  38  39
ATOM     39  C   UNL     1      -5.042   8.553 -10.781  1.00  0.00     0.031 A 
ATOM     40  C   UNL     1      -4.560   9.946 -10.492  1.00  0.00     0.074 A 
ATOM     41  C   UNL     1      -6.356   8.266 -10.721  1.00  0.00     0.049 A 
ATOM     42  N   UNL     1      -5.251  11.012 -10.173  1.00  0.00    -0.248 NA
ATOM     43  C   UNL     1      -3.107  10.168 -10.544  1.00  0.00     0.031 C 
ATOM     44  C   UNL     1      -6.942   6.942 -10.932  1.00  0.00     0.029 A 
ATOM     45  N   UNL     1      -7.438   9.069 -10.456  1.00  0.00    -0.354 N 
ATOM     46  C   UNL     1      -4.320  12.023  -9.978  1.00  0.00     0.074 A 
ATOM     47  C   UNL     1      -3.011  11.433 -10.160  1.00  0.00     0.031 C 
ATOM     48  C   UNL     1      -8.277   7.027 -10.814  1.00  0.00     0.029 A 
ATOM     49  C   UNL     1      -8.638   8.402 -10.481  1.00  0.00     0.049 A 
ATOM     50  H   UNL     1      -7.361  10.032 -10.267  1.00  0.00     0.167 HD
ATOM     51  C   UNL     1      -4.538  13.330  -9.697  1.00  0.00     0.037 A 
ATOM     52  C   UNL     1      -9.888   8.847 -10.255  1.00  0.00     0.037 A 
ATOM     53  C   UNL     1      -5.843  13.916  -9.535  1.00  0.00     0.049 A 
ATOM     54  C   UNL     1     -10.102  10.301  -9.934  1.00  0.00     0.074 A 
ATOM     55  C   UNL     1      -6.172  15.241  -9.308  1.00  0.00     0.029 A 
ATOM     56  N   UNL     1      -7.037  13.211  -9.578  1.00  0.00    -0.354 N 
ATOM     57  N   UNL     1      -9.219  11.264  -9.826  1.00  0.00    -0.248 NA
ATOM     58  C   UNL     1     -11.489  10.732  -9.710  1.00  0.00     0.031 C 
ATOM     59  C   UNL     1      -7.560  15.330  -9.162  1.00  0.00     0.029 A 
ATOM     60  C   UNL     1      -8.102  14.069  -9.354  1.00  0.00     0.049 A 
ATOM     61  H   UNL     1      -7.116  12.243  -9.742  1.00  0.00     0.167 HD
ATOM     62  C   UNL     1      -9.941  12.416  -9.550  1.00  0.00     0.074 A 
ATOM     63  C   UNL     1     -11.338  12.036  -9.524  1.00  0.00     0.031 C 
ATOM     64  C   UNL     1      -9.489  13.676  -9.335  1.00  0.00     0.037 A 
BRANCH  51  65
ATOM     65  C   UNL     1      -3.337  14.219  -9.548  1.00  0.00     0.064 A 
ATOM     66  C   UNL     1      -2.531  14.558 -10.646  1.00  0.00     0.173 A 
ATOM     67  C   UNL     1      -3.009  14.771  -8.300  1.00  0.00     0.173 A 
ATOM     68  F   UNL     1      -2.794  14.049 -11.859  1.00  0.00    -0.203 F 
ATOM     69  C   UNL     1      -1.427  15.393 -10.495  1.00  0.00     0.198 A 
ATOM     70  C   UNL     1      -1.923  15.631  -8.159  1.00  0.00     0.198 A 
ATOM     71  F   UNL     1      -3.749  14.486  -7.218  1.00  0.00    -0.203 F 
ATOM     72  F   UNL     1      -0.644  15.662 -11.549  1.00  0.00    -0.200 F 
ATOM     73  C   UNL     1      -1.128  15.934  -9.254  1.00  0.00     0.200 A 
ATOM     74  F   UNL     1      -1.644  16.165  -6.962  1.00  0.00    -0.200 F 
ATOM     75  F   UNL     1      -0.070  16.744  -9.112  1.00  0.00    -0.200 F 
ENDBRANCH  51  65
BRANCH  52  76
ATOM     76  C   UNL     1     -11.038   7.910 -10.347  1.00  0.00     0.064 A 
ATOM     77  C   UNL     1     -11.976   8.021 -11.384  1.00  0.00     0.173 A 
ATOM     78  C   UNL     1     -11.228   6.891  -9.403  1.00  0.00     0.173 A 
ATOM     79  F   UNL     1     -11.849   8.992 -12.300  1.00  0.00    -0.203 F 
ATOM     80  C   UNL     1     -13.070   7.162 -11.459  1.00  0.00     0.198 A 
ATOM     81  C   UNL     1     -12.306   6.014  -9.496  1.00  0.00     0.198 A 
ATOM     82  F   UNL     1     -10.357   6.738  -8.394  1.00  0.00    -0.203 F 
ATOM     83  F   UNL     1     -13.977   7.321 -12.433  1.00  0.00    -0.200 F 
ATOM     84  C   UNL     1     -13.232   6.155 -10.519  1.00  0.00     0.200 A 
ATOM     85  F   UNL     1     -12.450   5.033  -8.595  1.00  0.00    -0.200 F 
ATOM     86  F   UNL     1     -14.282   5.328 -10.594  1.00  0.00    -0.200 F 
ENDBRANCH  52  76
BRANCH  64  87
ATOM     87  C   UNL     1     -10.516  14.742  -9.086  1.00  0.00     0.064 A 
ATOM     88  C   UNL     1     -11.246  14.797  -7.889  1.00  0.00     0.173 A 
ATOM     89  C   UNL     1     -10.749  15.742 -10.043  1.00  0.00     0.173 A 
ATOM     90  F   UNL     1     -11.072  13.857  -6.949  1.00  0.00    -0.203 F 
ATOM     91  C   UNL     1     -12.191  15.797  -7.673  1.00  0.00     0.198 A 
ATOM     92  C   UNL     1     -11.671  16.758  -9.810  1.00  0.00     0.198 A 
ATOM     93  F   UNL     1     -10.072  15.739 -11.202  1.00  0.00    -0.203 F 
ATOM     94  F   UNL     1     -12.914  15.799  -6.544  1.00  0.00    -0.200 F 
ATOM     95  C   UNL     1     -12.397  16.780  -8.629  1.00  0.00     0.200 A 
ATOM     96  F   UNL     1     -11.858  17.715 -10.729  1.00  0.00    -0.200 F 
ATOM     97  F   UNL     1     -13.303  17.744  -8.416  1.00  0.00    -0.200 F 
ENDBRANCH  64  87
ENDBRANCH  38  39
ENDBRANCH  30  33
ENDBRANCH  28  29
ENDBRANCH  27  28
ENDBRANCH  26  27
ENDBRANCH   1  26
TORSDOF 18
