REMARK SMILES O=C(NCCCCCCNC(=O)C1(CCc2ccccn2)CCCCC1)c1ccc(-c2c3nc(c(-c4c(F)c(F)c(F)c(F)c4F)c4ccc([nH]4)c(-c4c(F)c(F)c(F)c(F)c4F)c4nc(c(-c5c(F)c(F)c(F)c(F)c5F)c5ccc2[nH]5)C=C4)C=C3)cc1
REMARK SMILES IDX 7 1 6 2 5 3 4 4 3 5 1 6 2 7 27 9 28 10 89 11 29 12 88 13
REMARK SMILES IDX 30 14 31 15 32 16 82 17 33 18 87 19 81 20 83 21 34 22 86 23
REMARK SMILES IDX 80 24 79 25 35 27 67 28 47 29 66 30 48 31 51 32 65 33 84 34
REMARK SMILES IDX 49 35 50 36 64 38 85 39 52 40 36 41 37 42 45 43 38 44 39 45
REMARK SMILES IDX 43 46 46 47 40 48 41 49 44 50 42 51 68 52 69 53 77 54 70 55
REMARK SMILES IDX 71 56 75 57 78 58 72 59 73 60 76 61 74 62 53 63 54 64 62 65
REMARK SMILES IDX 55 66 56 67 60 68 63 69 57 70 58 71 61 72 59 73 8 74 9 75
REMARK SMILES IDX 10 76 11 77 12 79 13 80 22 81 26 82 23 83 25 84 24 85 14 86
REMARK SMILES IDX 15 87 16 88 17 89 21 90 18 91 20 92 19 93
REMARK H PARENT 3 8 83 26 51 37 10 78
REMARK Flexibility Score: inf
ROOT
ATOM      1  C   UNL     1       4.936  -1.581   3.663  1.00  0.00     0.002 C 
ENDROOT
BRANCH   1   2
ATOM      2  C   UNL     1       4.138  -0.286   3.531  1.00  0.00     0.002 C 
BRANCH   2   3
ATOM      3  C   UNL     1       4.503   0.559   2.313  1.00  0.00     0.021 C 
BRANCH   3   4
ATOM      4  C   UNL     1       4.373  -0.182   0.988  1.00  0.00     0.116 C 
BRANCH   4   5
ATOM      5  N   UNL     1       2.991  -0.538   0.707  1.00  0.00    -0.352 N 
ATOM      6  O   UNL     1       0.982  -0.273  -0.303  1.00  0.00    -0.269 OA
ATOM      7  C   UNL     1       2.187  -0.088  -0.312  1.00  0.00     0.251 C 
ATOM      8  H   UNL     1       2.579  -1.184   1.326  1.00  0.00     0.163 HD
BRANCH   7   9
ATOM      9  C   UNL     1       2.824   0.638  -1.427  1.00  0.00     0.039 A 
ATOM     10  C   UNL     1       3.942   0.087  -2.060  1.00  0.00     0.014 A 
ATOM     11  C   UNL     1       2.318   1.879  -1.815  1.00  0.00     0.014 A 
ATOM     12  C   UNL     1       4.628   0.832  -3.009  1.00  0.00     0.010 A 
ATOM     13  C   UNL     1       2.962   2.590  -2.826  1.00  0.00     0.010 A 
ATOM     14  C   UNL     1       4.130   2.078  -3.417  1.00  0.00    -0.014 A 
BRANCH  14  15
ATOM     15  C   UNL     1       4.787   2.805  -4.527  1.00  0.00     0.031 A 
ATOM     16  C   UNL     1       5.429   4.139  -4.301  1.00  0.00     0.074 A 
ATOM     17  C   UNL     1       4.754   2.257  -5.755  1.00  0.00     0.049 A 
ATOM     18  N   UNL     1       5.952   4.961  -5.175  1.00  0.00    -0.248 NA
ATOM     19  C   UNL     1       5.482   4.620  -2.913  1.00  0.00     0.031 C 
ATOM     20  C   UNL     1       4.148   0.964  -6.081  1.00  0.00     0.029 A 
ATOM     21  N   UNL     1       5.220   2.720  -6.957  1.00  0.00    -0.354 N 
ATOM     22  C   UNL     1       6.370   6.068  -4.450  1.00  0.00     0.074 A 
ATOM     23  C   UNL     1       6.022   5.821  -3.066  1.00  0.00     0.031 C 
ATOM     24  C   UNL     1       4.279   0.736  -7.394  1.00  0.00     0.029 A 
ATOM     25  C   UNL     1       4.912   1.896  -8.011  1.00  0.00     0.049 A 
ATOM     26  H   UNL     1       5.724   3.560  -7.056  1.00  0.00     0.167 HD
ATOM     27  C   UNL     1       6.985   7.186  -4.907  1.00  0.00     0.037 A 
ATOM     28  C   UNL     1       5.076   2.073  -9.334  1.00  0.00     0.037 A 
ATOM     29  C   UNL     1       7.323   7.409  -6.290  1.00  0.00     0.049 A 
ATOM     30  C   UNL     1       5.724   3.334  -9.821  1.00  0.00     0.074 A 
ATOM     31  C   UNL     1       7.992   8.480  -6.854  1.00  0.00     0.029 A 
ATOM     32  N   UNL     1       6.999   6.548  -7.332  1.00  0.00    -0.354 N 
ATOM     33  N   UNL     1       6.156   4.359  -9.127  1.00  0.00    -0.248 NA
ATOM     34  C   UNL     1       5.908   3.468 -11.271  1.00  0.00     0.031 C 
ATOM     35  C   UNL     1       8.016   8.299  -8.241  1.00  0.00     0.029 A 
ATOM     36  C   UNL     1       7.424   7.082  -8.538  1.00  0.00     0.049 A 
ATOM     37  H   UNL     1       6.536   5.685  -7.228  1.00  0.00     0.167 HD
ATOM     38  C   UNL     1       6.684   5.250 -10.048  1.00  0.00     0.074 A 
ATOM     39  C   UNL     1       6.522   4.641 -11.354  1.00  0.00     0.031 C 
ATOM     40  C   UNL     1       7.256   6.459  -9.829  1.00  0.00     0.037 A 
BRANCH  27  41
ATOM     41  C   UNL     1       7.292   8.268  -3.909  1.00  0.00     0.064 A 
ATOM     42  C   UNL     1       8.254   8.101  -2.901  1.00  0.00     0.173 A 
ATOM     43  C   UNL     1       6.619   9.498  -3.972  1.00  0.00     0.173 A 
ATOM     44  F   UNL     1       8.922   6.944  -2.789  1.00  0.00    -0.203 F 
ATOM     45  C   UNL     1       8.498   9.107  -1.968  1.00  0.00     0.198 A 
ATOM     46  C   UNL     1       6.890  10.514  -3.059  1.00  0.00     0.198 A 
ATOM     47  F   UNL     1       5.697   9.718  -4.921  1.00  0.00    -0.203 F 
ATOM     48  F   UNL     1       9.375   8.900  -0.976  1.00  0.00    -0.200 F 
ATOM     49  C   UNL     1       7.819  10.314  -2.050  1.00  0.00     0.200 A 
ATOM     50  F   UNL     1       6.244  11.685  -3.150  1.00  0.00    -0.200 F 
ATOM     51  F   UNL     1       8.053  11.279  -1.150  1.00  0.00    -0.200 F 
ENDBRANCH  27  41
BRANCH  28  52
ATOM     52  C   UNL     1       4.589   1.025 -10.264  1.00  0.00     0.064 A 
ATOM     53  C   UNL     1       5.483   0.198 -10.953  1.00  0.00     0.173 A 
ATOM     54  C   UNL     1       3.215   0.780 -10.421  1.00  0.00     0.173 A 
ATOM     55  F   UNL     1       6.804   0.401 -10.842  1.00  0.00    -0.203 F 
ATOM     56  C   UNL     1       5.023  -0.836 -11.766  1.00  0.00     0.198 A 
ATOM     57  C   UNL     1       2.757  -0.272 -11.210  1.00  0.00     0.198 A 
ATOM     58  F   UNL     1       2.320   1.537  -9.769  1.00  0.00    -0.203 F 
ATOM     59  F   UNL     1       5.898  -1.602 -12.431  1.00  0.00    -0.200 F 
ATOM     60  C   UNL     1       3.662  -1.077 -11.885  1.00  0.00     0.200 A 
ATOM     61  F   UNL     1       1.443  -0.515 -11.302  1.00  0.00    -0.200 F 
ATOM     62  F   UNL     1       3.222  -2.087 -12.647  1.00  0.00    -0.200 F 
ENDBRANCH  28  52
BRANCH  40  63
ATOM     63  C   UNL     1       7.790   7.195 -11.023  1.00  0.00     0.064 A 
ATOM     64  C   UNL     1       6.939   7.817 -11.947  1.00  0.00     0.173 A 
ATOM     65  C   UNL     1       9.175   7.340 -11.199  1.00  0.00     0.173 A 
ATOM     66  F   UNL     1       5.609   7.691 -11.832  1.00  0.00    -0.203 F 
ATOM     67  C   UNL     1       7.457   8.552 -13.010  1.00  0.00     0.198 A 
ATOM     68  C   UNL     1       9.688   8.100 -12.245  1.00  0.00     0.198 A 
ATOM     69  F   UNL     1      10.029   6.765 -10.339  1.00  0.00    -0.203 F 
ATOM     70  F   UNL     1       6.628   9.114 -13.901  1.00  0.00    -0.200 F 
ATOM     71  C   UNL     1       8.829   8.703 -13.151  1.00  0.00     0.200 A 
ATOM     72  F   UNL     1      11.013   8.255 -12.371  1.00  0.00    -0.200 F 
ATOM     73  F   UNL     1       9.324   9.428 -14.163  1.00  0.00    -0.200 F 
ENDBRANCH  40  63
ENDBRANCH  14  15
ENDBRANCH   7   9
ENDBRANCH   4   5
ENDBRANCH   3   4
ENDBRANCH   2   3
ENDBRANCH   1   2
BRANCH   1  74
ATOM     74  C   UNL     1       6.453  -1.400   3.686  1.00  0.00     0.021 C 
BRANCH  74  75
ATOM     75  C   UNL     1       6.994  -0.654   4.911  1.00  0.00     0.116 C 
BRANCH  75  76
ATOM     76  N   UNL     1       6.777  -1.344   6.171  1.00  0.00    -0.356 N 
ATOM     77  C   UNL     1       7.529  -2.208   6.918  1.00  0.00     0.226 C 
ATOM     78  H   UNL     1       5.901  -1.147   6.574  1.00  0.00     0.163 HD
ATOM     79  O   UNL     1       7.013  -2.590   7.976  1.00  0.00    -0.274 OA
BRANCH  77  80
ATOM     80  C   UNL     1       8.993  -2.584   6.560  1.00  0.00     0.050 C 
ATOM     81  C   UNL     1       9.792  -1.273   6.850  1.00  0.00     0.017 C 
ATOM     82  C   UNL     1       9.525  -3.667   7.548  1.00  0.00     0.017 C 
ATOM     83  C   UNL     1      11.309  -1.416   6.876  1.00  0.00     0.001 C 
ATOM     84  C   UNL     1      11.047  -3.843   7.487  1.00  0.00     0.001 C 
ATOM     85  C   UNL     1      11.764  -2.536   7.798  1.00  0.00     0.000 C 
BRANCH  80  86
ATOM     86  C   UNL     1       9.179  -3.096   5.098  1.00  0.00     0.023 C 
BRANCH  86  87
ATOM     87  C   UNL     1       8.694  -4.520   4.697  1.00  0.00     0.057 C 
BRANCH  87  88
ATOM     88  C   UNL     1       7.268  -4.984   4.906  1.00  0.00     0.040 A 
ATOM     89  C   UNL     1       6.895  -6.280   4.551  1.00  0.00     0.024 A 
ATOM     90  N   UNL     1       6.373  -4.138   5.437  1.00  0.00    -0.261 NA
ATOM     91  C   UNL     1       5.582  -6.704   4.775  1.00  0.00     0.003 A 
ATOM     92  C   UNL     1       5.118  -4.576   5.684  1.00  0.00     0.111 A 
ATOM     93  C   UNL     1       4.672  -5.838   5.361  1.00  0.00     0.020 A 
ENDBRANCH  87  88
ENDBRANCH  86  87
ENDBRANCH  80  86
ENDBRANCH  77  80
ENDBRANCH  75  76
ENDBRANCH  74  75
ENDBRANCH   1  74
TORSDOF 16
