REMARK SMILES CC(C)(C)OC(=O)N1CC[C@@H]([NH2+]Cc2cccc(Br)c2)[C@@H](C(=O)NCCCCCCNC(=O)c2ccc(-c3c4nc(c(-c5c(F)c(F)c(F)c(F)c5F)c5ccc([nH]5)c(-c5c(F)c(F)c(F)c(F)c5F)c5nc(c(-c6c(F)c(F)c(F)c(F)c6F)c6ccc3[nH]6)C=C5)C=C4)cc2)C1
REMARK SMILES IDX 27 1 26 2 25 3 24 4 22 5 23 6 21 8 8 9 9 10 97 11 10 12
REMARK SMILES IDX 11 13 6 14 7 15 5 16 2 17 1 18 3 19 4 20 12 21 13 24 14 25
REMARK SMILES IDX 15 26 20 27 16 28 18 29 17 30 19 31 28 32 29 33 30 34 31 35
REMARK SMILES IDX 32 36 33 38 34 39 35 40 96 41 36 42 95 43 37 44 38 45 39 46
REMARK SMILES IDX 89 47 40 48 94 49 88 50 90 51 41 52 93 53 87 54 86 55 42 57
REMARK SMILES IDX 74 58 54 59 73 60 55 61 58 62 72 63 91 64 56 65 57 66 71 68
REMARK SMILES IDX 92 69 59 70 43 71 44 72 52 73 45 74 46 75 50 76 53 77 47 78
REMARK SMILES IDX 48 79 51 80 49 81 75 82 76 83 84 84 77 85 78 86 82 87 85 88
REMARK SMILES IDX 79 89 80 90 83 91 81 92 60 93 61 94 69 95 62 96 63 97 67 98
REMARK SMILES IDX 70 99 64 100 65 101 68 102 66 103
REMARK H PARENT 24 7 12 22 12 23 31 37 90 56 58 67
REMARK Flexibility Score: inf
ROOT
ATOM      1  C   UNL     1       7.146  -1.599   2.340  1.00  0.00     0.002 C 
ENDROOT
BRANCH   1   2
ATOM      2  C   UNL     1       5.813  -1.881   3.041  1.00  0.00     0.021 C 
BRANCH   2   3
ATOM      3  C   UNL     1       4.829  -2.706   2.222  1.00  0.00     0.116 C 
BRANCH   3   4
ATOM      4  N   UNL     1       5.365  -4.008   1.882  1.00  0.00    -0.356 N 
ATOM      5  C   UNL     1       4.723  -5.205   1.794  1.00  0.00     0.230 C 
ATOM      6  O   UNL     1       5.390  -6.193   1.484  1.00  0.00    -0.274 OA
ATOM      7  H   UNL     1       6.330  -4.030   1.686  1.00  0.00     0.163 HD
BRANCH   5   8
ATOM      8  C   UNL     1       3.236  -5.275   2.098  1.00  0.00     0.156 C 
ATOM      9  N   UNL     1       1.018  -4.471   1.510  1.00  0.00    -0.307 N 
ATOM     10  C   UNL     1       0.384  -5.764   1.748  1.00  0.00     0.129 C 
ATOM     11  C   UNL     1       2.401  -4.529   1.045  1.00  0.00     0.142 C 
ATOM     12  C   UNL     1       1.231  -6.658   2.658  1.00  0.00     0.087 C 
ATOM     13  C   UNL     1       2.712  -6.734   2.224  1.00  0.00     0.198 C 
BRANCH   9  14
ATOM     14  C   UNL     1       0.352  -3.290   1.773  1.00  0.00     0.410 C 
ATOM     15  O   UNL     1      -0.671  -3.227   2.443  1.00  0.00    -0.224 OA
BRANCH  14  16
ATOM     16  O   UNL     1       0.955  -2.225   1.184  1.00  0.00    -0.444 OA
BRANCH  16  17
ATOM     17  C   UNL     1       0.443  -0.870   1.296  1.00  0.00     0.106 C 
ATOM     18  C   UNL     1       1.084  -0.110   0.124  1.00  0.00     0.056 C 
ATOM     19  C   UNL     1       0.933  -0.267   2.614  1.00  0.00     0.056 C 
ATOM     20  C   UNL     1      -1.080  -0.754   1.155  1.00  0.00     0.056 C 
ENDBRANCH  16  17
ENDBRANCH  14  16
ENDBRANCH   9  14
BRANCH  13  21
ATOM     21  N   UNL     1       2.917  -7.416   0.939  1.00  0.00    -0.339 N 
ATOM     22  H   UNL     1       3.897  -7.299   0.680  1.00  0.00     0.346 HD
ATOM     23  H   UNL     1       2.251  -6.984   0.298  1.00  0.00     0.346 HD
BRANCH  21  24
ATOM     24  C   UNL     1       2.617  -8.842   0.895  1.00  0.00     0.297 C 
BRANCH  24  25
ATOM     25  C   UNL     1       2.828  -9.396  -0.505  1.00  0.00     0.007 A 
ATOM     26  C   UNL     1       2.828  -8.569  -1.644  1.00  0.00     0.009 A 
ATOM     27  C   UNL     1       2.977 -10.778  -0.688  1.00  0.00     0.025 A 
ATOM     28  C   UNL     1       3.001  -9.098  -2.924  1.00  0.00     0.002 A 
ATOM     29  C   UNL     1       3.137 -11.305  -1.972  1.00  0.00     0.018 A 
ATOM     30  C   UNL     1       3.154 -10.471  -3.090  1.00  0.00     0.016 A 
ATOM     31  Br  UNL     1       3.322 -13.172  -2.202  1.00  0.00    -0.051 Br
ENDBRANCH  24  25
ENDBRANCH  21  24
ENDBRANCH  13  21
ENDBRANCH   5   8
ENDBRANCH   3   4
ENDBRANCH   2   3
ENDBRANCH   1   2
BRANCH   1  32
ATOM     32  C   UNL     1       7.035  -0.956   0.954  1.00  0.00     0.002 C 
BRANCH  32  33
ATOM     33  C   UNL     1       6.219   0.336   0.901  1.00  0.00     0.021 C 
BRANCH  33  34
ATOM     34  C   UNL     1       6.654   1.402   1.898  1.00  0.00     0.116 C 
BRANCH  34  35
ATOM     35  N   UNL     1       8.027   1.831   1.691  1.00  0.00    -0.352 N 
ATOM     36  C   UNL     1       8.526   3.105   1.581  1.00  0.00     0.251 C 
ATOM     37  H   UNL     1       8.691   1.108   1.621  1.00  0.00     0.163 HD
ATOM     38  O   UNL     1       9.690   3.293   1.246  1.00  0.00    -0.269 OA
BRANCH  36  39
ATOM     39  C   UNL     1       7.636   4.254   1.841  1.00  0.00     0.039 A 
ATOM     40  C   UNL     1       7.620   5.315   0.933  1.00  0.00     0.014 A 
ATOM     41  C   UNL     1       6.802   4.270   2.962  1.00  0.00     0.014 A 
ATOM     42  C   UNL     1       6.720   6.365   1.117  1.00  0.00     0.010 A 
ATOM     43  C   UNL     1       5.850   5.274   3.098  1.00  0.00     0.010 A 
ATOM     44  C   UNL     1       5.802   6.334   2.180  1.00  0.00    -0.014 A 
BRANCH  44  45
ATOM     45  C   UNL     1       4.786   7.402   2.355  1.00  0.00     0.031 A 
ATOM     46  C   UNL     1       4.800   8.257   3.590  1.00  0.00     0.074 A 
ATOM     47  C   UNL     1       3.810   7.554   1.439  1.00  0.00     0.049 A 
ATOM     48  N   UNL     1       3.948   9.174   3.975  1.00  0.00    -0.248 NA
ATOM     49  C   UNL     1       5.904   8.028   4.535  1.00  0.00     0.031 C 
ATOM     50  C   UNL     1       3.664   6.756   0.221  1.00  0.00     0.029 A 
ATOM     51  N   UNL     1       2.745   8.419   1.400  1.00  0.00    -0.354 N 
ATOM     52  C   UNL     1       4.409   9.623   5.205  1.00  0.00     0.074 A 
ATOM     53  C   UNL     1       5.573   8.831   5.535  1.00  0.00     0.031 C 
ATOM     54  C   UNL     1       2.581   7.176  -0.451  1.00  0.00     0.029 A 
ATOM     55  C   UNL     1       1.931   8.240   0.309  1.00  0.00     0.049 A 
ATOM     56  H   UNL     1       2.581   9.104   2.089  1.00  0.00     0.167 HD
ATOM     57  C   UNL     1       3.922  10.624   5.976  1.00  0.00     0.037 A 
ATOM     58  C   UNL     1       0.779   8.850  -0.030  1.00  0.00     0.037 A 
ATOM     59  C   UNL     1       2.764  11.411   5.639  1.00  0.00     0.049 A 
ATOM     60  C   UNL     1       0.236   9.938   0.857  1.00  0.00     0.074 A 
ATOM     61  C   UNL     1       2.212  12.474   6.330  1.00  0.00     0.029 A 
ATOM     62  N   UNL     1       1.974  11.212   4.515  1.00  0.00    -0.354 N 
ATOM     63  N   UNL     1       0.715  10.400   1.987  1.00  0.00    -0.248 NA
ATOM     64  C   UNL     1      -1.003  10.596   0.418  1.00  0.00     0.031 C 
ATOM     65  C   UNL     1       1.054  12.879   5.658  1.00  0.00     0.029 A 
ATOM     66  C   UNL     1       0.923  12.115   4.509  1.00  0.00     0.049 A 
ATOM     67  H   UNL     1       2.137  10.530   3.824  1.00  0.00     0.167 HD
ATOM     68  C   UNL     1      -0.144  11.418   2.379  1.00  0.00     0.074 A 
ATOM     69  C   UNL     1      -1.167  11.515   1.359  1.00  0.00     0.031 C 
ATOM     70  C   UNL     1      -0.087  12.204   3.483  1.00  0.00     0.037 A 
BRANCH  57  71
ATOM     71  C   UNL     1       4.641  10.917   7.263  1.00  0.00     0.064 A 
ATOM     72  C   UNL     1       5.947  11.434   7.277  1.00  0.00     0.173 A 
ATOM     73  C   UNL     1       4.017  10.688   8.499  1.00  0.00     0.173 A 
ATOM     74  F   UNL     1       6.595  11.663   6.125  1.00  0.00    -0.203 F 
ATOM     75  C   UNL     1       6.615  11.666   8.477  1.00  0.00     0.198 A 
ATOM     76  C   UNL     1       4.674  10.958   9.697  1.00  0.00     0.198 A 
ATOM     77  F   UNL     1       2.768  10.202   8.547  1.00  0.00    -0.203 F 
ATOM     78  F   UNL     1       7.885  12.094   8.462  1.00  0.00    -0.200 F 
ATOM     79  C   UNL     1       5.976  11.434   9.685  1.00  0.00     0.200 A 
ATOM     80  F   UNL     1       4.049  10.748  10.863  1.00  0.00    -0.200 F 
ATOM     81  F   UNL     1       6.620  11.659  10.839  1.00  0.00    -0.200 F 
ENDBRANCH  57  71
BRANCH  58  82
ATOM     82  C   UNL     1       0.068   8.444  -1.272  1.00  0.00     0.064 A 
ATOM     83  C   UNL     1      -0.015   9.305  -2.374  1.00  0.00     0.173 A 
ATOM     84  C   UNL     1      -0.533   7.181  -1.385  1.00  0.00     0.173 A 
ATOM     85  F   UNL     1       0.528  10.530  -2.310  1.00  0.00    -0.203 F 
ATOM     86  C   UNL     1      -0.687   8.927  -3.535  1.00  0.00     0.198 A 
ATOM     87  C   UNL     1      -1.177   6.792  -2.557  1.00  0.00     0.198 A 
ATOM     88  F   UNL     1      -0.476   6.316  -0.362  1.00  0.00    -0.203 F 
ATOM     89  F   UNL     1      -0.789   9.786  -4.558  1.00  0.00    -0.200 F 
ATOM     90  C   UNL     1      -1.261   7.668  -3.628  1.00  0.00     0.200 A 
ATOM     91  F   UNL     1      -1.712   5.567  -2.649  1.00  0.00    -0.200 F 
ATOM     92  F   UNL     1      -1.898   7.300  -4.748  1.00  0.00    -0.200 F 
ENDBRANCH  58  82
BRANCH  70  93
ATOM     93  C   UNL     1      -1.137  13.268   3.633  1.00  0.00     0.064 A 
ATOM     94  C   UNL     1      -2.472  12.955   3.927  1.00  0.00     0.173 A 
ATOM     95  C   UNL     1      -0.787  14.624   3.537  1.00  0.00     0.173 A 
ATOM     96  F   UNL     1      -2.863  11.675   4.015  1.00  0.00    -0.203 F 
ATOM     97  C   UNL     1      -3.421  13.960   4.099  1.00  0.00     0.198 A 
ATOM     98  C   UNL     1      -1.731  15.626   3.744  1.00  0.00     0.198 A 
ATOM     99  F   UNL     1       0.478  14.978   3.264  1.00  0.00    -0.203 F 
ATOM    100  F   UNL     1      -4.701  13.637   4.335  1.00  0.00    -0.200 F 
ATOM    101  C   UNL     1      -3.048  15.293   4.017  1.00  0.00     0.200 A 
ATOM    102  F   UNL     1      -1.363  16.913   3.682  1.00  0.00    -0.200 F 
ATOM    103  F   UNL     1      -3.960  16.258   4.198  1.00  0.00    -0.200 F 
ENDBRANCH  70  93
ENDBRANCH  44  45
ENDBRANCH  36  39
ENDBRANCH  34  35
ENDBRANCH  33  34
ENDBRANCH  32  33
ENDBRANCH   1  32
TORSDOF 19
