REMARK SMILES C[C@H](Cc1ccco1)[NH2+]Cc1cc(C(=O)NCCCCCCNC(=O)c2ccc(-c3c4nc(c(-c5c(F)c(F)c(F)c(F)c5F)c5ccc([nH]5)c(-c5c(F)c(F)c(F)c(F)c5F)c5nc(c(-c6c(F)c(F)c(F)c(F)c6F)c6ccc3[nH]6)C=C5)C=C4)cc2)cs1
REMARK SMILES IDX 18 1 17 2 16 3 14 4 15 5 13 7 11 8 12 9 90 10 89 11 10 12
REMARK SMILES IDX 9 13 2 16 1 17 3 18 4 19 5 20 8 21 6 22 7 23 19 24 20 25
REMARK SMILES IDX 21 26 22 27 23 28 24 29 25 31 26 32 27 33 88 34 28 35 87 36
REMARK SMILES IDX 29 37 30 38 31 39 81 40 32 41 86 42 80 43 82 44 33 45 85 46
REMARK SMILES IDX 79 47 78 48 34 50 66 51 46 52 65 53 47 54 50 55 64 56 83 57
REMARK SMILES IDX 48 58 49 59 63 61 84 62 51 63 35 64 36 65 44 66 37 67 38 68
REMARK SMILES IDX 42 69 45 70 39 71 40 72 43 73 41 74 67 75 68 76 76 77 69 78
REMARK SMILES IDX 70 79 74 80 77 81 71 82 72 83 75 84 73 85 52 86 53 87 61 88
REMARK SMILES IDX 54 89 55 90 59 91 62 92 56 93 57 94 60 95 58 96
REMARK H PARENT 16 6 9 14 9 15 23 30 82 49 50 60
REMARK Flexibility Score: inf
ROOT
ATOM      1  C   UNL     1      -1.900   7.750   3.086  1.00  0.00     0.021 C 
ENDROOT
BRANCH   1   2
ATOM      2  C   UNL     1      -2.542   7.388   1.749  1.00  0.00     0.116 C 
BRANCH   2   3
ATOM      3  N   UNL     1      -1.768   7.959   0.664  1.00  0.00    -0.352 N 
ATOM      4  C   UNL     1      -1.079   7.367  -0.364  1.00  0.00     0.252 C 
ATOM      5  O   UNL     1      -0.546   8.091  -1.196  1.00  0.00    -0.269 OA
ATOM      6  H   UNL     1      -1.728   8.942   0.667  1.00  0.00     0.163 HD
BRANCH   4   7
ATOM      7  C   UNL     1      -1.090   5.914  -0.490  1.00  0.00     0.051 A 
ATOM      8  C   UNL     1      -1.285   3.641   0.062  1.00  0.00     0.059 A 
ATOM      9  C   UNL     1      -1.022   4.912   0.532  1.00  0.00     0.035 A 
ATOM     10  S   UNL     1      -1.418   3.635  -1.647  1.00  0.00    -0.142 S 
ATOM     11  C   UNL     1      -1.140   5.314  -1.736  1.00  0.00     0.079 A 
BRANCH   8  12
ATOM     12  C   UNL     1      -1.475   2.389   0.872  1.00  0.00     0.308 C 
BRANCH  12  13
ATOM     13  N   UNL     1      -0.807   1.224   0.309  1.00  0.00    -0.339 N 
ATOM     14  H   UNL     1      -1.312   0.395   0.622  1.00  0.00     0.346 HD
ATOM     15  H   UNL     1      -0.815   1.368  -0.700  1.00  0.00     0.346 HD
BRANCH  13  16
ATOM     16  C   UNL     1       0.610   1.047   0.667  1.00  0.00     0.187 C 
ATOM     17  C   UNL     1       1.516   2.272   0.478  1.00  0.00     0.075 C 
BRANCH  16  18
ATOM     18  C   UNL     1       1.175  -0.192  -0.073  1.00  0.00     0.140 C 
BRANCH  18  19
ATOM     19  C   UNL     1       1.535   0.044  -1.503  1.00  0.00     0.109 A 
ATOM     20  C   UNL     1       0.860   0.513  -2.613  1.00  0.00     0.046 A 
ATOM     21  O   UNL     1       2.825  -0.246  -1.842  1.00  0.00    -0.469 OA
ATOM     22  C   UNL     1       1.799   0.550  -3.671  1.00  0.00     0.042 A 
ATOM     23  C   UNL     1       2.974   0.060  -3.155  1.00  0.00     0.195 A 
ENDBRANCH  18  19
ENDBRANCH  16  18
ENDBRANCH  13  16
ENDBRANCH  12  13
ENDBRANCH   8  12
ENDBRANCH   4   7
ENDBRANCH   2   3
ENDBRANCH   1   2
BRANCH   1  24
ATOM     24  C   UNL     1      -2.210   9.189   3.513  1.00  0.00     0.002 C 
BRANCH  24  25
ATOM     25  C   UNL     1      -3.703   9.475   3.721  1.00  0.00     0.002 C 
BRANCH  25  26
ATOM     26  C   UNL     1      -4.397   8.539   4.714  1.00  0.00     0.021 C 
BRANCH  26  27
ATOM     27  C   UNL     1      -3.797   8.574   6.114  1.00  0.00     0.116 C 
BRANCH  27  28
ATOM     28  N   UNL     1      -3.895   9.900   6.698  1.00  0.00    -0.352 N 
ATOM     29  C   UNL     1      -4.455  10.291   7.885  1.00  0.00     0.251 C 
ATOM     30  H   UNL     1      -3.501  10.626   6.162  1.00  0.00     0.163 HD
ATOM     31  O   UNL     1      -4.684  11.478   8.093  1.00  0.00    -0.269 OA
BRANCH  29  32
ATOM     32  C   UNL     1      -4.780   9.285   8.916  1.00  0.00     0.039 A 
ATOM     33  C   UNL     1      -5.942   9.453   9.672  1.00  0.00     0.014 A 
ATOM     34  C   UNL     1      -3.918   8.216   9.180  1.00  0.00     0.014 A 
ATOM     35  C   UNL     1      -6.246   8.541  10.681  1.00  0.00     0.010 A 
ATOM     36  C   UNL     1      -4.267   7.259  10.128  1.00  0.00     0.010 A 
ATOM     37  C   UNL     1      -5.417   7.430  10.910  1.00  0.00    -0.014 A 
BRANCH  37  38
ATOM     38  C   UNL     1      -5.726   6.471  11.999  1.00  0.00     0.031 A 
ATOM     39  C   UNL     1      -4.791   6.327  13.169  1.00  0.00     0.074 A 
ATOM     40  C   UNL     1      -6.841   5.721  11.924  1.00  0.00     0.049 A 
ATOM     41  N   UNL     1      -4.900   5.562  14.226  1.00  0.00    -0.248 NA
ATOM     42  C   UNL     1      -3.557   7.127  13.135  1.00  0.00     0.031 C 
ATOM     43  C   UNL     1      -7.794   5.734  10.813  1.00  0.00     0.029 A 
ATOM     44  N   UNL     1      -7.365   4.808  12.802  1.00  0.00    -0.354 N 
ATOM     45  C   UNL     1      -3.750   5.784  14.973  1.00  0.00     0.074 A 
ATOM     46  C   UNL     1      -2.925   6.700  14.218  1.00  0.00     0.031 C 
ATOM     47  C   UNL     1      -8.806   4.898  11.094  1.00  0.00     0.029 A 
ATOM     48  C   UNL     1      -8.557   4.268  12.386  1.00  0.00     0.049 A 
ATOM     49  H   UNL     1      -6.929   4.563  13.650  1.00  0.00     0.167 HD
ATOM     50  C   UNL     1      -3.425   5.292  16.193  1.00  0.00     0.037 A 
ATOM     51  C   UNL     1      -9.360   3.369  12.986  1.00  0.00     0.037 A 
ATOM     52  C   UNL     1      -4.260   4.394  16.947  1.00  0.00     0.049 A 
ATOM     53  C   UNL     1      -8.980   2.844  14.344  1.00  0.00     0.074 A 
ATOM     54  C   UNL     1      -4.050   3.876  18.213  1.00  0.00     0.029 A 
ATOM     55  N   UNL     1      -5.467   3.876  16.499  1.00  0.00    -0.354 N 
ATOM     56  N   UNL     1      -7.927   3.119  15.076  1.00  0.00    -0.248 NA
ATOM     57  C   UNL     1      -9.912   1.896  14.967  1.00  0.00     0.031 C 
ATOM     58  C   UNL     1      -5.102   3.002  18.508  1.00  0.00     0.029 A 
ATOM     59  C   UNL     1      -6.003   3.026  17.455  1.00  0.00     0.049 A 
ATOM     60  H   UNL     1      -5.883   4.082  15.631  1.00  0.00     0.167 HD
ATOM     61  C   UNL     1      -8.085   2.405  16.257  1.00  0.00     0.074 A 
ATOM     62  C   UNL     1      -9.348   1.704  16.150  1.00  0.00     0.031 C 
ATOM     63  C   UNL     1      -7.261   2.335  17.332  1.00  0.00     0.037 A 
BRANCH  50  64
ATOM     64  C   UNL     1      -2.109   5.715  16.784  1.00  0.00     0.064 A 
ATOM     65  C   UNL     1      -1.871   7.039  17.188  1.00  0.00     0.173 A 
ATOM     66  C   UNL     1      -1.078   4.781  16.969  1.00  0.00     0.173 A 
ATOM     67  F   UNL     1      -2.816   7.976  17.022  1.00  0.00    -0.203 F 
ATOM     68  C   UNL     1      -0.641   7.417  17.721  1.00  0.00     0.198 A 
ATOM     69  C   UNL     1       0.138   5.156  17.536  1.00  0.00     0.198 A 
ATOM     70  F   UNL     1      -1.250   3.502  16.605  1.00  0.00    -0.203 F 
ATOM     71  F   UNL     1      -0.418   8.699  18.043  1.00  0.00    -0.200 F 
ATOM     72  C   UNL     1       0.359   6.475  17.902  1.00  0.00     0.200 A 
ATOM     73  F   UNL     1       1.099   4.240  17.723  1.00  0.00    -0.200 F 
ATOM     74  F   UNL     1       1.540   6.839  18.420  1.00  0.00    -0.200 F 
ENDBRANCH  50  64
BRANCH  51  75
ATOM     75  C   UNL     1     -10.619   2.940  12.323  1.00  0.00     0.064 A 
ATOM     76  C   UNL     1     -11.870   3.294  12.849  1.00  0.00     0.173 A 
ATOM     77  C   UNL     1     -10.600   2.162  11.156  1.00  0.00     0.173 A 
ATOM     78  F   UNL     1     -11.941   4.023  13.973  1.00  0.00    -0.203 F 
ATOM     79  C   UNL     1     -13.052   2.864  12.250  1.00  0.00     0.198 A 
ATOM     80  C   UNL     1     -11.783   1.761  10.539  1.00  0.00     0.198 A 
ATOM     81  F   UNL     1      -9.430   1.804  10.607  1.00  0.00    -0.203 F 
ATOM     82  F   UNL     1     -14.232   3.173  12.804  1.00  0.00    -0.200 F 
ATOM     83  C   UNL     1     -13.007   2.103  11.092  1.00  0.00     0.200 A 
ATOM     84  F   UNL     1     -11.735   1.040   9.411  1.00  0.00    -0.200 F 
ATOM     85  F   UNL     1     -14.144   1.692  10.514  1.00  0.00    -0.200 F 
ENDBRANCH  51  75
BRANCH  63  86
ATOM     86  C   UNL     1      -7.726   1.501  18.494  1.00  0.00     0.064 A 
ATOM     87  C   UNL     1      -7.824   0.104  18.412  1.00  0.00     0.173 A 
ATOM     88  C   UNL     1      -8.075   2.112  19.709  1.00  0.00     0.173 A 
ATOM     89  F   UNL     1      -7.513  -0.530  17.271  1.00  0.00    -0.203 F 
ATOM     90  C   UNL     1      -8.302  -0.644  19.485  1.00  0.00     0.198 A 
ATOM     91  C   UNL     1      -8.515   1.357  20.792  1.00  0.00     0.198 A 
ATOM     92  F   UNL     1      -7.989   3.444  19.846  1.00  0.00    -0.203 F 
ATOM     93  F   UNL     1      -8.458  -1.970  19.358  1.00  0.00    -0.200 F 
ATOM     94  C   UNL     1      -8.642  -0.018  20.675  1.00  0.00     0.200 A 
ATOM     95  F   UNL     1      -8.825   1.962  21.947  1.00  0.00    -0.200 F 
ATOM     96  F   UNL     1      -9.104  -0.740  21.705  1.00  0.00    -0.200 F 
ENDBRANCH  63  86
ENDBRANCH  37  38
ENDBRANCH  29  32
ENDBRANCH  27  28
ENDBRANCH  26  27
ENDBRANCH  25  26
ENDBRANCH  24  25
ENDBRANCH   1  24
TORSDOF 18
