REMARK SMILES Cc1cccc(CN(C)c2nc(C)c(C(=O)NCCCCCCNC(=O)c3ccc(-c4c5nc(c(-c6c(F)c(F)c(F)c(F)c6F)c6ccc([nH]6)c(-c6c(F)c(F)c(F)c(F)c6F)c6nc(c(-c7c(F)c(F)c(F)c(F)c7F)c7ccc4[nH]7)C=C6)C=C5)cc3)s2)n1
REMARK SMILES IDX 20 1 19 2 18 3 17 4 15 5 16 6 14 8 10 9 11 10 90 11 12 12
REMARK SMILES IDX 13 13 8 14 9 15 7 16 6 17 1 18 2 19 3 20 91 21 4 22 5 23
REMARK SMILES IDX 21 24 22 25 23 26 24 27 25 28 26 30 27 31 28 32 89 33 29 34
REMARK SMILES IDX 88 35 30 36 31 37 32 38 82 39 33 40 87 41 81 42 83 43 34 44
REMARK SMILES IDX 86 45 80 46 79 47 35 49 67 50 47 51 66 52 48 53 51 54 65 55
REMARK SMILES IDX 84 56 49 57 50 58 64 60 85 61 52 62 36 63 37 64 45 65 38 66
REMARK SMILES IDX 39 67 43 68 46 69 40 70 41 71 44 72 42 73 68 74 69 75 77 76
REMARK SMILES IDX 70 77 71 78 75 79 78 80 72 81 73 82 76 83 74 84 53 85 54 86
REMARK SMILES IDX 62 87 55 88 56 89 60 90 63 91 57 92 58 93 61 94 59 95
REMARK H PARENT 17 7 24 29 83 48 51 59
REMARK Flexibility Score: inf
ROOT
ATOM      1  C   UNL     1      -3.474   1.044   9.484  1.00  0.00     0.002 C 
ENDROOT
BRANCH   1   2
ATOM      2  C   UNL     1      -3.245   1.871   8.215  1.00  0.00     0.021 C 
BRANCH   2   3
ATOM      3  C   UNL     1      -1.824   1.741   7.662  1.00  0.00     0.116 C 
BRANCH   3   4
ATOM      4  N   UNL     1      -1.776   0.629   6.752  1.00  0.00    -0.351 N 
ATOM      5  C   UNL     1      -1.869   0.528   5.391  1.00  0.00     0.263 C 
ATOM      6  O   UNL     1      -1.940  -0.647   5.008  1.00  0.00    -0.268 OA
ATOM      7  H   UNL     1      -1.649  -0.238   7.201  1.00  0.00     0.163 HD
BRANCH   5   8
ATOM      8  C   UNL     1      -1.821   1.655   4.470  1.00  0.00     0.117 A 
ATOM      9  C   UNL     1      -1.403   2.836   2.327  1.00  0.00     0.186 A 
ATOM     10  N   UNL     1      -1.797   3.668   3.261  1.00  0.00    -0.225 NA
ATOM     11  S   UNL     1      -1.291   1.223   2.881  1.00  0.00    -0.091 S 
ATOM     12  C   UNL     1      -2.122   3.012   4.449  1.00  0.00     0.063 A 
ATOM     13  C   UNL     1      -2.767   3.898   5.450  1.00  0.00     0.068 C 
BRANCH   9  14
ATOM     14  N   UNL     1      -1.076   3.229   1.065  1.00  0.00    -0.345 N 
ATOM     15  C   UNL     1      -0.583   4.581   0.887  1.00  0.00     0.146 C 
BRANCH  14  16
ATOM     16  C   UNL     1      -1.530   2.495  -0.122  1.00  0.00     0.174 C 
BRANCH  16  17
ATOM     17  C   UNL     1      -0.894   1.125  -0.283  1.00  0.00     0.060 A 
ATOM     18  C   UNL     1       2.530  -0.197  -0.135  1.00  0.00     0.067 C 
ATOM     19  C   UNL     1       1.037  -0.169  -0.244  1.00  0.00     0.038 A 
ATOM     20  C   UNL     1       0.295  -1.345  -0.234  1.00  0.00     0.023 A 
ATOM     21  N   UNL     1       0.463   1.055  -0.292  1.00  0.00    -0.256 NA
ATOM     22  C   UNL     1      -1.092  -1.264  -0.289  1.00  0.00     0.004 A 
ATOM     23  C   UNL     1      -1.699  -0.015  -0.319  1.00  0.00     0.026 A 
ENDBRANCH  16  17
ENDBRANCH  14  16
ENDBRANCH   9  14
ENDBRANCH   5   8
ENDBRANCH   3   4
ENDBRANCH   2   3
ENDBRANCH   1   2
BRANCH   1  24
ATOM     24  C   UNL     1      -2.678   1.528  10.702  1.00  0.00     0.002 C 
BRANCH  24  25
ATOM     25  C   UNL     1      -2.867   3.008  11.047  1.00  0.00     0.021 C 
BRANCH  25  26
ATOM     26  C   UNL     1      -4.311   3.399  11.348  1.00  0.00     0.116 C 
BRANCH  26  27
ATOM     27  N   UNL     1      -4.803   2.731  12.542  1.00  0.00    -0.352 N 
ATOM     28  C   UNL     1      -5.246   3.276  13.720  1.00  0.00     0.251 C 
ATOM     29  H   UNL     1      -4.821   1.747  12.498  1.00  0.00     0.163 HD
ATOM     30  O   UNL     1      -5.376   2.577  14.718  1.00  0.00    -0.269 OA
BRANCH  28  31
ATOM     31  C   UNL     1      -5.563   4.717  13.783  1.00  0.00     0.039 A 
ATOM     32  C   UNL     1      -5.133   5.460  14.885  1.00  0.00     0.014 A 
ATOM     33  C   UNL     1      -6.305   5.326  12.766  1.00  0.00     0.014 A 
ATOM     34  C   UNL     1      -5.407   6.828  14.944  1.00  0.00     0.010 A 
ATOM     35  C   UNL     1      -6.517   6.700  12.793  1.00  0.00     0.010 A 
ATOM     36  C   UNL     1      -6.078   7.463  13.886  1.00  0.00    -0.014 A 
BRANCH  36  37
ATOM     37  C   UNL     1      -6.342   8.922  13.907  1.00  0.00     0.031 A 
ATOM     38  C   UNL     1      -7.755   9.430  13.955  1.00  0.00     0.074 A 
ATOM     39  C   UNL     1      -5.313   9.786  13.812  1.00  0.00     0.049 A 
ATOM     40  N   UNL     1      -8.196  10.662  13.900  1.00  0.00    -0.248 NA
ATOM     41  C   UNL     1      -8.818   8.417  14.050  1.00  0.00     0.031 C 
ATOM     42  C   UNL     1      -3.902   9.410  13.713  1.00  0.00     0.029 A 
ATOM     43  N   UNL     1      -5.296  11.157  13.771  1.00  0.00    -0.354 N 
ATOM     44  C   UNL     1      -9.581  10.569  13.936  1.00  0.00     0.074 A 
ATOM     45  C   UNL     1      -9.911   9.161  13.965  1.00  0.00     0.031 C 
ATOM     46  C   UNL     1      -3.155  10.524  13.641  1.00  0.00     0.029 A 
ATOM     47  C   UNL     1      -4.035  11.688  13.651  1.00  0.00     0.049 A 
ATOM     48  H   UNL     1      -6.111  11.708  13.822  1.00  0.00     0.167 HD
ATOM     49  C   UNL     1     -10.493  11.570  13.965  1.00  0.00     0.037 A 
ATOM     50  C   UNL     1      -3.637  12.971  13.553  1.00  0.00     0.037 A 
ATOM     51  C   UNL     1     -10.156  12.969  13.964  1.00  0.00     0.049 A 
ATOM     52  C   UNL     1      -4.671  14.063  13.588  1.00  0.00     0.074 A 
ATOM     53  C   UNL     1     -11.002  14.061  14.052  1.00  0.00     0.029 A 
ATOM     54  N   UNL     1      -8.866  13.470  13.868  1.00  0.00    -0.354 N 
ATOM     55  N   UNL     1      -5.974  13.967  13.690  1.00  0.00    -0.248 NA
ATOM     56  C   UNL     1      -4.177  15.445  13.502  1.00  0.00     0.031 C 
ATOM     57  C   UNL     1     -10.228  15.222  13.965  1.00  0.00     0.029 A 
ATOM     58  C   UNL     1      -8.895  14.855  13.876  1.00  0.00     0.049 A 
ATOM     59  H   UNL     1      -8.050  12.922  13.805  1.00  0.00     0.167 HD
ATOM     60  C   UNL     1      -6.453  15.269  13.714  1.00  0.00     0.074 A 
ATOM     61  C   UNL     1      -5.299  16.140  13.626  1.00  0.00     0.031 C 
ATOM     62  C   UNL     1      -7.734  15.705  13.802  1.00  0.00     0.037 A 
BRANCH  49  63
ATOM     63  C   UNL     1     -11.944  11.187  14.006  1.00  0.00     0.064 A 
ATOM     64  C   UNL     1     -12.518  10.595  15.142  1.00  0.00     0.173 A 
ATOM     65  C   UNL     1     -12.781  11.447  12.910  1.00  0.00     0.173 A 
ATOM     66  F   UNL     1     -11.759  10.315  16.213  1.00  0.00    -0.203 F 
ATOM     67  C   UNL     1     -13.867  10.251  15.168  1.00  0.00     0.198 A 
ATOM     68  C   UNL     1     -14.136  11.130  12.951  1.00  0.00     0.198 A 
ATOM     69  F   UNL     1     -12.286  12.017  11.801  1.00  0.00    -0.203 F 
ATOM     70  F   UNL     1     -14.380   9.641  16.245  1.00  0.00    -0.200 F 
ATOM     71  C   UNL     1     -14.676  10.525  14.076  1.00  0.00     0.200 A 
ATOM     72  F   UNL     1     -14.920  11.408  11.900  1.00  0.00    -0.200 F 
ATOM     73  F   UNL     1     -15.976  10.200  14.106  1.00  0.00    -0.200 F 
ENDBRANCH  49  63
BRANCH  50  74
ATOM     74  C   UNL     1      -2.191  13.291  13.441  1.00  0.00     0.064 A 
ATOM     75  C   UNL     1      -1.509  13.913  14.496  1.00  0.00     0.173 A 
ATOM     76  C   UNL     1      -1.461  12.986  12.283  1.00  0.00     0.173 A 
ATOM     77  F   UNL     1      -2.168  14.242  15.617  1.00  0.00    -0.203 F 
ATOM     78  C   UNL     1      -0.157  14.235  14.390  1.00  0.00     0.198 A 
ATOM     79  C   UNL     1      -0.103  13.283  12.189  1.00  0.00     0.198 A 
ATOM     80  F   UNL     1      -2.065  12.385  11.247  1.00  0.00    -0.203 F 
ATOM     81  F   UNL     1       0.459  14.869  15.397  1.00  0.00    -0.200 F 
ATOM     82  C   UNL     1       0.546  13.914  13.239  1.00  0.00     0.200 A 
ATOM     83  F   UNL     1       0.576  12.957  11.080  1.00  0.00    -0.200 F 
ATOM     84  F   UNL     1       1.846  14.220  13.139  1.00  0.00    -0.200 F 
ENDBRANCH  50  74
BRANCH  62  85
ATOM     85  C   UNL     1      -7.955  17.189  13.851  1.00  0.00     0.064 A 
ATOM     86  C   UNL     1      -7.780  17.999  12.720  1.00  0.00     0.173 A 
ATOM     87  C   UNL     1      -8.393  17.799  15.037  1.00  0.00     0.173 A 
ATOM     88  F   UNL     1      -7.348  17.465  11.568  1.00  0.00    -0.203 F 
ATOM     89  C   UNL     1      -8.015  19.370  12.781  1.00  0.00     0.198 A 
ATOM     90  C   UNL     1      -8.655  19.164  15.085  1.00  0.00     0.198 A 
ATOM     91  F   UNL     1      -8.581  17.066  16.145  1.00  0.00    -0.203 F 
ATOM     92  F   UNL     1      -7.799  20.133  11.700  1.00  0.00    -0.200 F 
ATOM     93  C   UNL     1      -8.460  19.950  13.960  1.00  0.00     0.200 A 
ATOM     94  F   UNL     1      -9.099  19.720  16.221  1.00  0.00    -0.200 F 
ATOM     95  F   UNL     1      -8.695  21.268  14.012  1.00  0.00    -0.200 F 
ENDBRANCH  62  85
ENDBRANCH  36  37
ENDBRANCH  28  31
ENDBRANCH  26  27
ENDBRANCH  25  26
ENDBRANCH  24  25
ENDBRANCH   1  24
TORSDOF 16
