REMARK SMILES O=C(CSc1ccnc(C(=O)NCCCCCCNC(=O)c2ccc(-c3c4nc(c(-c5c(F)c(F)c(F)c(F)c5F)c5ccc([nH]5)c(-c5c(F)c(F)c(F)c(F)c5F)c5nc(c(-c6c(F)c(F)c(F)c(F)c6F)c6ccc3[nH]6)C=C5)C=C4)cc2)c1)NNc1ccccn1
REMARK SMILES IDX 14 1 13 2 12 3 10 4 11 5 9 7 5 8 6 9 85 10 7 11 8 12 4 13
REMARK SMILES IDX 3 14 2 15 1 16 86 17 87 19 88 21 89 22 93 23 90 24 92 25
REMARK SMILES IDX 91 26 15 27 16 28 17 29 18 30 19 31 20 32 21 34 22 35 23 36
REMARK SMILES IDX 84 37 24 38 83 39 25 40 26 41 27 42 77 43 28 44 82 45 76 46
REMARK SMILES IDX 78 47 29 48 81 49 75 50 74 51 30 53 62 54 42 55 61 56 43 57
REMARK SMILES IDX 46 58 60 59 79 60 44 61 45 62 59 64 80 65 47 66 31 67 32 68
REMARK SMILES IDX 40 69 33 70 34 71 38 72 41 73 35 74 36 75 39 76 37 77 63 78
REMARK SMILES IDX 64 79 72 80 65 81 66 82 70 83 73 84 67 85 68 86 71 87 69 88
REMARK SMILES IDX 48 89 49 90 57 91 50 92 51 93 55 94 58 95 52 96 53 97 56 98
REMARK SMILES IDX 54 99
REMARK H PARENT 12 6 86 18 87 20 19 33 78 52 46 63
REMARK Flexibility Score: inf
ROOT
ATOM      1  C   UNL     1       3.592  -7.505   0.746  1.00  0.00     0.021 C 
ENDROOT
BRANCH   1   2
ATOM      2  C   UNL     1       3.983  -6.584  -0.404  1.00  0.00     0.116 C 
BRANCH   2   3
ATOM      3  N   UNL     1       3.408  -6.965  -1.679  1.00  0.00    -0.351 N 
ATOM      4  C   UNL     1       2.764  -6.230  -2.654  1.00  0.00     0.269 C 
ATOM      5  O   UNL     1       2.347  -6.846  -3.635  1.00  0.00    -0.268 OA
ATOM      6  H   UNL     1       3.492  -7.924  -1.887  1.00  0.00     0.163 HD
BRANCH   4   7
ATOM      7  C   UNL     1       2.545  -4.747  -2.547  1.00  0.00     0.129 A 
ATOM      8  C   UNL     1       3.103  -2.558  -1.759  1.00  0.00     0.012 A 
ATOM      9  C   UNL     1       1.949  -2.075  -2.368  1.00  0.00     0.035 A 
ATOM     10  C   UNL     1       3.447  -3.898  -1.925  1.00  0.00     0.049 A 
ATOM     11  C   UNL     1       1.141  -2.972  -3.040  1.00  0.00     0.113 A 
ATOM     12  N   UNL     1       1.398  -4.293  -3.116  1.00  0.00    -0.251 NA
BRANCH   8  13
ATOM     13  S   UNL     1       4.165  -1.542  -0.744  1.00  0.00    -0.116 SA
BRANCH  13  14
ATOM     14  C   UNL     1       2.954  -0.933   0.504  1.00  0.00     0.176 C 
BRANCH  14  15
ATOM     15  C   UNL     1       2.118   0.204  -0.052  1.00  0.00     0.248 C 
ATOM     16  O   UNL     1       0.900   0.259   0.093  1.00  0.00    -0.272 OA
ATOM     17  N   UNL     1       2.869   1.162  -0.704  1.00  0.00    -0.268 N 
ATOM     18  H   UNL     1       3.852   1.144  -0.650  1.00  0.00     0.191 HD
BRANCH  17  19
ATOM     19  N   UNL     1       2.228   2.148  -1.436  1.00  0.00    -0.282 N 
ATOM     20  H   UNL     1       1.255   2.285  -1.367  1.00  0.00     0.190 HD
BRANCH  19  21
ATOM     21  C   UNL     1       3.014   2.941  -2.275  1.00  0.00     0.144 A 
ATOM     22  C   UNL     1       4.084   2.414  -2.999  1.00  0.00     0.048 A 
ATOM     23  N   UNL     1       2.698   4.250  -2.333  1.00  0.00    -0.238 NA
ATOM     24  C   UNL     1       4.879   3.261  -3.766  1.00  0.00     0.005 A 
ATOM     25  C   UNL     1       3.481   5.054  -3.085  1.00  0.00     0.113 A 
ATOM     26  C   UNL     1       4.578   4.614  -3.804  1.00  0.00     0.020 A 
ENDBRANCH  19  21
ENDBRANCH  17  19
ENDBRANCH  14  15
ENDBRANCH  13  14
ENDBRANCH   8  13
ENDBRANCH   4   7
ENDBRANCH   2   3
ENDBRANCH   1   2
BRANCH   1  27
ATOM     27  C   UNL     1       4.101  -8.945   0.673  1.00  0.00     0.002 C 
BRANCH  27  28
ATOM     28  C   UNL     1       5.609  -9.134   0.483  1.00  0.00     0.002 C 
BRANCH  28  29
ATOM     29  C   UNL     1       6.523  -8.348   1.425  1.00  0.00     0.021 C 
BRANCH  29  30
ATOM     30  C   UNL     1       6.265  -8.530   2.917  1.00  0.00     0.116 C 
BRANCH  30  31
ATOM     31  N   UNL     1       6.462  -9.897   3.361  1.00  0.00    -0.352 N 
ATOM     32  C   UNL     1       7.159 -10.380   4.439  1.00  0.00     0.251 C 
ATOM     33  H   UNL     1       6.029 -10.583   2.803  1.00  0.00     0.163 HD
ATOM     34  O   UNL     1       7.321 -11.590   4.563  1.00  0.00    -0.269 OA
BRANCH  32  35
ATOM     35  C   UNL     1       7.734  -9.463   5.453  1.00  0.00     0.039 A 
ATOM     36  C   UNL     1       8.989  -9.771   5.989  1.00  0.00     0.014 A 
ATOM     37  C   UNL     1       7.031  -8.353   5.931  1.00  0.00     0.014 A 
ATOM     38  C   UNL     1       9.544  -8.962   6.984  1.00  0.00     0.010 A 
ATOM     39  C   UNL     1       7.616  -7.505   6.873  1.00  0.00     0.010 A 
ATOM     40  C   UNL     1       8.865  -7.817   7.429  1.00  0.00    -0.014 A 
BRANCH  40  41
ATOM     41  C   UNL     1       9.428  -6.979   8.519  1.00  0.00     0.031 A 
ATOM     42  C   UNL     1       8.734  -6.912   9.853  1.00  0.00     0.074 A 
ATOM     43  C   UNL     1      10.546  -6.260   8.305  1.00  0.00     0.049 A 
ATOM     44  N   UNL     1       9.062  -6.237  10.927  1.00  0.00    -0.248 NA
ATOM     45  C   UNL     1       7.490  -7.686   9.990  1.00  0.00     0.031 C 
ATOM     46  C   UNL     1      11.283  -6.199   7.043  1.00  0.00     0.029 A 
ATOM     47  N   UNL     1      11.257  -5.441   9.146  1.00  0.00    -0.354 N 
ATOM     48  C   UNL     1       8.060  -6.492  11.854  1.00  0.00     0.074 A 
ATOM     49  C   UNL     1       7.084  -7.336  11.201  1.00  0.00     0.031 C 
ATOM     50  C   UNL     1      12.356  -5.407   7.199  1.00  0.00     0.029 A 
ATOM     51  C   UNL     1      12.372  -4.890   8.565  1.00  0.00     0.049 A 
ATOM     52  H   UNL     1      10.993  -5.266  10.079  1.00  0.00     0.167 HD
ATOM     53  C   UNL     1       7.973  -6.081  13.143  1.00  0.00     0.037 A 
ATOM     54  C   UNL     1      13.306  -4.068   9.080  1.00  0.00     0.037 A 
ATOM     55  C   UNL     1       8.962  -5.270  13.802  1.00  0.00     0.049 A 
ATOM     56  C   UNL     1      13.210  -3.660  10.525  1.00  0.00     0.074 A 
ATOM     57  C   UNL     1       8.994  -4.843  15.118  1.00  0.00     0.029 A 
ATOM     58  N   UNL     1      10.101  -4.766  13.191  1.00  0.00    -0.354 N 
ATOM     59  N   UNL     1      12.293  -3.961  11.412  1.00  0.00    -0.248 NA
ATOM     60  C   UNL     1      14.292  -2.813  11.046  1.00  0.00     0.031 C 
ATOM     61  C   UNL     1      10.136  -4.053  15.295  1.00  0.00     0.029 A 
ATOM     62  C   UNL     1      10.839  -4.026  14.101  1.00  0.00     0.049 A 
ATOM     63  H   UNL     1      10.349  -4.913  12.250  1.00  0.00     0.167 HD
ATOM     64  C   UNL     1      12.702  -3.371  12.600  1.00  0.00     0.074 A 
ATOM     65  C   UNL     1      13.958  -2.704  12.323  1.00  0.00     0.031 C 
ATOM     66  C   UNL     1      12.093  -3.380  13.812  1.00  0.00     0.037 A 
BRANCH  53  67
ATOM     67  C   UNL     1       6.764  -6.510  13.924  1.00  0.00     0.064 A 
ATOM     68  C   UNL     1       6.571  -7.846  14.307  1.00  0.00     0.173 A 
ATOM     69  C   UNL     1       5.795  -5.572  14.310  1.00  0.00     0.173 A 
ATOM     70  F   UNL     1       7.461  -8.785  13.952  1.00  0.00    -0.203 F 
ATOM     71  C   UNL     1       5.436  -8.233  15.016  1.00  0.00     0.198 A 
ATOM     72  C   UNL     1       4.677  -5.957  15.046  1.00  0.00     0.198 A 
ATOM     73  F   UNL     1       5.932  -4.280  13.975  1.00  0.00    -0.203 F 
ATOM     74  F   UNL     1       5.247  -9.524  15.321  1.00  0.00    -0.200 F 
ATOM     75  C   UNL     1       4.494  -7.288  15.390  1.00  0.00     0.200 A 
ATOM     76  F   UNL     1       3.772  -5.040  15.417  1.00  0.00    -0.200 F 
ATOM     77  F   UNL     1       3.403  -7.661  16.073  1.00  0.00    -0.200 F 
ENDBRANCH  53  67
BRANCH  54  78
ATOM     78  C   UNL     1      14.444  -3.621   8.236  1.00  0.00     0.064 A 
ATOM     79  C   UNL     1      15.739  -4.107   8.459  1.00  0.00     0.173 A 
ATOM     80  C   UNL     1      14.261  -2.703   7.192  1.00  0.00     0.173 A 
ATOM     81  F   UNL     1      15.966  -4.973   9.458  1.00  0.00    -0.203 F 
ATOM     82  C   UNL     1      16.813  -3.678   7.682  1.00  0.00     0.198 A 
ATOM     83  C   UNL     1      15.331  -2.293   6.399  1.00  0.00     0.198 A 
ATOM     84  F   UNL     1      13.039  -2.213   6.935  1.00  0.00    -0.203 F 
ATOM     85  F   UNL     1      18.048  -4.126   7.944  1.00  0.00    -0.200 F 
ATOM     86  C   UNL     1      16.608  -2.775   6.650  1.00  0.00     0.200 A 
ATOM     87  F   UNL     1      15.126  -1.432   5.394  1.00  0.00    -0.200 F 
ATOM     88  F   UNL     1      17.640  -2.365   5.901  1.00  0.00    -0.200 F 
ENDBRANCH  54  78
BRANCH  66  89
ATOM     89  C   UNL     1      12.800  -2.686  14.939  1.00  0.00     0.064 A 
ATOM     90  C   UNL     1      12.890  -1.288  15.004  1.00  0.00     0.173 A 
ATOM     91  C   UNL     1      13.376  -3.432  15.979  1.00  0.00     0.173 A 
ATOM     92  F   UNL     1      12.367  -0.531  14.027  1.00  0.00    -0.203 F 
ATOM     93  C   UNL     1      13.559  -0.663  16.053  1.00  0.00     0.198 A 
ATOM     94  C   UNL     1      14.019  -2.802  17.041  1.00  0.00     0.198 A 
ATOM     95  F   UNL     1      13.311  -4.771  15.967  1.00  0.00    -0.203 F 
ATOM     96  F   UNL     1      13.680   0.672  16.067  1.00  0.00    -0.200 F 
ATOM     97  C   UNL     1      14.118  -1.420  17.072  1.00  0.00     0.200 A 
ATOM     98  F   UNL     1      14.548  -3.534  18.031  1.00  0.00    -0.200 F 
ATOM     99  F   UNL     1      14.762  -0.816  18.081  1.00  0.00    -0.200 F 
ENDBRANCH  66  89
ENDBRANCH  40  41
ENDBRANCH  32  35
ENDBRANCH  30  31
ENDBRANCH  29  30
ENDBRANCH  28  29
ENDBRANCH  27  28
ENDBRANCH   1  27
TORSDOF 18
