REMARK SMILES O=C(NCCCCCCNC(=O)[C@H]1CCCC[C@H]1C(=O)Nc1ccc(Cl)cc1F)c1ccc(-c2c3nc(c(-c4c(F)c(F)c(F)c(F)c4F)c4ccc([nH]4)c(-c4c(F)c(F)c(F)c(F)c4F)c4nc(c(-c5c(F)c(F)c(F)c(F)c5F)c5ccc2[nH]5)C=C4)C=C3)cc1
REMARK SMILES IDX 6 1 5 2 4 3 3 4 1 5 2 6 30 8 31 9 92 10 32 11 91 12 33 13
REMARK SMILES IDX 34 14 35 15 85 16 36 17 90 18 84 19 86 20 37 21 89 22 83 23
REMARK SMILES IDX 82 24 38 26 70 27 50 28 69 29 51 30 54 31 68 32 87 33 52 34
REMARK SMILES IDX 53 35 67 37 88 38 55 39 39 40 40 41 48 42 41 43 42 44 46 45
REMARK SMILES IDX 49 46 43 47 44 48 47 49 45 50 71 51 72 52 80 53 73 54 74 55
REMARK SMILES IDX 78 56 81 57 75 58 76 59 79 60 77 61 56 62 57 63 65 64 58 65
REMARK SMILES IDX 59 66 63 67 66 68 60 69 61 70 64 71 62 72 7 73 8 74 9 75
REMARK SMILES IDX 10 76 11 77 12 79 13 80 14 81 18 82 15 83 17 84 16 85 19 86
REMARK SMILES IDX 20 87 21 88 22 90 23 91 28 92 24 93 27 94 29 95 25 96 26 97
REMARK H PARENT 3 7 86 25 54 36 10 78 21 89
REMARK Flexibility Score: inf
ROOT
ATOM      1  C   UNL     1      11.718  10.886  -5.182  1.00  0.00     0.002 C 
ENDROOT
BRANCH   1   2
ATOM      2  C   UNL     1      11.345  12.336  -4.872  1.00  0.00     0.021 C 
BRANCH   2   3
ATOM      3  C   UNL     1      12.550  13.223  -4.690  1.00  0.00     0.116 C 
BRANCH   3   4
ATOM      4  N   UNL     1      13.296  13.453  -5.927  1.00  0.00    -0.352 N 
ATOM      5  O   UNL     1      14.381  14.741  -7.452  1.00  0.00    -0.269 OA
ATOM      6  C   UNL     1      13.867  14.637  -6.365  1.00  0.00     0.251 C 
ATOM      7  H   UNL     1      13.405  12.675  -6.519  1.00  0.00     0.163 HD
BRANCH   6   8
ATOM      8  C   UNL     1      13.781  15.788  -5.441  1.00  0.00     0.039 A 
ATOM      9  C   UNL     1      14.112  15.589  -4.102  1.00  0.00     0.014 A 
ATOM     10  C   UNL     1      13.226  16.990  -5.878  1.00  0.00     0.014 A 
ATOM     11  C   UNL     1      13.685  16.505  -3.163  1.00  0.00     0.010 A 
ATOM     12  C   UNL     1      12.950  17.987  -4.941  1.00  0.00     0.010 A 
ATOM     13  C   UNL     1      13.154  17.739  -3.574  1.00  0.00    -0.014 A 
BRANCH  13  14
ATOM     14  C   UNL     1      12.956  18.784  -2.545  1.00  0.00     0.031 A 
ATOM     15  C   UNL     1      11.610  19.380  -2.266  1.00  0.00     0.074 A 
ATOM     16  C   UNL     1      14.041  19.156  -1.837  1.00  0.00     0.049 A 
ATOM     17  N   UNL     1      11.293  20.315  -1.406  1.00  0.00    -0.248 NA
ATOM     18  C   UNL     1      10.474  18.881  -3.055  1.00  0.00     0.031 C 
ATOM     19  C   UNL     1      15.398  18.634  -2.042  1.00  0.00     0.029 A 
ATOM     20  N   UNL     1      14.182  20.029  -0.793  1.00  0.00    -0.354 N 
ATOM     21  C   UNL     1       9.931  20.534  -1.565  1.00  0.00     0.074 A 
ATOM     22  C   UNL     1       9.483  19.649  -2.620  1.00  0.00     0.031 C 
ATOM     23  C   UNL     1      16.214  19.139  -1.112  1.00  0.00     0.029 A 
ATOM     24  C   UNL     1      15.469  20.105  -0.321  1.00  0.00     0.049 A 
ATOM     25  H   UNL     1      13.436  20.550  -0.419  1.00  0.00     0.167 HD
ATOM     26  C   UNL     1       9.139  21.397  -0.884  1.00  0.00     0.037 A 
ATOM     27  C   UNL     1      16.006  20.901   0.618  1.00  0.00     0.037 A 
ATOM     28  C   UNL     1       9.612  22.262   0.170  1.00  0.00     0.049 A 
ATOM     29  C   UNL     1      15.109  21.875   1.316  1.00  0.00     0.074 A 
ATOM     30  C   UNL     1       8.891  23.156   0.942  1.00  0.00     0.029 A 
ATOM     31  N   UNL     1      10.932  22.346   0.594  1.00  0.00    -0.354 N 
ATOM     32  N   UNL     1      13.819  22.060   1.173  1.00  0.00    -0.248 NA
ATOM     33  C   UNL     1      15.742  22.758   2.300  1.00  0.00     0.031 C 
ATOM     34  C   UNL     1       9.782  23.825   1.787  1.00  0.00     0.029 A 
ATOM     35  C   UNL     1      11.050  23.299   1.596  1.00  0.00     0.049 A 
ATOM     36  H   UNL     1      11.675  21.808   0.237  1.00  0.00     0.167 HD
ATOM     37  C   UNL     1      13.480  23.066   2.062  1.00  0.00     0.074 A 
ATOM     38  C   UNL     1      14.697  23.429   2.761  1.00  0.00     0.031 C 
ATOM     39  C   UNL     1      12.273  23.643   2.277  1.00  0.00     0.037 A 
BRANCH  26  40
ATOM     40  C   UNL     1       7.688  21.476  -1.267  1.00  0.00     0.064 A 
ATOM     41  C   UNL     1       6.791  20.431  -1.002  1.00  0.00     0.173 A 
ATOM     42  C   UNL     1       7.173  22.644  -1.854  1.00  0.00     0.173 A 
ATOM     43  F   UNL     1       7.229  19.289  -0.451  1.00  0.00    -0.203 F 
ATOM     44  C   UNL     1       5.440  20.542  -1.328  1.00  0.00     0.198 A 
ATOM     45  C   UNL     1       5.817  22.764  -2.149  1.00  0.00     0.198 A 
ATOM     46  F   UNL     1       7.982  23.679  -2.124  1.00  0.00    -0.203 F 
ATOM     47  F   UNL     1       4.611  19.514  -1.102  1.00  0.00    -0.200 F 
ATOM     48  C   UNL     1       4.953  21.712  -1.892  1.00  0.00     0.200 A 
ATOM     49  F   UNL     1       5.346  23.902  -2.678  1.00  0.00    -0.200 F 
ATOM     50  F   UNL     1       3.651  21.822  -2.191  1.00  0.00    -0.200 F 
ENDBRANCH  26  40
BRANCH  27  51
ATOM     51  C   UNL     1      17.460  20.825   0.910  1.00  0.00     0.064 A 
ATOM     52  C   UNL     1      17.925  20.396   2.159  1.00  0.00     0.173 A 
ATOM     53  C   UNL     1      18.417  21.173  -0.057  1.00  0.00     0.173 A 
ATOM     54  F   UNL     1      17.050  20.060   3.120  1.00  0.00    -0.203 F 
ATOM     55  C   UNL     1      19.288  20.346   2.441  1.00  0.00     0.198 A 
ATOM     56  C   UNL     1      19.779  21.083   0.211  1.00  0.00     0.198 A 
ATOM     57  F   UNL     1      18.027  21.576  -1.276  1.00  0.00    -0.203 F 
ATOM     58  F   UNL     1      19.704  19.985   3.662  1.00  0.00    -0.200 F 
ATOM     59  C   UNL     1      20.214  20.683   1.464  1.00  0.00     0.200 A 
ATOM     60  F   UNL     1      20.669  21.383  -0.745  1.00  0.00    -0.200 F 
ATOM     61  F   UNL     1      21.525  20.629   1.734  1.00  0.00    -0.200 F 
ENDBRANCH  27  51
BRANCH  39  62
ATOM     62  C   UNL     1      12.213  24.701   3.342  1.00  0.00     0.064 A 
ATOM     63  C   UNL     1      12.830  25.950   3.178  1.00  0.00     0.173 A 
ATOM     64  C   UNL     1      11.523  24.460   4.539  1.00  0.00     0.173 A 
ATOM     65  F   UNL     1      13.520  26.221   2.059  1.00  0.00    -0.203 F 
ATOM     66  C   UNL     1      12.791  26.904   4.190  1.00  0.00     0.198 A 
ATOM     67  C   UNL     1      11.452  25.431   5.532  1.00  0.00     0.198 A 
ATOM     68  F   UNL     1      10.912  23.283   4.744  1.00  0.00    -0.203 F 
ATOM     69  F   UNL     1      13.447  28.063   4.040  1.00  0.00    -0.200 F 
ATOM     70  C   UNL     1      12.096  26.648   5.362  1.00  0.00     0.200 A 
ATOM     71  F   UNL     1      10.767  25.188   6.658  1.00  0.00    -0.200 F 
ATOM     72  F   UNL     1      12.056  27.569   6.334  1.00  0.00    -0.200 F 
ENDBRANCH  39  62
ENDBRANCH  13  14
ENDBRANCH   6   8
ENDBRANCH   3   4
ENDBRANCH   2   3
ENDBRANCH   1   2
BRANCH   1  73
ATOM     73  C   UNL     1      12.226  10.017  -3.961  1.00  0.00     0.002 C 
BRANCH  73  74
ATOM     74  C   UNL     1      12.432   8.388  -3.677  1.00  0.00     0.021 C 
BRANCH  74  75
ATOM     75  C   UNL     1      11.617   7.000  -4.087  1.00  0.00     0.116 C 
BRANCH  75  76
ATOM     76  N   UNL     1      10.982   5.842  -3.437  1.00  0.00    -0.356 N 
ATOM     77  C   UNL     1       9.590   5.725  -3.307  1.00  0.00     0.223 C 
ATOM     78  H   UNL     1      11.554   5.125  -3.080  1.00  0.00     0.163 HD
ATOM     79  O   UNL     1       8.967   4.843  -3.896  1.00  0.00    -0.275 OA
BRANCH  77  80
ATOM     80  C   UNL     1       8.933   6.556  -2.242  1.00  0.00     0.091 C 
ATOM     81  C   UNL     1       8.951   5.670  -0.954  1.00  0.00     0.014 C 
ATOM     82  C   UNL     1       9.656   7.894  -2.144  1.00  0.00     0.091 C 
ATOM     83  C   UNL     1      10.361   5.330  -0.490  1.00  0.00     0.001 C 
ATOM     84  C   UNL     1      10.954   7.697  -1.224  1.00  0.00     0.014 C 
ATOM     85  C   UNL     1      11.028   6.632  -0.099  1.00  0.00     0.001 C 
BRANCH  82  86
ATOM     86  C   UNL     1       9.405   8.959  -3.527  1.00  0.00     0.228 C 
ATOM     87  O   UNL     1       8.976  10.085  -3.177  1.00  0.00    -0.274 OA
ATOM     88  N   UNL     1       9.437   8.868  -4.962  1.00  0.00    -0.323 N 
ATOM     89  H   UNL     1       8.726   9.447  -5.319  1.00  0.00     0.170 HD
BRANCH  88  90
ATOM     90  C   UNL     1      10.154   8.214  -6.149  1.00  0.00     0.077 A 
ATOM     91  C   UNL     1      11.550   8.289  -6.483  1.00  0.00     0.031 A 
ATOM     92  C   UNL     1       9.484   7.227  -6.854  1.00  0.00     0.148 A 
ATOM     93  C   UNL     1      12.271   7.261  -7.122  1.00  0.00     0.023 A 
ATOM     94  C   UNL     1      10.184   6.180  -7.494  1.00  0.00     0.062 A 
ATOM     95  F   UNL     1       8.149   7.191  -6.826  1.00  0.00    -0.205 F 
ATOM     96  C   UNL     1      11.576   6.147  -7.519  1.00  0.00     0.044 A 
ATOM     97  Cl  UNL     1      12.437   4.700  -7.864  1.00  0.00    -0.084 Cl
ENDBRANCH  88  90
ENDBRANCH  82  86
ENDBRANCH  77  80
ENDBRANCH  75  76
ENDBRANCH  74  75
ENDBRANCH  73  74
ENDBRANCH   1  73
TORSDOF 15
