REMARK SMILES CS(=O)(=O)c1ccc(/C=C(/C(=O)NCCCCCCNC(=O)c2ccc(-c3c4nc(c(-c5c(F)c(F)c(F)c(F)c5F)c5ccc([nH]5)c(-c5c(F)c(F)c(F)c(F)c5F)c5nc(c(-c6c(F)c(F)c(F)c(F)c6F)c6ccc3[nH]6)C=C5)C=C4)cc2)c2cccc(Br)c2)cc1
REMARK SMILES IDX 16 1 15 2 14 3 13 4 11 5 12 6 10 8 9 9 8 10 5 11 6 12 94 13
REMARK SMILES IDX 7 14 93 15 2 16 1 17 3 18 4 19 86 20 87 21 92 22 88 23 90 24
REMARK SMILES IDX 89 25 91 26 17 27 18 28 19 29 20 30 21 31 22 33 23 34 24 35
REMARK SMILES IDX 85 36 25 37 84 38 26 39 27 40 28 41 78 42 29 43 83 44 77 45
REMARK SMILES IDX 79 46 30 47 82 48 76 49 75 50 31 52 63 53 43 54 62 55 44 56
REMARK SMILES IDX 47 57 61 58 80 59 45 60 46 61 60 63 81 64 48 65 32 66 33 67
REMARK SMILES IDX 41 68 34 69 35 70 39 71 42 72 36 73 37 74 40 75 38 76 64 77
REMARK SMILES IDX 65 78 73 79 66 80 67 81 71 82 74 83 68 84 69 85 72 86 70 87
REMARK SMILES IDX 49 88 50 89 58 90 51 91 52 92 56 93 59 94 53 95 54 96 57 97
REMARK SMILES IDX 55 98
REMARK H PARENT 13 7 20 32 79 51 47 62
REMARK Flexibility Score: inf
ROOT
ATOM      1  C   UNL     1       2.489  -7.120   9.240  1.00  0.00     0.002 C 
ENDROOT
BRANCH   1   2
ATOM      2  C   UNL     1       2.267  -5.997   8.213  1.00  0.00     0.021 C 
BRANCH   2   3
ATOM      3  C   UNL     1       3.093  -6.160   6.933  1.00  0.00     0.116 C 
BRANCH   3   4
ATOM      4  N   UNL     1       2.571  -7.261   6.148  1.00  0.00    -0.352 N 
ATOM      5  C   UNL     1       1.807  -7.357   5.030  1.00  0.00     0.251 C 
ATOM      6  O   UNL     1       1.491  -8.501   4.692  1.00  0.00    -0.269 OA
ATOM      7  H   UNL     1       2.829  -8.140   6.508  1.00  0.00     0.163 HD
BRANCH   5   8
ATOM      8  C   UNL     1       1.427  -6.176   4.164  1.00  0.00     0.047 C 
ATOM      9  C   UNL     1       1.172  -4.951   4.676  1.00  0.00     0.022 C 
BRANCH   9  10
ATOM     10  C   UNL     1       0.907  -3.683   3.961  1.00  0.00    -0.025 A 
ATOM     11  C   UNL     1       0.598  -1.234   2.623  1.00  0.00     0.067 A 
ATOM     12  C   UNL     1      -0.172  -2.335   2.245  1.00  0.00     0.021 A 
ATOM     13  C   UNL     1       1.484  -1.325   3.696  1.00  0.00     0.021 A 
ATOM     14  C   UNL     1      -0.026  -3.549   2.925  1.00  0.00     0.009 A 
ATOM     15  C   UNL     1       1.637  -2.548   4.357  1.00  0.00     0.009 A 
BRANCH  11  16
ATOM     16  S   UNL     1       0.404   0.305   1.756  1.00  0.00     0.175 S 
ATOM     17  C   UNL     1       1.185   0.011   0.190  1.00  0.00     0.163 C 
ATOM     18  O   UNL     1       1.181   1.308   2.455  1.00  0.00    -0.224 OA
ATOM     19  O   UNL     1      -1.019   0.487   1.529  1.00  0.00    -0.224 OA
ENDBRANCH  11  16
ENDBRANCH   9  10
BRANCH   8  20
ATOM     20  C   UNL     1       1.175  -6.462   2.728  1.00  0.00    -0.012 A 
ATOM     21  C   UNL     1       0.065  -7.256   2.385  1.00  0.00     0.009 A 
ATOM     22  C   UNL     1       1.956  -5.910   1.706  1.00  0.00     0.024 A 
ATOM     23  C   UNL     1      -0.272  -7.481   1.052  1.00  0.00     0.002 A 
ATOM     24  C   UNL     1       1.600  -6.123   0.372  1.00  0.00     0.018 A 
ATOM     25  C   UNL     1       0.491  -6.904   0.041  1.00  0.00     0.016 A 
ATOM     26  Br  UNL     1       2.606  -5.308  -1.006  1.00  0.00    -0.051 Br
ENDBRANCH   8  20
ENDBRANCH   5   8
ENDBRANCH   3   4
ENDBRANCH   2   3
ENDBRANCH   1   2
BRANCH   1  27
ATOM     27  C   UNL     1       3.917  -7.230   9.788  1.00  0.00     0.002 C 
BRANCH  27  28
ATOM     28  C   UNL     1       4.484  -5.942  10.392  1.00  0.00     0.021 C 
BRANCH  28  29
ATOM     29  C   UNL     1       3.684  -5.383  11.565  1.00  0.00     0.116 C 
BRANCH  29  30
ATOM     30  N   UNL     1       3.729  -6.260  12.723  1.00  0.00    -0.352 N 
ATOM     31  C   UNL     1       4.060  -5.971  14.023  1.00  0.00     0.251 C 
ATOM     32  H   UNL     1       3.488  -7.199  12.550  1.00  0.00     0.163 HD
ATOM     33  O   UNL     1       4.230  -6.878  14.831  1.00  0.00    -0.269 OA
BRANCH  31  34
ATOM     34  C   UNL     1       4.226  -4.566  14.455  1.00  0.00     0.039 A 
ATOM     35  C   UNL     1       5.302  -4.242  15.287  1.00  0.00     0.014 A 
ATOM     36  C   UNL     1       3.307  -3.580  14.083  1.00  0.00     0.014 A 
ATOM     37  C   UNL     1       5.479  -2.924  15.712  1.00  0.00     0.010 A 
ATOM     38  C   UNL     1       3.518  -2.254  14.458  1.00  0.00     0.010 A 
ATOM     39  C   UNL     1       4.599  -1.916  15.286  1.00  0.00    -0.014 A 
BRANCH  39  40
ATOM     40  C   UNL     1       4.786  -0.510  15.721  1.00  0.00     0.031 A 
ATOM     41  C   UNL     1       3.783   0.139  16.633  1.00  0.00     0.074 A 
ATOM     42  C   UNL     1       5.835   0.197  15.260  1.00  0.00     0.049 A 
ATOM     43  N   UNL     1       3.754   1.364  17.096  1.00  0.00    -0.248 NA
ATOM     44  C   UNL     1       2.647  -0.691  17.062  1.00  0.00     0.031 C 
ATOM     45  C   UNL     1       6.850  -0.305  14.332  1.00  0.00     0.029 A 
ATOM     46  N   UNL     1       6.219   1.491  15.505  1.00  0.00    -0.354 N 
ATOM     47  C   UNL     1       2.595   1.454  17.855  1.00  0.00     0.074 A 
ATOM     48  C   UNL     1       1.922   0.177  17.753  1.00  0.00     0.031 C 
ATOM     49  C   UNL     1       7.751   0.664  14.102  1.00  0.00     0.029 A 
ATOM     50  C   UNL     1       7.365   1.860  14.846  1.00  0.00     0.049 A 
ATOM     51  H   UNL     1       5.719   2.099  16.097  1.00  0.00     0.167 HD
ATOM     52  C   UNL     1       2.144   2.499  18.589  1.00  0.00     0.037 A 
ATOM     53  C   UNL     1       8.031   3.030  14.845  1.00  0.00     0.037 A 
ATOM     54  C   UNL     1       2.830   3.758  18.716  1.00  0.00     0.049 A 
ATOM     55  C   UNL     1       7.522   4.167  15.688  1.00  0.00     0.074 A 
ATOM     56  C   UNL     1       2.486   4.856  19.485  1.00  0.00     0.029 A 
ATOM     57  N   UNL     1       4.004   4.084  18.055  1.00  0.00    -0.354 N 
ATOM     58  N   UNL     1       6.460   4.218  16.455  1.00  0.00    -0.248 NA
ATOM     59  C   UNL     1       8.311   5.406  15.672  1.00  0.00     0.031 C 
ATOM     60  C   UNL     1       3.436   5.860  19.263  1.00  0.00     0.029 A 
ATOM     61  C   UNL     1       4.392   5.373  18.387  1.00  0.00     0.049 A 
ATOM     62  H   UNL     1       4.491   3.489  17.440  1.00  0.00     0.167 HD
ATOM     63  C   UNL     1       6.465   5.481  17.030  1.00  0.00     0.074 A 
ATOM     64  C   UNL     1       7.646   6.160  16.537  1.00  0.00     0.031 C 
ATOM     65  C   UNL     1       5.571   6.031  17.888  1.00  0.00     0.037 A 
BRANCH  52  66
ATOM     66  C   UNL     1       0.846   2.320  19.321  1.00  0.00     0.064 A 
ATOM     67  C   UNL     1       0.746   1.484  20.443  1.00  0.00     0.173 A 
ATOM     68  C   UNL     1      -0.303   3.013  18.914  1.00  0.00     0.173 A 
ATOM     69  F   UNL     1       1.813   0.789  20.864  1.00  0.00    -0.203 F 
ATOM     70  C   UNL     1      -0.464   1.326  21.114  1.00  0.00     0.198 A 
ATOM     71  C   UNL     1      -1.505   2.875  19.604  1.00  0.00     0.198 A 
ATOM     72  F   UNL     1      -0.261   3.829  17.850  1.00  0.00    -0.203 F 
ATOM     73  F   UNL     1      -0.547   0.485  22.154  1.00  0.00    -0.200 F 
ATOM     74  C   UNL     1      -1.587   2.026  20.697  1.00  0.00     0.200 A 
ATOM     75  F   UNL     1      -2.587   3.559  19.207  1.00  0.00    -0.200 F 
ATOM     76  F   UNL     1      -2.750   1.876  21.346  1.00  0.00    -0.200 F 
ENDBRANCH  52  66
BRANCH  53  77
ATOM     77  C   UNL     1       9.275   3.173  14.048  1.00  0.00     0.064 A 
ATOM     78  C   UNL     1      10.526   3.249  14.677  1.00  0.00     0.173 A 
ATOM     79  C   UNL     1       9.242   3.237  12.648  1.00  0.00     0.173 A 
ATOM     80  F   UNL     1      10.604   3.212  16.015  1.00  0.00    -0.203 F 
ATOM     81  C   UNL     1      11.695   3.402  13.936  1.00  0.00     0.198 A 
ATOM     82  C   UNL     1      10.414   3.366  11.907  1.00  0.00     0.198 A 
ATOM     83  F   UNL     1       8.070   3.163  12.000  1.00  0.00    -0.203 F 
ATOM     84  F   UNL     1      12.874   3.513  14.564  1.00  0.00    -0.200 F 
ATOM     85  C   UNL     1      11.639   3.455  12.551  1.00  0.00     0.200 A 
ATOM     86  F   UNL     1      10.358   3.404  10.568  1.00  0.00    -0.200 F 
ATOM     87  F   UNL     1      12.764   3.599  11.838  1.00  0.00    -0.200 F 
ENDBRANCH  53  77
BRANCH  65  88
ATOM     88  C   UNL     1       5.851   7.425  18.364  1.00  0.00     0.064 A 
ATOM     89  C   UNL     1       5.688   8.534  17.522  1.00  0.00     0.173 A 
ATOM     90  C   UNL     1       6.263   7.656  19.685  1.00  0.00     0.173 A 
ATOM     91  F   UNL     1       5.312   8.363  16.245  1.00  0.00    -0.203 F 
ATOM     92  C   UNL     1       5.954   9.823  17.977  1.00  0.00     0.198 A 
ATOM     93  C   UNL     1       6.502   8.948  20.145  1.00  0.00     0.198 A 
ATOM     94  F   UNL     1       6.429   6.628  20.531  1.00  0.00    -0.203 F 
ATOM     95  F   UNL     1       5.838  10.864  17.141  1.00  0.00    -0.200 F 
ATOM     96  C   UNL     1       6.354  10.029  19.289  1.00  0.00     0.200 A 
ATOM     97  F   UNL     1       6.880   9.147  21.415  1.00  0.00    -0.200 F 
ATOM     98  F   UNL     1       6.608  11.270  19.726  1.00  0.00    -0.200 F 
ENDBRANCH  65  88
ENDBRANCH  39  40
ENDBRANCH  31  34
ENDBRANCH  29  30
ENDBRANCH  28  29
ENDBRANCH  27  28
ENDBRANCH   1  27
TORSDOF 16
