REMARK SMILES CC(C)CCNC(=O)[C@@H](C)Oc1ccc(N)cc1C(=O)NCCCCCCNC(=O)c1ccc(-c2c3nc(c(-c4c(F)c(F)c(F)c(F)c4F)c4ccc([nH]4)c(-c4c(F)c(F)c(F)c(F)c4F)c4nc(c(-c5c(F)c(F)c(F)c(F)c5F)c5ccc2[nH]5)C=C4)C=C3)cc1
REMARK SMILES IDX 22 1 21 2 19 3 20 4 18 6 12 7 13 8 14 9 17 10 15 11 11 12
REMARK SMILES IDX 9 13 10 14 7 15 6 16 8 18 5 19 4 20 2 21 1 22 3 23 16 24
REMARK SMILES IDX 23 27 24 28 25 29 26 30 27 31 28 32 29 33 30 35 31 36 32 37
REMARK SMILES IDX 93 38 33 39 92 40 34 41 35 42 36 43 86 44 37 45 91 46 85 47
REMARK SMILES IDX 87 48 38 49 90 50 84 51 83 52 39 54 71 55 51 56 70 57 52 58
REMARK SMILES IDX 55 59 69 60 88 61 53 62 54 63 68 65 89 66 56 67 40 68 41 69
REMARK SMILES IDX 49 70 42 71 43 72 47 73 50 74 44 75 45 76 48 77 46 78 72 79
REMARK SMILES IDX 73 80 81 81 74 82 75 83 79 84 82 85 76 86 77 87 80 88 78 89
REMARK SMILES IDX 57 90 58 91 66 92 59 93 60 94 64 95 67 96 61 97 62 98 65 99
REMARK SMILES IDX 63 100
REMARK H PARENT 21 5 6 17 16 25 16 26 28 34 87 53 55 64
REMARK Flexibility Score: inf
ROOT
ATOM      1  C   UNL     1      -6.284  -1.574   3.244  1.00  0.00     0.116 C 
ENDROOT
BRANCH   1   2
ATOM      2  N   UNL     1      -6.369  -1.600   1.801  1.00  0.00    -0.352 N 
ATOM      3  C   UNL     1      -5.514  -1.535   0.743  1.00  0.00     0.255 C 
ATOM      4  O   UNL     1      -6.084  -1.354  -0.342  1.00  0.00    -0.269 OA
ATOM      5  H   UNL     1      -7.302  -1.689   1.500  1.00  0.00     0.163 HD
BRANCH   3   6
ATOM      6  C   UNL     1      -4.032  -1.748   0.728  1.00  0.00     0.083 A 
ATOM      7  C   UNL     1      -3.096  -1.682   1.763  1.00  0.00     0.133 A 
ATOM      8  C   UNL     1      -1.810  -2.210   1.563  1.00  0.00     0.049 A 
ATOM      9  C   UNL     1      -1.370  -2.573   0.286  1.00  0.00     0.029 A 
ATOM     10  C   UNL     1      -3.540  -2.087  -0.559  1.00  0.00     0.043 A 
ATOM     11  C   UNL     1      -2.208  -2.418  -0.806  1.00  0.00     0.032 A 
BRANCH   7  12
ATOM     12  O   UNL     1      -3.353  -1.208   3.007  1.00  0.00    -0.480 OA
BRANCH  12  13
ATOM     13  C   UNL     1      -3.002   0.145   3.312  1.00  0.00     0.258 C 
ATOM     14  C   UNL     1      -3.764   1.211   2.521  1.00  0.00     0.064 C 
BRANCH  13  15
ATOM     15  C   UNL     1      -1.533   0.554   3.623  1.00  0.00     0.260 C 
ATOM     16  N   UNL     1      -0.642   0.908   2.653  1.00  0.00    -0.353 N 
ATOM     17  H   UNL     1       0.156   1.392   2.967  1.00  0.00     0.163 HD
ATOM     18  O   UNL     1      -1.140   0.612   4.793  1.00  0.00    -0.271 OA
BRANCH  16  19
ATOM     19  C   UNL     1      -0.707   0.673   1.228  1.00  0.00     0.116 C 
BRANCH  19  20
ATOM     20  C   UNL     1      -0.169   1.815   0.382  1.00  0.00     0.024 C 
BRANCH  20  21
ATOM     21  C   UNL     1       1.359   1.809   0.196  1.00  0.00    -0.016 C 
ATOM     22  C   UNL     1       1.878   0.495  -0.402  1.00  0.00     0.007 C 
ATOM     23  C   UNL     1       1.752   2.970  -0.719  1.00  0.00     0.007 C 
ENDBRANCH  20  21
ENDBRANCH  19  20
ENDBRANCH  16  19
ENDBRANCH  13  15
ENDBRANCH  12  13
ENDBRANCH   7  12
BRANCH  11  24
ATOM     24  N   UNL     1      -1.786  -2.722  -2.087  1.00  0.00    -0.399 N 
ATOM     25  H   UNL     1      -0.843  -2.955  -2.253  1.00  0.00     0.156 HD
ATOM     26  H   UNL     1      -2.427  -2.706  -2.834  1.00  0.00     0.156 HD
ENDBRANCH  11  24
ENDBRANCH   3   6
ENDBRANCH   1   2
BRANCH   1  27
ATOM     27  C   UNL     1      -6.772  -0.207   3.741  1.00  0.00     0.021 C 
BRANCH  27  28
ATOM     28  C   UNL     1      -8.087  -0.281   4.518  1.00  0.00     0.002 C 
BRANCH  28  29
ATOM     29  C   UNL     1      -8.004  -1.077   5.822  1.00  0.00     0.002 C 
BRANCH  29  30
ATOM     30  C   UNL     1      -6.907  -0.620   6.787  1.00  0.00     0.021 C 
BRANCH  30  31
ATOM     31  C   UNL     1      -6.954   0.862   7.149  1.00  0.00     0.116 C 
BRANCH  31  32
ATOM     32  N   UNL     1      -8.248   1.247   7.689  1.00  0.00    -0.352 N 
ATOM     33  C   UNL     1      -8.577   1.704   8.933  1.00  0.00     0.251 C 
ATOM     34  H   UNL     1      -9.003   1.165   7.061  1.00  0.00     0.163 HD
ATOM     35  O   UNL     1      -9.760   1.740   9.284  1.00  0.00    -0.269 OA
BRANCH  33  36
ATOM     36  C   UNL     1      -7.528   2.159   9.863  1.00  0.00     0.039 A 
ATOM     37  C   UNL     1      -7.627   1.816  11.214  1.00  0.00     0.014 A 
ATOM     38  C   UNL     1      -6.477   2.968   9.418  1.00  0.00     0.014 A 
ATOM     39  C   UNL     1      -6.654   2.254  12.112  1.00  0.00     0.010 A 
ATOM     40  C   UNL     1      -5.470   3.344  10.300  1.00  0.00     0.010 A 
ATOM     41  C   UNL     1      -5.559   3.007  11.658  1.00  0.00    -0.014 A 
BRANCH  41  42
ATOM     42  C   UNL     1      -4.515   3.478  12.599  1.00  0.00     0.031 A 
ATOM     43  C   UNL     1      -4.346   4.949  12.858  1.00  0.00     0.074 A 
ATOM     44  C   UNL     1      -3.692   2.586  13.181  1.00  0.00     0.049 A 
ATOM     45  N   UNL     1      -3.462   5.564  13.603  1.00  0.00    -0.248 NA
ATOM     46  C   UNL     1      -5.279   5.853  12.167  1.00  0.00     0.031 C 
ATOM     47  C   UNL     1      -3.733   1.138  12.973  1.00  0.00     0.029 A 
ATOM     48  N   UNL     1      -2.656   2.767  14.061  1.00  0.00    -0.354 N 
ATOM     49  C   UNL     1      -3.725   6.920  13.459  1.00  0.00     0.074 A 
ATOM     50  C   UNL     1      -4.814   7.043  12.515  1.00  0.00     0.031 C 
ATOM     51  C   UNL     1      -2.779   0.560  13.721  1.00  0.00     0.029 A 
ATOM     52  C   UNL     1      -2.041   1.598  14.434  1.00  0.00     0.049 A 
ATOM     53  H   UNL     1      -2.379   3.652  14.393  1.00  0.00     0.167 HD
ATOM     54  C   UNL     1      -3.128   7.966  14.078  1.00  0.00     0.037 A 
ATOM     55  C   UNL     1      -0.997   1.390  15.258  1.00  0.00     0.037 A 
ATOM     56  C   UNL     1      -2.061   7.836  15.035  1.00  0.00     0.049 A 
ATOM     57  C   UNL     1      -0.354   2.570  15.935  1.00  0.00     0.074 A 
ATOM     58  C   UNL     1      -1.418   8.828  15.754  1.00  0.00     0.029 A 
ATOM     59  N   UNL     1      -1.481   6.632  15.408  1.00  0.00    -0.354 N 
ATOM     60  N   UNL     1      -0.650   3.844  15.840  1.00  0.00    -0.248 NA
ATOM     61  C   UNL     1       0.764   2.281  16.844  1.00  0.00     0.031 C 
ATOM     62  C   UNL     1      -0.422   8.228  16.533  1.00  0.00     0.029 A 
ATOM     63  C   UNL     1      -0.477   6.858  16.337  1.00  0.00     0.049 A 
ATOM     64  H   UNL     1      -1.743   5.747  15.063  1.00  0.00     0.167 HD
ATOM     65  C   UNL     1       0.219   4.503  16.698  1.00  0.00     0.074 A 
ATOM     66  C   UNL     1       1.046   3.487  17.315  1.00  0.00     0.031 C 
ATOM     67  C   UNL     1       0.324   5.831  16.951  1.00  0.00     0.037 A 
BRANCH  54  68
ATOM     68  C   UNL     1      -3.622   9.344  13.742  1.00  0.00     0.064 A 
ATOM     69  C   UNL     1      -4.888   9.790  14.151  1.00  0.00     0.173 A 
ATOM     70  C   UNL     1      -2.810  10.239  13.029  1.00  0.00     0.173 A 
ATOM     71  F   UNL     1      -5.708   8.970  14.825  1.00  0.00    -0.203 F 
ATOM     72  C   UNL     1      -5.335  11.070  13.833  1.00  0.00     0.198 A 
ATOM     73  C   UNL     1      -3.248  11.529  12.739  1.00  0.00     0.198 A 
ATOM     74  F   UNL     1      -1.589   9.866  12.618  1.00  0.00    -0.203 F 
ATOM     75  F   UNL     1      -6.567  11.456  14.191  1.00  0.00    -0.200 F 
ATOM     76  C   UNL     1      -4.512  11.940  13.134  1.00  0.00     0.200 A 
ATOM     77  F   UNL     1      -2.448  12.373  12.075  1.00  0.00    -0.200 F 
ATOM     78  F   UNL     1      -4.941  13.174  12.834  1.00  0.00    -0.200 F 
ENDBRANCH  54  68
BRANCH  55  79
ATOM     79  C   UNL     1      -0.518   0.008  15.517  1.00  0.00     0.064 A 
ATOM     80  C   UNL     1      -0.703  -0.593  16.770  1.00  0.00     0.173 A 
ATOM     81  C   UNL     1       0.137  -0.736  14.526  1.00  0.00     0.173 A 
ATOM     82  F   UNL     1      -1.308   0.087  17.756  1.00  0.00    -0.203 F 
ATOM     83  C   UNL     1      -0.229  -1.877  17.030  1.00  0.00     0.198 A 
ATOM     84  C   UNL     1       0.586  -2.031  14.778  1.00  0.00     0.198 A 
ATOM     85  F   UNL     1       0.334  -0.209  13.309  1.00  0.00    -0.203 F 
ATOM     86  F   UNL     1      -0.377  -2.408  18.251  1.00  0.00    -0.200 F 
ATOM     87  C   UNL     1       0.410  -2.597  16.032  1.00  0.00     0.200 A 
ATOM     88  F   UNL     1       1.192  -2.729  13.808  1.00  0.00    -0.200 F 
ATOM     89  F   UNL     1       0.866  -3.832  16.282  1.00  0.00    -0.200 F 
ENDBRANCH  55  79
BRANCH  67  90
ATOM     90  C   UNL     1       1.337   6.255  17.974  1.00  0.00     0.064 A 
ATOM     91  C   UNL     1       2.714   6.208  17.713  1.00  0.00     0.173 A 
ATOM     92  C   UNL     1       0.920   6.743  19.222  1.00  0.00     0.173 A 
ATOM     93  F   UNL     1       3.163   5.734  16.541  1.00  0.00    -0.203 F 
ATOM     94  C   UNL     1       3.638   6.607  18.675  1.00  0.00     0.198 A 
ATOM     95  C   UNL     1       1.845   7.170  20.170  1.00  0.00     0.198 A 
ATOM     96  F   UNL     1      -0.387   6.815  19.518  1.00  0.00    -0.203 F 
ATOM     97  F   UNL     1       4.950   6.506  18.423  1.00  0.00    -0.200 F 
ATOM     98  C   UNL     1       3.203   7.094  19.899  1.00  0.00     0.200 A 
ATOM     99  F   UNL     1       1.423   7.652  21.347  1.00  0.00    -0.200 F 
ATOM    100  F   UNL     1       4.094   7.482  20.822  1.00  0.00    -0.200 F 
ENDBRANCH  67  90
ENDBRANCH  41  42
ENDBRANCH  33  36
ENDBRANCH  31  32
ENDBRANCH  30  31
ENDBRANCH  29  30
ENDBRANCH  28  29
ENDBRANCH  27  28
ENDBRANCH   1  27
TORSDOF 20
