REMARK SMILES O=C(NCCCCCCNC(=O)c1c(C(=O)N2CCc3ccccc32)cccc1[N+](=O)[O-])c1ccc(-c2c3nc(c(-c4c(F)c(F)c(F)c(F)c4F)c4ccc([nH]4)c(-c4c(F)c(F)c(F)c(F)c4F)c4nc(c(-c5c(F)c(F)c(F)c(F)c5F)c5ccc2[nH]5)C=C4)C=C3)cc1
REMARK SMILES IDX 6 1 5 2 4 3 3 4 1 5 2 6 33 8 34 9 95 10 35 11 94 12 36 13
REMARK SMILES IDX 37 14 38 15 88 16 39 17 93 18 87 19 89 20 40 21 92 22 86 23
REMARK SMILES IDX 85 24 41 26 73 27 53 28 72 29 54 30 57 31 71 32 90 33 55 34
REMARK SMILES IDX 56 35 70 37 91 38 58 39 42 40 43 41 51 42 44 43 45 44 49 45
REMARK SMILES IDX 52 46 46 47 47 48 50 49 48 50 74 51 75 52 83 53 76 54 77 55
REMARK SMILES IDX 81 56 84 57 78 58 79 59 82 60 80 61 59 62 60 63 68 64 61 65
REMARK SMILES IDX 62 66 66 67 69 68 63 69 64 70 67 71 65 72 7 73 8 74 9 75
REMARK SMILES IDX 10 76 11 77 12 79 13 80 14 81 29 82 26 83 28 84 27 85 15 86
REMARK SMILES IDX 16 87 17 88 18 89 25 90 19 91 20 92 24 93 21 94 23 95 22 96
REMARK SMILES IDX 30 97 31 98 32 99
REMARK H PARENT 3 7 89 25 57 36 10 78
REMARK Flexibility Score: inf
ROOT
ATOM      1  C   UNL     1       4.171   1.854  -3.665  1.00  0.00     0.002 C 
ENDROOT
BRANCH   1   2
ATOM      2  C   UNL     1       4.656   0.678  -2.819  1.00  0.00     0.021 C 
BRANCH   2   3
ATOM      3  C   UNL     1       4.362   0.768  -1.327  1.00  0.00     0.116 C 
BRANCH   3   4
ATOM      4  N   UNL     1       2.945   0.754  -1.002  1.00  0.00    -0.352 N 
ATOM      5  O   UNL     1       1.062   0.071   0.045  1.00  0.00    -0.269 OA
ATOM      6  C   UNL     1       2.279   0.027  -0.037  1.00  0.00     0.251 C 
ATOM      7  H   UNL     1       2.380   1.348  -1.548  1.00  0.00     0.163 HD
BRANCH   6   8
ATOM      8  C   UNL     1       3.051  -0.840   0.887  1.00  0.00     0.039 A 
ATOM      9  C   UNL     1       4.228  -0.380   1.474  1.00  0.00     0.014 A 
ATOM     10  C   UNL     1       2.595  -2.135   1.157  1.00  0.00     0.014 A 
ATOM     11  C   UNL     1       5.034  -1.261   2.184  1.00  0.00     0.010 A 
ATOM     12  C   UNL     1       3.358  -2.991   1.962  1.00  0.00     0.010 A 
ATOM     13  C   UNL     1       4.602  -2.571   2.455  1.00  0.00    -0.014 A 
BRANCH  13  14
ATOM     14  C   UNL     1       5.453  -3.432   3.318  1.00  0.00     0.031 A 
ATOM     15  C   UNL     1       6.093  -4.690   2.800  1.00  0.00     0.074 A 
ATOM     16  C   UNL     1       5.705  -3.014   4.575  1.00  0.00     0.049 A 
ATOM     17  N   UNL     1       6.933  -5.494   3.406  1.00  0.00    -0.248 NA
ATOM     18  C   UNL     1       5.745  -5.108   1.435  1.00  0.00     0.031 C 
ATOM     19  C   UNL     1       5.116  -1.824   5.195  1.00  0.00     0.029 A 
ATOM     20  N   UNL     1       6.541  -3.511   5.541  1.00  0.00    -0.354 N 
ATOM     21  C   UNL     1       7.208  -6.512   2.502  1.00  0.00     0.074 A 
ATOM     22  C   UNL     1       6.420  -6.245   1.317  1.00  0.00     0.031 C 
ATOM     23  C   UNL     1       5.656  -1.646   6.408  1.00  0.00     0.029 A 
ATOM     24  C   UNL     1       6.577  -2.744   6.680  1.00  0.00     0.049 A 
ATOM     25  H   UNL     1       7.064  -4.338   5.430  1.00  0.00     0.167 HD
ATOM     26  C   UNL     1       8.050  -7.565   2.647  1.00  0.00     0.037 A 
ATOM     27  C   UNL     1       7.265  -2.908   7.824  1.00  0.00     0.037 A 
ATOM     28  C   UNL     1       8.835  -7.824   3.829  1.00  0.00     0.049 A 
ATOM     29  C   UNL     1       8.188  -4.084   7.952  1.00  0.00     0.074 A 
ATOM     30  C   UNL     1       9.722  -8.860   4.068  1.00  0.00     0.029 A 
ATOM     31  N   UNL     1       8.825  -7.038   4.973  1.00  0.00    -0.354 N 
ATOM     32  N   UNL     1       8.458  -5.021   7.078  1.00  0.00    -0.248 NA
ATOM     33  C   UNL     1       8.903  -4.224   9.227  1.00  0.00     0.031 C 
ATOM     34  C   UNL     1      10.219  -8.723   5.369  1.00  0.00     0.029 A 
ATOM     35  C   UNL     1       9.681  -7.574   5.925  1.00  0.00     0.049 A 
ATOM     36  H   UNL     1       8.290  -6.221   5.092  1.00  0.00     0.167 HD
ATOM     37  C   UNL     1       9.373  -5.862   7.692  1.00  0.00     0.074 A 
ATOM     38  C   UNL     1       9.645  -5.297   8.999  1.00  0.00     0.031 C 
ATOM     39  C   UNL     1       9.930  -7.005   7.224  1.00  0.00     0.037 A 
BRANCH  26  40
ATOM     40  C   UNL     1       8.173  -8.528   1.499  1.00  0.00     0.064 A 
ATOM     41  C   UNL     1       8.845  -8.179   0.318  1.00  0.00     0.173 A 
ATOM     42  C   UNL     1       7.678  -9.836   1.608  1.00  0.00     0.173 A 
ATOM     43  F   UNL     1       9.332  -6.939   0.159  1.00  0.00    -0.203 F 
ATOM     44  C   UNL     1       9.003  -9.099  -0.716  1.00  0.00     0.198 A 
ATOM     45  C   UNL     1       7.860 -10.762   0.583  1.00  0.00     0.198 A 
ATOM     46  F   UNL     1       7.034 -10.226   2.719  1.00  0.00    -0.203 F 
ATOM     47  F   UNL     1       9.622  -8.733  -1.847  1.00  0.00    -0.200 F 
ATOM     48  C   UNL     1       8.519 -10.392  -0.580  1.00  0.00     0.200 A 
ATOM     49  F   UNL     1       7.404 -12.014   0.723  1.00  0.00    -0.200 F 
ATOM     50  F   UNL     1       8.686 -11.280  -1.569  1.00  0.00    -0.200 F 
ENDBRANCH  26  40
BRANCH  27  51
ATOM     51  C   UNL     1       7.089  -1.938   8.937  1.00  0.00     0.064 A 
ATOM     52  C   UNL     1       8.132  -1.095   9.340  1.00  0.00     0.173 A 
ATOM     53  C   UNL     1       5.866  -1.835   9.617  1.00  0.00     0.173 A 
ATOM     54  F   UNL     1       9.325  -1.167   8.731  1.00  0.00    -0.203 F 
ATOM     55  C   UNL     1       7.966  -0.200  10.395  1.00  0.00     0.198 A 
ATOM     56  C   UNL     1       5.690  -0.916  10.648  1.00  0.00     0.198 A 
ATOM     57  F   UNL     1       4.833  -2.614   9.264  1.00  0.00    -0.203 F 
ATOM     58  F   UNL     1       8.995   0.561  10.793  1.00  0.00    -0.200 F 
ATOM     59  C   UNL     1       6.743  -0.106  11.043  1.00  0.00     0.200 A 
ATOM     60  F   UNL     1       4.500  -0.814  11.255  1.00  0.00    -0.200 F 
ATOM     61  F   UNL     1       6.582   0.760  12.052  1.00  0.00    -0.200 F 
ENDBRANCH  27  51
BRANCH  39  62
ATOM     62  C   UNL     1      10.893  -7.708   8.136  1.00  0.00     0.064 A 
ATOM     63  C   UNL     1      10.457  -8.365   9.296  1.00  0.00     0.173 A 
ATOM     64  C   UNL     1      12.266  -7.721   7.849  1.00  0.00     0.173 A 
ATOM     65  F   UNL     1       9.155  -8.365   9.623  1.00  0.00    -0.203 F 
ATOM     66  C   UNL     1      11.365  -8.975  10.158  1.00  0.00     0.198 A 
ATOM     67  C   UNL     1      13.168  -8.358   8.697  1.00  0.00     0.198 A 
ATOM     68  F   UNL     1      12.734  -7.112   6.750  1.00  0.00    -0.203 F 
ATOM     69  F   UNL     1      10.932  -9.539  11.294  1.00  0.00    -0.200 F 
ATOM     70  C   UNL     1      12.718  -8.974   9.855  1.00  0.00     0.200 A 
ATOM     71  F   UNL     1      14.474  -8.366   8.399  1.00  0.00    -0.200 F 
ATOM     72  F   UNL     1      13.592  -9.556  10.688  1.00  0.00    -0.200 F 
ENDBRANCH  39  62
ENDBRANCH  13  14
ENDBRANCH   6   8
ENDBRANCH   3   4
ENDBRANCH   2   3
ENDBRANCH   1   2
BRANCH   1  73
ATOM     73  C   UNL     1       4.627   3.247  -3.219  1.00  0.00     0.002 C 
BRANCH  73  74
ATOM     74  C   UNL     1       6.138   3.467  -3.075  1.00  0.00     0.021 C 
BRANCH  74  75
ATOM     75  C   UNL     1       6.986   3.146  -4.304  1.00  0.00     0.116 C 
BRANCH  75  76
ATOM     76  N   UNL     1       6.636   3.922  -5.487  1.00  0.00    -0.352 N 
ATOM     77  C   UNL     1       7.412   4.430  -6.507  1.00  0.00     0.259 C 
ATOM     78  H   UNL     1       5.675   4.119  -5.573  1.00  0.00     0.163 HD
ATOM     79  O   UNL     1       6.872   5.047  -7.417  1.00  0.00    -0.269 OA
BRANCH  77  80
ATOM     80  C   UNL     1       8.882   4.296  -6.480  1.00  0.00     0.130 A 
ATOM     81  C   UNL     1       9.710   5.427  -6.581  1.00  0.00     0.060 A 
ATOM     82  C   UNL     1       9.500   3.043  -6.354  1.00  0.00     0.282 A 
ATOM     83  C   UNL     1      11.103   5.280  -6.422  1.00  0.00     0.015 A 
ATOM     84  C   UNL     1      10.880   2.908  -6.136  1.00  0.00     0.086 A 
ATOM     85  C   UNL     1      11.678   4.042  -6.138  1.00  0.00     0.008 A 
BRANCH  81  86
ATOM     86  C   UNL     1       9.211   6.781  -6.978  1.00  0.00     0.259 C 
ATOM     87  O   UNL     1       9.264   7.097  -8.162  1.00  0.00    -0.269 OA
BRANCH  86  88
ATOM     88  N   UNL     1       8.880   7.655  -5.955  1.00  0.00    -0.308 N 
ATOM     89  C   UNL     1       7.551   7.688  -5.331  1.00  0.00     0.131 C 
ATOM     90  C   UNL     1       9.821   8.039  -4.992  1.00  0.00     0.047 A 
ATOM     91  C   UNL     1       7.773   7.821  -3.813  1.00  0.00     0.059 C 
ATOM     92  C   UNL     1       9.256   7.992  -3.726  1.00  0.00    -0.022 A 
ATOM     93  C   UNL     1      11.163   8.302  -5.197  1.00  0.00     0.026 A 
ATOM     94  C   UNL     1      10.073   8.019  -2.610  1.00  0.00     0.006 A 
ATOM     95  C   UNL     1      11.990   8.364  -4.080  1.00  0.00     0.002 A 
ATOM     96  C   UNL     1      11.452   8.176  -2.797  1.00  0.00     0.000 A 
ENDBRANCH  86  88
ENDBRANCH  81  86
BRANCH  82  97
ATOM     97  N   UNL     1       8.743   1.818  -6.545  1.00  0.00     0.063 N 
ATOM     98  O   UNL     1       8.929   0.913  -5.718  1.00  0.00    -0.258 OA
ATOM     99  O   UNL     1       7.990   1.752  -7.522  1.00  0.00    -0.258 OA
ENDBRANCH  82  97
ENDBRANCH  77  80
ENDBRANCH  75  76
ENDBRANCH  74  75
ENDBRANCH  73  74
ENDBRANCH   1  73
TORSDOF 16
