REMARK SMILES O=C(CSc1nnnn1-c1ccc(C(=O)NCCCCCCNC(=O)c2ccc(-c3c4nc(c(-c5c(F)c(F)c(F)c(F)c5F)c5ccc([nH]5)c(-c5c(F)c(F)c(F)c(F)c5F)c5nc(c(-c6c(F)c(F)c(F)c(F)c6F)c6ccc3[nH]6)C=C5)C=C4)cc2)cc1)Nc1nc(-c2ccccc2)cs1
REMARK SMILES IDX 17 1 16 2 14 3 15 4 13 6 10 7 11 8 90 9 12 10 89 11 9 12
REMARK SMILES IDX 5 13 6 14 7 15 8 16 4 17 3 18 2 19 1 20 91 21 92 23 93 24
REMARK SMILES IDX 102 25 94 26 101 27 95 28 96 29 100 30 97 31 99 32 98 33
REMARK SMILES IDX 18 34 19 35 20 36 21 37 22 38 23 39 24 40 25 42 26 43 27 44
REMARK SMILES IDX 88 45 28 46 87 47 29 48 30 49 31 50 81 51 32 52 86 53 80 54
REMARK SMILES IDX 82 55 33 56 85 57 79 58 78 59 34 61 66 62 46 63 65 64 47 65
REMARK SMILES IDX 50 66 64 67 83 68 48 69 49 70 63 72 84 73 51 74 35 75 36 76
REMARK SMILES IDX 44 77 37 78 38 79 42 80 45 81 39 82 40 83 43 84 41 85 67 86
REMARK SMILES IDX 68 87 76 88 69 89 70 90 74 91 77 92 71 93 72 94 75 95 73 96
REMARK SMILES IDX 52 97 53 98 61 99 54 100 55 101 59 102 62 103 56 104 57 105
REMARK SMILES IDX 60 106 58 107
REMARK H PARENT 16 5 91 22 23 41 82 60 50 71
REMARK Flexibility Score: inf
ROOT
ATOM      1  C   UNL     1       4.364   7.566  -2.267  1.00  0.00     0.116 C 
ENDROOT
BRANCH   1   2
ATOM      2  N   UNL     1       4.946   8.327  -1.177  1.00  0.00    -0.352 N 
ATOM      3  C   UNL     1       4.917   8.189   0.187  1.00  0.00     0.251 C 
ATOM      4  O   UNL     1       5.525   9.025   0.856  1.00  0.00    -0.269 OA
ATOM      5  H   UNL     1       5.472   9.103  -1.480  1.00  0.00     0.163 HD
BRANCH   3   6
ATOM      6  C   UNL     1       4.262   7.045   0.883  1.00  0.00     0.039 A 
ATOM      7  C   UNL     1       3.345   4.750   2.190  1.00  0.00     0.069 A 
ATOM      8  C   UNL     1       4.286   5.560   2.825  1.00  0.00     0.029 A 
ATOM      9  C   UNL     1       2.778   5.131   0.971  1.00  0.00     0.029 A 
ATOM     10  C   UNL     1       4.767   6.686   2.148  1.00  0.00     0.016 A 
ATOM     11  C   UNL     1       3.195   6.313   0.358  1.00  0.00     0.016 A 
BRANCH   7  12
ATOM     12  N   UNL     1       2.961   3.531   2.767  1.00  0.00    -0.187 N 
ATOM     13  C   UNL     1       2.964   2.266   2.215  1.00  0.00     0.214 A 
ATOM     14  N   UNL     1       2.300   1.455   3.005  1.00  0.00    -0.101 NA
ATOM     15  N   UNL     1       1.927   2.219   4.088  1.00  0.00    -0.022 NA
ATOM     16  N   UNL     1       2.389   3.461   3.986  1.00  0.00    -0.039 NA
BRANCH  13  17
ATOM     17  S   UNL     1       4.048   1.774   0.953  1.00  0.00    -0.074 SA
BRANCH  17  18
ATOM     18  C   UNL     1       2.921   1.274  -0.362  1.00  0.00     0.178 C 
BRANCH  18  19
ATOM     19  C   UNL     1       2.070   0.055  -0.061  1.00  0.00     0.236 C 
ATOM     20  O   UNL     1       0.939  -0.003  -0.538  1.00  0.00    -0.274 OA
ATOM     21  N   UNL     1       2.703  -0.925   0.668  1.00  0.00    -0.301 N 
ATOM     22  H   UNL     1       3.605  -0.750   1.020  1.00  0.00     0.172 HD
BRANCH  21  23
ATOM     23  C   UNL     1       2.116  -2.132   0.920  1.00  0.00     0.189 A 
ATOM     24  N   UNL     1       1.055  -2.662   0.373  1.00  0.00    -0.220 NA
ATOM     25  S   UNL     1       2.905  -3.062   2.115  1.00  0.00    -0.105 S 
ATOM     26  C   UNL     1       0.773  -3.861   0.995  1.00  0.00     0.084 A 
ATOM     27  C   UNL     1       1.658  -4.238   1.987  1.00  0.00     0.097 A 
BRANCH  26  28
ATOM     28  C   UNL     1      -0.375  -4.654   0.608  1.00  0.00     0.001 A 
ATOM     29  C   UNL     1      -0.433  -5.213  -0.674  1.00  0.00     0.010 A 
ATOM     30  C   UNL     1      -1.442  -4.843   1.494  1.00  0.00     0.010 A 
ATOM     31  C   UNL     1      -1.541  -5.970  -1.060  1.00  0.00     0.001 A 
ATOM     32  C   UNL     1      -2.554  -5.591   1.101  1.00  0.00     0.001 A 
ATOM     33  C   UNL     1      -2.600  -6.157  -0.173  1.00  0.00     0.000 A 
ENDBRANCH  26  28
ENDBRANCH  21  23
ENDBRANCH  18  19
ENDBRANCH  17  18
ENDBRANCH  13  17
ENDBRANCH   7  12
ENDBRANCH   3   6
ENDBRANCH   1   2
BRANCH   1  34
ATOM     34  C   UNL     1       3.156   8.310  -2.844  1.00  0.00     0.021 C 
BRANCH  34  35
ATOM     35  C   UNL     1       3.540   9.422  -3.830  1.00  0.00     0.002 C 
BRANCH  35  36
ATOM     36  C   UNL     1       4.366   8.972  -5.047  1.00  0.00     0.002 C 
BRANCH  36  37
ATOM     37  C   UNL     1       3.804   7.788  -5.847  1.00  0.00     0.021 C 
BRANCH  37  38
ATOM     38  C   UNL     1       2.542   8.124  -6.627  1.00  0.00     0.116 C 
BRANCH  38  39
ATOM     39  N   UNL     1       2.804   9.068  -7.716  1.00  0.00    -0.352 N 
ATOM     40  C   UNL     1       1.900   9.717  -8.528  1.00  0.00     0.251 C 
ATOM     41  H   UNL     1       3.753   9.266  -7.890  1.00  0.00     0.163 HD
ATOM     42  O   UNL     1       2.238  10.188  -9.611  1.00  0.00    -0.269 OA
BRANCH  40  43
ATOM     43  C   UNL     1       0.511   9.840  -8.069  1.00  0.00     0.039 A 
ATOM     44  C   UNL     1      -0.569   9.623  -8.929  1.00  0.00     0.014 A 
ATOM     45  C   UNL     1       0.311  10.131  -6.724  1.00  0.00     0.014 A 
ATOM     46  C   UNL     1      -1.856   9.619  -8.399  1.00  0.00     0.010 A 
ATOM     47  C   UNL     1      -0.930   9.950  -6.178  1.00  0.00     0.010 A 
ATOM     48  C   UNL     1      -2.026   9.765  -7.015  1.00  0.00    -0.014 A 
BRANCH  48  49
ATOM     49  C   UNL     1      -3.342   9.646  -6.397  1.00  0.00     0.031 A 
ATOM     50  C   UNL     1      -4.070   8.379  -6.679  1.00  0.00     0.074 A 
ATOM     51  C   UNL     1      -3.759  10.506  -5.442  1.00  0.00     0.049 A 
ATOM     52  N   UNL     1      -5.214   8.230  -7.262  1.00  0.00    -0.248 NA
ATOM     53  C   UNL     1      -3.398   7.109  -6.358  1.00  0.00     0.031 C 
ATOM     54  C   UNL     1      -3.020  11.622  -4.835  1.00  0.00     0.029 A 
ATOM     55  N   UNL     1      -4.910  10.487  -4.719  1.00  0.00    -0.354 N 
ATOM     56  C   UNL     1      -5.499   6.866  -7.215  1.00  0.00     0.074 A 
ATOM     57  C   UNL     1      -4.282   6.216  -6.806  1.00  0.00     0.031 C 
ATOM     58  C   UNL     1      -3.632  12.007  -3.696  1.00  0.00     0.029 A 
ATOM     59  C   UNL     1      -4.894  11.303  -3.597  1.00  0.00     0.049 A 
ATOM     60  H   UNL     1      -5.690   9.940  -4.971  1.00  0.00     0.167 HD
ATOM     61  C   UNL     1      -6.784   6.416  -7.277  1.00  0.00     0.037 A 
ATOM     62  C   UNL     1      -5.844  11.387  -2.637  1.00  0.00     0.037 A 
ATOM     63  C   UNL     1      -7.657   7.423  -7.830  1.00  0.00     0.049 A 
ATOM     64  C   UNL     1      -7.098  10.846  -3.213  1.00  0.00     0.074 A 
ATOM     65  C   UNL     1      -7.715   8.109  -9.028  1.00  0.00     0.029 A 
ATOM     66  N   UNL     1      -8.456   8.131  -6.968  1.00  0.00    -0.354 N 
ATOM     67  N   UNL     1      -7.749  11.415  -4.191  1.00  0.00    -0.248 NA
ATOM     68  C   UNL     1      -7.379   9.434  -3.014  1.00  0.00     0.031 C 
ATOM     69  C   UNL     1      -8.120   9.432  -8.676  1.00  0.00     0.029 A 
ATOM     70  C   UNL     1      -8.344   9.456  -7.299  1.00  0.00     0.049 A 
ATOM     71  H   UNL     1      -9.008   7.756  -6.244  1.00  0.00     0.167 HD
ATOM     72  C   UNL     1      -8.180  10.364  -4.986  1.00  0.00     0.074 A 
ATOM     73  C   UNL     1      -8.012   9.170  -4.160  1.00  0.00     0.031 C 
ATOM     74  C   UNL     1      -8.361  10.528  -6.330  1.00  0.00     0.037 A 
BRANCH  61  75
ATOM     75  C   UNL     1      -7.318   5.243  -6.479  1.00  0.00     0.064 A 
ATOM     76  C   UNL     1      -8.662   4.853  -6.661  1.00  0.00     0.173 A 
ATOM     77  C   UNL     1      -6.687   4.707  -5.334  1.00  0.00     0.173 A 
ATOM     78  F   UNL     1      -9.367   5.296  -7.713  1.00  0.00    -0.203 F 
ATOM     79  C   UNL     1      -9.347   4.088  -5.712  1.00  0.00     0.198 A 
ATOM     80  C   UNL     1      -7.360   3.901  -4.417  1.00  0.00     0.198 A 
ATOM     81  F   UNL     1      -5.435   5.025  -4.988  1.00  0.00    -0.203 F 
ATOM     82  F   UNL     1     -10.661   3.870  -5.858  1.00  0.00    -0.200 F 
ATOM     83  C   UNL     1      -8.699   3.624  -4.584  1.00  0.00     0.200 A 
ATOM     84  F   UNL     1      -6.715   3.472  -3.323  1.00  0.00    -0.200 F 
ATOM     85  F   UNL     1      -9.370   2.959  -3.636  1.00  0.00    -0.200 F 
ENDBRANCH  61  75
BRANCH  62  86
ATOM     86  C   UNL     1      -5.651  11.643  -1.193  1.00  0.00     0.064 A 
ATOM     87  C   UNL     1      -6.705  12.083  -0.380  1.00  0.00     0.173 A 
ATOM     88  C   UNL     1      -4.484  11.212  -0.531  1.00  0.00     0.173 A 
ATOM     89  F   UNL     1      -7.867  12.464  -0.931  1.00  0.00    -0.203 F 
ATOM     90  C   UNL     1      -6.602  12.080   1.015  1.00  0.00     0.198 A 
ATOM     91  C   UNL     1      -4.380  11.215   0.860  1.00  0.00     0.198 A 
ATOM     92  F   UNL     1      -3.455  10.694  -1.219  1.00  0.00    -0.203 F 
ATOM     93  F   UNL     1      -7.649  12.457   1.763  1.00  0.00    -0.200 F 
ATOM     94  C   UNL     1      -5.443  11.639   1.634  1.00  0.00     0.200 A 
ATOM     95  F   UNL     1      -3.267  10.748   1.444  1.00  0.00    -0.200 F 
ATOM     96  F   UNL     1      -5.366  11.582   2.971  1.00  0.00    -0.200 F 
ENDBRANCH  62  86
BRANCH  74  97
ATOM     97  C   UNL     1      -8.328  11.931  -6.873  1.00  0.00     0.064 A 
ATOM     98  C   UNL     1      -7.187  12.753  -6.856  1.00  0.00     0.173 A 
ATOM     99  C   UNL     1      -9.447  12.406  -7.568  1.00  0.00     0.173 A 
ATOM    100  F   UNL     1      -6.045  12.334  -6.303  1.00  0.00    -0.203 F 
ATOM    101  C   UNL     1      -7.183  14.006  -7.466  1.00  0.00     0.198 A 
ATOM    102  C   UNL     1      -9.430  13.643  -8.207  1.00  0.00     0.198 A 
ATOM    103  F   UNL     1     -10.547  11.643  -7.670  1.00  0.00    -0.203 F 
ATOM    104  F   UNL     1      -6.082  14.771  -7.424  1.00  0.00    -0.200 F 
ATOM    105  C   UNL     1      -8.303  14.447  -8.148  1.00  0.00     0.200 A 
ATOM    106  F   UNL     1     -10.500  14.045  -8.908  1.00  0.00    -0.200 F 
ATOM    107  F   UNL     1      -8.288  15.633  -8.771  1.00  0.00    -0.200 F 
ENDBRANCH  74  97
ENDBRANCH  48  49
ENDBRANCH  40  43
ENDBRANCH  38  39
ENDBRANCH  37  38
ENDBRANCH  36  37
ENDBRANCH  35  36
ENDBRANCH  34  35
ENDBRANCH   1  34
TORSDOF 19
