REMARK SMILES CN(C)C(=O)Nc1cccc(/C=C/C(=O)NCCCCCCNC(=O)c2ccc(-c3c4nc(c(-c5c(F)c(F)c(F)c(F)c5F)c5ccc([nH]5)c(-c5c(F)c(F)c(F)c(F)c5F)c5nc(c(-c6c(F)c(F)c(F)c(F)c6F)c6ccc3[nH]6)C=C5)C=C4)cc2)n1
REMARK SMILES IDX 19 1 18 2 17 3 16 4 14 5 15 6 13 8 12 9 11 10 7 11 8 12
REMARK SMILES IDX 89 13 9 14 10 15 6 16 1 17 2 18 3 19 4 20 5 21 20 23 21 24
REMARK SMILES IDX 22 25 23 26 24 27 25 29 26 30 27 31 88 32 28 33 87 34 29 35
REMARK SMILES IDX 30 36 31 37 81 38 32 39 86 40 80 41 82 42 33 43 85 44 79 45
REMARK SMILES IDX 78 46 34 48 66 49 46 50 65 51 47 52 50 53 64 54 83 55 48 56
REMARK SMILES IDX 49 57 63 59 84 60 51 61 35 62 36 63 44 64 37 65 38 66 42 67
REMARK SMILES IDX 45 68 39 69 40 70 43 71 41 72 67 73 68 74 76 75 69 76 70 77
REMARK SMILES IDX 74 78 77 79 71 80 72 81 75 82 73 83 52 84 53 85 61 86 54 87
REMARK SMILES IDX 55 88 59 89 62 90 56 91 57 92 60 93 58 94
REMARK H PARENT 16 7 6 22 23 28 82 47 50 58
REMARK Flexibility Score: inf
ROOT
ATOM      1  C   UNL     1      -2.396  -0.509  12.230  1.00  0.00     0.002 C 
ENDROOT
BRANCH   1   2
ATOM      2  C   UNL     1      -2.313  -0.524  10.697  1.00  0.00     0.021 C 
BRANCH   2   3
ATOM      3  C   UNL     1      -0.996   0.029  10.151  1.00  0.00     0.116 C 
BRANCH   3   4
ATOM      4  N   UNL     1       0.048  -0.974  10.228  1.00  0.00    -0.353 N 
ATOM      5  C   UNL     1       0.660  -1.714   9.267  1.00  0.00     0.244 C 
ATOM      6  O   UNL     1       1.585  -2.458   9.587  1.00  0.00    -0.270 OA
ATOM      7  H   UNL     1       0.372  -1.150  11.141  1.00  0.00     0.163 HD
BRANCH   5   8
ATOM      8  C   UNL     1       0.302  -1.583   7.837  1.00  0.00     0.073 C 
ATOM      9  C   UNL     1      -0.936  -1.439   7.342  1.00  0.00     0.034 C 
BRANCH   9  10
ATOM     10  C   UNL     1      -1.221  -1.299   5.910  1.00  0.00     0.066 A 
ATOM     11  C   UNL     1      -0.521  -1.607   3.729  1.00  0.00     0.134 A 
ATOM     12  C   UNL     1      -1.692  -1.055   3.230  1.00  0.00     0.047 A 
ATOM     13  N   UNL     1      -0.299  -1.778   5.047  1.00  0.00    -0.231 NA
ATOM     14  C   UNL     1      -2.633  -0.564   4.128  1.00  0.00     0.006 A 
ATOM     15  C   UNL     1      -2.389  -0.674   5.492  1.00  0.00     0.028 A 
BRANCH  11  16
ATOM     16  N   UNL     1       0.514  -2.045   2.912  1.00  0.00    -0.292 N 
ATOM     17  C   UNL     1       0.971  -0.272  -0.276  1.00  0.00     0.148 C 
ATOM     18  N   UNL     1       0.636  -0.489   1.122  1.00  0.00    -0.331 N 
ATOM     19  C   UNL     1       0.430   0.725   1.903  1.00  0.00     0.148 C 
ATOM     20  C   UNL     1       0.858  -1.750   1.636  1.00  0.00     0.322 C 
ATOM     21  O   UNL     1       1.457  -2.614   0.989  1.00  0.00    -0.248 OA
ATOM     22  H   UNL     1       1.115  -2.694   3.345  1.00  0.00     0.173 HD
ENDBRANCH  11  16
ENDBRANCH   9  10
ENDBRANCH   5   8
ENDBRANCH   3   4
ENDBRANCH   2   3
ENDBRANCH   1   2
BRANCH   1  23
ATOM     23  C   UNL     1      -2.337   0.885  12.867  1.00  0.00     0.002 C 
BRANCH  23  24
ATOM     24  C   UNL     1      -3.376   1.882  12.347  1.00  0.00     0.021 C 
BRANCH  24  25
ATOM     25  C   UNL     1      -4.824   1.460  12.578  1.00  0.00     0.116 C 
BRANCH  25  26
ATOM     26  N   UNL     1      -5.147   1.393  13.995  1.00  0.00    -0.352 N 
ATOM     27  C   UNL     1      -6.098   2.079  14.704  1.00  0.00     0.251 C 
ATOM     28  H   UNL     1      -4.604   0.763  14.521  1.00  0.00     0.163 HD
ATOM     29  O   UNL     1      -6.079   2.072  15.936  1.00  0.00    -0.269 OA
BRANCH  27  30
ATOM     30  C   UNL     1      -7.143   2.842  13.993  1.00  0.00     0.039 A 
ATOM     31  C   UNL     1      -7.454   4.133  14.426  1.00  0.00     0.014 A 
ATOM     32  C   UNL     1      -7.821   2.280  12.908  1.00  0.00     0.014 A 
ATOM     33  C   UNL     1      -8.397   4.888  13.726  1.00  0.00     0.010 A 
ATOM     34  C   UNL     1      -8.711   3.056  12.171  1.00  0.00     0.010 A 
ATOM     35  C   UNL     1      -9.003   4.370  12.570  1.00  0.00    -0.014 A 
BRANCH  35  36
ATOM     36  C   UNL     1      -9.921   5.195  11.746  1.00  0.00     0.031 A 
ATOM     37  C   UNL     1     -11.365   4.811  11.600  1.00  0.00     0.074 A 
ATOM     38  C   UNL     1      -9.428   6.248  11.065  1.00  0.00     0.049 A 
ATOM     39  N   UNL     1     -12.295   5.357  10.858  1.00  0.00    -0.248 NA
ATOM     40  C   UNL     1     -11.819   3.642  12.369  1.00  0.00     0.031 C 
ATOM     41  C   UNL     1      -8.032   6.690  11.090  1.00  0.00     0.029 A 
ATOM     42  N   UNL     1     -10.039   7.127  10.207  1.00  0.00    -0.354 N 
ATOM     43  C   UNL     1     -13.437   4.593  11.061  1.00  0.00     0.074 A 
ATOM     44  C   UNL     1     -13.072   3.517  11.956  1.00  0.00     0.031 C 
ATOM     45  C   UNL     1      -7.897   7.764  10.297  1.00  0.00     0.029 A 
ATOM     46  C   UNL     1      -9.184   8.062   9.676  1.00  0.00     0.049 A 
ATOM     47  H   UNL     1     -10.999   7.091   9.992  1.00  0.00     0.167 HD
ATOM     48  C   UNL     1     -14.680   4.787  10.560  1.00  0.00     0.037 A 
ATOM     49  C   UNL     1      -9.409   9.039   8.777  1.00  0.00     0.037 A 
ATOM     50  C   UNL     1     -15.041   5.873   9.687  1.00  0.00     0.049 A 
ATOM     51  C   UNL     1     -10.795   9.220   8.223  1.00  0.00     0.074 A 
ATOM     52  C   UNL     1     -16.290   6.201   9.189  1.00  0.00     0.029 A 
ATOM     53  N   UNL     1     -14.150   6.805   9.175  1.00  0.00    -0.354 N 
ATOM     54  N   UNL     1     -11.885   8.540   8.482  1.00  0.00    -0.248 NA
ATOM     55  C   UNL     1     -10.983  10.306   7.250  1.00  0.00     0.031 C 
ATOM     56  C   UNL     1     -16.145   7.297   8.332  1.00  0.00     0.029 A 
ATOM     57  C   UNL     1     -14.815   7.686   8.337  1.00  0.00     0.049 A 
ATOM     58  H   UNL     1     -13.187   6.836   9.377  1.00  0.00     0.167 HD
ATOM     59  C   UNL     1     -12.889   9.124   7.723  1.00  0.00     0.074 A 
ATOM     60  C   UNL     1     -12.284  10.228   7.008  1.00  0.00     0.031 C 
ATOM     61  C   UNL     1     -14.196   8.775   7.626  1.00  0.00     0.037 A 
BRANCH  48  62
ATOM     62  C   UNL     1     -15.747   3.800  10.941  1.00  0.00     0.064 A 
ATOM     63  C   UNL     1     -16.260   3.736  12.245  1.00  0.00     0.173 A 
ATOM     64  C   UNL     1     -16.294   2.938   9.979  1.00  0.00     0.173 A 
ATOM     65  F   UNL     1     -15.765   4.532  13.206  1.00  0.00    -0.203 F 
ATOM     66  C   UNL     1     -17.260   2.826  12.579  1.00  0.00     0.198 A 
ATOM     67  C   UNL     1     -17.316   2.051  10.309  1.00  0.00     0.198 A 
ATOM     68  F   UNL     1     -15.845   2.962   8.715  1.00  0.00    -0.203 F 
ATOM     69  F   UNL     1     -17.700   2.750  13.842  1.00  0.00    -0.200 F 
ATOM     70  C   UNL     1     -17.792   1.990  11.609  1.00  0.00     0.200 A 
ATOM     71  F   UNL     1     -17.838   1.253   9.367  1.00  0.00    -0.200 F 
ATOM     72  F   UNL     1     -18.760   1.121  11.930  1.00  0.00    -0.200 F 
ENDBRANCH  48  62
BRANCH  49  73
ATOM     73  C   UNL     1      -8.293   9.924   8.351  1.00  0.00     0.064 A 
ATOM     74  C   UNL     1      -8.264  11.275   8.722  1.00  0.00     0.173 A 
ATOM     75  C   UNL     1      -7.233   9.438   7.572  1.00  0.00     0.173 A 
ATOM     76  F   UNL     1      -9.265  11.791   9.450  1.00  0.00    -0.203 F 
ATOM     77  C   UNL     1      -7.227  12.111   8.314  1.00  0.00     0.198 A 
ATOM     78  C   UNL     1      -6.182  10.268   7.189  1.00  0.00     0.198 A 
ATOM     79  F   UNL     1      -7.210   8.151   7.195  1.00  0.00    -0.203 F 
ATOM     80  F   UNL     1      -7.246  13.409   8.645  1.00  0.00    -0.200 F 
ATOM     81  C   UNL     1      -6.183  11.605   7.553  1.00  0.00     0.200 A 
ATOM     82  F   UNL     1      -5.168   9.771   6.467  1.00  0.00    -0.200 F 
ATOM     83  F   UNL     1      -5.182  12.408   7.166  1.00  0.00    -0.200 F 
ENDBRANCH  49  73
BRANCH  61  84
ATOM     84  C   UNL     1     -15.062   9.602   6.721  1.00  0.00     0.064 A 
ATOM     85  C   UNL     1     -14.949   9.523   5.325  1.00  0.00     0.173 A 
ATOM     86  C   UNL     1     -16.048  10.447   7.254  1.00  0.00     0.173 A 
ATOM     87  F   UNL     1     -14.010   8.743   4.768  1.00  0.00    -0.203 F 
ATOM     88  C   UNL     1     -15.776  10.275   4.497  1.00  0.00     0.198 A 
ATOM     89  C   UNL     1     -16.894  11.174   6.422  1.00  0.00     0.198 A 
ATOM     90  F   UNL     1     -16.201  10.554   8.582  1.00  0.00    -0.203 F 
ATOM     91  F   UNL     1     -15.620  10.218   3.167  1.00  0.00    -0.200 F 
ATOM     92  C   UNL     1     -16.754  11.093   5.045  1.00  0.00     0.200 A 
ATOM     93  F   UNL     1     -17.846  11.953   6.953  1.00  0.00    -0.200 F 
ATOM     94  F   UNL     1     -17.556  11.808   4.245  1.00  0.00    -0.200 F 
ENDBRANCH  61  84
ENDBRANCH  35  36
ENDBRANCH  27  30
ENDBRANCH  25  26
ENDBRANCH  24  25
ENDBRANCH  23  24
ENDBRANCH   1  23
TORSDOF 15
