REMARK SMILES CC[C@@H](C)[C@@H](NC(N)=O)C(=O)N1CCC[C@H](C(=O)NCCCCCCNC(=O)c2ccc(-c3c4nc(c(-c5c(F)c(F)c(F)c(F)c5F)c5ccc([nH]5)c(-c5c(F)c(F)c(F)c(F)c5F)c5nc(c(-c6c(F)c(F)c(F)c(F)c6F)c6ccc3[nH]6)C=C5)C=C4)cc2)C1
REMARK SMILES IDX 21 1 20 2 19 3 17 4 18 5 16 7 12 8 13 9 92 10 14 11 15 12
REMARK SMILES IDX 10 13 11 14 5 15 3 16 4 17 2 18 1 19 6 20 7 21 8 23 9 24
REMARK SMILES IDX 22 27 23 28 24 29 25 30 26 31 27 32 28 34 29 35 30 36 91 37
REMARK SMILES IDX 31 38 90 39 32 40 33 41 34 42 84 43 35 44 89 45 83 46 85 47
REMARK SMILES IDX 36 48 88 49 82 50 81 51 37 53 69 54 49 55 68 56 50 57 53 58
REMARK SMILES IDX 67 59 86 60 51 61 52 62 66 64 87 65 54 66 38 67 39 68 47 69
REMARK SMILES IDX 40 70 41 71 45 72 48 73 42 74 43 75 46 76 44 77 70 78 71 79
REMARK SMILES IDX 79 80 72 81 73 82 77 83 80 84 74 85 75 86 78 87 76 88 55 89
REMARK SMILES IDX 56 90 64 91 57 92 58 93 62 94 65 95 59 96 60 97 63 98 61 99
REMARK H PARENT 19 6 6 22 8 25 8 26 26 33 85 52 53 63
REMARK Flexibility Score: inf
ROOT
ATOM      1  C   UNL     1       1.487  -4.631   7.070  1.00  0.00     0.021 C 
ENDROOT
BRANCH   1   2
ATOM      2  C   UNL     1       1.630  -3.733   5.849  1.00  0.00     0.116 C 
BRANCH   2   3
ATOM      3  N   UNL     1       2.421  -2.545   6.060  1.00  0.00    -0.356 N 
ATOM      4  C   UNL     1       3.427  -2.022   5.312  1.00  0.00     0.224 C 
ATOM      5  O   UNL     1       3.694  -0.831   5.518  1.00  0.00    -0.275 OA
ATOM      6  H   UNL     1       2.198  -2.035   6.872  1.00  0.00     0.163 HD
BRANCH   4   7
ATOM      7  C   UNL     1       4.232  -2.791   4.249  1.00  0.00     0.098 C 
ATOM      8  N   UNL     1       2.754  -4.229   2.850  1.00  0.00    -0.340 N 
ATOM      9  C   UNL     1       3.471  -5.452   3.204  1.00  0.00     0.119 C 
ATOM     10  C   UNL     1       3.513  -2.993   2.917  1.00  0.00     0.133 C 
ATOM     11  C   UNL     1       4.289  -5.364   4.497  1.00  0.00     0.022 C 
ATOM     12  C   UNL     1       4.989  -4.027   4.727  1.00  0.00     0.017 C 
BRANCH   8  13
ATOM     13  C   UNL     1       1.391  -4.305   2.567  1.00  0.00     0.245 C 
ATOM     14  O   UNL     1       0.630  -4.948   3.300  1.00  0.00    -0.272 OA
BRANCH  13  15
ATOM     15  C   UNL     1       0.832  -3.663   1.253  1.00  0.00     0.176 C 
BRANCH  15  16
ATOM     16  C   UNL     1       0.940  -2.117   1.161  1.00  0.00     0.018 C 
ATOM     17  C   UNL     1       0.370  -1.437   2.418  1.00  0.00     0.010 C 
BRANCH  16  18
ATOM     18  C   UNL     1       0.256  -1.521  -0.094  1.00  0.00     0.002 C 
ATOM     19  C   UNL     1       0.667  -0.068  -0.334  1.00  0.00     0.004 C 
ENDBRANCH  16  18
ENDBRANCH  15  16
BRANCH  15  20
ATOM     20  N   UNL     1       1.499  -4.324   0.117  1.00  0.00    -0.326 N 
ATOM     21  C   UNL     1       1.533  -5.683  -0.011  1.00  0.00     0.312 C 
ATOM     22  H   UNL     1       1.933  -3.768  -0.569  1.00  0.00     0.166 HD
ATOM     23  N   UNL     1       2.108  -6.088  -1.167  1.00  0.00    -0.352 N 
ATOM     24  O   UNL     1       1.154  -6.498   0.808  1.00  0.00    -0.249 OA
ATOM     25  H   UNL     1       2.412  -5.422  -1.825  1.00  0.00     0.161 HD
ATOM     26  H   UNL     1       2.223  -7.048  -1.350  1.00  0.00     0.161 HD
ENDBRANCH  15  20
ENDBRANCH  13  15
ENDBRANCH   8  13
ENDBRANCH   4   7
ENDBRANCH   2   3
ENDBRANCH   1   2
BRANCH   1  27
ATOM     27  C   UNL     1       0.120  -4.535   7.748  1.00  0.00     0.002 C 
BRANCH  27  28
ATOM     28  C   UNL     1      -1.085  -4.885   6.860  1.00  0.00     0.002 C 
BRANCH  28  29
ATOM     29  C   UNL     1      -1.062  -6.271   6.210  1.00  0.00     0.021 C 
BRANCH  29  30
ATOM     30  C   UNL     1      -0.900  -7.438   7.178  1.00  0.00     0.116 C 
BRANCH  30  31
ATOM     31  N   UNL     1      -1.889  -7.410   8.247  1.00  0.00    -0.352 N 
ATOM     32  C   UNL     1      -2.832  -8.336   8.605  1.00  0.00     0.251 C 
ATOM     33  H   UNL     1      -1.877  -6.595   8.800  1.00  0.00     0.163 HD
ATOM     34  O   UNL     1      -3.718  -8.040   9.401  1.00  0.00    -0.269 OA
BRANCH  32  35
ATOM     35  C   UNL     1      -2.789  -9.695   8.031  1.00  0.00     0.039 A 
ATOM     36  C   UNL     1      -3.984 -10.294   7.623  1.00  0.00     0.014 A 
ATOM     37  C   UNL     1      -1.581 -10.388   7.920  1.00  0.00     0.014 A 
ATOM     38  C   UNL     1      -3.959 -11.565   7.048  1.00  0.00     0.010 A 
ATOM     39  C   UNL     1      -1.547 -11.621   7.279  1.00  0.00     0.010 A 
ATOM     40  C   UNL     1      -2.736 -12.223   6.840  1.00  0.00    -0.014 A 
BRANCH  40  41
ATOM     41  C   UNL     1      -2.678 -13.538   6.156  1.00  0.00     0.031 A 
ATOM     42  C   UNL     1      -2.192 -14.754   6.891  1.00  0.00     0.074 A 
ATOM     43  C   UNL     1      -2.999 -13.618   4.852  1.00  0.00     0.049 A 
ATOM     44  N   UNL     1      -2.014 -15.974   6.450  1.00  0.00    -0.248 NA
ATOM     45  C   UNL     1      -1.831 -14.567   8.304  1.00  0.00     0.031 C 
ATOM     46  C   UNL     1      -3.443 -12.497   4.023  1.00  0.00     0.029 A 
ATOM     47  N   UNL     1      -2.993 -14.687   3.993  1.00  0.00    -0.354 N 
ATOM     48  C   UNL     1      -1.512 -16.694   7.525  1.00  0.00     0.074 A 
ATOM     49  C   UNL     1      -1.355 -15.761   8.621  1.00  0.00     0.031 C 
ATOM     50  C   UNL     1      -3.698 -12.943   2.783  1.00  0.00     0.029 A 
ATOM     51  C   UNL     1      -3.390 -14.368   2.718  1.00  0.00     0.049 A 
ATOM     52  H   UNL     1      -2.729 -15.596   4.264  1.00  0.00     0.167 HD
ATOM     53  C   UNL     1      -1.228 -18.017   7.598  1.00  0.00     0.037 A 
ATOM     54  C   UNL     1      -3.488 -15.138   1.619  1.00  0.00     0.037 A 
ATOM     55  C   UNL     1      -1.391 -18.937   6.502  1.00  0.00     0.049 A 
ATOM     56  C   UNL     1      -3.127 -16.595   1.712  1.00  0.00     0.074 A 
ATOM     57  C   UNL     1      -1.190 -20.306   6.485  1.00  0.00     0.029 A 
ATOM     58  N   UNL     1      -1.780 -18.575   5.219  1.00  0.00    -0.354 N 
ATOM     59  N   UNL     1      -2.727 -17.285   2.752  1.00  0.00    -0.248 NA
ATOM     60  C   UNL     1      -3.234 -17.380   0.475  1.00  0.00     0.031 C 
ATOM     61  C   UNL     1      -1.395 -20.762   5.178  1.00  0.00     0.029 A 
ATOM     62  C   UNL     1      -1.786 -19.689   4.392  1.00  0.00     0.049 A 
ATOM     63  H   UNL     1      -2.016 -17.662   4.937  1.00  0.00     0.167 HD
ATOM     64  C   UNL     1      -2.554 -18.588   2.304  1.00  0.00     0.074 A 
ATOM     65  C   UNL     1      -2.913 -18.594   0.900  1.00  0.00     0.031 C 
ATOM     66  C   UNL     1      -2.136 -19.679   2.993  1.00  0.00     0.037 A 
BRANCH  53  67
ATOM     67  C   UNL     1      -0.696 -18.535   8.905  1.00  0.00     0.064 A 
ATOM     68  C   UNL     1      -1.482 -18.556  10.069  1.00  0.00     0.173 A 
ATOM     69  C   UNL     1       0.619 -19.015   8.999  1.00  0.00     0.173 A 
ATOM     70  F   UNL     1      -2.744 -18.102  10.041  1.00  0.00    -0.203 F 
ATOM     71  C   UNL     1      -0.955 -18.987  11.285  1.00  0.00     0.198 A 
ATOM     72  C   UNL     1       1.130 -19.482  10.208  1.00  0.00     0.198 A 
ATOM     73  F   UNL     1       1.414 -19.030   7.918  1.00  0.00    -0.203 F 
ATOM     74  F   UNL     1      -1.702 -18.926  12.396  1.00  0.00    -0.200 F 
ATOM     75  C   UNL     1       0.348 -19.453  11.352  1.00  0.00     0.200 A 
ATOM     76  F   UNL     1       2.385 -19.948  10.267  1.00  0.00    -0.200 F 
ATOM     77  F   UNL     1       0.855 -19.865  12.523  1.00  0.00    -0.200 F 
ENDBRANCH  53  67
BRANCH  54  78
ATOM     78  C   UNL     1      -3.979 -14.547   0.347  1.00  0.00     0.064 A 
ATOM     79  C   UNL     1      -5.238 -14.895  -0.162  1.00  0.00     0.173 A 
ATOM     80  C   UNL     1      -3.221 -13.610  -0.369  1.00  0.00     0.173 A 
ATOM     81  F   UNL     1      -5.991 -15.803   0.476  1.00  0.00    -0.203 F 
ATOM     82  C   UNL     1      -5.715 -14.335  -1.346  1.00  0.00     0.198 A 
ATOM     83  C   UNL     1      -3.711 -13.030  -1.537  1.00  0.00     0.198 A 
ATOM     84  F   UNL     1      -2.010 -13.243   0.077  1.00  0.00    -0.203 F 
ATOM     85  F   UNL     1      -6.905 -14.713  -1.830  1.00  0.00    -0.200 F 
ATOM     86  C   UNL     1      -4.955 -13.397  -2.027  1.00  0.00     0.200 A 
ATOM     87  F   UNL     1      -2.979 -12.114  -2.187  1.00  0.00    -0.200 F 
ATOM     88  F   UNL     1      -5.419 -12.851  -3.160  1.00  0.00    -0.200 F 
ENDBRANCH  54  78
BRANCH  66  89
ATOM     89  C   UNL     1      -2.062 -20.978   2.241  1.00  0.00     0.064 A 
ATOM     90  C   UNL     1      -1.090 -21.204   1.255  1.00  0.00     0.173 A 
ATOM     91  C   UNL     1      -2.951 -22.023   2.537  1.00  0.00     0.173 A 
ATOM     92  F   UNL     1      -0.226 -20.233   0.922  1.00  0.00    -0.203 F 
ATOM     93  C   UNL     1      -1.030 -22.417   0.573  1.00  0.00     0.198 A 
ATOM     94  C   UNL     1      -2.866 -23.246   1.878  1.00  0.00     0.198 A 
ATOM     95  F   UNL     1      -3.896 -21.863   3.475  1.00  0.00    -0.203 F 
ATOM     96  F   UNL     1      -0.128 -22.591  -0.403  1.00  0.00    -0.200 F 
ATOM     97  C   UNL     1      -1.912 -23.439   0.891  1.00  0.00     0.200 A 
ATOM     98  F   UNL     1      -3.708 -24.238   2.199  1.00  0.00    -0.200 F 
ATOM     99  F   UNL     1      -1.846 -24.609   0.240  1.00  0.00    -0.200 F 
ENDBRANCH  66  89
ENDBRANCH  40  41
ENDBRANCH  32  35
ENDBRANCH  30  31
ENDBRANCH  29  30
ENDBRANCH  28  29
ENDBRANCH  27  28
ENDBRANCH   1  27
TORSDOF 18
