REMARK SMILES O=C(NCCCCCCNC(=O)C1CCN(C(=O)COc2ccc(Cl)cc2Cl)CC1)c1ccc(-c2c3nc(c(-c4c(F)c(F)c(F)c(F)c4F)c4ccc([nH]4)c(-c4c(F)c(F)c(F)c(F)c4F)c4nc(c(-c5c(F)c(F)c(F)c(F)c5F)c5ccc2[nH]5)C=C4)C=C3)cc1
REMARK SMILES IDX 7 1 6 2 5 3 4 4 3 5 1 6 2 7 31 9 32 10 93 11 33 12 92 13
REMARK SMILES IDX 34 14 35 15 36 16 86 17 37 18 91 19 85 20 87 21 38 22 90 23
REMARK SMILES IDX 84 24 83 25 39 27 71 28 51 29 70 30 52 31 55 32 69 33 88 34
REMARK SMILES IDX 53 35 54 36 68 38 89 39 56 40 40 41 41 42 49 43 42 44 43 45
REMARK SMILES IDX 47 46 50 47 44 48 45 49 48 50 46 51 72 52 73 53 81 54 74 55
REMARK SMILES IDX 75 56 79 57 82 58 76 59 77 60 80 61 78 62 57 63 58 64 66 65
REMARK SMILES IDX 59 66 60 67 64 68 67 69 61 70 62 71 65 72 63 73 8 74 9 75
REMARK SMILES IDX 10 76 11 77 12 79 13 80 14 81 30 82 15 83 29 84 16 85 17 86
REMARK SMILES IDX 18 87 19 88 20 89 21 90 22 91 27 92 23 93 26 94 28 95 24 96
REMARK SMILES IDX 25 97
REMARK H PARENT 3 8 87 26 55 37 10 78
REMARK Flexibility Score: inf
ROOT
ATOM      1  C   UNL     1       4.214  -2.810   3.265  1.00  0.00     0.002 C 
ENDROOT
BRANCH   1   2
ATOM      2  C   UNL     1       3.749  -1.352   3.391  1.00  0.00     0.002 C 
BRANCH   2   3
ATOM      3  C   UNL     1       4.431  -0.357   2.445  1.00  0.00     0.021 C 
BRANCH   3   4
ATOM      4  C   UNL     1       4.327  -0.713   0.965  1.00  0.00     0.116 C 
BRANCH   4   5
ATOM      5  N   UNL     1       2.943  -0.840   0.540  1.00  0.00    -0.352 N 
ATOM      6  O   UNL     1       0.993  -0.160  -0.357  1.00  0.00    -0.269 OA
ATOM      7  C   UNL     1       2.221  -0.062  -0.319  1.00  0.00     0.251 C 
ATOM      8  H   UNL     1       2.454  -1.600   0.930  1.00  0.00     0.163 HD
BRANCH   7   9
ATOM      9  C   UNL     1       2.904   0.896  -1.208  1.00  0.00     0.039 A 
ATOM     10  C   UNL     1       4.044   0.517  -1.925  1.00  0.00     0.014 A 
ATOM     11  C   UNL     1       2.355   2.169  -1.377  1.00  0.00     0.014 A 
ATOM     12  C   UNL     1       4.687   1.439  -2.745  1.00  0.00     0.010 A 
ATOM     13  C   UNL     1       2.964   3.072  -2.248  1.00  0.00     0.010 A 
ATOM     14  C   UNL     1       4.140   2.717  -2.928  1.00  0.00    -0.014 A 
BRANCH  14  15
ATOM     15  C   UNL     1       4.757   3.666  -3.884  1.00  0.00     0.031 A 
ATOM     16  C   UNL     1       5.375   4.942  -3.400  1.00  0.00     0.074 A 
ATOM     17  C   UNL     1       4.704   3.390  -5.200  1.00  0.00     0.049 A 
ATOM     18  N   UNL     1       5.858   5.942  -4.091  1.00  0.00    -0.248 NA
ATOM     19  C   UNL     1       5.449   5.124  -1.943  1.00  0.00     0.031 C 
ATOM     20  C   UNL     1       4.119   2.181  -5.782  1.00  0.00     0.029 A 
ATOM     21  N   UNL     1       5.126   4.113  -6.285  1.00  0.00    -0.354 N 
ATOM     22  C   UNL     1       6.269   6.883  -3.158  1.00  0.00     0.074 A 
ATOM     23  C   UNL     1       5.960   6.344  -1.850  1.00  0.00     0.031 C 
ATOM     24  C   UNL     1       4.216   2.246  -7.117  1.00  0.00     0.029 A 
ATOM     25  C   UNL     1       4.814   3.525  -7.486  1.00  0.00     0.049 A 
ATOM     26  H   UNL     1       5.606   4.970  -6.211  1.00  0.00     0.167 HD
ATOM     27  C   UNL     1       6.853   8.086  -3.379  1.00  0.00     0.037 A 
ATOM     28  C   UNL     1       4.957   3.981  -8.744  1.00  0.00     0.037 A 
ATOM     29  C   UNL     1       7.158   8.606  -4.688  1.00  0.00     0.049 A 
ATOM     30  C   UNL     1       5.575   5.330  -8.966  1.00  0.00     0.074 A 
ATOM     31  C   UNL     1       7.792   9.790  -5.020  1.00  0.00     0.029 A 
ATOM     32  N   UNL     1       6.837   7.975  -5.882  1.00  0.00    -0.354 N 
ATOM     33  N   UNL     1       6.001   6.197  -8.079  1.00  0.00    -0.248 NA
ATOM     34  C   UNL     1       5.734   5.767 -10.359  1.00  0.00     0.031 C 
ATOM     35  C   UNL     1       7.805   9.902  -6.415  1.00  0.00     0.029 A 
ATOM     36  C   UNL     1       7.233   8.760  -6.954  1.00  0.00     0.049 A 
ATOM     37  H   UNL     1       6.393   7.100  -5.957  1.00  0.00     0.167 HD
ATOM     38  C   UNL     1       6.501   7.269  -8.803  1.00  0.00     0.074 A 
ATOM     39  C   UNL     1       6.327   6.944 -10.204  1.00  0.00     0.031 C 
ATOM     40  C   UNL     1       7.059   8.416  -8.344  1.00  0.00     0.037 A 
BRANCH  27  41
ATOM     41  C   UNL     1       7.164   8.935  -2.180  1.00  0.00     0.064 A 
ATOM     42  C   UNL     1       8.168   8.587  -1.264  1.00  0.00     0.173 A 
ATOM     43  C   UNL     1       6.452  10.123  -1.950  1.00  0.00     0.173 A 
ATOM     44  F   UNL     1       8.873   7.458  -1.431  1.00  0.00    -0.203 F 
ATOM     45  C   UNL     1       8.420   9.374  -0.143  1.00  0.00     0.198 A 
ATOM     46  C   UNL     1       6.728  10.924  -0.845  1.00  0.00     0.198 A 
ATOM     47  F   UNL     1       5.486  10.508  -2.798  1.00  0.00    -0.203 F 
ATOM     48  F   UNL     1       9.344   8.990   0.750  1.00  0.00    -0.200 F 
ATOM     49  C   UNL     1       7.703  10.543   0.064  1.00  0.00     0.200 A 
ATOM     50  F   UNL     1       6.043  12.060  -0.654  1.00  0.00    -0.200 F 
ATOM     51  F   UNL     1       7.946  11.298   1.144  1.00  0.00    -0.200 F 
ENDBRANCH  27  41
BRANCH  28  52
ATOM     52  C   UNL     1       4.487   3.139  -9.873  1.00  0.00     0.064 A 
ATOM     53  C   UNL     1       5.396   2.491 -10.716  1.00  0.00     0.173 A 
ATOM     54  C   UNL     1       3.118   2.913 -10.086  1.00  0.00     0.173 A 
ATOM     55  F   UNL     1       6.713   2.688 -10.559  1.00  0.00    -0.203 F 
ATOM     56  C   UNL     1       4.955   1.646 -11.733  1.00  0.00     0.198 A 
ATOM     57  C   UNL     1       2.679   2.049 -11.085  1.00  0.00     0.198 A 
ATOM     58  F   UNL     1       2.209   3.505  -9.297  1.00  0.00    -0.203 F 
ATOM     59  F   UNL     1       5.844   1.051 -12.540  1.00  0.00    -0.200 F 
ATOM     60  C   UNL     1       3.598   1.417 -11.909  1.00  0.00     0.200 A 
ATOM     61  F   UNL     1       1.369   1.815 -11.239  1.00  0.00    -0.200 F 
ATOM     62  F   UNL     1       3.176   0.587 -12.873  1.00  0.00    -0.200 F 
ENDBRANCH  28  52
BRANCH  40  63
ATOM     63  C   UNL     1       7.565   9.394  -9.362  1.00  0.00     0.064 A 
ATOM     64  C   UNL     1       6.693  10.195 -10.113  1.00  0.00     0.173 A 
ATOM     65  C   UNL     1       8.945   9.583  -9.532  1.00  0.00     0.173 A 
ATOM     66  F   UNL     1       5.366  10.039  -9.998  1.00  0.00    -0.203 F 
ATOM     67  C   UNL     1       7.186  11.146 -11.003  1.00  0.00     0.198 A 
ATOM     68  C   UNL     1       9.434  10.552 -10.403  1.00  0.00     0.198 A 
ATOM     69  F   UNL     1       9.820   8.843  -8.834  1.00  0.00    -0.203 F 
ATOM     70  F   UNL     1       6.336  11.883 -11.732  1.00  0.00    -0.200 F 
ATOM     71  C   UNL     1       8.554  11.331 -11.139  1.00  0.00     0.200 A 
ATOM     72  F   UNL     1      10.755  10.738 -10.523  1.00  0.00    -0.200 F 
ATOM     73  F   UNL     1       9.025  12.260 -11.981  1.00  0.00    -0.200 F 
ENDBRANCH  40  63
ENDBRANCH  14  15
ENDBRANCH   7   9
ENDBRANCH   4   5
ENDBRANCH   3   4
ENDBRANCH   2   3
ENDBRANCH   1   2
BRANCH   1  74
ATOM     74  C   UNL     1       5.727  -3.015   3.330  1.00  0.00     0.021 C 
BRANCH  74  75
ATOM     75  C   UNL     1       6.358  -2.518   4.625  1.00  0.00     0.116 C 
BRANCH  75  76
ATOM     76  N   UNL     1       6.428  -3.541   5.636  1.00  0.00    -0.356 N 
ATOM     77  C   UNL     1       7.466  -4.102   6.297  1.00  0.00     0.223 C 
ATOM     78  H   UNL     1       5.549  -3.902   5.896  1.00  0.00     0.163 HD
ATOM     79  O   UNL     1       7.165  -4.934   7.162  1.00  0.00    -0.275 OA
BRANCH  77  80
ATOM     80  C   UNL     1       8.944  -3.788   6.047  1.00  0.00     0.082 C 
ATOM     81  C   UNL     1       9.423  -2.401   6.452  1.00  0.00     0.035 C 
ATOM     82  C   UNL     1       9.516  -4.254   4.715  1.00  0.00     0.035 C 
ATOM     83  C   UNL     1       9.474  -1.366   5.343  1.00  0.00     0.120 C 
ATOM     84  C   UNL     1       9.545  -3.214   3.609  1.00  0.00     0.120 C 
ATOM     85  N   UNL     1       9.903  -1.859   4.034  1.00  0.00    -0.340 N 
ATOM     86  C   UNL     1      10.274  -0.874   3.115  1.00  0.00     0.260 C 
ATOM     87  O   UNL     1      10.088   0.325   3.347  1.00  0.00    -0.271 OA
BRANCH  86  88
ATOM     88  C   UNL     1      10.969  -1.290   1.808  1.00  0.00     0.329 C 
BRANCH  88  89
ATOM     89  O   UNL     1      11.866  -2.379   1.740  1.00  0.00    -0.482 OA
BRANCH  89  90
ATOM     90  C   UNL     1      13.002  -2.400   2.500  1.00  0.00     0.138 A 
ATOM     91  C   UNL     1      13.188  -1.694   3.692  1.00  0.00     0.049 A 
ATOM     92  C   UNL     1      14.018  -3.276   2.077  1.00  0.00     0.084 A 
ATOM     93  C   UNL     1      14.335  -1.895   4.467  1.00  0.00     0.024 A 
ATOM     94  C   UNL     1      15.178  -3.457   2.834  1.00  0.00     0.045 A 
ATOM     95  Cl  UNL     1      13.873  -4.165   0.598  1.00  0.00    -0.080 Cl
ATOM     96  C   UNL     1      15.322  -2.774   4.036  1.00  0.00     0.042 A 
ATOM     97  Cl  UNL     1      16.723  -3.020   5.002  1.00  0.00    -0.084 Cl
ENDBRANCH  89  90
ENDBRANCH  88  89
ENDBRANCH  86  88
ENDBRANCH  77  80
ENDBRANCH  75  76
ENDBRANCH  74  75
ENDBRANCH   1  74
TORSDOF 16
