REMARK SMILES COc1ncccc1Cn1ccc(C(=O)NCCCCCCNC(=O)c2ccc(-c3c4nc(c(-c5c(F)c(F)c(F)c(F)c5F)c5ccc([nH]5)c(-c5c(F)c(F)c(F)c(F)c5F)c5nc(c(-c6c(F)c(F)c(F)c(F)c6F)c6ccc3[nH]6)C=C5)C=C4)cc2)n1
REMARK SMILES IDX 19 1 18 2 17 3 16 4 14 5 15 6 13 8 10 9 11 10 89 11 12 12
REMARK SMILES IDX 9 13 8 14 3 15 4 16 5 17 7 18 6 19 2 20 1 21 20 22 21 23
REMARK SMILES IDX 22 24 23 25 24 26 25 28 26 29 27 30 88 31 28 32 87 33 29 34
REMARK SMILES IDX 30 35 31 36 81 37 32 38 86 39 80 40 82 41 33 42 85 43 79 44
REMARK SMILES IDX 78 45 34 47 66 48 46 49 65 50 47 51 50 52 64 53 83 54 48 55
REMARK SMILES IDX 49 56 63 58 84 59 51 60 35 61 36 62 44 63 37 64 38 65 42 66
REMARK SMILES IDX 45 67 39 68 40 69 43 70 41 71 67 72 68 73 76 74 69 75 70 76
REMARK SMILES IDX 74 77 77 78 71 79 72 80 75 81 73 82 52 83 53 84 61 85 54 86
REMARK SMILES IDX 55 87 59 88 62 89 56 90 57 91 60 92 58 93
REMARK H PARENT 16 7 23 27 82 46 50 57
REMARK Flexibility Score: inf
ROOT
ATOM      1  C   UNL     1       6.776  -3.994   4.139  1.00  0.00     0.002 C 
ENDROOT
BRANCH   1   2
ATOM      2  C   UNL     1       6.017  -2.719   3.759  1.00  0.00     0.021 C 
BRANCH   2   3
ATOM      3  C   UNL     1       5.749  -2.594   2.263  1.00  0.00     0.116 C 
BRANCH   3   4
ATOM      4  N   UNL     1       4.777  -3.583   1.843  1.00  0.00    -0.351 N 
ATOM      5  C   UNL     1       3.596  -3.422   1.160  1.00  0.00     0.271 C 
ATOM      6  O   UNL     1       2.948  -4.432   0.879  1.00  0.00    -0.267 OA
ATOM      7  H   UNL     1       4.996  -4.513   2.085  1.00  0.00     0.163 HD
BRANCH   5   8
ATOM      8  C   UNL     1       3.214  -2.092   0.670  1.00  0.00     0.150 A 
ATOM      9  N   UNL     1       3.023   0.022   0.476  1.00  0.00    -0.267 N 
ATOM     10  C   UNL     1       2.659  -0.477  -0.743  1.00  0.00     0.110 A 
ATOM     11  N   UNL     1       3.362  -0.941   1.358  1.00  0.00    -0.167 NA
ATOM     12  C   UNL     1       2.683  -1.842  -0.621  1.00  0.00     0.056 A 
BRANCH   9  13
ATOM     13  C   UNL     1       3.236   1.429   0.802  1.00  0.00     0.185 C 
BRANCH  13  14
ATOM     14  C   UNL     1       2.201   2.004   1.725  1.00  0.00     0.036 A 
ATOM     15  C   UNL     1       0.865   2.116   1.352  1.00  0.00     0.218 A 
ATOM     16  N   UNL     1      -0.094   2.707   2.097  1.00  0.00    -0.222 NA
ATOM     17  C   UNL     1       0.294   3.208   3.290  1.00  0.00     0.115 A 
ATOM     18  C   UNL     1       2.554   2.517   2.979  1.00  0.00     0.013 A 
ATOM     19  C   UNL     1       1.591   3.134   3.772  1.00  0.00     0.021 A 
BRANCH  15  20
ATOM     20  O   UNL     1       0.501   1.710   0.091  1.00  0.00    -0.481 OA
ATOM     21  C   UNL     1      -0.337   0.558   0.180  1.00  0.00     0.280 C 
ENDBRANCH  15  20
ENDBRANCH  13  14
ENDBRANCH   9  13
ENDBRANCH   5   8
ENDBRANCH   3   4
ENDBRANCH   2   3
ENDBRANCH   1   2
BRANCH   1  22
ATOM     22  C   UNL     1       8.123  -4.195   3.430  1.00  0.00     0.002 C 
BRANCH  22  23
ATOM     23  C   UNL     1       9.104  -3.016   3.499  1.00  0.00     0.021 C 
BRANCH  23  24
ATOM     24  C   UNL     1       9.557  -2.672   4.910  1.00  0.00     0.116 C 
BRANCH  24  25
ATOM     25  N   UNL     1      10.342  -3.748   5.512  1.00  0.00    -0.352 N 
ATOM     26  C   UNL     1      10.814  -3.848   6.798  1.00  0.00     0.251 C 
ATOM     27  H   UNL     1      10.562  -4.500   4.916  1.00  0.00     0.163 HD
ATOM     28  O   UNL     1      11.772  -4.579   7.061  1.00  0.00    -0.269 OA
BRANCH  26  29
ATOM     29  C   UNL     1      10.161  -3.083   7.870  1.00  0.00     0.039 A 
ATOM     30  C   UNL     1      10.908  -2.502   8.899  1.00  0.00     0.014 A 
ATOM     31  C   UNL     1       8.773  -2.956   7.840  1.00  0.00     0.014 A 
ATOM     32  C   UNL     1      10.252  -1.732   9.854  1.00  0.00     0.010 A 
ATOM     33  C   UNL     1       8.144  -2.089   8.697  1.00  0.00     0.010 A 
ATOM     34  C   UNL     1       8.870  -1.516   9.735  1.00  0.00    -0.014 A 
BRANCH  34  35
ATOM     35  C   UNL     1       8.190  -0.557  10.598  1.00  0.00     0.031 A 
ATOM     36  C   UNL     1       8.748   0.817  10.503  1.00  0.00     0.074 A 
ATOM     37  C   UNL     1       7.025  -0.829  11.226  1.00  0.00     0.049 A 
ATOM     38  N   UNL     1       9.380   1.474  11.416  1.00  0.00    -0.248 NA
ATOM     39  C   UNL     1       8.752   1.480   9.187  1.00  0.00     0.031 C 
ATOM     40  C   UNL     1       6.210  -2.044  11.119  1.00  0.00     0.029 A 
ATOM     41  N   UNL     1       6.256  -0.028  12.017  1.00  0.00    -0.354 N 
ATOM     42  C   UNL     1       9.659   2.721  10.864  1.00  0.00     0.074 A 
ATOM     43  C   UNL     1       9.456   2.584   9.447  1.00  0.00     0.031 C 
ATOM     44  C   UNL     1       4.976  -1.811  11.617  1.00  0.00     0.029 A 
ATOM     45  C   UNL     1       4.958  -0.492  12.222  1.00  0.00     0.049 A 
ATOM     46  H   UNL     1       6.590   0.809  12.412  1.00  0.00     0.167 HD
ATOM     47  C   UNL     1       9.730   3.823  11.663  1.00  0.00     0.037 A 
ATOM     48  C   UNL     1       3.937   0.175  12.819  1.00  0.00     0.037 A 
ATOM     49  C   UNL     1       9.899   3.429  13.044  1.00  0.00     0.049 A 
ATOM     50  C   UNL     1       4.537   1.281  13.602  1.00  0.00     0.074 A 
ATOM     51  C   UNL     1      10.833   2.693  13.748  1.00  0.00     0.029 A 
ATOM     52  N   UNL     1       8.788   3.484  13.846  1.00  0.00    -0.354 N 
ATOM     53  N   UNL     1       5.253   1.109  14.676  1.00  0.00    -0.248 NA
ATOM     54  C   UNL     1       4.700   2.566  12.942  1.00  0.00     0.031 C 
ATOM     55  C   UNL     1      10.080   1.966  14.720  1.00  0.00     0.029 A 
ATOM     56  C   UNL     1       8.745   2.355  14.616  1.00  0.00     0.049 A 
ATOM     57  H   UNL     1       8.130   4.217  13.865  1.00  0.00     0.167 HD
ATOM     58  C   UNL     1       6.277   2.034  14.559  1.00  0.00     0.074 A 
ATOM     59  C   UNL     1       5.818   2.978  13.543  1.00  0.00     0.031 C 
ATOM     60  C   UNL     1       7.511   1.763  15.078  1.00  0.00     0.037 A 
BRANCH  47  61
ATOM     61  C   UNL     1       9.183   5.191  11.289  1.00  0.00     0.064 A 
ATOM     62  C   UNL     1       9.291   6.236  12.233  1.00  0.00     0.173 A 
ATOM     63  C   UNL     1       8.290   5.442  10.223  1.00  0.00     0.173 A 
ATOM     64  F   UNL     1      10.110   6.121  13.289  1.00  0.00    -0.203 F 
ATOM     65  C   UNL     1       8.477   7.372  12.184  1.00  0.00     0.198 A 
ATOM     66  C   UNL     1       7.517   6.601  10.150  1.00  0.00     0.198 A 
ATOM     67  F   UNL     1       8.036   4.549   9.263  1.00  0.00    -0.203 F 
ATOM     68  F   UNL     1       8.509   8.256  13.189  1.00  0.00    -0.200 F 
ATOM     69  C   UNL     1       7.580   7.546  11.149  1.00  0.00     0.200 A 
ATOM     70  F   UNL     1       6.644   6.744   9.142  1.00  0.00    -0.200 F 
ATOM     71  F   UNL     1       6.746   8.594  11.136  1.00  0.00    -0.200 F 
ENDBRANCH  47  61
BRANCH  48  72
ATOM     72  C   UNL     1       2.476   0.112  12.572  1.00  0.00     0.064 A 
ATOM     73  C   UNL     1       1.566   0.678  13.484  1.00  0.00     0.173 A 
ATOM     74  C   UNL     1       1.961  -0.222  11.305  1.00  0.00     0.173 A 
ATOM     75  F   UNL     1       1.980   1.061  14.700  1.00  0.00    -0.203 F 
ATOM     76  C   UNL     1       0.236   0.937  13.134  1.00  0.00     0.198 A 
ATOM     77  C   UNL     1       0.631   0.032  10.959  1.00  0.00     0.198 A 
ATOM     78  F   UNL     1       2.762  -0.702  10.343  1.00  0.00    -0.203 F 
ATOM     79  F   UNL     1      -0.577   1.552  14.005  1.00  0.00    -0.200 F 
ATOM     80  C   UNL     1      -0.225   0.628  11.866  1.00  0.00     0.200 A 
ATOM     81  F   UNL     1       0.206  -0.236   9.716  1.00  0.00    -0.200 F 
ATOM     82  F   UNL     1      -1.476   0.945  11.504  1.00  0.00    -0.200 F 
ENDBRANCH  48  72
BRANCH  60  83
ATOM     83  C   UNL     1       7.617   0.634  16.066  1.00  0.00     0.064 A 
ATOM     84  C   UNL     1       7.297  -0.709  15.794  1.00  0.00     0.173 A 
ATOM     85  C   UNL     1       8.158   0.922  17.327  1.00  0.00     0.173 A 
ATOM     86  F   UNL     1       6.872  -1.089  14.582  1.00  0.00    -0.203 F 
ATOM     87  C   UNL     1       7.452  -1.699  16.764  1.00  0.00     0.198 A 
ATOM     88  C   UNL     1       8.353  -0.075  18.277  1.00  0.00     0.198 A 
ATOM     89  F   UNL     1       8.530   2.176  17.628  1.00  0.00    -0.203 F 
ATOM     90  F   UNL     1       7.108  -2.967  16.492  1.00  0.00    -0.200 F 
ATOM     91  C   UNL     1       7.985  -1.382  18.002  1.00  0.00     0.200 A 
ATOM     92  F   UNL     1       8.915   0.230  19.454  1.00  0.00    -0.200 F 
ATOM     93  F   UNL     1       8.164  -2.338  18.925  1.00  0.00    -0.200 F 
ENDBRANCH  60  83
ENDBRANCH  34  35
ENDBRANCH  26  29
ENDBRANCH  24  25
ENDBRANCH  23  24
ENDBRANCH  22  23
ENDBRANCH   1  22
TORSDOF 16
