REMARK SMILES O=C(NCCCCCCNC(=O)c1sccc1S(=O)(=O)Nc1ccccc1N1CCCCC1)c1ccc(-c2c3nc(c(-c4c(F)c(F)c(F)c(F)c4F)c4ccc([nH]4)c(-c4c(F)c(F)c(F)c(F)c4F)c4nc(c(-c5c(F)c(F)c(F)c(F)c5F)c5ccc2[nH]5)C=C4)C=C3)cc1
REMARK SMILES IDX 7 1 6 2 5 3 4 4 3 5 1 6 2 7 34 9 35 10 96 11 36 12 95 13
REMARK SMILES IDX 37 14 38 15 39 16 89 17 40 18 94 19 88 20 90 21 41 22 93 23
REMARK SMILES IDX 87 24 86 25 42 27 74 28 54 29 73 30 55 31 58 32 72 33 91 34
REMARK SMILES IDX 56 35 57 36 71 38 92 39 59 40 43 41 44 42 52 43 45 44 46 45
REMARK SMILES IDX 50 46 53 47 47 48 48 49 51 50 49 51 75 52 76 53 84 54 77 55
REMARK SMILES IDX 78 56 82 57 85 58 79 59 80 60 83 61 81 62 60 63 61 64 69 65
REMARK SMILES IDX 62 66 63 67 67 68 70 69 64 70 65 71 68 72 66 73 8 74 9 75
REMARK SMILES IDX 10 76 11 77 12 79 13 80 14 81 17 82 15 83 16 84 18 85 19 86
REMARK SMILES IDX 20 87 21 88 22 90 23 91 27 92 24 93 26 94 25 95 28 96 29 97
REMARK SMILES IDX 33 98 30 99 32 100 31 101
REMARK H PARENT 3 8 90 26 58 37 10 78 21 89
REMARK Flexibility Score: inf
ROOT
ATOM      1  C   UNL     1       4.579   1.965   3.625  1.00  0.00     0.002 C 
ENDROOT
BRANCH   1   2
ATOM      2  C   UNL     1       4.213   2.859   2.433  1.00  0.00     0.002 C 
BRANCH   2   3
ATOM      3  C   UNL     1       4.664   2.381   1.058  1.00  0.00     0.021 C 
BRANCH   3   4
ATOM      4  C   UNL     1       4.288   0.951   0.733  1.00  0.00     0.116 C 
BRANCH   4   5
ATOM      5  N   UNL     1       2.857   0.717   0.748  1.00  0.00    -0.352 N 
ATOM      6  O   UNL     1       0.922  -0.154  -0.037  1.00  0.00    -0.269 OA
ATOM      7  C   UNL     1       2.139  -0.102  -0.090  1.00  0.00     0.251 C 
ATOM      8  H   UNL     1       2.343   1.198   1.435  1.00  0.00     0.163 HD
BRANCH   7   9
ATOM      9  C   UNL     1       2.884  -0.898  -1.088  1.00  0.00     0.039 A 
ATOM     10  C   UNL     1       3.984  -1.668  -0.695  1.00  0.00     0.014 A 
ATOM     11  C   UNL     1       2.499  -0.833  -2.427  1.00  0.00     0.014 A 
ATOM     12  C   UNL     1       4.762  -2.294  -1.657  1.00  0.00     0.010 A 
ATOM     13  C   UNL     1       3.229  -1.538  -3.383  1.00  0.00     0.010 A 
ATOM     14  C   UNL     1       4.365  -2.271  -3.003  1.00  0.00    -0.014 A 
BRANCH  14  15
ATOM     15  C   UNL     1       5.052  -3.151  -3.975  1.00  0.00     0.031 A 
ATOM     16  C   UNL     1       5.820  -2.591  -5.133  1.00  0.00     0.074 A 
ATOM     17  C   UNL     1       4.926  -4.481  -3.804  1.00  0.00     0.049 A 
ATOM     18  N   UNL     1       6.402  -3.231  -6.115  1.00  0.00    -0.248 NA
ATOM     19  C   UNL     1       5.946  -1.128  -5.211  1.00  0.00     0.031 C 
ATOM     20  C   UNL     1       4.178  -5.121  -2.716  1.00  0.00     0.029 A 
ATOM     21  N   UNL     1       5.408  -5.534  -4.535  1.00  0.00    -0.354 N 
ATOM     22  C   UNL     1       6.939  -2.254  -6.941  1.00  0.00     0.074 A 
ATOM     23  C   UNL     1       6.610  -0.973  -6.350  1.00  0.00     0.031 C 
ATOM     24  C   UNL     1       4.264  -6.451  -2.842  1.00  0.00     0.029 A 
ATOM     25  C   UNL     1       5.006  -6.757  -4.058  1.00  0.00     0.049 A 
ATOM     26  H   UNL     1       5.986  -5.425  -5.325  1.00  0.00     0.167 HD
ATOM     27  C   UNL     1       7.639  -2.425  -8.087  1.00  0.00     0.037 A 
ATOM     28  C   UNL     1       5.172  -7.990  -4.568  1.00  0.00     0.037 A 
ATOM     29  C   UNL     1       7.979  -3.711  -8.640  1.00  0.00     0.049 A 
ATOM     30  C   UNL     1       5.926  -8.138  -5.856  1.00  0.00     0.074 A 
ATOM     31  C   UNL     1       8.767  -3.994  -9.743  1.00  0.00     0.029 A 
ATOM     32  N   UNL     1       7.541  -4.929  -8.139  1.00  0.00    -0.354 N 
ATOM     33  N   UNL     1       6.490  -7.211  -6.591  1.00  0.00    -0.248 NA
ATOM     34  C   UNL     1       6.057  -9.497  -6.393  1.00  0.00     0.031 C 
ATOM     35  C   UNL     1       8.755  -5.377  -9.945  1.00  0.00     0.029 A 
ATOM     36  C   UNL     1       8.001  -5.962  -8.940  1.00  0.00     0.049 A 
ATOM     37  H   UNL     1       6.985  -5.042  -7.335  1.00  0.00     0.167 HD
ATOM     38  C   UNL     1       7.046  -7.872  -7.674  1.00  0.00     0.074 A 
ATOM     39  C   UNL     1       6.778  -9.284  -7.484  1.00  0.00     0.031 C 
ATOM     40  C   UNL     1       7.711  -7.358  -8.736  1.00  0.00     0.037 A 
BRANCH  27  41
ATOM     41  C   UNL     1       8.076  -1.207  -8.845  1.00  0.00     0.064 A 
ATOM     42  C   UNL     1       9.136  -0.401  -8.406  1.00  0.00     0.173 A 
ATOM     43  C   UNL     1       7.490  -0.903 -10.085  1.00  0.00     0.173 A 
ATOM     44  F   UNL     1       9.726  -0.646  -7.227  1.00  0.00    -0.203 F 
ATOM     45  C   UNL     1       9.590   0.667  -9.178  1.00  0.00     0.198 A 
ATOM     46  C   UNL     1       7.960   0.151 -10.863  1.00  0.00     0.198 A 
ATOM     47  F   UNL     1       6.477  -1.648 -10.553  1.00  0.00    -0.203 F 
ATOM     48  F   UNL     1      10.594   1.434  -8.732  1.00  0.00    -0.200 F 
ATOM     49  C   UNL     1       9.009   0.935 -10.409  1.00  0.00     0.200 A 
ATOM     50  F   UNL     1       7.407   0.399 -12.058  1.00  0.00    -0.200 F 
ATOM     51  F   UNL     1       9.463   1.949 -11.159  1.00  0.00    -0.200 F 
ENDBRANCH  27  41
BRANCH  28  52
ATOM     52  C   UNL     1       4.567  -9.161  -3.884  1.00  0.00     0.064 A 
ATOM     53  C   UNL     1       5.366 -10.143  -3.286  1.00  0.00     0.173 A 
ATOM     54  C   UNL     1       3.174  -9.318  -3.810  1.00  0.00     0.173 A 
ATOM     55  F   UNL     1       6.703 -10.045  -3.345  1.00  0.00    -0.203 F 
ATOM     56  C   UNL     1       4.796 -11.249  -2.659  1.00  0.00     0.198 A 
ATOM     57  C   UNL     1       2.605 -10.405  -3.153  1.00  0.00     0.198 A 
ATOM     58  F   UNL     1       2.363  -8.401  -4.360  1.00  0.00    -0.203 F 
ATOM     59  F   UNL     1       5.584 -12.198  -2.137  1.00  0.00    -0.200 F 
ATOM     60  C   UNL     1       3.417 -11.376  -2.587  1.00  0.00     0.200 A 
ATOM     61  F   UNL     1       1.272 -10.513  -3.070  1.00  0.00    -0.200 F 
ATOM     62  F   UNL     1       2.870 -12.437  -1.979  1.00  0.00    -0.200 F 
ENDBRANCH  28  52
BRANCH  40  63
ATOM     63  C   UNL     1       8.191  -8.330  -9.770  1.00  0.00     0.064 A 
ATOM     64  C   UNL     1       7.297  -8.949 -10.656  1.00  0.00     0.173 A 
ATOM     65  C   UNL     1       9.557  -8.618  -9.900  1.00  0.00     0.173 A 
ATOM     66  F   UNL     1       5.979  -8.721 -10.554  1.00  0.00    -0.203 F 
ATOM     67  C   UNL     1       7.754  -9.837 -11.625  1.00  0.00     0.198 A 
ATOM     68  C   UNL     1      10.013  -9.484 -10.889  1.00  0.00     0.198 A 
ATOM     69  F   UNL     1      10.450  -8.049  -9.076  1.00  0.00    -0.203 F 
ATOM     70  F   UNL     1       6.879 -10.451 -12.433  1.00  0.00    -0.200 F 
ATOM     71  C   UNL     1       9.111 -10.097 -11.746  1.00  0.00     0.200 A 
ATOM     72  F   UNL     1      11.325  -9.726 -11.012  1.00  0.00    -0.200 F 
ATOM     73  F   UNL     1       9.550 -10.945 -12.686  1.00  0.00    -0.200 F 
ENDBRANCH  40  63
ENDBRANCH  14  15
ENDBRANCH   7   9
ENDBRANCH   4   5
ENDBRANCH   3   4
ENDBRANCH   2   3
ENDBRANCH   1   2
BRANCH   1  74
ATOM     74  C   UNL     1       6.036   1.485   3.694  1.00  0.00     0.021 C 
BRANCH  74  75
ATOM     75  C   UNL     1       7.054   2.615   3.710  1.00  0.00     0.116 C 
BRANCH  75  76
ATOM     76  N   UNL     1       7.093   3.278   4.986  1.00  0.00    -0.351 N 
ATOM     77  C   UNL     1       8.145   3.891   5.604  1.00  0.00     0.262 C 
ATOM     78  H   UNL     1       6.242   3.292   5.482  1.00  0.00     0.163 HD
ATOM     79  O   UNL     1       8.000   4.133   6.805  1.00  0.00    -0.268 OA
BRANCH  77  80
ATOM     80  C   UNL     1       9.377   4.155   4.893  1.00  0.00     0.112 A 
ATOM     81  S   UNL     1      10.793   3.556   5.700  1.00  0.00    -0.137 S 
ATOM     82  C   UNL     1       9.717   4.850   3.740  1.00  0.00     0.111 A 
ATOM     83  C   UNL     1      11.841   4.199   4.531  1.00  0.00     0.067 A 
ATOM     84  C   UNL     1      11.150   4.845   3.537  1.00  0.00     0.035 A 
BRANCH  82  85
ATOM     85  S   UNL     1       8.712   5.601   2.537  1.00  0.00     0.263 S 
ATOM     86  O   UNL     1       9.608   6.541   1.887  1.00  0.00    -0.201 OA
ATOM     87  O   UNL     1       8.255   4.472   1.749  1.00  0.00    -0.201 OA
BRANCH  85  88
ATOM     88  N   UNL     1       7.349   6.494   2.906  1.00  0.00    -0.277 N 
ATOM     89  H   UNL     1       6.963   7.053   2.193  1.00  0.00     0.180 HD
BRANCH  88  90
ATOM     90  C   UNL     1       6.705   6.505   4.177  1.00  0.00     0.072 A 
ATOM     91  C   UNL     1       5.373   6.065   4.217  1.00  0.00     0.029 A 
ATOM     92  C   UNL     1       7.336   6.997   5.338  1.00  0.00     0.061 A 
ATOM     93  C   UNL     1       4.680   5.992   5.421  1.00  0.00     0.002 A 
ATOM     94  C   UNL     1       6.611   6.908   6.541  1.00  0.00     0.028 A 
ATOM     95  C   UNL     1       5.308   6.397   6.589  1.00  0.00     0.002 A 
BRANCH  92  96
ATOM     96  N   UNL     1       8.588   7.592   5.322  1.00  0.00    -0.370 N 
ATOM     97  C   UNL     1       9.608   7.255   6.313  1.00  0.00     0.116 C 
ATOM     98  C   UNL     1       8.883   8.651   4.356  1.00  0.00     0.116 C 
ATOM     99  C   UNL     1      10.118   8.503   7.019  1.00  0.00     0.021 C 
ATOM    100  C   UNL     1       9.384   9.899   5.079  1.00  0.00     0.021 C 
ATOM    101  C   UNL     1      10.547   9.561   6.007  1.00  0.00     0.004 C 
ENDBRANCH  92  96
ENDBRANCH  88  90
ENDBRANCH  85  88
ENDBRANCH  82  85
ENDBRANCH  77  80
ENDBRANCH  75  76
ENDBRANCH  74  75
ENDBRANCH   1  74
TORSDOF 17
