REMARK SMILES Cc1n[nH]c2c1[C@@]1(C(=O)N([C@@H](C)C(=O)NCCCCCCNC(=O)c3ccc(-c4c5nc(c(-c6c(F)c(F)c(F)c(F)c6F)c6ccc([nH]6)c(-c6c(F)c(F)c(F)c(F)c6F)c6nc(c(-c7c(F)c(F)c(F)c(F)c7F)c7ccc4[nH]7)C=C6)C=C5)cc3)c3ccccc31)C(C#N)=C(N)O2
REMARK SMILES IDX 18 1 17 2 16 3 15 4 13 5 14 6 11 8 12 9 10 10 1 11 2 12 3 13
REMARK SMILES IDX 6 14 4 15 5 16 7 17 99 19 8 20 93 21 94 22 97 23 9 24 88 25
REMARK SMILES IDX 92 26 89 27 91 28 90 29 95 30 96 31 98 32 19 35 20 36 21 37
REMARK SMILES IDX 22 38 23 39 24 41 25 42 26 43 87 44 27 45 86 46 28 47 29 48
REMARK SMILES IDX 30 49 80 50 31 51 85 52 79 53 81 54 32 55 84 56 78 57 77 58
REMARK SMILES IDX 33 60 65 61 45 62 64 63 46 64 49 65 63 66 82 67 47 68 48 69
REMARK SMILES IDX 62 71 83 72 50 73 34 74 35 75 43 76 36 77 37 78 41 79 44 80
REMARK SMILES IDX 38 81 39 82 42 83 40 84 66 85 67 86 75 87 68 88 69 89 73 90
REMARK SMILES IDX 76 91 70 92 71 93 74 94 72 95 51 96 52 97 60 98 53 99 54 100
REMARK SMILES IDX 58 101 61 102 55 103 56 104 59 105 57 106
REMARK H PARENT 15 7 4 18 98 33 98 34 22 40 81 59 49 70
REMARK Flexibility Score: inf
ROOT
ATOM      1  C   UNL     1       5.642   5.372   0.176  1.00  0.00     0.002 C 
ENDROOT
BRANCH   1   2
ATOM      2  C   UNL     1       4.648   4.250   0.453  1.00  0.00     0.021 C 
BRANCH   2   3
ATOM      3  C   UNL     1       5.143   3.174   1.427  1.00  0.00     0.116 C 
BRANCH   3   4
ATOM      4  N   UNL     1       4.710   3.459   2.784  1.00  0.00    -0.354 N 
ATOM      5  C   UNL     1       3.682   3.006   3.549  1.00  0.00     0.242 C 
ATOM      6  O   UNL     1       3.571   3.532   4.666  1.00  0.00    -0.273 OA
ATOM      7  H   UNL     1       5.280   4.116   3.246  1.00  0.00     0.163 HD
BRANCH   5   8
ATOM      8  C   UNL     1       2.650   1.931   3.124  1.00  0.00     0.176 C 
ATOM      9  C   UNL     1       3.237   0.574   2.752  1.00  0.00     0.042 C 
BRANCH   8  10
ATOM     10  N   UNL     1       1.637   2.430   2.197  1.00  0.00    -0.298 N 
ATOM     11  C   UNL     1       0.501  -0.115  -0.352  1.00  0.00     0.069 C 
ATOM     12  C   UNL     1       0.095   1.030  -1.210  1.00  0.00     0.068 A 
ATOM     13  N   UNL     1      -0.264   0.806  -2.485  1.00  0.00    -0.177 NA
ATOM     14  C   UNL     1       0.126   2.420  -0.918  1.00  0.00     0.063 A 
ATOM     15  N   UNL     1      -0.382   2.038  -3.019  1.00  0.00    -0.246 N 
ATOM     16  C   UNL     1      -0.127   3.023  -2.122  1.00  0.00     0.222 A 
ATOM     17  C   UNL     1       0.570   3.249   0.242  1.00  0.00     0.149 C 
ATOM     18  H   UNL     1      -0.626   2.204  -3.958  1.00  0.00     0.193 HD
ATOM     19  O   UNL     1      -0.036   4.311  -2.423  1.00  0.00    -0.422 OA
ATOM     20  C   UNL     1       1.841   2.615   0.828  1.00  0.00     0.248 C 
ATOM     21  C   UNL     1      -0.414   3.068   1.366  1.00  0.00     0.002 A 
ATOM     22  C   UNL     1       0.786   4.709  -0.172  1.00  0.00     0.114 C 
ATOM     23  C   UNL     1       0.473   5.158  -1.423  1.00  0.00     0.208 C 
ATOM     24  O   UNL     1       2.793   2.240   0.170  1.00  0.00    -0.273 OA
ATOM     25  C   UNL     1       0.276   2.635   2.511  1.00  0.00     0.050 A 
ATOM     26  C   UNL     1      -1.788   3.279   1.387  1.00  0.00     0.008 A 
ATOM     27  C   UNL     1      -0.398   2.403   3.696  1.00  0.00     0.027 A 
ATOM     28  C   UNL     1      -2.473   3.026   2.574  1.00  0.00     0.001 A 
ATOM     29  C   UNL     1      -1.784   2.594   3.719  1.00  0.00     0.002 A 
BRANCH  22  30
ATOM     30  C   UNL     1       1.302   5.735   0.824  1.00  0.00     0.102 C 
ATOM     31  N   UNL     1       1.730   6.585   1.650  1.00  0.00    -0.193 NA
ENDBRANCH  22  30
BRANCH  23  32
ATOM     32  N   UNL     1       0.596   6.447  -1.853  1.00  0.00    -0.369 N 
ATOM     33  H   UNL     1       0.942   7.138  -1.244  1.00  0.00     0.159 HD
ATOM     34  H   UNL     1       0.337   6.686  -2.772  1.00  0.00     0.159 HD
ENDBRANCH  23  32
ENDBRANCH   8  10
ENDBRANCH   5   8
ENDBRANCH   3   4
ENDBRANCH   2   3
ENDBRANCH   1   2
BRANCH   1  35
ATOM     35  C   UNL     1       6.863   4.926  -0.630  1.00  0.00     0.002 C 
BRANCH  35  36
ATOM     36  C   UNL     1       6.556   4.281  -1.988  1.00  0.00     0.021 C 
BRANCH  36  37
ATOM     37  C   UNL     1       5.762   5.165  -2.951  1.00  0.00     0.116 C 
BRANCH  37  38
ATOM     38  N   UNL     1       6.393   6.438  -3.237  1.00  0.00    -0.352 N 
ATOM     39  C   UNL     1       7.402   6.850  -4.062  1.00  0.00     0.251 C 
ATOM     40  H   UNL     1       6.005   7.178  -2.717  1.00  0.00     0.163 HD
ATOM     41  O   UNL     1       7.615   8.064  -4.106  1.00  0.00    -0.269 OA
BRANCH  39  42
ATOM     42  C   UNL     1       8.301   5.944  -4.829  1.00  0.00     0.039 A 
ATOM     43  C   UNL     1       8.143   4.567  -4.957  1.00  0.00     0.014 A 
ATOM     44  C   UNL     1       9.440   6.543  -5.404  1.00  0.00     0.014 A 
ATOM     45  C   UNL     1       9.168   3.793  -5.485  1.00  0.00     0.010 A 
ATOM     46  C   UNL     1      10.449   5.778  -5.979  1.00  0.00     0.010 A 
ATOM     47  C   UNL     1      10.341   4.395  -5.955  1.00  0.00    -0.014 A 
BRANCH  47  48
ATOM     48  C   UNL     1      11.364   3.518  -6.518  1.00  0.00     0.031 A 
ATOM     49  C   UNL     1      10.863   2.644  -7.615  1.00  0.00     0.074 A 
ATOM     50  C   UNL     1      12.655   3.493  -6.128  1.00  0.00     0.049 A 
ATOM     51  N   UNL     1      10.744   1.356  -7.603  1.00  0.00    -0.248 NA
ATOM     52  C   UNL     1      10.285   3.288  -8.804  1.00  0.00     0.031 C 
ATOM     53  C   UNL     1      13.367   4.417  -5.244  1.00  0.00     0.029 A 
ATOM     54  N   UNL     1      13.636   2.623  -6.506  1.00  0.00    -0.354 N 
ATOM     55  C   UNL     1      10.221   1.004  -8.844  1.00  0.00     0.074 A 
ATOM     56  C   UNL     1       9.837   2.233  -9.486  1.00  0.00     0.031 C 
ATOM     57  C   UNL     1      14.699   4.186  -5.327  1.00  0.00     0.029 A 
ATOM     58  C   UNL     1      14.922   3.007  -6.147  1.00  0.00     0.049 A 
ATOM     59  H   UNL     1      13.447   1.789  -6.994  1.00  0.00     0.167 HD
ATOM     60  C   UNL     1      10.341  -0.266  -9.319  1.00  0.00     0.037 A 
ATOM     61  C   UNL     1      16.082   2.409  -6.523  1.00  0.00     0.037 A 
ATOM     62  C   UNL     1      10.578  -1.199  -8.248  1.00  0.00     0.049 A 
ATOM     63  C   UNL     1      15.753   1.022  -6.931  1.00  0.00     0.074 A 
ATOM     64  C   UNL     1       9.863  -1.604  -7.137  1.00  0.00     0.029 A 
ATOM     65  N   UNL     1      11.865  -1.623  -8.032  1.00  0.00    -0.354 N 
ATOM     66  N   UNL     1      15.368   0.097  -6.099  1.00  0.00    -0.248 NA
ATOM     67  C   UNL     1      15.420   0.792  -8.329  1.00  0.00     0.031 C 
ATOM     68  C   UNL     1      10.842  -1.797  -6.118  1.00  0.00     0.029 A 
ATOM     69  C   UNL     1      12.095  -1.560  -6.684  1.00  0.00     0.049 A 
ATOM     70  H   UNL     1      12.505  -1.918  -8.720  1.00  0.00     0.167 HD
ATOM     71  C   UNL     1      14.381  -0.594  -6.782  1.00  0.00     0.074 A 
ATOM     72  C   UNL     1      14.512  -0.174  -8.176  1.00  0.00     0.031 C 
ATOM     73  C   UNL     1      13.374  -1.222  -6.111  1.00  0.00     0.037 A 
BRANCH  60  74
ATOM     74  C   UNL     1      10.643  -0.605 -10.762  1.00  0.00     0.064 A 
ATOM     75  C   UNL     1      10.745  -1.961 -11.137  1.00  0.00     0.173 A 
ATOM     76  C   UNL     1      11.154   0.320 -11.697  1.00  0.00     0.173 A 
ATOM     77  F   UNL     1      10.294  -2.932 -10.328  1.00  0.00    -0.203 F 
ATOM     78  C   UNL     1      11.410  -2.359 -12.299  1.00  0.00     0.198 A 
ATOM     79  C   UNL     1      11.774  -0.079 -12.880  1.00  0.00     0.198 A 
ATOM     80  F   UNL     1      11.179   1.637 -11.465  1.00  0.00    -0.203 F 
ATOM     81  F   UNL     1      11.608  -3.663 -12.538  1.00  0.00    -0.200 F 
ATOM     82  C   UNL     1      11.936  -1.418 -13.163  1.00  0.00     0.200 A 
ATOM     83  F   UNL     1      12.289   0.850 -13.697  1.00  0.00    -0.200 F 
ATOM     84  F   UNL     1      12.640  -1.796 -14.238  1.00  0.00    -0.200 F 
ENDBRANCH  60  74
BRANCH  61  85
ATOM     85  C   UNL     1      17.392   3.026  -6.849  1.00  0.00     0.064 A 
ATOM     86  C   UNL     1      18.560   2.248  -6.945  1.00  0.00     0.173 A 
ATOM     87  C   UNL     1      17.466   4.329  -7.374  1.00  0.00     0.173 A 
ATOM     88  F   UNL     1      18.563   0.978  -6.513  1.00  0.00    -0.203 F 
ATOM     89  C   UNL     1      19.721   2.736  -7.557  1.00  0.00     0.198 A 
ATOM     90  C   UNL     1      18.626   4.816  -7.982  1.00  0.00     0.198 A 
ATOM     91  F   UNL     1      16.384   5.120  -7.399  1.00  0.00    -0.203 F 
ATOM     92  F   UNL     1      20.793   1.942  -7.689  1.00  0.00    -0.200 F 
ATOM     93  C   UNL     1      19.748   4.015  -8.086  1.00  0.00     0.200 A 
ATOM     94  F   UNL     1      18.626   6.040  -8.527  1.00  0.00    -0.200 F 
ATOM     95  F   UNL     1      20.835   4.459  -8.733  1.00  0.00    -0.200 F 
ENDBRANCH  61  85
BRANCH  73  96
ATOM     96  C   UNL     1      13.498  -1.359  -4.620  1.00  0.00     0.064 A 
ATOM     97  C   UNL     1      13.496  -0.271  -3.729  1.00  0.00     0.173 A 
ATOM     98  C   UNL     1      13.437  -2.646  -4.070  1.00  0.00     0.173 A 
ATOM     99  F   UNL     1      13.464   0.990  -4.179  1.00  0.00    -0.203 F 
ATOM    100  C   UNL     1      13.459  -0.470  -2.350  1.00  0.00     0.198 A 
ATOM    101  C   UNL     1      13.363  -2.840  -2.695  1.00  0.00     0.198 A 
ATOM    102  F   UNL     1      13.385  -3.719  -4.876  1.00  0.00    -0.203 F 
ATOM    103  F   UNL     1      13.453   0.582  -1.518  1.00  0.00    -0.200 F 
ATOM    104  C   UNL     1      13.379  -1.754  -1.835  1.00  0.00     0.200 A 
ATOM    105  F   UNL     1      13.236  -4.081  -2.204  1.00  0.00    -0.200 F 
ATOM    106  F   UNL     1      13.285  -1.944  -0.511  1.00  0.00    -0.200 F 
ENDBRANCH  73  96
ENDBRANCH  47  48
ENDBRANCH  39  42
ENDBRANCH  37  38
ENDBRANCH  36  37
ENDBRANCH  35  36
ENDBRANCH   1  35
TORSDOF 16
