REMARK SMILES C[C@H]1[NH2+]CC[C@H]1C(=O)N[C@H]1C=C[C@@H](C(=O)NCCCCCCNC(=O)c2ccc(-c3c4nc(c(-c5c(F)c(F)c(F)c(F)c5F)c5ccc([nH]5)c(-c5c(F)c(F)c(F)c(F)c5F)c5nc(c(-c6c(F)c(F)c(F)c(F)c6F)c6ccc3[nH]6)C=C5)C=C4)cc2)C1
REMARK SMILES IDX 19 1 18 2 17 3 16 4 14 5 15 6 13 8 10 9 11 10 89 11 12 12
REMARK SMILES IDX 9 13 7 14 8 15 6 17 1 18 2 19 3 20 4 21 5 24 20 25 21 26
REMARK SMILES IDX 22 27 23 28 24 29 25 31 26 32 27 33 88 34 28 35 87 36 29 37
REMARK SMILES IDX 30 38 31 39 81 40 32 41 86 42 80 43 82 44 33 45 85 46 79 47
REMARK SMILES IDX 78 48 34 50 66 51 46 52 65 53 47 54 50 55 64 56 83 57 48 58
REMARK SMILES IDX 49 59 63 61 84 62 51 63 35 64 36 65 44 66 37 67 38 68 42 69
REMARK SMILES IDX 45 70 39 71 40 72 43 73 41 74 67 75 68 76 76 77 69 78 70 79
REMARK SMILES IDX 74 80 77 81 71 82 72 83 75 84 73 85 52 86 53 87 61 88 54 89
REMARK SMILES IDX 55 90 59 91 62 92 56 93 57 94 60 95 58 96
REMARK H PARENT 16 7 9 16 3 22 3 23 23 30 82 49 50 60
REMARK Flexibility Score: inf
ROOT
ATOM      1  C   UNL     1       3.998  -0.642  -3.522  1.00  0.00     0.002 C 
ENDROOT
BRANCH   1   2
ATOM      2  C   UNL     1       4.006  -0.450  -2.001  1.00  0.00     0.021 C 
BRANCH   2   3
ATOM      3  C   UNL     1       3.629  -1.699  -1.182  1.00  0.00     0.116 C 
BRANCH   3   4
ATOM      4  N   UNL     1       3.702  -1.408   0.252  1.00  0.00    -0.356 N 
ATOM      5  C   UNL     1       2.704  -1.766   1.136  1.00  0.00     0.227 C 
ATOM      6  O   UNL     1       2.003  -2.758   0.939  1.00  0.00    -0.274 OA
ATOM      7  H   UNL     1       4.494  -0.939   0.599  1.00  0.00     0.163 HD
BRANCH   5   8
ATOM      8  C   UNL     1       2.519  -0.849   2.380  1.00  0.00     0.103 C 
ATOM      9  C   UNL     1       1.396   1.376   2.577  1.00  0.00     0.106 C 
ATOM     10  C   UNL     1       0.470   0.279   2.916  1.00  0.00    -0.006 C 
ATOM     11  C   UNL     1       2.698   0.671   2.128  1.00  0.00     0.047 C 
ATOM     12  C   UNL     1       1.084  -0.912   2.863  1.00  0.00    -0.016 C 
BRANCH   9  13
ATOM     13  N   UNL     1       0.907   2.436   1.691  1.00  0.00    -0.349 N 
ATOM     14  C   UNL     1       0.161   2.698   0.599  1.00  0.00     0.229 C 
ATOM     15  O   UNL     1       0.378   3.830   0.130  1.00  0.00    -0.275 OA
ATOM     16  H   UNL     1       1.262   3.291   2.023  1.00  0.00     0.164 HD
BRANCH  14  17
ATOM     17  C   UNL     1      -0.901   1.851  -0.103  1.00  0.00     0.142 C 
ATOM     18  C   UNL     1       0.815   0.057  -0.581  1.00  0.00     0.076 C 
ATOM     19  C   UNL     1      -0.469   0.699  -0.993  1.00  0.00     0.192 C 
ATOM     20  N   UNL     1      -1.564  -0.279  -0.944  1.00  0.00    -0.343 N 
ATOM     21  C   UNL     1      -2.210  -0.130   0.357  1.00  0.00     0.261 C 
ATOM     22  H   UNL     1      -1.194  -1.224  -1.046  1.00  0.00     0.346 HD
ATOM     23  H   UNL     1      -2.228  -0.121  -1.702  1.00  0.00     0.346 HD
ATOM     24  C   UNL     1      -2.064   1.336   0.726  1.00  0.00     0.081 C 
ENDBRANCH  14  17
ENDBRANCH   9  13
ENDBRANCH   5   8
ENDBRANCH   3   4
ENDBRANCH   2   3
ENDBRANCH   1   2
BRANCH   1  25
ATOM     25  C   UNL     1       2.621  -0.768  -4.185  1.00  0.00     0.002 C 
BRANCH  25  26
ATOM     26  C   UNL     1       1.829   0.532  -4.370  1.00  0.00     0.021 C 
BRANCH  26  27
ATOM     27  C   UNL     1       2.521   1.659  -5.138  1.00  0.00     0.116 C 
BRANCH  27  28
ATOM     28  N   UNL     1       3.082   1.234  -6.411  1.00  0.00    -0.352 N 
ATOM     29  C   UNL     1       2.949   1.767  -7.670  1.00  0.00     0.251 C 
ATOM     30  H   UNL     1       3.651   0.431  -6.362  1.00  0.00     0.163 HD
ATOM     31  O   UNL     1       3.404   1.170  -8.637  1.00  0.00    -0.269 OA
BRANCH  29  32
ATOM     32  C   UNL     1       2.245   3.054  -7.872  1.00  0.00     0.039 A 
ATOM     33  C   UNL     1       1.376   3.180  -8.961  1.00  0.00     0.014 A 
ATOM     34  C   UNL     1       2.456   4.139  -7.019  1.00  0.00     0.014 A 
ATOM     35  C   UNL     1       0.674   4.371  -9.156  1.00  0.00     0.010 A 
ATOM     36  C   UNL     1       1.697   5.297  -7.168  1.00  0.00     0.010 A 
ATOM     37  C   UNL     1       0.801   5.427  -8.240  1.00  0.00    -0.014 A 
BRANCH  37  38
ATOM     38  C   UNL     1       0.006   6.673  -8.387  1.00  0.00     0.031 A 
ATOM     39  C   UNL     1       0.695   7.989  -8.624  1.00  0.00     0.074 A 
ATOM     40  C   UNL     1      -1.333   6.627  -8.247  1.00  0.00     0.049 A 
ATOM     41  N   UNL     1       0.181   9.190  -8.717  1.00  0.00    -0.248 NA
ATOM     42  C   UNL     1       2.161   7.955  -8.744  1.00  0.00     0.031 C 
ATOM     43  C   UNL     1      -2.111   5.419  -7.968  1.00  0.00     0.029 A 
ATOM     44  N   UNL     1      -2.277   7.622  -8.308  1.00  0.00    -0.354 N 
ATOM     45  C   UNL     1       1.258  10.049  -8.893  1.00  0.00     0.074 A 
ATOM     46  C   UNL     1       2.457   9.243  -8.836  1.00  0.00     0.031 C 
ATOM     47  C   UNL     1      -3.413   5.738  -7.906  1.00  0.00     0.029 A 
ATOM     48  C   UNL     1      -3.559   7.178  -8.097  1.00  0.00     0.049 A 
ATOM     49  H   UNL     1      -2.055   8.564  -8.487  1.00  0.00     0.167 HD
ATOM     50  C   UNL     1       1.244  11.387  -9.107  1.00  0.00     0.037 A 
ATOM     51  C   UNL     1      -4.721   7.857  -8.051  1.00  0.00     0.037 A 
ATOM     52  C   UNL     1       0.045  12.180  -9.179  1.00  0.00     0.049 A 
ATOM     53  C   UNL     1      -4.706   9.346  -8.274  1.00  0.00     0.074 A 
ATOM     54  C   UNL     1      -0.081  13.532  -9.449  1.00  0.00     0.029 A 
ATOM     55  N   UNL     1      -1.238  11.693  -8.971  1.00  0.00    -0.354 N 
ATOM     56  N   UNL     1      -3.689  10.138  -8.515  1.00  0.00    -0.248 NA
ATOM     57  C   UNL     1      -6.003  10.035  -8.227  1.00  0.00     0.031 C 
ATOM     58  C   UNL     1      -1.433  13.874  -9.346  1.00  0.00     0.029 A 
ATOM     59  C   UNL     1      -2.158  12.724  -9.079  1.00  0.00     0.049 A 
ATOM     60  H   UNL     1      -1.461  10.754  -8.776  1.00  0.00     0.167 HD
ATOM     61  C   UNL     1      -4.224  11.408  -8.679  1.00  0.00     0.074 A 
ATOM     62  C   UNL     1      -5.658  11.279  -8.527  1.00  0.00     0.031 C 
ATOM     63  C   UNL     1      -3.585  12.577  -8.932  1.00  0.00     0.037 A 
BRANCH  50  64
ATOM     64  C   UNL     1       2.567  12.079  -9.277  1.00  0.00     0.064 A 
ATOM     65  C   UNL     1       3.377  11.859 -10.403  1.00  0.00     0.173 A 
ATOM     66  C   UNL     1       3.016  13.003  -8.321  1.00  0.00     0.173 A 
ATOM     67  F   UNL     1       3.001  10.979 -11.344  1.00  0.00    -0.203 F 
ATOM     68  C   UNL     1       4.598  12.512 -10.549  1.00  0.00     0.198 A 
ATOM     69  C   UNL     1       4.222  13.681  -8.487  1.00  0.00     0.198 A 
ATOM     70  F   UNL     1       2.281  13.258  -7.229  1.00  0.00    -0.203 F 
ATOM     71  F   UNL     1       5.378  12.244 -11.605  1.00  0.00    -0.200 F 
ATOM     72  C   UNL     1       5.016  13.428  -9.595  1.00  0.00     0.200 A 
ATOM     73  F   UNL     1       4.616  14.578  -7.573  1.00  0.00    -0.200 F 
ATOM     74  F   UNL     1       6.187  14.063  -9.741  1.00  0.00    -0.200 F 
ENDBRANCH  50  64
BRANCH  51  75
ATOM     75  C   UNL     1      -5.997   7.135  -7.801  1.00  0.00     0.064 A 
ATOM     76  C   UNL     1      -6.972   7.027  -8.803  1.00  0.00     0.173 A 
ATOM     77  C   UNL     1      -6.273   6.546  -6.558  1.00  0.00     0.173 A 
ATOM     78  F   UNL     1      -6.765   7.590 -10.002  1.00  0.00    -0.203 F 
ATOM     79  C   UNL     1      -8.183   6.380  -8.563  1.00  0.00     0.198 A 
ATOM     80  C   UNL     1      -7.471   5.871  -6.330  1.00  0.00     0.198 A 
ATOM     81  F   UNL     1      -5.373   6.617  -5.566  1.00  0.00    -0.203 F 
ATOM     82  F   UNL     1      -9.118   6.338  -9.522  1.00  0.00    -0.200 F 
ATOM     83  C   UNL     1      -8.429   5.797  -7.330  1.00  0.00     0.200 A 
ATOM     84  F   UNL     1      -7.698   5.296  -5.141  1.00  0.00    -0.200 F 
ATOM     85  F   UNL     1      -9.592   5.173  -7.101  1.00  0.00    -0.200 F 
ENDBRANCH  51  75
BRANCH  63  86
ATOM     86  C   UNL     1      -4.434  13.804  -9.104  1.00  0.00     0.064 A 
ATOM     87  C   UNL     1      -5.112  14.393  -8.026  1.00  0.00     0.173 A 
ATOM     88  C   UNL     1      -4.539  14.422 -10.360  1.00  0.00     0.173 A 
ATOM     89  F   UNL     1      -5.056  13.834  -6.807  1.00  0.00    -0.203 F 
ATOM     90  C   UNL     1      -5.886  15.536  -8.205  1.00  0.00     0.198 A 
ATOM     91  C   UNL     1      -5.284  15.585 -10.528  1.00  0.00     0.198 A 
ATOM     92  F   UNL     1      -3.905  13.905 -11.424  1.00  0.00    -0.203 F 
ATOM     93  F   UNL     1      -6.568  16.050  -7.172  1.00  0.00    -0.200 F 
ATOM     94  C   UNL     1      -5.964  16.136  -9.453  1.00  0.00     0.200 A 
ATOM     95  F   UNL     1      -5.344  16.173 -11.731  1.00  0.00    -0.200 F 
ATOM     96  F   UNL     1      -6.702  17.242  -9.621  1.00  0.00    -0.200 F 
ENDBRANCH  63  86
ENDBRANCH  37  38
ENDBRANCH  29  32
ENDBRANCH  27  28
ENDBRANCH  26  27
ENDBRANCH  25  26
ENDBRANCH   1  25
TORSDOF 15
