REMARK SMILES COc1ccc(-c2ccc(/C=C3\SC(=S)N([C@H](Cc4ccccc4)C(=O)NCCCCCCNC(=O)c4ccc(-c5c6nc(c(-c7c(F)c(F)c(F)c(F)c7F)c7ccc([nH]7)c(-c7c(F)c(F)c(F)c(F)c7F)c7nc(c(-c8c(F)c(F)c(F)c(F)c8F)c8ccc5[nH]8)C=C7)C=C6)cc4)C3=O)o2)cc1
REMARK SMILES IDX 29 1 28 2 27 3 25 4 26 5 17 7 16 8 11 9 12 10 13 11 100 12
REMARK SMILES IDX 14 13 101 14 15 15 10 16 7 17 8 18 102 19 9 20 6 21 3 22
REMARK SMILES IDX 4 23 104 24 5 25 103 26 2 27 1 28 18 29 19 30 20 31 24 32
REMARK SMILES IDX 21 33 23 34 22 35 30 36 31 37 32 38 33 39 34 40 35 41 36 43
REMARK SMILES IDX 37 44 38 45 99 46 39 47 98 48 40 49 41 50 42 51 92 52 43 53
REMARK SMILES IDX 97 54 91 55 93 56 44 57 96 58 90 59 89 60 45 62 77 63 57 64
REMARK SMILES IDX 76 65 58 66 61 67 75 68 94 69 59 70 60 71 74 73 95 74 62 75
REMARK SMILES IDX 46 76 47 77 55 78 48 79 49 80 53 81 56 82 50 83 51 84 54 85
REMARK SMILES IDX 52 86 78 87 79 88 87 89 80 90 81 91 85 92 88 93 82 94 83 95
REMARK SMILES IDX 86 96 84 97 63 98 64 99 72 100 65 101 66 102 70 103 73 104
REMARK SMILES IDX 67 105 68 106 71 107 69 108
REMARK H PARENT 27 6 34 42 93 61 61 72
REMARK Flexibility Score: inf
ROOT
ATOM      1  C   UNL     1       3.437  12.158   2.727  1.00  0.00     0.021 C 
ENDROOT
BRANCH   1   2
ATOM      2  C   UNL     1       2.328  13.202   2.680  1.00  0.00     0.116 C 
BRANCH   2   3
ATOM      3  N   UNL     1       2.696  14.355   1.872  1.00  0.00    -0.354 N 
ATOM      4  C   UNL     1       1.946  15.115   1.017  1.00  0.00     0.243 C 
ATOM      5  O   UNL     1       2.421  16.197   0.656  1.00  0.00    -0.273 OA
ATOM      6  H   UNL     1       3.637  14.633   1.954  1.00  0.00     0.163 HD
BRANCH   4   7
ATOM      7  C   UNL     1       0.559  14.659   0.505  1.00  0.00     0.185 C 
BRANCH   7   8
ATOM      8  N   UNL     1      -0.598  14.834   1.437  1.00  0.00    -0.280 N 
ATOM      9  C   UNL     1      -1.744  14.690   4.848  1.00  0.00     0.068 C 
ATOM     10  C   UNL     1      -1.721  14.781   3.513  1.00  0.00     0.084 C 
ATOM     11  S   UNL     1      -2.999  14.655   2.388  1.00  0.00    -0.054 SA
ATOM     12  C   UNL     1      -0.443  15.009   2.798  1.00  0.00     0.267 C 
ATOM     13  C   UNL     1      -1.916  14.839   1.012  1.00  0.00     0.149 C 
ATOM     14  O   UNL     1       0.569  15.344   3.399  1.00  0.00    -0.268 OA
ATOM     15  S   UNL     1      -2.525  14.969  -0.534  1.00  0.00    -0.052 S 
BRANCH   9  16
ATOM     16  C   UNL     1      -2.900  14.375   5.606  1.00  0.00     0.128 A 
ATOM     17  C   UNL     1      -4.414  14.574   7.218  1.00  0.00     0.134 A 
ATOM     18  C   UNL     1      -4.723  13.413   6.548  1.00  0.00     0.051 A 
ATOM     19  O   UNL     1      -3.308  15.144   6.669  1.00  0.00    -0.457 OA
ATOM     20  C   UNL     1      -3.766  13.292   5.514  1.00  0.00     0.051 A 
BRANCH  17  21
ATOM     21  C   UNL     1      -5.002  15.279   8.341  1.00  0.00     0.017 A 
ATOM     22  C   UNL     1      -6.211  16.641  10.483  1.00  0.00     0.118 A 
ATOM     23  C   UNL     1      -5.821  17.334   9.337  1.00  0.00     0.047 A 
ATOM     24  C   UNL     1      -6.006  15.263  10.556  1.00  0.00     0.047 A 
ATOM     25  C   UNL     1      -5.206  16.662   8.279  1.00  0.00     0.016 A 
ATOM     26  C   UNL     1      -5.410  14.585   9.486  1.00  0.00     0.016 A 
BRANCH  22  27
ATOM     27  O   UNL     1      -6.818  17.402  11.444  1.00  0.00    -0.497 OA
ATOM     28  C   UNL     1      -6.694  16.924  12.778  1.00  0.00     0.278 C 
ENDBRANCH  22  27
ENDBRANCH  17  21
ENDBRANCH   9  16
ENDBRANCH   7   8
BRANCH   7  29
ATOM     29  C   UNL     1       0.634  13.232  -0.113  1.00  0.00     0.071 C 
BRANCH  29  30
ATOM     30  C   UNL     1       0.840  13.214  -1.613  1.00  0.00    -0.045 A 
ATOM     31  C   UNL     1       2.082  13.554  -2.167  1.00  0.00     0.004 A 
ATOM     32  C   UNL     1      -0.201  12.831  -2.470  1.00  0.00     0.004 A 
ATOM     33  C   UNL     1       2.271  13.524  -3.550  1.00  0.00     0.000 A 
ATOM     34  C   UNL     1      -0.014  12.815  -3.852  1.00  0.00     0.000 A 
ATOM     35  C   UNL     1       1.222  13.161  -4.392  1.00  0.00     0.000 A 
ENDBRANCH  29  30
ENDBRANCH   7  29
ENDBRANCH   4   7
ENDBRANCH   2   3
ENDBRANCH   1   2
BRANCH   1  36
ATOM     36  C   UNL     1       4.659  12.586   3.549  1.00  0.00     0.002 C 
BRANCH  36  37
ATOM     37  C   UNL     1       4.369  13.007   4.996  1.00  0.00     0.002 C 
BRANCH  37  38
ATOM     38  C   UNL     1       3.578  11.998   5.832  1.00  0.00     0.021 C 
BRANCH  38  39
ATOM     39  C   UNL     1       4.193  10.605   5.914  1.00  0.00     0.116 C 
BRANCH  39  40
ATOM     40  N   UNL     1       5.518  10.614   6.508  1.00  0.00    -0.352 N 
ATOM     41  C   UNL     1       6.047   9.787   7.466  1.00  0.00     0.251 C 
ATOM     42  H   UNL     1       6.124  11.315   6.175  1.00  0.00     0.163 HD
ATOM     43  O   UNL     1       7.145  10.031   7.956  1.00  0.00    -0.269 OA
BRANCH  41  44
ATOM     44  C   UNL     1       5.282   8.611   7.929  1.00  0.00     0.039 A 
ATOM     45  C   UNL     1       5.203   8.362   9.302  1.00  0.00     0.014 A 
ATOM     46  C   UNL     1       4.657   7.752   7.021  1.00  0.00     0.014 A 
ATOM     47  C   UNL     1       4.453   7.281   9.768  1.00  0.00     0.010 A 
ATOM     48  C   UNL     1       3.858   6.712   7.489  1.00  0.00     0.010 A 
ATOM     49  C   UNL     1       3.752   6.465   8.866  1.00  0.00    -0.014 A 
BRANCH  49  50
ATOM     50  C   UNL     1       2.907   5.345   9.348  1.00  0.00     0.031 A 
ATOM     51  C   UNL     1       3.279   3.925   9.026  1.00  0.00     0.074 A 
ATOM     52  C   UNL     1       1.773   5.611  10.023  1.00  0.00     0.049 A 
ATOM     53  N   UNL     1       2.638   2.818   9.304  1.00  0.00    -0.248 NA
ATOM     54  C   UNL     1       4.522   3.725   8.266  1.00  0.00     0.031 C 
ATOM     55  C   UNL     1       1.281   6.949  10.354  1.00  0.00     0.029 A 
ATOM     56  N   UNL     1       0.822   4.769  10.542  1.00  0.00    -0.354 N 
ATOM     57  C   UNL     1       3.390   1.795   8.742  1.00  0.00     0.074 A 
ATOM     58  C   UNL     1       4.509   2.416   8.065  1.00  0.00     0.031 C 
ATOM     59  C   UNL     1       0.131   6.838  11.037  1.00  0.00     0.029 A 
ATOM     60  C   UNL     1      -0.213   5.424  11.163  1.00  0.00     0.049 A 
ATOM     61  H   UNL     1       0.876   3.788  10.475  1.00  0.00     0.167 HD
ATOM     62  C   UNL     1       3.179   0.459   8.805  1.00  0.00     0.037 A 
ATOM     63  C   UNL     1      -1.315   4.939  11.764  1.00  0.00     0.037 A 
ATOM     64  C   UNL     1       2.082  -0.156   9.504  1.00  0.00     0.049 A 
ATOM     65  C   UNL     1      -1.522   3.450  11.828  1.00  0.00     0.074 A 
ATOM     66  C   UNL     1       1.816  -1.502   9.683  1.00  0.00     0.029 A 
ATOM     67  N   UNL     1       1.065   0.540  10.142  1.00  0.00    -0.354 N 
ATOM     68  N   UNL     1      -0.768   2.490  11.351  1.00  0.00    -0.248 NA
ATOM     69  C   UNL     1      -2.729   2.979  12.520  1.00  0.00     0.031 C 
ATOM     70  C   UNL     1       0.617  -1.621  10.394  1.00  0.00     0.029 A 
ATOM     71  C   UNL     1       0.159  -0.349  10.697  1.00  0.00     0.049 A 
ATOM     72  H   UNL     1       0.997   1.521  10.193  1.00  0.00     0.167 HD
ATOM     73  C   UNL     1      -1.394   1.302  11.706  1.00  0.00     0.074 A 
ATOM     74  C   UNL     1      -2.583   1.663  12.450  1.00  0.00     0.031 C 
ATOM     75  C   UNL     1      -1.017   0.028  11.438  1.00  0.00     0.037 A 
BRANCH  62  76
ATOM     76  C   UNL     1       4.160  -0.431   8.097  1.00  0.00     0.064 A 
ATOM     77  C   UNL     1       5.471  -0.599   8.567  1.00  0.00     0.173 A 
ATOM     78  C   UNL     1       3.776  -1.145   6.952  1.00  0.00     0.173 A 
ATOM     79  F   UNL     1       5.891   0.070   9.651  1.00  0.00    -0.203 F 
ATOM     80  C   UNL     1       6.371  -1.426   7.899  1.00  0.00     0.198 A 
ATOM     81  C   UNL     1       4.670  -1.993   6.304  1.00  0.00     0.198 A 
ATOM     82  F   UNL     1       2.533  -1.024   6.464  1.00  0.00    -0.203 F 
ATOM     83  F   UNL     1       7.633  -1.531   8.337  1.00  0.00    -0.200 F 
ATOM     84  C   UNL     1       5.968  -2.126   6.772  1.00  0.00     0.200 A 
ATOM     85  F   UNL     1       4.276  -2.679   5.221  1.00  0.00    -0.200 F 
ATOM     86  F   UNL     1       6.835  -2.924   6.133  1.00  0.00    -0.200 F 
ENDBRANCH  62  76
BRANCH  63  87
ATOM     87  C   UNL     1      -2.293   5.873  12.379  1.00  0.00     0.064 A 
ATOM     88  C   UNL     1      -2.420   5.963  13.772  1.00  0.00     0.173 A 
ATOM     89  C   UNL     1      -3.111   6.696  11.593  1.00  0.00     0.173 A 
ATOM     90  F   UNL     1      -1.672   5.181  14.564  1.00  0.00    -0.203 F 
ATOM     91  C   UNL     1      -3.340   6.832  14.355  1.00  0.00     0.198 A 
ATOM     92  C   UNL     1      -4.012   7.583  12.178  1.00  0.00     0.198 A 
ATOM     93  F   UNL     1      -3.023   6.651  10.255  1.00  0.00    -0.203 F 
ATOM     94  F   UNL     1      -3.468   6.871  15.688  1.00  0.00    -0.200 F 
ATOM     95  C   UNL     1      -4.131   7.645  13.558  1.00  0.00     0.200 A 
ATOM     96  F   UNL     1      -4.764   8.378  11.405  1.00  0.00    -0.200 F 
ATOM     97  F   UNL     1      -5.011   8.486  14.119  1.00  0.00    -0.200 F 
ENDBRANCH  63  87
BRANCH  75  98
ATOM     98  C   UNL     1      -1.885  -1.071  11.977  1.00  0.00     0.064 A 
ATOM     99  C   UNL     1      -3.142  -1.353  11.422  1.00  0.00     0.173 A 
ATOM    100  C   UNL     1      -1.438  -1.874  13.037  1.00  0.00     0.173 A 
ATOM    101  F   UNL     1      -3.620  -0.602  10.418  1.00  0.00    -0.203 F 
ATOM    102  C   UNL     1      -3.929  -2.385  11.924  1.00  0.00     0.198 A 
ATOM    103  C   UNL     1      -2.216  -2.923  13.518  1.00  0.00     0.198 A 
ATOM    104  F   UNL     1      -0.241  -1.648  13.598  1.00  0.00    -0.203 F 
ATOM    105  F   UNL     1      -5.146  -2.609  11.408  1.00  0.00    -0.200 F 
ATOM    106  C   UNL     1      -3.463  -3.174  12.966  1.00  0.00     0.200 A 
ATOM    107  F   UNL     1      -1.760  -3.691  14.517  1.00  0.00    -0.200 F 
ATOM    108  F   UNL     1      -4.221  -4.171  13.443  1.00  0.00    -0.200 F 
ENDBRANCH  75  98
ENDBRANCH  49  50
ENDBRANCH  41  44
ENDBRANCH  39  40
ENDBRANCH  38  39
ENDBRANCH  37  38
ENDBRANCH  36  37
ENDBRANCH   1  36
TORSDOF 19
