REMARK SMILES C[C@@H](C(=O)NCCCCCCNC(=O)c1ccc(-c2c3nc(c(-c4c(F)c(F)c(F)c(F)c4F)c4ccc([nH]4)c(-c4c(F)c(F)c(F)c(F)c4F)c4nc(c(-c5c(F)c(F)c(F)c(F)c5F)c5ccc2[nH]5)C=C4)C=C3)cc1)c1ccc(C[C@@H]2CCC[C@@H]2O)cc1F
REMARK SMILES IDX 7 1 6 2 5 3 3 4 4 5 2 7 1 8 78 9 79 10 90 11 80 12 89 13
REMARK SMILES IDX 91 14 81 15 82 16 83 17 84 18 87 19 85 20 86 21 88 22 8 24
REMARK SMILES IDX 9 25 10 26 11 27 12 28 13 29 14 31 15 32 16 33 77 34 17 35
REMARK SMILES IDX 76 36 18 37 19 38 20 39 70 40 21 41 75 42 69 43 71 44 22 45
REMARK SMILES IDX 74 46 68 47 67 48 23 50 55 51 35 52 54 53 36 54 39 55 53 56
REMARK SMILES IDX 72 57 37 58 38 59 52 61 73 62 40 63 24 64 25 65 33 66 26 67
REMARK SMILES IDX 27 68 31 69 34 70 28 71 29 72 32 73 30 74 56 75 57 76 65 77
REMARK SMILES IDX 58 78 59 79 63 80 66 81 60 82 61 83 64 84 62 85 41 86 42 87
REMARK SMILES IDX 50 88 43 89 44 90 48 91 51 92 45 93 46 94 49 95 47 96
REMARK H PARENT 5 6 88 23 12 30 71 49 39 60
REMARK Flexibility Score: inf
ROOT
ATOM      1  C   UNL     1     -12.119   6.001   7.539  1.00  0.00     0.021 C 
ENDROOT
BRANCH   1   2
ATOM      2  C   UNL     1     -11.280   4.722   7.580  1.00  0.00     0.116 C 
BRANCH   2   3
ATOM      3  N   UNL     1     -11.701   3.813   6.536  1.00  0.00    -0.356 N 
ATOM      4  C   UNL     1     -11.157   3.575   5.309  1.00  0.00     0.227 C 
ATOM      5  O   UNL     1     -11.815   2.879   4.535  1.00  0.00    -0.274 OA
ATOM      6  H   UNL     1     -12.505   3.285   6.745  1.00  0.00     0.163 HD
BRANCH   4   7
ATOM      7  C   UNL     1      -9.754   4.105   4.981  1.00  0.00     0.108 C 
ATOM      8  C   UNL     1      -9.711   5.627   4.803  1.00  0.00     0.023 C 
BRANCH   7   9
ATOM      9  C   UNL     1      -9.162   3.367   3.789  1.00  0.00    -0.000 A 
ATOM     10  C   UNL     1      -8.407   2.204   4.002  1.00  0.00     0.008 A 
ATOM     11  C   UNL     1      -9.377   3.777   2.470  1.00  0.00     0.127 A 
ATOM     12  C   UNL     1      -7.815   1.534   2.928  1.00  0.00     0.004 A 
ATOM     13  C   UNL     1      -8.773   3.124   1.401  1.00  0.00     0.043 A 
ATOM     14  F   UNL     1     -10.147   4.840   2.202  1.00  0.00    -0.207 F 
ATOM     15  C   UNL     1      -7.937   2.025   1.624  1.00  0.00    -0.045 A 
BRANCH  15  16
ATOM     16  C   UNL     1      -7.177   1.408   0.478  1.00  0.00     0.041 C 
BRANCH  16  17
ATOM     17  C   UNL     1      -5.656   1.680   0.398  1.00  0.00     0.022 C 
ATOM     18  C   UNL     1      -4.822   1.045   1.519  1.00  0.00     0.007 C 
ATOM     19  C   UNL     1      -5.185   3.139   0.420  1.00  0.00     0.117 C 
ATOM     20  C   UNL     1      -4.496   2.159   2.519  1.00  0.00     0.003 C 
ATOM     21  C   UNL     1      -4.970   3.466   1.893  1.00  0.00     0.032 C 
BRANCH  19  22
ATOM     22  O   UNL     1      -6.060   4.034  -0.234  1.00  0.00    -0.393 OA
ATOM     23  H   UNL     1      -6.928   4.012   0.199  1.00  0.00     0.210 HD
ENDBRANCH  19  22
ENDBRANCH  16  17
ENDBRANCH  15  16
ENDBRANCH   7   9
ENDBRANCH   4   7
ENDBRANCH   2   3
ENDBRANCH   1   2
BRANCH   1  24
ATOM     24  C   UNL     1     -13.602   5.779   7.866  1.00  0.00     0.002 C 
BRANCH  24  25
ATOM     25  C   UNL     1     -13.876   5.153   9.237  1.00  0.00     0.002 C 
BRANCH  25  26
ATOM     26  C   UNL     1     -13.264   5.905  10.421  1.00  0.00     0.021 C 
BRANCH  26  27
ATOM     27  C   UNL     1     -13.730   7.351  10.560  1.00  0.00     0.116 C 
BRANCH  27  28
ATOM     28  N   UNL     1     -15.152   7.441  10.851  1.00  0.00    -0.352 N 
ATOM     29  C   UNL     1     -15.790   8.134  11.847  1.00  0.00     0.251 C 
ATOM     30  H   UNL     1     -15.739   6.933  10.247  1.00  0.00     0.163 HD
ATOM     31  O   UNL     1     -16.986   7.948  12.063  1.00  0.00    -0.269 OA
BRANCH  29  32
ATOM     32  C   UNL     1     -15.036   9.095  12.678  1.00  0.00     0.039 A 
ATOM     33  C   UNL     1     -15.233   9.090  14.062  1.00  0.00     0.014 A 
ATOM     34  C   UNL     1     -14.153  10.010  12.097  1.00  0.00     0.014 A 
ATOM     35  C   UNL     1     -14.505   9.967  14.868  1.00  0.00     0.010 A 
ATOM     36  C   UNL     1     -13.380  10.838  12.907  1.00  0.00     0.010 A 
ATOM     37  C   UNL     1     -13.553  10.829  14.300  1.00  0.00    -0.014 A 
BRANCH  37  38
ATOM     38  C   UNL     1     -12.737  11.734  15.146  1.00  0.00     0.031 A 
ATOM     39  C   UNL     1     -12.893  13.224  15.028  1.00  0.00     0.074 A 
ATOM     40  C   UNL     1     -11.814  11.215  15.978  1.00  0.00     0.049 A 
ATOM     41  N   UNL     1     -12.229  14.177  15.632  1.00  0.00    -0.248 NA
ATOM     42  C   UNL     1     -13.912  13.708  14.084  1.00  0.00     0.031 C 
ATOM     43  C   UNL     1     -11.535   9.788  16.147  1.00  0.00     0.029 A 
ATOM     44  N   UNL     1     -10.931  11.829  16.831  1.00  0.00    -0.354 N 
ATOM     45  C   UNL     1     -12.739  15.368  15.132  1.00  0.00     0.074 A 
ATOM     46  C   UNL     1     -13.731  15.019  14.138  1.00  0.00     0.031 C 
ATOM     47  C   UNL     1     -10.563   9.635  17.060  1.00  0.00     0.029 A 
ATOM     48  C   UNL     1     -10.127  10.952  17.516  1.00  0.00     0.049 A 
ATOM     49  H   UNL     1     -10.878  12.806  16.940  1.00  0.00     0.167 HD
ATOM     50  C   UNL     1     -12.423  16.637  15.486  1.00  0.00     0.037 A 
ATOM     51  C   UNL     1      -9.146  11.184  18.409  1.00  0.00     0.037 A 
ATOM     52  C   UNL     1     -11.457  16.979  16.496  1.00  0.00     0.049 A 
ATOM     53  C   UNL     1      -8.822  12.603  18.791  1.00  0.00     0.074 A 
ATOM     54  C   UNL     1     -11.111  18.233  16.970  1.00  0.00     0.029 A 
ATOM     55  N   UNL     1     -10.681  16.061  17.189  1.00  0.00    -0.354 N 
ATOM     56  N   UNL     1      -9.356  13.719  18.360  1.00  0.00    -0.248 NA
ATOM     57  C   UNL     1      -7.762  12.793  19.791  1.00  0.00     0.031 C 
ATOM     58  C   UNL     1     -10.096  18.076  17.921  1.00  0.00     0.029 A 
ATOM     59  C   UNL     1      -9.844  16.723  18.073  1.00  0.00     0.049 A 
ATOM     60  H   UNL     1     -10.719  15.085  17.069  1.00  0.00     0.167 HD
ATOM     61  C   UNL     1      -8.721  14.740  19.053  1.00  0.00     0.074 A 
ATOM     62  C   UNL     1      -7.770  14.109  19.945  1.00  0.00     0.031 C 
ATOM     63  C   UNL     1      -8.908  16.079  18.960  1.00  0.00     0.037 A 
BRANCH  50  64
ATOM     64  C   UNL     1     -13.135  17.752  14.777  1.00  0.00     0.064 A 
ATOM     65  C   UNL     1     -14.496  18.014  14.998  1.00  0.00     0.173 A 
ATOM     66  C   UNL     1     -12.441  18.594  13.896  1.00  0.00     0.173 A 
ATOM     67  F   UNL     1     -15.208  17.231  15.823  1.00  0.00    -0.203 F 
ATOM     68  C   UNL     1     -15.141  19.058  14.342  1.00  0.00     0.198 A 
ATOM     69  C   UNL     1     -13.082  19.656  13.264  1.00  0.00     0.198 A 
ATOM     70  F   UNL     1     -11.137  18.392  13.652  1.00  0.00    -0.203 F 
ATOM     71  F   UNL     1     -16.453  19.259  14.533  1.00  0.00    -0.200 F 
ATOM     72  C   UNL     1     -14.433  19.883  13.481  1.00  0.00     0.200 A 
ATOM     73  F   UNL     1     -12.393  20.460  12.441  1.00  0.00    -0.200 F 
ATOM     74  F   UNL     1     -15.054  20.892  12.856  1.00  0.00    -0.200 F 
ENDBRANCH  50  64
BRANCH  51  75
ATOM     75  C   UNL     1      -8.419  10.044  19.024  1.00  0.00     0.064 A 
ATOM     76  C   UNL     1      -8.600   9.721  20.376  1.00  0.00     0.173 A 
ATOM     77  C   UNL     1      -7.529   9.258  18.278  1.00  0.00     0.173 A 
ATOM     78  F   UNL     1      -9.425  10.458  21.134  1.00  0.00    -0.203 F 
ATOM     79  C   UNL     1      -7.905   8.667  20.964  1.00  0.00     0.198 A 
ATOM     80  C   UNL     1      -6.855   8.186  18.860  1.00  0.00     0.198 A 
ATOM     81  F   UNL     1      -7.325   9.522  16.979  1.00  0.00    -0.203 F 
ATOM     82  F   UNL     1      -8.064   8.408  22.269  1.00  0.00    -0.200 F 
ATOM     83  C   UNL     1      -7.037   7.897  20.204  1.00  0.00     0.200 A 
ATOM     84  F   UNL     1      -6.028   7.436  18.120  1.00  0.00    -0.200 F 
ATOM     85  F   UNL     1      -6.371   6.881  20.769  1.00  0.00    -0.200 F 
ENDBRANCH  51  75
BRANCH  63  86
ATOM     86  C   UNL     1      -8.093  16.952  19.868  1.00  0.00     0.064 A 
ATOM     87  C   UNL     1      -6.720  17.148  19.663  1.00  0.00     0.173 A 
ATOM     88  C   UNL     1      -8.702  17.629  20.936  1.00  0.00     0.173 A 
ATOM     89  F   UNL     1      -6.089  16.511  18.665  1.00  0.00    -0.203 F 
ATOM     90  C   UNL     1      -5.981  17.971  20.508  1.00  0.00     0.198 A 
ATOM     91  C   UNL     1      -7.967  18.474  21.761  1.00  0.00     0.198 A 
ATOM     92  F   UNL     1     -10.015  17.479  21.171  1.00  0.00    -0.203 F 
ATOM     93  F   UNL     1      -4.661  18.108  20.322  1.00  0.00    -0.200 F 
ATOM     94  C   UNL     1      -6.606  18.639  21.552  1.00  0.00     0.200 A 
ATOM     95  F   UNL     1      -8.574  19.127  22.761  1.00  0.00    -0.200 F 
ATOM     96  F   UNL     1      -5.894  19.435  22.361  1.00  0.00    -0.200 F 
ENDBRANCH  63  86
ENDBRANCH  37  38
ENDBRANCH  29  32
ENDBRANCH  27  28
ENDBRANCH  26  27
ENDBRANCH  25  26
ENDBRANCH  24  25
ENDBRANCH   1  24
TORSDOF 17
