REMARK SMILES O=C(C[N@H+]1CCC[C@@H]1c1ccccc1Cl)NCCCCCCNC(=O)c1ccc(-c2c3nc(c(-c4c(F)c(F)c(F)c(F)c4F)c4ccc([nH]4)c(-c4c(F)c(F)c(F)c(F)c4F)c4nc(c(-c5c(F)c(F)c(F)c(F)c5F)c5ccc2[nH]5)C=C4)C=C3)cc1
REMARK SMILES IDX 19 1 18 2 17 3 16 4 1 5 2 6 3 8 4 9 5 10 8 11 6 13 7 14 9 15
REMARK SMILES IDX 10 16 14 17 11 18 13 19 15 20 12 21 20 22 21 23 22 24 23 25
REMARK SMILES IDX 24 26 25 28 26 29 27 30 88 31 28 32 87 33 29 34 30 35 31 36
REMARK SMILES IDX 81 37 32 38 86 39 80 40 82 41 33 42 85 43 79 44 78 45 34 47
REMARK SMILES IDX 66 48 46 49 65 50 47 51 50 52 64 53 83 54 48 55 49 56 63 58
REMARK SMILES IDX 84 59 51 60 35 61 36 62 44 63 37 64 38 65 42 66 45 67 39 68
REMARK SMILES IDX 40 69 43 70 41 71 67 72 68 73 76 74 69 75 70 76 74 77 77 78
REMARK SMILES IDX 71 79 72 80 75 81 73 82 52 83 53 84 61 85 54 86 55 87 59 88
REMARK SMILES IDX 62 89 56 90 57 91 60 92 58 93
REMARK H PARENT 16 7 4 12 23 27 82 46 50 57
REMARK Flexibility Score: inf
ROOT
ATOM      1  C   UNL     1       4.236  -2.428   3.007  1.00  0.00     0.002 C 
ENDROOT
BRANCH   1   2
ATOM      2  C   UNL     1       2.735  -2.437   2.683  1.00  0.00     0.021 C 
BRANCH   2   3
ATOM      3  C   UNL     1       2.185  -1.089   2.230  1.00  0.00     0.116 C 
BRANCH   3   4
ATOM      4  N   UNL     1       2.989  -0.526   1.171  1.00  0.00    -0.351 N 
ATOM      5  O   UNL     1       1.416  -0.644  -0.498  1.00  0.00    -0.269 OA
ATOM      6  C   UNL     1       2.523  -0.291  -0.103  1.00  0.00     0.275 C 
ATOM      7  H   UNL     1       3.925  -0.296   1.372  1.00  0.00     0.163 HD
BRANCH   6   8
ATOM      8  C   UNL     1       3.504   0.526  -0.963  1.00  0.00     0.364 C 
BRANCH   8   9
ATOM      9  N   UNL     1       3.263   1.950  -0.691  1.00  0.00    -0.321 N 
ATOM     10  C   UNL     1       3.883   2.424   0.545  1.00  0.00     0.263 C 
ATOM     11  C   UNL     1       3.682   2.884  -1.757  1.00  0.00     0.217 C 
ATOM     12  H   UNL     1       2.246   1.964  -0.620  1.00  0.00     0.349 HD
ATOM     13  C   UNL     1       3.577   3.897   0.471  1.00  0.00     0.068 C 
ATOM     14  C   UNL     1       3.820   4.223  -0.992  1.00  0.00     0.076 C 
BRANCH  11  15
ATOM     15  C   UNL     1       2.734   2.997  -2.947  1.00  0.00     0.028 A 
ATOM     16  C   UNL     1       1.568   2.210  -3.037  1.00  0.00     0.011 A 
ATOM     17  C   UNL     1       2.995   3.876  -4.018  1.00  0.00     0.050 A 
ATOM     18  C   UNL     1       0.716   2.278  -4.142  1.00  0.00     0.001 A 
ATOM     19  C   UNL     1       2.115   3.976  -5.105  1.00  0.00     0.021 A 
ATOM     20  Cl  UNL     1       4.413   4.868  -4.083  1.00  0.00    -0.084 Cl
ATOM     21  C   UNL     1       0.982   3.170  -5.172  1.00  0.00     0.002 A 
ENDBRANCH  11  15
ENDBRANCH   8   9
ENDBRANCH   6   8
ENDBRANCH   3   4
ENDBRANCH   2   3
ENDBRANCH   1   2
BRANCH   1  22
ATOM     22  C   UNL     1       4.667  -1.425   4.082  1.00  0.00     0.002 C 
BRANCH  22  23
ATOM     23  C   UNL     1       3.999  -1.615   5.444  1.00  0.00     0.021 C 
BRANCH  23  24
ATOM     24  C   UNL     1       4.142  -3.014   6.029  1.00  0.00     0.116 C 
BRANCH  24  25
ATOM     25  N   UNL     1       5.529  -3.379   6.269  1.00  0.00    -0.352 N 
ATOM     26  C   UNL     1       6.090  -3.959   7.381  1.00  0.00     0.251 C 
ATOM     27  H   UNL     1       6.152  -3.183   5.533  1.00  0.00     0.163 HD
ATOM     28  O   UNL     1       7.304  -4.052   7.487  1.00  0.00    -0.269 OA
BRANCH  26  29
ATOM     29  C   UNL     1       5.211  -4.447   8.466  1.00  0.00     0.039 A 
ATOM     30  C   UNL     1       5.545  -4.146   9.789  1.00  0.00     0.014 A 
ATOM     31  C   UNL     1       4.062  -5.188   8.181  1.00  0.00     0.014 A 
ATOM     32  C   UNL     1       4.694  -4.543  10.822  1.00  0.00     0.010 A 
ATOM     33  C   UNL     1       3.175  -5.511   9.203  1.00  0.00     0.010 A 
ATOM     34  C   UNL     1       3.486  -5.201  10.535  1.00  0.00    -0.014 A 
BRANCH  34  35
ATOM     35  C   UNL     1       2.547  -5.585  11.619  1.00  0.00     0.031 A 
ATOM     36  C   UNL     1       2.243  -7.035  11.875  1.00  0.00     0.074 A 
ATOM     37  C   UNL     1       1.934  -4.628  12.342  1.00  0.00     0.049 A 
ATOM     38  N   UNL     1       1.418  -7.569  12.742  1.00  0.00    -0.248 NA
ATOM     39  C   UNL     1       2.938  -8.017  11.028  1.00  0.00     0.031 C 
ATOM     40  C   UNL     1       2.109  -3.186  12.158  1.00  0.00     0.029 A 
ATOM     41  N   UNL     1       1.033  -4.723  13.373  1.00  0.00    -0.354 N 
ATOM     42  C   UNL     1       1.495  -8.941  12.540  1.00  0.00     0.074 A 
ATOM     43  C   UNL     1       2.391  -9.156  11.425  1.00  0.00     0.031 C 
ATOM     44  C   UNL     1       1.361  -2.533  13.062  1.00  0.00     0.029 A 
ATOM     45  C   UNL     1       0.623  -3.506  13.861  1.00  0.00     0.049 A 
ATOM     46  H   UNL     1       0.711  -5.582  13.730  1.00  0.00     0.167 HD
ATOM     47  C   UNL     1       0.898  -9.935  13.241  1.00  0.00     0.037 A 
ATOM     48  C   UNL     1      -0.256  -3.210  14.838  1.00  0.00     0.037 A 
ATOM     49  C   UNL     1       0.014  -9.718  14.357  1.00  0.00     0.049 A 
ATOM     50  C   UNL     1      -0.925  -4.334  15.585  1.00  0.00     0.074 A 
ATOM     51  C   UNL     1      -0.617 -10.657  15.154  1.00  0.00     0.029 A 
ATOM     52  N   UNL     1      -0.366  -8.471  14.831  1.00  0.00    -0.354 N 
ATOM     53  N   UNL     1      -0.793  -5.629  15.429  1.00  0.00    -0.248 NA
ATOM     54  C   UNL     1      -1.858  -3.952  16.655  1.00  0.00     0.031 C 
ATOM     55  C   UNL     1      -1.417  -9.979  16.078  1.00  0.00     0.029 A 
ATOM     56  C   UNL     1      -1.238  -8.617  15.899  1.00  0.00     0.049 A 
ATOM     57  H   UNL     1      -0.062  -7.610  14.463  1.00  0.00     0.167 HD
ATOM     58  C   UNL     1      -1.595  -6.215  16.400  1.00  0.00     0.074 A 
ATOM     59  C   UNL     1      -2.195  -5.133  17.152  1.00  0.00     0.031 C 
ATOM     60  C   UNL     1      -1.815  -7.529  16.648  1.00  0.00     0.037 A 
BRANCH  47  61
ATOM     61  C   UNL     1       1.190 -11.349  12.825  1.00  0.00     0.064 A 
ATOM     62  C   UNL     1       2.461 -11.918  12.999  1.00  0.00     0.173 A 
ATOM     63  C   UNL     1       0.182 -12.157  12.278  1.00  0.00     0.173 A 
ATOM     64  F   UNL     1       3.465 -11.186  13.507  1.00  0.00    -0.203 F 
ATOM     65  C   UNL     1       2.720 -13.230  12.611  1.00  0.00     0.198 A 
ATOM     66  C   UNL     1       0.435 -13.480  11.924  1.00  0.00     0.198 A 
ATOM     67  F   UNL     1      -1.054 -11.667  12.095  1.00  0.00    -0.203 F 
ATOM     68  F   UNL     1       3.957 -13.732  12.737  1.00  0.00    -0.200 F 
ATOM     69  C   UNL     1       1.706 -14.012  12.082  1.00  0.00     0.200 A 
ATOM     70  F   UNL     1      -0.551 -14.239  11.427  1.00  0.00    -0.200 F 
ATOM     71  F   UNL     1       1.954 -15.278  11.718  1.00  0.00    -0.200 F 
ENDBRANCH  47  61
BRANCH  48  72
ATOM     72  C   UNL     1      -0.544  -1.792  15.183  1.00  0.00     0.064 A 
ATOM     73  C   UNL     1      -0.167  -1.258  16.424  1.00  0.00     0.173 A 
ATOM     74  C   UNL     1      -1.225  -0.949  14.293  1.00  0.00     0.173 A 
ATOM     75  F   UNL     1       0.471  -2.029  17.317  1.00  0.00    -0.203 F 
ATOM     76  C   UNL     1      -0.491   0.051  16.774  1.00  0.00     0.198 A 
ATOM     77  C   UNL     1      -1.518   0.371  14.631  1.00  0.00     0.198 A 
ATOM     78  F   UNL     1      -1.603  -1.406  13.089  1.00  0.00    -0.203 F 
ATOM     79  F   UNL     1      -0.173   0.514  17.991  1.00  0.00    -0.200 F 
ATOM     80  C   UNL     1      -1.162   0.866  15.876  1.00  0.00     0.200 A 
ATOM     81  F   UNL     1      -2.152   1.160  13.753  1.00  0.00    -0.200 F 
ATOM     82  F   UNL     1      -1.476   2.124  16.214  1.00  0.00    -0.200 F 
ENDBRANCH  48  72
BRANCH  60  83
ATOM     83  C   UNL     1      -2.701  -7.872  17.812  1.00  0.00     0.064 A 
ATOM     84  C   UNL     1      -4.082  -7.622  17.793  1.00  0.00     0.173 A 
ATOM     85  C   UNL     1      -2.162  -8.486  18.953  1.00  0.00     0.173 A 
ATOM     86  F   UNL     1      -4.645  -7.025  16.732  1.00  0.00    -0.203 F 
ATOM     87  C   UNL     1      -4.882  -7.940  18.887  1.00  0.00     0.198 A 
ATOM     88  C   UNL     1      -2.971  -8.835  20.031  1.00  0.00     0.198 A 
ATOM     89  F   UNL     1      -0.850  -8.756  19.021  1.00  0.00    -0.203 F 
ATOM     90  F   UNL     1      -6.187  -7.636  18.871  1.00  0.00    -0.200 F 
ATOM     91  C   UNL     1      -4.328  -8.552  20.002  1.00  0.00     0.200 A 
ATOM     92  F   UNL     1      -2.436  -9.442  21.099  1.00  0.00    -0.200 F 
ATOM     93  F   UNL     1      -5.101  -8.861  21.052  1.00  0.00    -0.200 F 
ENDBRANCH  60  83
ENDBRANCH  34  35
ENDBRANCH  26  29
ENDBRANCH  24  25
ENDBRANCH  23  24
ENDBRANCH  22  23
ENDBRANCH   1  22
TORSDOF 15
