REMARK SMILES C[C@@H](C(=O)NCCCCCCNC(=O)c1ccc(-c2c3nc(c(-c4c(F)c(F)c(F)c(F)c4F)c4ccc([nH]4)c(-c4c(F)c(F)c(F)c(F)c4F)c4nc(c(-c5c(F)c(F)c(F)c(F)c5F)c5ccc2[nH]5)C=C4)C=C3)cc1)c1ccc(C[C@@H]2CCC[C@@H]2O)cc1
REMARK SMILES IDX 7 1 6 2 5 3 3 4 4 5 2 7 1 8 78 9 79 10 90 11 80 12 89 13
REMARK SMILES IDX 81 14 82 15 83 16 84 17 87 18 85 19 86 20 88 21 8 23 9 24
REMARK SMILES IDX 10 25 11 26 12 27 13 28 14 30 15 31 16 32 77 33 17 34 76 35
REMARK SMILES IDX 18 36 19 37 20 38 70 39 21 40 75 41 69 42 71 43 22 44 74 45
REMARK SMILES IDX 68 46 67 47 23 49 55 50 35 51 54 52 36 53 39 54 53 55 72 56
REMARK SMILES IDX 37 57 38 58 52 60 73 61 40 62 24 63 25 64 33 65 26 66 27 67
REMARK SMILES IDX 31 68 34 69 28 70 29 71 32 72 30 73 56 74 57 75 65 76 58 77
REMARK SMILES IDX 59 78 63 79 66 80 60 81 61 82 64 83 62 84 41 85 42 86 50 87
REMARK SMILES IDX 43 88 44 89 48 90 51 91 45 92 46 93 49 94 47 95
REMARK H PARENT 5 6 88 22 12 29 71 48 39 59
REMARK Flexibility Score: inf
ROOT
ATOM      1  C   UNL     1     -11.442   5.709   7.236  1.00  0.00     0.021 C 
ENDROOT
BRANCH   1   2
ATOM      2  C   UNL     1     -11.336   4.190   7.077  1.00  0.00     0.116 C 
BRANCH   2   3
ATOM      3  N   UNL     1     -11.829   3.778   5.781  1.00  0.00    -0.356 N 
ATOM      4  C   UNL     1     -11.156   3.406   4.655  1.00  0.00     0.227 C 
ATOM      5  O   UNL     1     -11.834   3.260   3.637  1.00  0.00    -0.274 OA
ATOM      6  H   UNL     1     -12.810   3.764   5.698  1.00  0.00     0.163 HD
BRANCH   4   7
ATOM      7  C   UNL     1      -9.641   3.160   4.717  1.00  0.00     0.105 C 
ATOM      8  C   UNL     1      -8.835   4.457   4.868  1.00  0.00     0.023 C 
BRANCH   7   9
ATOM      9  C   UNL     1      -9.112   2.400   3.508  1.00  0.00    -0.036 A 
ATOM     10  C   UNL     1      -8.481   1.159   3.668  1.00  0.00     0.005 A 
ATOM     11  C   UNL     1      -9.187   2.955   2.222  1.00  0.00     0.005 A 
ATOM     12  C   UNL     1      -7.886   0.521   2.576  1.00  0.00     0.004 A 
ATOM     13  C   UNL     1      -8.588   2.321   1.137  1.00  0.00     0.004 A 
ATOM     14  C   UNL     1      -7.893   1.119   1.311  1.00  0.00    -0.048 A 
BRANCH  14  15
ATOM     15  C   UNL     1      -7.135   0.522   0.152  1.00  0.00     0.041 C 
BRANCH  15  16
ATOM     16  C   UNL     1      -5.615   0.793   0.082  1.00  0.00     0.022 C 
ATOM     17  C   UNL     1      -4.798   0.153   1.210  1.00  0.00     0.007 C 
ATOM     18  C   UNL     1      -5.147   2.252   0.119  1.00  0.00     0.117 C 
ATOM     19  C   UNL     1      -4.505   1.258   2.228  1.00  0.00     0.003 C 
ATOM     20  C   UNL     1      -4.958   2.570   1.597  1.00  0.00     0.032 C 
BRANCH  18  21
ATOM     21  O   UNL     1      -6.030   3.143  -0.531  1.00  0.00    -0.393 OA
ATOM     22  H   UNL     1      -6.900   3.104  -0.104  1.00  0.00     0.210 HD
ENDBRANCH  18  21
ENDBRANCH  15  16
ENDBRANCH  14  15
ENDBRANCH   7   9
ENDBRANCH   4   7
ENDBRANCH   2   3
ENDBRANCH   1   2
BRANCH   1  23
ATOM     23  C   UNL     1     -12.874   6.255   7.154  1.00  0.00     0.002 C 
BRANCH  23  24
ATOM     24  C   UNL     1     -13.868   5.632   8.139  1.00  0.00     0.002 C 
BRANCH  24  25
ATOM     25  C   UNL     1     -13.445   5.687   9.608  1.00  0.00     0.021 C 
BRANCH  25  26
ATOM     26  C   UNL     1     -13.192   7.090  10.146  1.00  0.00     0.116 C 
BRANCH  26  27
ATOM     27  N   UNL     1     -14.396   7.901  10.157  1.00  0.00    -0.352 N 
ATOM     28  C   UNL     1     -14.884   8.710  11.148  1.00  0.00     0.251 C 
ATOM     29  H   UNL     1     -14.938   7.864   9.335  1.00  0.00     0.163 HD
ATOM     30  O   UNL     1     -16.012   9.194  11.050  1.00  0.00    -0.269 OA
BRANCH  28  31
ATOM     31  C   UNL     1     -14.069   8.997  12.348  1.00  0.00     0.039 A 
ATOM     32  C   UNL     1     -14.693   8.997  13.599  1.00  0.00     0.014 A 
ATOM     33  C   UNL     1     -12.710   9.309  12.243  1.00  0.00     0.014 A 
ATOM     34  C   UNL     1     -13.950   9.284  14.746  1.00  0.00     0.010 A 
ATOM     35  C   UNL     1     -11.956   9.528  13.393  1.00  0.00     0.010 A 
ATOM     36  C   UNL     1     -12.573   9.542  14.652  1.00  0.00    -0.014 A 
BRANCH  36  37
ATOM     37  C   UNL     1     -11.779   9.888  15.858  1.00  0.00     0.031 A 
ATOM     38  C   UNL     1     -11.200  11.268  16.001  1.00  0.00     0.074 A 
ATOM     39  C   UNL     1     -11.546   8.955  16.800  1.00  0.00     0.049 A 
ATOM     40  N   UNL     1     -10.450  11.759  16.956  1.00  0.00    -0.248 NA
ATOM     41  C   UNL     1     -11.476  12.217  14.910  1.00  0.00     0.031 C 
ATOM     42  C   UNL     1     -12.016   7.571  16.754  1.00  0.00     0.029 A 
ATOM     43  N   UNL     1     -10.851   9.033  17.980  1.00  0.00    -0.354 N 
ATOM     44  C   UNL     1     -10.147  13.058  16.568  1.00  0.00     0.074 A 
ATOM     45  C   UNL     1     -10.752  13.266  15.271  1.00  0.00     0.031 C 
ATOM     46  C   UNL     1     -11.619   6.936  17.869  1.00  0.00     0.029 A 
ATOM     47  C   UNL     1     -10.847   7.860  18.694  1.00  0.00     0.049 A 
ATOM     48  H   UNL     1     -10.399   9.852  18.286  1.00  0.00     0.167 HD
ATOM     49  C   UNL     1      -9.447  14.001  17.244  1.00  0.00     0.037 A 
ATOM     50  C   UNL     1     -10.288   7.570  19.884  1.00  0.00     0.037 A 
ATOM     51  C   UNL     1      -8.886  13.806  18.554  1.00  0.00     0.049 A 
ATOM     52  C   UNL     1      -9.546   8.646  20.630  1.00  0.00     0.074 A 
ATOM     53  C   UNL     1      -8.217  14.718  19.352  1.00  0.00     0.029 A 
ATOM     54  N   UNL     1      -8.935  12.615  19.262  1.00  0.00    -0.354 N 
ATOM     55  N   UNL     1      -9.324   9.891  20.286  1.00  0.00    -0.248 NA
ATOM     56  C   UNL     1      -8.989   8.277  21.940  1.00  0.00     0.031 C 
ATOM     57  C   UNL     1      -7.832  14.069  20.530  1.00  0.00     0.029 A 
ATOM     58  C   UNL     1      -8.299  12.764  20.483  1.00  0.00     0.049 A 
ATOM     59  H   UNL     1      -9.359  11.785  18.944  1.00  0.00     0.167 HD
ATOM     60  C   UNL     1      -8.637  10.464  21.347  1.00  0.00     0.074 A 
ATOM     61  C   UNL     1      -8.484   9.432  22.352  1.00  0.00     0.031 C 
ATOM     62  C   UNL     1      -8.176  11.732  21.479  1.00  0.00     0.037 A 
BRANCH  49  63
ATOM     63  C   UNL     1      -9.254  15.330  16.575  1.00  0.00     0.064 A 
ATOM     64  C   UNL     1     -10.317  16.228  16.399  1.00  0.00     0.173 A 
ATOM     65  C   UNL     1      -7.984  15.722  16.126  1.00  0.00     0.173 A 
ATOM     66  F   UNL     1     -11.554  15.896  16.799  1.00  0.00    -0.203 F 
ATOM     67  C   UNL     1     -10.123  17.455  15.769  1.00  0.00     0.198 A 
ATOM     68  C   UNL     1      -7.787  16.962  15.523  1.00  0.00     0.198 A 
ATOM     69  F   UNL     1      -6.931  14.903  16.273  1.00  0.00    -0.203 F 
ATOM     70  F   UNL     1     -11.165  18.273  15.565  1.00  0.00    -0.200 F 
ATOM     71  C   UNL     1      -8.858  17.823  15.337  1.00  0.00     0.200 A 
ATOM     72  F   UNL     1      -6.562  17.321  15.116  1.00  0.00    -0.200 F 
ATOM     73  F   UNL     1      -8.672  19.005  14.734  1.00  0.00    -0.200 F 
ENDBRANCH  49  63
BRANCH  50  74
ATOM     74  C   UNL     1     -10.454   6.216  20.471  1.00  0.00     0.064 A 
ATOM     75  C   UNL     1     -11.279   6.016  21.586  1.00  0.00     0.173 A 
ATOM     76  C   UNL     1      -9.793   5.101  19.938  1.00  0.00     0.173 A 
ATOM     77  F   UNL     1     -11.916   7.057  22.142  1.00  0.00    -0.203 F 
ATOM     78  C   UNL     1     -11.421   4.754  22.160  1.00  0.00     0.198 A 
ATOM     79  C   UNL     1      -9.955   3.835  20.497  1.00  0.00     0.198 A 
ATOM     80  F   UNL     1      -8.996   5.239  18.868  1.00  0.00    -0.203 F 
ATOM     81  F   UNL     1     -12.182   4.599  23.252  1.00  0.00    -0.200 F 
ATOM     82  C   UNL     1     -10.762   3.664  21.612  1.00  0.00     0.200 A 
ATOM     83  F   UNL     1      -9.327   2.781  19.959  1.00  0.00    -0.200 F 
ATOM     84  F   UNL     1     -10.900   2.450  22.163  1.00  0.00    -0.200 F 
ENDBRANCH  50  74
BRANCH  62  85
ATOM     85  C   UNL     1      -7.511  12.088  22.775  1.00  0.00     0.064 A 
ATOM     86  C   UNL     1      -6.229  11.621  23.100  1.00  0.00     0.173 A 
ATOM     87  C   UNL     1      -8.153  12.938  23.689  1.00  0.00     0.173 A 
ATOM     88  F   UNL     1      -5.581  10.795  22.265  1.00  0.00    -0.203 F 
ATOM     89  C   UNL     1      -5.626  11.970  24.305  1.00  0.00     0.198 A 
ATOM     90  C   UNL     1      -7.536  13.307  24.880  1.00  0.00     0.198 A 
ATOM     91  F   UNL     1      -9.377  13.417  23.421  1.00  0.00    -0.203 F 
ATOM     92  F   UNL     1      -4.420  11.474  24.617  1.00  0.00    -0.200 F 
ATOM     93  C   UNL     1      -6.276  12.817  25.191  1.00  0.00     0.200 A 
ATOM     94  F   UNL     1      -8.161  14.135  25.729  1.00  0.00    -0.200 F 
ATOM     95  F   UNL     1      -5.692  13.155  26.348  1.00  0.00    -0.200 F 
ENDBRANCH  62  85
ENDBRANCH  36  37
ENDBRANCH  28  31
ENDBRANCH  26  27
ENDBRANCH  25  26
ENDBRANCH  24  25
ENDBRANCH  23  24
ENDBRANCH   1  23
TORSDOF 17
