REMARK SMILES CC1(C)[C@@]2(C(=O)NCCCCCCNC(=O)c3ccc(-c4c5nc(c(-c6c(F)c(F)c(F)c(F)c6F)c6ccc([nH]6)c(-c6c(F)c(F)c(F)c(F)c6F)c6nc(c(-c7c(F)c(F)c(F)c(F)c7F)c7ccc4[nH]7)C=C6)C=C5)cc3)CC[C@]1(C)/C(=N/NC(=O)c1ccc(Cl)cc1)C2
REMARK SMILES IDX 10 1 9 2 8 3 7 4 5 5 6 6 4 8 1 9 2 10 3 11 82 12 80 13 96 14
REMARK SMILES IDX 81 15 83 16 84 17 85 18 86 19 87 20 88 22 89 23 90 24 95 25
REMARK SMILES IDX 91 26 94 27 92 28 93 29 11 30 12 31 13 32 14 33 15 34 16 36
REMARK SMILES IDX 17 37 18 38 79 39 19 40 78 41 20 42 21 43 22 44 72 45 23 46
REMARK SMILES IDX 77 47 71 48 73 49 24 50 76 51 70 52 69 53 25 55 57 56 37 57
REMARK SMILES IDX 56 58 38 59 41 60 55 61 74 62 39 63 40 64 54 66 75 67 42 68
REMARK SMILES IDX 26 69 27 70 35 71 28 72 29 73 33 74 36 75 30 76 31 77 34 78
REMARK SMILES IDX 32 79 58 80 59 81 67 82 60 83 61 84 65 85 68 86 62 87 63 88
REMARK SMILES IDX 66 89 64 90 43 91 44 92 52 93 45 94 46 95 50 96 53 97 47 98
REMARK SMILES IDX 48 99 51 100 49 101
REMARK H PARENT 7 7 86 21 14 35 73 54 41 65
REMARK Flexibility Score: inf
ROOT
ATOM      1  C   UNL     1       0.604   2.213   6.688  1.00  0.00     0.002 C 
ENDROOT
BRANCH   1   2
ATOM      2  C   UNL     1      -0.586   1.924   5.767  1.00  0.00     0.021 C 
BRANCH   2   3
ATOM      3  C   UNL     1      -0.325   1.790   4.256  1.00  0.00     0.116 C 
BRANCH   3   4
ATOM      4  N   UNL     1       0.879   1.098   3.819  1.00  0.00    -0.356 N 
ATOM      5  C   UNL     1       1.168   0.499   2.616  1.00  0.00     0.227 C 
ATOM      6  O   UNL     1       2.338   0.591   2.236  1.00  0.00    -0.274 OA
ATOM      7  H   UNL     1       1.598   1.051   4.489  1.00  0.00     0.163 HD
BRANCH   5   8
ATOM      8  C   UNL     1       0.168  -0.390   1.858  1.00  0.00     0.060 C 
ATOM      9  C   UNL     1       0.670   0.324  -0.589  1.00  0.00     0.013 C 
ATOM     10  C   UNL     1       0.537  -0.855   0.404  1.00  0.00    -0.010 C 
ATOM     11  C   UNL     1       1.794  -1.733   0.218  1.00  0.00     0.013 C 
ATOM     12  C   UNL     1      -0.777  -1.696   0.267  1.00  0.00     0.014 C 
ATOM     13  C   UNL     1      -1.274   0.182   1.665  1.00  0.00     0.019 C 
ATOM     14  C   UNL     1       0.021  -1.740   2.597  1.00  0.00     0.071 C 
ATOM     15  C   UNL     1      -1.875  -0.650   0.516  1.00  0.00     0.014 C 
ATOM     16  C   UNL     1      -0.974  -2.514  -0.991  1.00  0.00     0.018 C 
ATOM     17  C   UNL     1      -0.773  -2.510   1.595  1.00  0.00     0.046 C 
ATOM     18  N   UNL     1      -1.514  -3.562   1.699  1.00  0.00    -0.181 NA
BRANCH  18  19
ATOM     19  N   UNL     1      -1.841  -4.403   2.715  1.00  0.00    -0.243 N 
ATOM     20  C   UNL     1      -1.582  -4.650   4.045  1.00  0.00     0.271 C 
ATOM     21  H   UNL     1      -2.489  -5.067   2.385  1.00  0.00     0.194 HD
ATOM     22  O   UNL     1      -2.120  -5.618   4.590  1.00  0.00    -0.267 OA
BRANCH  20  23
ATOM     23  C   UNL     1      -0.684  -3.866   4.885  1.00  0.00     0.041 A 
ATOM     24  C   UNL     1       0.517  -4.440   5.318  1.00  0.00     0.015 A 
ATOM     25  C   UNL     1      -1.052  -2.601   5.324  1.00  0.00     0.015 A 
ATOM     26  C   UNL     1       1.460  -3.655   5.982  1.00  0.00     0.021 A 
ATOM     27  C   UNL     1      -0.079  -1.805   5.933  1.00  0.00     0.021 A 
ATOM     28  C   UNL     1       1.186  -2.313   6.212  1.00  0.00     0.041 A 
ATOM     29  Cl  UNL     1       2.423  -1.260   6.773  1.00  0.00    -0.084 Cl
ENDBRANCH  20  23
ENDBRANCH  18  19
ENDBRANCH   5   8
ENDBRANCH   3   4
ENDBRANCH   2   3
ENDBRANCH   1   2
BRANCH   1  30
ATOM     30  C   UNL     1       0.353   3.354   7.689  1.00  0.00     0.002 C 
BRANCH  30  31
ATOM     31  C   UNL     1      -0.929   3.264   8.527  1.00  0.00     0.021 C 
BRANCH  31  32
ATOM     32  C   UNL     1      -1.021   2.041   9.433  1.00  0.00     0.116 C 
BRANCH  32  33
ATOM     33  N   UNL     1      -0.205   2.200  10.626  1.00  0.00    -0.352 N 
ATOM     34  C   UNL     1      -0.606   2.497  11.909  1.00  0.00     0.251 C 
ATOM     35  H   UNL     1       0.763   2.080  10.498  1.00  0.00     0.163 HD
ATOM     36  O   UNL     1       0.202   2.882  12.742  1.00  0.00    -0.269 OA
BRANCH  34  37
ATOM     37  C   UNL     1      -2.030   2.346  12.282  1.00  0.00     0.039 A 
ATOM     38  C   UNL     1      -2.672   3.380  12.968  1.00  0.00     0.014 A 
ATOM     39  C   UNL     1      -2.717   1.166  11.982  1.00  0.00     0.014 A 
ATOM     40  C   UNL     1      -4.020   3.248  13.315  1.00  0.00     0.010 A 
ATOM     41  C   UNL     1      -4.074   1.060  12.274  1.00  0.00     0.010 A 
ATOM     42  C   UNL     1      -4.737   2.095  12.953  1.00  0.00    -0.014 A 
BRANCH  42  43
ATOM     43  C   UNL     1      -6.175   1.944  13.294  1.00  0.00     0.031 A 
ATOM     44  C   UNL     1      -6.613   0.888  14.271  1.00  0.00     0.074 A 
ATOM     45  C   UNL     1      -7.093   2.715  12.682  1.00  0.00     0.049 A 
ATOM     46  N   UNL     1      -7.820   0.573  14.668  1.00  0.00    -0.248 NA
ATOM     47  C   UNL     1      -5.551   0.057  14.859  1.00  0.00     0.031 C 
ATOM     48  C   UNL     1      -6.801   3.747  11.688  1.00  0.00     0.029 A 
ATOM     49  N   UNL     1      -8.460   2.747  12.804  1.00  0.00    -0.354 N 
ATOM     50  C   UNL     1      -7.664  -0.500  15.537  1.00  0.00     0.074 A 
ATOM     51  C   UNL     1      -6.252  -0.817  15.565  1.00  0.00     0.031 C 
ATOM     52  C   UNL     1      -7.949   4.334  11.315  1.00  0.00     0.029 A 
ATOM     53  C   UNL     1      -9.060   3.698  12.016  1.00  0.00     0.049 A 
ATOM     54  H   UNL     1      -8.962   2.145  13.400  1.00  0.00     0.167 HD
ATOM     55  C   UNL     1      -8.608  -1.147  16.262  1.00  0.00     0.037 A 
ATOM     56  C   UNL     1     -10.360   4.021  11.880  1.00  0.00     0.037 A 
ATOM     57  C   UNL     1     -10.009  -0.815  16.247  1.00  0.00     0.049 A 
ATOM     58  C   UNL     1     -11.393   3.275  12.680  1.00  0.00     0.074 A 
ATOM     59  C   UNL     1     -11.036  -1.360  16.998  1.00  0.00     0.029 A 
ATOM     60  N   UNL     1     -10.581   0.149  15.428  1.00  0.00    -0.354 N 
ATOM     61  N   UNL     1     -11.228   2.316  13.557  1.00  0.00    -0.248 NA
ATOM     62  C   UNL     1     -12.795   3.663  12.471  1.00  0.00     0.031 C 
ATOM     63  C   UNL     1     -12.236  -0.762  16.597  1.00  0.00     0.029 A 
ATOM     64  C   UNL     1     -11.952   0.192  15.633  1.00  0.00     0.049 A 
ATOM     65  H   UNL     1     -10.087   0.718  14.795  1.00  0.00     0.167 HD
ATOM     66  C   UNL     1     -12.496   2.005  14.028  1.00  0.00     0.074 A 
ATOM     67  C   UNL     1     -13.421   2.886  13.345  1.00  0.00     0.031 C 
ATOM     68  C   UNL     1     -12.860   1.077  14.947  1.00  0.00     0.037 A 
BRANCH  55  69
ATOM     69  C   UNL     1      -8.149  -2.289  17.125  1.00  0.00     0.064 A 
ATOM     70  C   UNL     1      -7.341  -2.084  18.255  1.00  0.00     0.173 A 
ATOM     71  C   UNL     1      -8.520  -3.607  16.817  1.00  0.00     0.173 A 
ATOM     72  F   UNL     1      -6.950  -0.845  18.588  1.00  0.00    -0.203 F 
ATOM     73  C   UNL     1      -6.883  -3.158  19.014  1.00  0.00     0.198 A 
ATOM     74  C   UNL     1      -8.089  -4.676  17.600  1.00  0.00     0.198 A 
ATOM     75  F   UNL     1      -9.299  -3.861  15.755  1.00  0.00    -0.203 F 
ATOM     76  F   UNL     1      -6.057  -2.941  20.047  1.00  0.00    -0.200 F 
ATOM     77  C   UNL     1      -7.260  -4.452  18.689  1.00  0.00     0.200 A 
ATOM     78  F   UNL     1      -8.466  -5.925  17.293  1.00  0.00    -0.200 F 
ATOM     79  F   UNL     1      -6.815  -5.484  19.418  1.00  0.00    -0.200 F 
ENDBRANCH  55  69
BRANCH  56  80
ATOM     80  C   UNL     1     -10.751   5.141  10.986  1.00  0.00     0.064 A 
ATOM     81  C   UNL     1     -11.211   6.352  11.523  1.00  0.00     0.173 A 
ATOM     82  C   UNL     1     -10.657   5.038   9.591  1.00  0.00     0.173 A 
ATOM     83  F   UNL     1     -11.337   6.490  12.851  1.00  0.00    -0.203 F 
ATOM     84  C   UNL     1     -11.571   7.415  10.697  1.00  0.00     0.198 A 
ATOM     85  C   UNL     1     -10.994   6.111   8.768  1.00  0.00     0.198 A 
ATOM     86  F   UNL     1     -10.219   3.903   9.029  1.00  0.00    -0.203 F 
ATOM     87  F   UNL     1     -12.037   8.550  11.236  1.00  0.00    -0.200 F 
ATOM     88  C   UNL     1     -11.455   7.296   9.321  1.00  0.00     0.200 A 
ATOM     89  F   UNL     1     -10.868   5.997   7.438  1.00  0.00    -0.200 F 
ATOM     90  F   UNL     1     -11.791   8.322   8.527  1.00  0.00    -0.200 F 
ENDBRANCH  56  80
BRANCH  68  91
ATOM     91  C   UNL     1     -14.319   0.988  15.294  1.00  0.00     0.064 A 
ATOM     92  C   UNL     1     -15.258   0.453  14.400  1.00  0.00     0.173 A 
ATOM     93  C   UNL     1     -14.775   1.411  16.552  1.00  0.00     0.173 A 
ATOM     94  F   UNL     1     -14.875   0.051  13.179  1.00  0.00    -0.203 F 
ATOM     95  C   UNL     1     -16.605   0.368  14.744  1.00  0.00     0.198 A 
ATOM     96  C   UNL     1     -16.117   1.296  16.904  1.00  0.00     0.198 A 
ATOM     97  F   UNL     1     -13.917   1.925  17.445  1.00  0.00    -0.203 F 
ATOM     98  F   UNL     1     -17.492  -0.102  13.857  1.00  0.00    -0.200 F 
ATOM     99  C   UNL     1     -17.032   0.781  15.998  1.00  0.00     0.200 A 
ATOM    100  F   UNL     1     -16.525   1.684  18.120  1.00  0.00    -0.200 F 
ATOM    101  F   UNL     1     -18.327   0.691  16.329  1.00  0.00    -0.200 F 
ENDBRANCH  68  91
ENDBRANCH  42  43
ENDBRANCH  34  37
ENDBRANCH  32  33
ENDBRANCH  31  32
ENDBRANCH  30  31
ENDBRANCH   1  30
TORSDOF 15
