REMARK SMILES COc1ccc(Cc2nc(C)c(CC(=O)NCCCCCCNC(=O)c3ccc(-c4c5nc(c(-c6c(F)c(F)c(F)c(F)c6F)c6ccc([nH]6)c(-c6c(F)c(F)c(F)c(F)c6F)c6nc(c(-c7c(F)c(F)c(F)c(F)c7F)c7ccc4[nH]7)C=C6)C=C5)cc3)c(=O)[nH]2)cc1OC
REMARK SMILES IDX 18 1 17 2 16 3 14 4 15 5 13 7 12 8 8 9 9 10 91 11 10 12
REMARK SMILES IDX 89 13 11 15 90 16 7 17 6 18 3 19 4 20 93 21 5 22 92 23 2 24
REMARK SMILES IDX 1 25 94 26 95 27 19 28 20 29 21 30 22 31 23 32 24 33 25 35
REMARK SMILES IDX 26 36 27 37 88 38 28 39 87 40 29 41 30 42 31 43 81 44 32 45
REMARK SMILES IDX 86 46 80 47 82 48 33 49 85 50 79 51 78 52 34 54 66 55 46 56
REMARK SMILES IDX 65 57 47 58 50 59 64 60 83 61 48 62 49 63 63 65 84 66 51 67
REMARK SMILES IDX 35 68 36 69 44 70 37 71 38 72 42 73 45 74 39 75 40 76 43 77
REMARK SMILES IDX 41 78 67 79 68 80 76 81 69 82 70 83 74 84 77 85 71 86 72 87
REMARK SMILES IDX 75 88 73 89 52 90 53 91 61 92 54 93 55 94 59 95 62 96 56 97
REMARK SMILES IDX 57 98 60 99 58 100
REMARK H PARENT 16 6 91 14 23 34 82 53 50 64
REMARK Flexibility Score: inf
ROOT
ATOM      1  C   UNL     1       0.721  10.209  -5.343  1.00  0.00     0.021 C 
ENDROOT
BRANCH   1   2
ATOM      2  C   UNL     1       0.202   9.735  -6.699  1.00  0.00     0.116 C 
BRANCH   2   3
ATOM      3  N   UNL     1       1.245   9.745  -7.700  1.00  0.00    -0.356 N 
ATOM      4  C   UNL     1       1.866   8.709  -8.335  1.00  0.00     0.224 C 
ATOM      5  O   UNL     1       2.696   8.989  -9.203  1.00  0.00    -0.275 OA
ATOM      6  H   UNL     1       1.557  10.640  -7.967  1.00  0.00     0.163 HD
BRANCH   4   7
ATOM      7  C   UNL     1       1.455   7.259  -8.070  1.00  0.00     0.143 C 
BRANCH   7   8
ATOM      8  C   UNL     1       1.570   6.822  -6.638  1.00  0.00     0.048 A 
ATOM      9  C   UNL     1       1.866   6.163  -3.991  1.00  0.00     0.113 A 
ATOM     10  N   UNL     1       0.700   6.045  -4.539  1.00  0.00    -0.239 NA
ATOM     11  N   UNL     1       2.963   6.580  -4.686  1.00  0.00    -0.310 N 
ATOM     12  C   UNL     1       0.575   6.315  -5.879  1.00  0.00     0.049 A 
ATOM     13  C   UNL     1       2.899   6.941  -5.996  1.00  0.00     0.254 A 
ATOM     14  H   UNL     1       3.831   6.622  -4.223  1.00  0.00     0.171 HD
ATOM     15  C   UNL     1      -0.795   6.006  -6.431  1.00  0.00     0.067 C 
ATOM     16  O   UNL     1       3.894   7.336  -6.598  1.00  0.00    -0.269 OA
BRANCH   9  17
ATOM     17  C   UNL     1       2.059   5.882  -2.513  1.00  0.00     0.111 C 
BRANCH  17  18
ATOM     18  C   UNL     1       1.756   4.451  -2.135  1.00  0.00    -0.037 A 
ATOM     19  C   UNL     1       1.213   1.765  -1.489  1.00  0.00     0.160 A 
ATOM     20  C   UNL     1       0.176   2.626  -1.870  1.00  0.00     0.051 A 
ATOM     21  C   UNL     1       2.530   2.238  -1.430  1.00  0.00     0.161 A 
ATOM     22  C   UNL     1       0.444   3.961  -2.176  1.00  0.00     0.008 A 
ATOM     23  C   UNL     1       2.785   3.579  -1.757  1.00  0.00     0.054 A 
BRANCH  19  24
ATOM     24  O   UNL     1       0.924   0.441  -1.298  1.00  0.00    -0.493 OA
ATOM     25  C   UNL     1       0.144   0.220  -0.124  1.00  0.00     0.278 C 
ENDBRANCH  19  24
BRANCH  21  26
ATOM     26  O   UNL     1       3.666   1.545  -1.108  1.00  0.00    -0.493 OA
ATOM     27  C   UNL     1       3.520   0.308  -0.427  1.00  0.00     0.278 C 
ENDBRANCH  21  26
ENDBRANCH  17  18
ENDBRANCH   9  17
ENDBRANCH   7   8
ENDBRANCH   4   7
ENDBRANCH   2   3
ENDBRANCH   1   2
BRANCH   1  28
ATOM     28  C   UNL     1       0.936  11.725  -5.268  1.00  0.00     0.002 C 
BRANCH  28  29
ATOM     29  C   UNL     1      -0.311  12.570  -5.555  1.00  0.00     0.002 C 
BRANCH  29  30
ATOM     30  C   UNL     1      -1.529  12.243  -4.686  1.00  0.00     0.021 C 
BRANCH  30  31
ATOM     31  C   UNL     1      -1.303  12.429  -3.190  1.00  0.00     0.116 C 
BRANCH  31  32
ATOM     32  N   UNL     1      -0.993  13.810  -2.856  1.00  0.00    -0.352 N 
ATOM     33  C   UNL     1      -1.585  14.639  -1.940  1.00  0.00     0.251 C 
ATOM     34  H   UNL     1      -0.248  14.208  -3.362  1.00  0.00     0.163 HD
ATOM     35  O   UNL     1      -1.329  15.842  -1.941  1.00  0.00    -0.269 OA
BRANCH  33  36
ATOM     36  C   UNL     1      -2.540  14.094  -0.953  1.00  0.00     0.039 A 
ATOM     37  C   UNL     1      -3.697  14.820  -0.662  1.00  0.00     0.014 A 
ATOM     38  C   UNL     1      -2.281  12.890  -0.291  1.00  0.00     0.014 A 
ATOM     39  C   UNL     1      -4.614  14.319   0.263  1.00  0.00     0.010 A 
ATOM     40  C   UNL     1      -3.233  12.354   0.571  1.00  0.00     0.010 A 
ATOM     41  C   UNL     1      -4.401  13.071   0.870  1.00  0.00    -0.014 A 
BRANCH  41  42
ATOM     42  C   UNL     1      -5.375  12.518   1.844  1.00  0.00     0.031 A 
ATOM     43  C   UNL     1      -4.970  12.304   3.277  1.00  0.00     0.074 A 
ATOM     44  C   UNL     1      -6.607  12.166   1.429  1.00  0.00     0.049 A 
ATOM     45  N   UNL     1      -5.660  11.794   4.266  1.00  0.00    -0.248 NA
ATOM     46  C   UNL     1      -3.597  12.688   3.641  1.00  0.00     0.031 C 
ATOM     47  C   UNL     1      -7.101  12.281   0.056  1.00  0.00     0.029 A 
ATOM     48  N   UNL     1      -7.666  11.634   2.120  1.00  0.00    -0.354 N 
ATOM     49  C   UNL     1      -4.804  11.785   5.359  1.00  0.00     0.074 A 
ATOM     50  C   UNL     1      -3.526  12.281   4.899  1.00  0.00     0.031 C 
ATOM     51  C   UNL     1      -8.375  11.859   0.011  1.00  0.00     0.029 A 
ATOM     52  C   UNL     1      -8.775  11.410   1.341  1.00  0.00     0.049 A 
ATOM     53  H   UNL     1      -7.635  11.432   3.083  1.00  0.00     0.167 HD
ATOM     54  C   UNL     1      -5.067  11.422   6.638  1.00  0.00     0.037 A 
ATOM     55  C   UNL     1      -9.977  10.898   1.665  1.00  0.00     0.037 A 
ATOM     56  C   UNL     1      -6.348  10.951   7.095  1.00  0.00     0.049 A 
ATOM     57  C   UNL     1     -10.243  10.499   3.092  1.00  0.00     0.074 A 
ATOM     58  C   UNL     1      -6.733  10.608   8.379  1.00  0.00     0.029 A 
ATOM     59  N   UNL     1      -7.454  10.755   6.280  1.00  0.00    -0.354 N 
ATOM     60  N   UNL     1      -9.447  10.560   4.133  1.00  0.00    -0.248 NA
ATOM     61  C   UNL     1     -11.582   9.972   3.392  1.00  0.00     0.031 C 
ATOM     62  C   UNL     1      -8.056  10.156   8.333  1.00  0.00     0.029 A 
ATOM     63  C   UNL     1      -8.515  10.275   7.031  1.00  0.00     0.049 A 
ATOM     64  H   UNL     1      -7.480  10.930   5.312  1.00  0.00     0.167 HD
ATOM     65  C   UNL     1     -10.196  10.114   5.213  1.00  0.00     0.074 A 
ATOM     66  C   UNL     1     -11.515   9.799   4.704  1.00  0.00     0.031 C 
ATOM     67  C   UNL     1      -9.826   9.978   6.511  1.00  0.00     0.037 A 
BRANCH  54  68
ATOM     68  C   UNL     1      -3.946  11.522   7.633  1.00  0.00     0.064 A 
ATOM     69  C   UNL     1      -3.431  12.762   8.043  1.00  0.00     0.173 A 
ATOM     70  C   UNL     1      -3.399  10.365   8.209  1.00  0.00     0.173 A 
ATOM     71  F   UNL     1      -3.909  13.899   7.515  1.00  0.00    -0.203 F 
ATOM     72  C   UNL     1      -2.389  12.839   8.964  1.00  0.00     0.198 A 
ATOM     73  C   UNL     1      -2.380  10.447   9.155  1.00  0.00     0.198 A 
ATOM     74  F   UNL     1      -3.856   9.153   7.858  1.00  0.00    -0.203 F 
ATOM     75  F   UNL     1      -1.877  14.032   9.296  1.00  0.00    -0.200 F 
ATOM     76  C   UNL     1      -1.870  11.682   9.525  1.00  0.00     0.200 A 
ATOM     77  F   UNL     1      -1.890   9.329   9.707  1.00  0.00    -0.200 F 
ATOM     78  F   UNL     1      -0.873  11.757  10.416  1.00  0.00    -0.200 F 
ENDBRANCH  54  68
BRANCH  55  79
ATOM     79  C   UNL     1     -11.032  10.760   0.626  1.00  0.00     0.064 A 
ATOM     80  C   UNL     1     -12.187  11.553   0.663  1.00  0.00     0.173 A 
ATOM     81  C   UNL     1     -10.913   9.831  -0.417  1.00  0.00     0.173 A 
ATOM     82  F   UNL     1     -12.356  12.444   1.652  1.00  0.00    -0.203 F 
ATOM     83  C   UNL     1     -13.195  11.404  -0.287  1.00  0.00     0.198 A 
ATOM     84  C   UNL     1     -11.907   9.704  -1.385  1.00  0.00     0.198 A 
ATOM     85  F   UNL     1      -9.824   9.052  -0.503  1.00  0.00    -0.203 F 
ATOM     86  F   UNL     1     -14.312  12.139  -0.197  1.00  0.00    -0.200 F 
ATOM     87  C   UNL     1     -13.051  10.483  -1.314  1.00  0.00     0.200 A 
ATOM     88  F   UNL     1     -11.757   8.824  -2.385  1.00  0.00    -0.200 F 
ATOM     89  F   UNL     1     -14.019  10.341  -2.229  1.00  0.00    -0.200 F 
ENDBRANCH  55  79
BRANCH  67  90
ATOM     90  C   UNL     1     -10.875   9.513   7.481  1.00  0.00     0.064 A 
ATOM     91  C   UNL     1     -11.366   8.199   7.469  1.00  0.00     0.173 A 
ATOM     92  C   UNL     1     -11.373  10.390   8.457  1.00  0.00     0.173 A 
ATOM     93  F   UNL     1     -10.932   7.325   6.548  1.00  0.00    -0.203 F 
ATOM     94  C   UNL     1     -12.340   7.791   8.376  1.00  0.00     0.198 A 
ATOM     95  C   UNL     1     -12.321   9.969   9.384  1.00  0.00     0.198 A 
ATOM     96  F   UNL     1     -10.931  11.656   8.518  1.00  0.00    -0.203 F 
ATOM     97  F   UNL     1     -12.836   6.547   8.309  1.00  0.00    -0.200 F 
ATOM     98  C   UNL     1     -12.812   8.673   9.336  1.00  0.00     0.200 A 
ATOM     99  F   UNL     1     -12.763  10.818  10.322  1.00  0.00    -0.200 F 
ATOM    100  F   UNL     1     -13.745   8.276  10.212  1.00  0.00    -0.200 F 
ENDBRANCH  67  90
ENDBRANCH  41  42
ENDBRANCH  33  36
ENDBRANCH  31  32
ENDBRANCH  30  31
ENDBRANCH  29  30
ENDBRANCH  28  29
ENDBRANCH   1  28
TORSDOF 18
