REMARK SMILES CC(C)[C@@H](CCNC(=O)N1C[C@@H](C)[C@H](C)C1)CCC(=O)NCCCCCCNC(=O)c1ccc(-c2c3nc(c(-c4c(F)c(F)c(F)c(F)c4F)c4ccc([nH]4)c(-c4c(F)c(F)c(F)c(F)c4F)c4nc(c(-c5c(F)c(F)c(F)c(F)c5F)c5ccc2[nH]5)C=C4)C=C3)cc1
REMARK SMILES IDX 23 1 22 2 21 3 19 4 20 5 18 7 17 8 4 9 2 10 1 11 3 12 5 13
REMARK SMILES IDX 6 14 7 15 8 16 9 18 10 19 11 20 16 21 12 22 14 23 13 24
REMARK SMILES IDX 15 25 24 26 25 27 26 28 27 29 28 30 29 31 30 33 31 34 32 35
REMARK SMILES IDX 93 36 33 37 92 38 34 39 35 40 36 41 86 42 37 43 91 44 85 45
REMARK SMILES IDX 87 46 38 47 90 48 84 49 83 50 39 52 71 53 51 54 70 55 52 56
REMARK SMILES IDX 55 57 69 58 88 59 53 60 54 61 68 63 89 64 56 65 40 66 41 67
REMARK SMILES IDX 49 68 42 69 43 70 47 71 50 72 44 73 45 74 48 75 46 76 72 77
REMARK SMILES IDX 73 78 81 79 74 80 75 81 79 82 82 83 76 84 77 85 80 86 78 87
REMARK SMILES IDX 57 88 58 89 66 90 59 91 60 92 64 93 67 94 61 95 62 96 65 97
REMARK SMILES IDX 63 98
REMARK H PARENT 21 6 7 17 28 32 87 51 55 62
REMARK Flexibility Score: inf
ROOT
ATOM      1  C   UNL     1      -1.435  -1.392   1.842  1.00  0.00     0.021 C 
ENDROOT
BRANCH   1   2
ATOM      2  C   UNL     1      -0.893  -2.744   1.355  1.00  0.00     0.116 C 
BRANCH   2   3
ATOM      3  N   UNL     1      -1.946  -3.504   0.710  1.00  0.00    -0.356 N 
ATOM      4  C   UNL     1      -2.166  -3.803  -0.600  1.00  0.00     0.220 C 
ATOM      5  O   UNL     1      -3.213  -4.388  -0.885  1.00  0.00    -0.275 OA
ATOM      6  H   UNL     1      -2.621  -3.867   1.327  1.00  0.00     0.163 HD
BRANCH   4   7
ATOM      7  C   UNL     1      -1.132  -3.492  -1.670  1.00  0.00     0.100 C 
BRANCH   7   8
ATOM      8  C   UNL     1      -1.249  -2.116  -2.351  1.00  0.00     0.014 C 
BRANCH   8   9
ATOM      9  C   UNL     1      -0.553  -0.941  -1.626  1.00  0.00    -0.006 C 
BRANCH   9  10
ATOM     10  C   UNL     1       0.998  -0.830  -1.782  1.00  0.00    -0.014 C 
ATOM     11  C   UNL     1       1.571   0.137  -0.731  1.00  0.00     0.007 C 
ATOM     12  C   UNL     1       1.788  -2.137  -1.698  1.00  0.00     0.007 C 
ENDBRANCH   9  10
BRANCH   9  13
ATOM     13  C   UNL     1      -1.275   0.409  -1.896  1.00  0.00     0.025 C 
BRANCH  13  14
ATOM     14  C   UNL     1      -0.831   1.230  -3.109  1.00  0.00     0.118 C 
BRANCH  14  15
ATOM     15  N   UNL     1      -1.323   0.679  -4.351  1.00  0.00    -0.338 N 
ATOM     16  C   UNL     1      -2.515   0.998  -4.922  1.00  0.00     0.317 C 
ATOM     17  H   UNL     1      -0.754   0.024  -4.816  1.00  0.00     0.165 HD
ATOM     18  O   UNL     1      -3.178   0.104  -5.441  1.00  0.00    -0.249 OA
ATOM     19  N   UNL     1      -2.916   2.306  -4.867  1.00  0.00    -0.324 N 
ATOM     20  C   UNL     1      -4.308   2.665  -5.050  1.00  0.00     0.125 C 
ATOM     21  C   UNL     1      -2.035   3.433  -5.138  1.00  0.00     0.125 C 
ATOM     22  C   UNL     1      -4.285   3.978  -5.826  1.00  0.00     0.010 C 
ATOM     23  C   UNL     1      -2.955   4.624  -5.405  1.00  0.00     0.010 C 
ATOM     24  C   UNL     1      -5.492   4.849  -5.508  1.00  0.00     0.010 C 
ATOM     25  C   UNL     1      -2.380   5.551  -6.467  1.00  0.00     0.010 C 
ENDBRANCH  14  15
ENDBRANCH  13  14
ENDBRANCH   9  13
ENDBRANCH   8   9
ENDBRANCH   7   8
ENDBRANCH   4   7
ENDBRANCH   2   3
ENDBRANCH   1   2
BRANCH   1  26
ATOM     26  C   UNL     1      -1.609  -1.320   3.359  1.00  0.00     0.002 C 
BRANCH  26  27
ATOM     27  C   UNL     1      -0.288  -1.293   4.136  1.00  0.00     0.002 C 
BRANCH  27  28
ATOM     28  C   UNL     1       0.637  -0.111   3.822  1.00  0.00     0.021 C 
BRANCH  28  29
ATOM     29  C   UNL     1       0.005   1.266   3.999  1.00  0.00     0.116 C 
BRANCH  29  30
ATOM     30  N   UNL     1      -0.480   1.467   5.356  1.00  0.00    -0.352 N 
ATOM     31  C   UNL     1      -0.077   2.366   6.309  1.00  0.00     0.251 C 
ATOM     32  H   UNL     1      -1.209   0.865   5.632  1.00  0.00     0.163 HD
ATOM     33  O   UNL     1      -0.422   2.225   7.476  1.00  0.00    -0.269 OA
BRANCH  31  34
ATOM     34  C   UNL     1       0.775   3.513   5.930  1.00  0.00     0.039 A 
ATOM     35  C   UNL     1       1.839   3.872   6.761  1.00  0.00     0.014 A 
ATOM     36  C   UNL     1       0.492   4.262   4.785  1.00  0.00     0.014 A 
ATOM     37  C   UNL     1       2.648   4.958   6.421  1.00  0.00     0.010 A 
ATOM     38  C   UNL     1       1.339   5.301   4.411  1.00  0.00     0.010 A 
ATOM     39  C   UNL     1       2.416   5.668   5.232  1.00  0.00    -0.014 A 
BRANCH  39  40
ATOM     40  C   UNL     1       3.261   6.823   4.841  1.00  0.00     0.031 A 
ATOM     41  C   UNL     1       2.655   8.197   4.765  1.00  0.00     0.074 A 
ATOM     42  C   UNL     1       4.545   6.626   4.487  1.00  0.00     0.049 A 
ATOM     43  N   UNL     1       3.185   9.315   4.336  1.00  0.00    -0.248 NA
ATOM     44  C   UNL     1       1.255   8.324   5.200  1.00  0.00     0.031 C 
ATOM     45  C   UNL     1       5.233   5.335   4.488  1.00  0.00     0.029 A 
ATOM     46  N   UNL     1       5.494   7.510   4.039  1.00  0.00    -0.354 N 
ATOM     47  C   UNL     1       2.179  10.268   4.430  1.00  0.00     0.074 A 
ATOM     48  C   UNL     1       0.994   9.589   4.908  1.00  0.00     0.031 C 
ATOM     49  C   UNL     1       6.499   5.512   4.075  1.00  0.00     0.029 A 
ATOM     50  C   UNL     1       6.698   6.920   3.742  1.00  0.00     0.049 A 
ATOM     51  H   UNL     1       5.328   8.475   3.940  1.00  0.00     0.167 HD
ATOM     52  C   UNL     1       2.245  11.594   4.163  1.00  0.00     0.037 A 
ATOM     53  C   UNL     1       7.830   7.454   3.246  1.00  0.00     0.037 A 
ATOM     54  C   UNL     1       3.437  12.269   3.719  1.00  0.00     0.049 A 
ATOM     55  C   UNL     1       7.878   8.931   2.955  1.00  0.00     0.074 A 
ATOM     56  C   UNL     1       3.624  13.617   3.471  1.00  0.00     0.029 A 
ATOM     57  N   UNL     1       4.647  11.642   3.460  1.00  0.00    -0.354 N 
ATOM     58  N   UNL     1       6.937   9.833   3.097  1.00  0.00    -0.248 NA
ATOM     59  C   UNL     1       9.147   9.464   2.441  1.00  0.00     0.031 C 
ATOM     60  C   UNL     1       4.935  13.800   3.020  1.00  0.00     0.029 A 
ATOM     61  C   UNL     1       5.581  12.574   3.038  1.00  0.00     0.049 A 
ATOM     62  H   UNL     1       4.817  10.677   3.561  1.00  0.00     0.167 HD
ATOM     63  C   UNL     1       7.508  11.042   2.727  1.00  0.00     0.074 A 
ATOM     64  C   UNL     1       8.880  10.760   2.359  1.00  0.00     0.031 C 
ATOM     65  C   UNL     1       6.948  12.276   2.696  1.00  0.00     0.037 A 
BRANCH  52  66
ATOM     66  C   UNL     1       0.994  12.403   4.344  1.00  0.00     0.064 A 
ATOM     67  C   UNL     1       0.459  12.658   5.617  1.00  0.00     0.173 A 
ATOM     68  C   UNL     1       0.338  12.958   3.235  1.00  0.00     0.173 A 
ATOM     69  F   UNL     1       1.041  12.141   6.709  1.00  0.00    -0.203 F 
ATOM     70  C   UNL     1      -0.703  13.411   5.769  1.00  0.00     0.198 A 
ATOM     71  C   UNL     1      -0.806  13.737   3.393  1.00  0.00     0.198 A 
ATOM     72  F   UNL     1       0.809  12.751   1.996  1.00  0.00    -0.203 F 
ATOM     73  F   UNL     1      -1.224  13.596   6.990  1.00  0.00    -0.200 F 
ATOM     74  C   UNL     1      -1.330  13.956   4.659  1.00  0.00     0.200 A 
ATOM     75  F   UNL     1      -1.403  14.274   2.320  1.00  0.00    -0.200 F 
ATOM     76  F   UNL     1      -2.444  14.685   4.807  1.00  0.00    -0.200 F 
ENDBRANCH  52  66
BRANCH  53  77
ATOM     77  C   UNL     1       9.019   6.593   3.017  1.00  0.00     0.064 A 
ATOM     78  C   UNL     1      10.164   6.722   3.815  1.00  0.00     0.173 A 
ATOM     79  C   UNL     1       9.039   5.629   1.999  1.00  0.00     0.173 A 
ATOM     80  F   UNL     1      10.200   7.644   4.789  1.00  0.00    -0.203 F 
ATOM     81  C   UNL     1      11.292   5.935   3.590  1.00  0.00     0.198 A 
ATOM     82  C   UNL     1      10.156   4.822   1.793  1.00  0.00     0.198 A 
ATOM     83  F   UNL     1       7.967   5.461   1.211  1.00  0.00    -0.203 F 
ATOM     84  F   UNL     1      12.389   6.111   4.339  1.00  0.00    -0.200 F 
ATOM     85  C   UNL     1      11.285   4.982   2.583  1.00  0.00     0.200 A 
ATOM     86  F   UNL     1      10.140   3.892   0.829  1.00  0.00    -0.200 F 
ATOM     87  F   UNL     1      12.368   4.222   2.370  1.00  0.00    -0.200 F 
ENDBRANCH  53  77
BRANCH  65  88
ATOM     88  C   UNL     1       7.829  13.426   2.302  1.00  0.00     0.064 A 
ATOM     89  C   UNL     1       8.246  13.617   0.978  1.00  0.00     0.173 A 
ATOM     90  C   UNL     1       8.214  14.379   3.258  1.00  0.00     0.173 A 
ATOM     91  F   UNL     1       7.915  12.726   0.031  1.00  0.00    -0.203 F 
ATOM     92  C   UNL     1       9.034  14.710   0.627  1.00  0.00     0.198 A 
ATOM     93  C   UNL     1       8.977  15.486   2.899  1.00  0.00     0.198 A 
ATOM     94  F   UNL     1       7.835  14.244   4.538  1.00  0.00    -0.203 F 
ATOM     95  F   UNL     1       9.456  14.851  -0.637  1.00  0.00    -0.200 F 
ATOM     96  C   UNL     1       9.391  15.647   1.586  1.00  0.00     0.200 A 
ATOM     97  F   UNL     1       9.309  16.397   3.823  1.00  0.00    -0.200 F 
ATOM     98  F   UNL     1      10.140  16.705   1.244  1.00  0.00    -0.200 F 
ENDBRANCH  65  88
ENDBRANCH  39  40
ENDBRANCH  31  34
ENDBRANCH  29  30
ENDBRANCH  28  29
ENDBRANCH  27  28
ENDBRANCH  26  27
ENDBRANCH   1  26
TORSDOF 19
