REMARK SMILES COCc1cc(N2CCCC[C@H]2C(=O)NCCCCCCNC(=O)c2ccc(-c3c4nc(c(-c5c(F)c(F)c(F)c(F)c5F)c5ccc([nH]5)c(-c5c(F)c(F)c(F)c(F)c5F)c5nc(c(-c6c(F)c(F)c(F)c(F)c6F)c6ccc3[nH]6)C=C5)C=C4)cc2)nc(-c2ccc(Cl)cc2)n1
REMARK SMILES IDX 18 1 17 2 16 3 15 4 13 5 14 6 12 8 7 9 8 10 9 11 11 12 10 13
REMARK SMILES IDX 6 14 4 15 5 16 97 17 89 18 88 19 3 20 2 21 1 22 90 23 91 24
REMARK SMILES IDX 96 25 92 26 95 27 93 28 94 29 19 30 20 31 21 32 22 33 23 34
REMARK SMILES IDX 24 36 25 37 26 38 87 39 27 40 86 41 28 42 29 43 30 44 80 45
REMARK SMILES IDX 31 46 85 47 79 48 81 49 32 50 84 51 78 52 77 53 33 55 65 56
REMARK SMILES IDX 45 57 64 58 46 59 49 60 63 61 82 62 47 63 48 64 62 66 83 67
REMARK SMILES IDX 50 68 34 69 35 70 43 71 36 72 37 73 41 74 44 75 38 76 39 77
REMARK SMILES IDX 42 78 40 79 66 80 67 81 75 82 68 83 69 84 73 85 76 86 70 87
REMARK SMILES IDX 71 88 74 89 72 90 51 91 52 92 60 93 53 94 54 95 58 96 61 97
REMARK SMILES IDX 55 98 56 99 59 100 57 101
REMARK H PARENT 15 7 22 35 81 54 49 65
REMARK Flexibility Score: inf
ROOT
ATOM      1  C   UNL     1       5.686  -4.103   2.514  1.00  0.00     0.002 C 
ENDROOT
BRANCH   1   2
ATOM      2  C   UNL     1       4.236  -4.013   2.039  1.00  0.00     0.021 C 
BRANCH   2   3
ATOM      3  C   UNL     1       3.613  -5.357   1.683  1.00  0.00     0.116 C 
BRANCH   3   4
ATOM      4  N   UNL     1       3.170  -6.080   2.851  1.00  0.00    -0.354 N 
ATOM      5  C   UNL     1       2.089  -6.863   3.099  1.00  0.00     0.242 C 
ATOM      6  O   UNL     1       2.140  -7.470   4.180  1.00  0.00    -0.273 OA
ATOM      7  H   UNL     1       3.772  -5.985   3.624  1.00  0.00     0.163 HD
BRANCH   5   8
ATOM      8  C   UNL     1       0.813  -6.979   2.223  1.00  0.00     0.173 C 
ATOM      9  N   UNL     1       0.835  -6.419   0.865  1.00  0.00    -0.344 N 
ATOM     10  C   UNL     1       1.492  -7.157  -0.219  1.00  0.00     0.119 C 
ATOM     11  C   UNL     1       1.131  -8.636  -0.223  1.00  0.00     0.022 C 
ATOM     12  C   UNL     1       0.372  -8.455   2.146  1.00  0.00     0.035 C 
ATOM     13  C   UNL     1       1.234  -9.248   1.167  1.00  0.00     0.004 C 
BRANCH   9  14
ATOM     14  C   UNL     1       0.318  -5.160   0.590  1.00  0.00     0.133 A 
ATOM     15  C   UNL     1       0.232  -2.818   1.008  1.00  0.00     0.072 A 
ATOM     16  C   UNL     1       0.511  -4.096   1.462  1.00  0.00     0.073 A 
ATOM     17  N   UNL     1      -0.350  -2.615  -0.184  1.00  0.00    -0.230 NA
ATOM     18  C   UNL     1      -0.635  -3.705  -0.909  1.00  0.00     0.161 A 
ATOM     19  N   UNL     1      -0.282  -4.962  -0.594  1.00  0.00    -0.211 NA
BRANCH  15  20
ATOM     20  C   UNL     1       0.697  -1.621   1.818  1.00  0.00     0.216 C 
BRANCH  20  21
ATOM     21  O   UNL     1       0.277  -0.343   1.332  1.00  0.00    -0.378 OA
ATOM     22  C   UNL     1       1.030   0.116   0.216  1.00  0.00     0.195 C 
ENDBRANCH  20  21
ENDBRANCH  15  20
BRANCH  18  23
ATOM     23  C   UNL     1      -1.437  -3.489  -2.113  1.00  0.00     0.019 A 
ATOM     24  C   UNL     1      -1.063  -2.532  -3.073  1.00  0.00     0.013 A 
ATOM     25  C   UNL     1      -2.644  -4.184  -2.300  1.00  0.00     0.013 A 
ATOM     26  C   UNL     1      -1.872  -2.275  -4.183  1.00  0.00     0.021 A 
ATOM     27  C   UNL     1      -3.464  -3.917  -3.400  1.00  0.00     0.021 A 
ATOM     28  C   UNL     1      -3.073  -2.963  -4.336  1.00  0.00     0.041 A 
ATOM     29  Cl  UNL     1      -4.087  -2.623  -5.684  1.00  0.00    -0.084 Cl
ENDBRANCH  18  23
ENDBRANCH   9  14
ENDBRANCH   5   8
ENDBRANCH   3   4
ENDBRANCH   2   3
ENDBRANCH   1   2
BRANCH   1  30
ATOM     30  C   UNL     1       6.636  -4.854   1.575  1.00  0.00     0.002 C 
BRANCH  30  31
ATOM     31  C   UNL     1       6.591  -4.426   0.105  1.00  0.00     0.021 C 
BRANCH  31  32
ATOM     32  C   UNL     1       6.800  -2.937  -0.140  1.00  0.00     0.116 C 
BRANCH  32  33
ATOM     33  N   UNL     1       8.046  -2.455   0.429  1.00  0.00    -0.352 N 
ATOM     34  C   UNL     1       9.080  -1.786  -0.173  1.00  0.00     0.251 C 
ATOM     35  H   UNL     1       8.167  -2.637   1.389  1.00  0.00     0.163 HD
ATOM     36  O   UNL     1      10.139  -1.619   0.420  1.00  0.00    -0.269 OA
BRANCH  34  37
ATOM     37  C   UNL     1       8.919  -1.282  -1.552  1.00  0.00     0.039 A 
ATOM     38  C   UNL     1       9.949  -1.500  -2.470  1.00  0.00     0.014 A 
ATOM     39  C   UNL     1       7.762  -0.598  -1.936  1.00  0.00     0.014 A 
ATOM     40  C   UNL     1       9.793  -1.083  -3.792  1.00  0.00     0.010 A 
ATOM     41  C   UNL     1       7.579  -0.248  -3.269  1.00  0.00     0.010 A 
ATOM     42  C   UNL     1       8.593  -0.485  -4.209  1.00  0.00    -0.014 A 
BRANCH  42  43
ATOM     43  C   UNL     1       8.374  -0.111  -5.628  1.00  0.00     0.031 A 
ATOM     44  C   UNL     1       8.187   1.330  -6.006  1.00  0.00     0.074 A 
ATOM     45  C   UNL     1       8.269  -1.077  -6.560  1.00  0.00     0.049 A 
ATOM     46  N   UNL     1       7.895   1.849  -7.172  1.00  0.00    -0.248 NA
ATOM     47  C   UNL     1       8.318   2.319  -4.925  1.00  0.00     0.031 C 
ATOM     48  C   UNL     1       8.389  -2.513  -6.304  1.00  0.00     0.029 A 
ATOM     49  N   UNL     1       8.019  -1.000  -7.907  1.00  0.00    -0.354 N 
ATOM     50  C   UNL     1       7.791   3.217  -6.961  1.00  0.00     0.074 A 
ATOM     51  C   UNL     1       8.002   3.445  -5.548  1.00  0.00     0.031 C 
ATOM     52  C   UNL     1       8.224  -3.180  -7.456  1.00  0.00     0.029 A 
ATOM     53  C   UNL     1       7.942  -2.225  -8.523  1.00  0.00     0.049 A 
ATOM     54  H   UNL     1       7.905  -0.147  -8.386  1.00  0.00     0.167 HD
ATOM     55  C   UNL     1       7.560   4.195  -7.870  1.00  0.00     0.037 A 
ATOM     56  C   UNL     1       7.655  -2.543  -9.800  1.00  0.00     0.037 A 
ATOM     57  C   UNL     1       7.375   3.959  -9.277  1.00  0.00     0.049 A 
ATOM     58  C   UNL     1       7.382  -1.439 -10.786  1.00  0.00     0.074 A 
ATOM     59  C   UNL     1       7.215   4.886 -10.292  1.00  0.00     0.029 A 
ATOM     60  N   UNL     1       7.313   2.705  -9.868  1.00  0.00    -0.354 N 
ATOM     61  N   UNL     1       7.370  -0.142 -10.592  1.00  0.00    -0.248 NA
ATOM     62  C   UNL     1       7.085  -1.841 -12.167  1.00  0.00     0.031 C 
ATOM     63  C   UNL     1       6.993   4.193 -11.486  1.00  0.00     0.029 A 
ATOM     64  C   UNL     1       7.076   2.834 -11.227  1.00  0.00     0.049 A 
ATOM     65  H   UNL     1       7.421   1.850  -9.391  1.00  0.00     0.167 HD
ATOM     66  C   UNL     1       7.084   0.426 -11.826  1.00  0.00     0.074 A 
ATOM     67  C   UNL     1       6.949  -0.667 -12.767  1.00  0.00     0.031 C 
ATOM     68  C   UNL     1       6.943   1.735 -12.150  1.00  0.00     0.037 A 
BRANCH  55  69
ATOM     69  C   UNL     1       7.485   5.609  -7.369  1.00  0.00     0.064 A 
ATOM     70  C   UNL     1       8.615   6.282  -6.879  1.00  0.00     0.173 A 
ATOM     71  C   UNL     1       6.273   6.314  -7.414  1.00  0.00     0.173 A 
ATOM     72  F   UNL     1       9.797   5.651  -6.805  1.00  0.00    -0.203 F 
ATOM     73  C   UNL     1       8.527   7.595  -6.424  1.00  0.00     0.198 A 
ATOM     74  C   UNL     1       6.195   7.638  -6.989  1.00  0.00     0.198 A 
ATOM     75  F   UNL     1       5.162   5.722  -7.879  1.00  0.00    -0.203 F 
ATOM     76  F   UNL     1       9.608   8.198  -5.911  1.00  0.00    -0.200 F 
ATOM     77  C   UNL     1       7.320   8.274  -6.486  1.00  0.00     0.200 A 
ATOM     78  F   UNL     1       5.031   8.297  -7.064  1.00  0.00    -0.200 F 
ATOM     79  F   UNL     1       7.238   9.540  -6.054  1.00  0.00    -0.200 F 
ENDBRANCH  55  69
BRANCH  56  80
ATOM     80  C   UNL     1       7.612  -3.969 -10.215  1.00  0.00     0.064 A 
ATOM     81  C   UNL     1       8.578  -4.500 -11.081  1.00  0.00     0.173 A 
ATOM     82  C   UNL     1       6.609  -4.833  -9.750  1.00  0.00     0.173 A 
ATOM     83  F   UNL     1       9.546  -3.710 -11.568  1.00  0.00    -0.203 F 
ATOM     84  C   UNL     1       8.531  -5.834 -11.481  1.00  0.00     0.198 A 
ATOM     85  C   UNL     1       6.582  -6.175 -10.126  1.00  0.00     0.198 A 
ATOM     86  F   UNL     1       5.664  -4.378  -8.914  1.00  0.00    -0.203 F 
ATOM     87  F   UNL     1       9.442  -6.304 -12.345  1.00  0.00    -0.200 F 
ATOM     88  C   UNL     1       7.538  -6.672 -10.998  1.00  0.00     0.200 A 
ATOM     89  F   UNL     1       5.630  -6.984  -9.641  1.00  0.00    -0.200 F 
ATOM     90  F   UNL     1       7.499  -7.957 -11.375  1.00  0.00    -0.200 F 
ENDBRANCH  56  80
BRANCH  68  91
ATOM     91  C   UNL     1       6.642   2.063 -13.584  1.00  0.00     0.064 A 
ATOM     92  C   UNL     1       5.387   1.798 -14.151  1.00  0.00     0.173 A 
ATOM     93  C   UNL     1       7.602   2.705 -14.382  1.00  0.00     0.173 A 
ATOM     94  F   UNL     1       4.442   1.172 -13.435  1.00  0.00    -0.203 F 
ATOM     95  C   UNL     1       5.110   2.149 -15.470  1.00  0.00     0.198 A 
ATOM     96  C   UNL     1       7.310   3.083 -15.690  1.00  0.00     0.198 A 
ATOM     97  F   UNL     1       8.816   2.987 -13.886  1.00  0.00    -0.203 F 
ATOM     98  F   UNL     1       3.917   1.849 -16.003  1.00  0.00    -0.200 F 
ATOM     99  C   UNL     1       6.067   2.800 -16.234  1.00  0.00     0.200 A 
ATOM    100  F   UNL     1       8.230   3.726 -16.421  1.00  0.00    -0.200 F 
ATOM    101  F   UNL     1       5.792   3.150 -17.498  1.00  0.00    -0.200 F 
ENDBRANCH  68  91
ENDBRANCH  42  43
ENDBRANCH  34  37
ENDBRANCH  32  33
ENDBRANCH  31  32
ENDBRANCH  30  31
ENDBRANCH   1  30
TORSDOF 17
