REMARK SMILES C[C@H](CNC(=O)N1C[C@H]2CCCC[N@@H+]2C[C@@H]1C)C(=O)NCCCCCCNC(=O)c1ccc(-c2c3nc(c(-c4c(F)c(F)c(F)c(F)c4F)c4ccc([nH]4)c(-c4c(F)c(F)c(F)c(F)c4F)c4nc(c(-c5c(F)c(F)c(F)c(F)c5F)c5ccc2[nH]5)C=C4)C=C3)cc1
REMARK SMILES IDX 23 1 22 2 21 3 20 4 18 5 19 6 2 8 1 9 3 10 4 11 5 12 6 14
REMARK SMILES IDX 7 15 8 16 16 17 9 18 15 19 17 20 10 21 14 22 11 23 13 24
REMARK SMILES IDX 12 26 24 27 25 28 26 29 27 30 28 31 29 33 30 34 31 35 92 36
REMARK SMILES IDX 32 37 91 38 33 39 34 40 35 41 85 42 36 43 90 44 84 45 86 46
REMARK SMILES IDX 37 47 89 48 83 49 82 50 38 52 70 53 50 54 69 55 51 56 54 57
REMARK SMILES IDX 68 58 87 59 52 60 53 61 67 63 88 64 55 65 39 66 40 67 48 68
REMARK SMILES IDX 41 69 42 70 46 71 49 72 43 73 44 74 47 75 45 76 71 77 72 78
REMARK SMILES IDX 80 79 73 80 74 81 78 82 81 83 75 84 76 85 79 86 77 87 56 88
REMARK SMILES IDX 57 89 65 90 58 91 59 92 63 93 66 94 60 95 61 96 64 97 62 98
REMARK H PARENT 20 7 4 13 14 25 27 32 86 51 54 62
REMARK Flexibility Score: inf
ROOT
ATOM      1  C   UNL     1      -3.076   2.301   1.658  1.00  0.00     0.002 C 
ENDROOT
BRANCH   1   2
ATOM      2  C   UNL     1      -1.567   2.054   1.551  1.00  0.00     0.021 C 
BRANCH   2   3
ATOM      3  C   UNL     1      -1.093   0.779   2.249  1.00  0.00     0.116 C 
BRANCH   3   4
ATOM      4  N   UNL     1      -1.506  -0.408   1.524  1.00  0.00    -0.356 N 
ATOM      5  C   UNL     1      -0.788  -1.361   0.870  1.00  0.00     0.224 C 
ATOM      6  O   UNL     1      -1.420  -2.256   0.302  1.00  0.00    -0.275 OA
ATOM      7  H   UNL     1      -2.481  -0.548   1.500  1.00  0.00     0.163 HD
BRANCH   5   8
ATOM      8  C   UNL     1       0.735  -1.344   0.828  1.00  0.00     0.094 C 
ATOM      9  C   UNL     1       1.333  -1.587   2.212  1.00  0.00     0.020 C 
BRANCH   8  10
ATOM     10  C   UNL     1       1.229  -0.097   0.090  1.00  0.00     0.130 C 
BRANCH  10  11
ATOM     11  N   UNL     1       2.665  -0.081  -0.139  1.00  0.00    -0.337 N 
ATOM     12  C   UNL     1       3.371  -0.292  -1.280  1.00  0.00     0.318 C 
ATOM     13  H   UNL     1       3.210   0.114   0.657  1.00  0.00     0.165 HD
ATOM     14  O   UNL     1       4.574  -0.521  -1.179  1.00  0.00    -0.249 OA
BRANCH  12  15
ATOM     15  N   UNL     1       2.688  -0.297  -2.468  1.00  0.00    -0.311 N 
ATOM     16  C   UNL     1       1.919   0.887  -2.861  1.00  0.00     0.186 C 
ATOM     17  C   UNL     1       3.193  -1.079  -3.613  1.00  0.00     0.139 C 
ATOM     18  C   UNL     1       0.729   0.479  -3.742  1.00  0.00     0.203 C 
ATOM     19  C   UNL     1       2.110  -1.254  -4.730  1.00  0.00     0.287 C 
ATOM     20  C   UNL     1       3.650  -2.490  -3.206  1.00  0.00     0.037 C 
ATOM     21  C   UNL     1      -0.181   1.685  -4.011  1.00  0.00     0.067 C 
ATOM     22  N   UNL     1       1.226  -0.098  -5.011  1.00  0.00    -0.329 N 
ATOM     23  C   UNL     1      -1.357   1.284  -4.895  1.00  0.00     0.012 C 
ATOM     24  C   UNL     1       0.105  -0.533  -5.862  1.00  0.00     0.262 C 
ATOM     25  H   UNL     1       1.752   0.623  -5.504  1.00  0.00     0.348 HD
ATOM     26  C   UNL     1      -0.862   0.610  -6.169  1.00  0.00     0.062 C 
ENDBRANCH  12  15
ENDBRANCH  10  11
ENDBRANCH   8  10
ENDBRANCH   5   8
ENDBRANCH   3   4
ENDBRANCH   2   3
ENDBRANCH   1   2
BRANCH   1  27
ATOM     27  C   UNL     1      -3.629   2.345   3.087  1.00  0.00     0.002 C 
BRANCH  27  28
ATOM     28  C   UNL     1      -2.916   3.313   4.034  1.00  0.00     0.021 C 
BRANCH  28  29
ATOM     29  C   UNL     1      -2.939   4.771   3.589  1.00  0.00     0.116 C 
BRANCH  29  30
ATOM     30  N   UNL     1      -4.289   5.310   3.553  1.00  0.00    -0.352 N 
ATOM     31  C   UNL     1      -4.774   6.466   4.102  1.00  0.00     0.251 C 
ATOM     32  H   UNL     1      -4.948   4.766   3.064  1.00  0.00     0.163 HD
ATOM     33  O   UNL     1      -5.989   6.671   4.135  1.00  0.00    -0.269 OA
BRANCH  31  34
ATOM     34  C   UNL     1      -3.848   7.466   4.671  1.00  0.00     0.039 A 
ATOM     35  C   UNL     1      -4.172   8.070   5.889  1.00  0.00     0.014 A 
ATOM     36  C   UNL     1      -2.682   7.835   3.993  1.00  0.00     0.014 A 
ATOM     37  C   UNL     1      -3.307   9.014   6.447  1.00  0.00     0.010 A 
ATOM     38  C   UNL     1      -1.789   8.726   4.582  1.00  0.00     0.010 A 
ATOM     39  C   UNL     1      -2.099   9.335   5.808  1.00  0.00    -0.014 A 
BRANCH  39  40
ATOM     40  C   UNL     1      -1.168  10.338   6.383  1.00  0.00     0.031 A 
ATOM     41  C   UNL     1      -0.914  11.628   5.651  1.00  0.00     0.074 A 
ATOM     42  C   UNL     1      -0.518  10.072   7.532  1.00  0.00     0.049 A 
ATOM     43  N   UNL     1      -0.076  12.593   5.935  1.00  0.00    -0.248 NA
ATOM     44  C   UNL     1      -1.690  11.853   4.420  1.00  0.00     0.031 C 
ATOM     45  C   UNL     1      -0.651   8.843   8.315  1.00  0.00     0.029 A 
ATOM     46  N   UNL     1       0.397  10.816   8.234  1.00  0.00    -0.354 N 
ATOM     47  C   UNL     1      -0.217  13.528   4.918  1.00  0.00     0.074 A 
ATOM     48  C   UNL     1      -1.178  12.992   3.979  1.00  0.00     0.031 C 
ATOM     49  C   UNL     1       0.143   8.922   9.395  1.00  0.00     0.029 A 
ATOM     50  C   UNL     1       0.866  10.190   9.363  1.00  0.00     0.049 A 
ATOM     51  H   UNL     1       0.690  11.714   7.955  1.00  0.00     0.167 HD
ATOM     52  C   UNL     1       0.379  14.738   4.794  1.00  0.00     0.037 A 
ATOM     53  C   UNL     1       1.783  10.592  10.264  1.00  0.00     0.037 A 
ATOM     54  C   UNL     1       1.316  15.280   5.741  1.00  0.00     0.049 A 
ATOM     55  C   UNL     1       2.429  11.943  10.100  1.00  0.00     0.074 A 
ATOM     56  C   UNL     1       1.964  16.503   5.713  1.00  0.00     0.029 A 
ATOM     57  N   UNL     1       1.730  14.634   6.896  1.00  0.00    -0.354 N 
ATOM     58  N   UNL     1       2.257  12.835   9.155  1.00  0.00    -0.248 NA
ATOM     59  C   UNL     1       3.388  12.349  11.137  1.00  0.00     0.031 C 
ATOM     60  C   UNL     1       2.792  16.585   6.837  1.00  0.00     0.029 A 
ATOM     61  C   UNL     1       2.625  15.434   7.588  1.00  0.00     0.049 A 
ATOM     62  H   UNL     1       1.433  13.740   7.181  1.00  0.00     0.167 HD
ATOM     63  C   UNL     1       3.052  13.918   9.503  1.00  0.00     0.074 A 
ATOM     64  C   UNL     1       3.699  13.578  10.752  1.00  0.00     0.031 C 
ATOM     65  C   UNL     1       3.233  15.090   8.846  1.00  0.00     0.037 A 
BRANCH  52  66
ATOM     66  C   UNL     1       0.018  15.570   3.598  1.00  0.00     0.064 A 
ATOM     67  C   UNL     1      -1.245  16.171   3.482  1.00  0.00     0.173 A 
ATOM     68  C   UNL     1       0.957  15.815   2.585  1.00  0.00     0.173 A 
ATOM     69  F   UNL     1      -2.183  15.956   4.417  1.00  0.00    -0.203 F 
ATOM     70  C   UNL     1      -1.561  16.968   2.385  1.00  0.00     0.198 A 
ATOM     71  C   UNL     1       0.647  16.637   1.504  1.00  0.00     0.198 A 
ATOM     72  F   UNL     1       2.180  15.269   2.650  1.00  0.00    -0.203 F 
ATOM     73  F   UNL     1      -2.788  17.497   2.276  1.00  0.00    -0.200 F 
ATOM     74  C   UNL     1      -0.613  17.208   1.403  1.00  0.00     0.200 A 
ATOM     75  F   UNL     1       1.568  16.878   0.562  1.00  0.00    -0.200 F 
ATOM     76  F   UNL     1      -0.915  17.986   0.354  1.00  0.00    -0.200 F 
ENDBRANCH  52  66
BRANCH  53  77
ATOM     77  C   UNL     1       2.139   9.718  11.413  1.00  0.00     0.064 A 
ATOM     78  C   UNL     1       1.800  10.077  12.726  1.00  0.00     0.173 A 
ATOM     79  C   UNL     1       2.857   8.527  11.228  1.00  0.00     0.173 A 
ATOM     80  F   UNL     1       1.131  11.216  12.956  1.00  0.00    -0.203 F 
ATOM     81  C   UNL     1       2.195   9.298  13.811  1.00  0.00     0.198 A 
ATOM     82  C   UNL     1       3.224   7.732  12.312  1.00  0.00     0.198 A 
ATOM     83  F   UNL     1       3.200   8.134   9.993  1.00  0.00    -0.203 F 
ATOM     84  F   UNL     1       1.910   9.697  15.058  1.00  0.00    -0.200 F 
ATOM     85  C   UNL     1       2.904   8.125  13.603  1.00  0.00     0.200 A 
ATOM     86  F   UNL     1       3.897   6.592  12.106  1.00  0.00    -0.200 F 
ATOM     87  F   UNL     1       3.289   7.378  14.647  1.00  0.00    -0.200 F 
ENDBRANCH  53  77
BRANCH  65  88
ATOM     88  C   UNL     1       4.116  16.114   9.496  1.00  0.00     0.064 A 
ATOM     89  C   UNL     1       5.508  15.958   9.559  1.00  0.00     0.173 A 
ATOM     90  C   UNL     1       3.561  17.288  10.029  1.00  0.00     0.173 A 
ATOM     91  F   UNL     1       6.085  14.847   9.076  1.00  0.00    -0.203 F 
ATOM     92  C   UNL     1       6.309  16.926  10.158  1.00  0.00     0.198 A 
ATOM     93  C   UNL     1       4.368  18.267  10.600  1.00  0.00     0.198 A 
ATOM     94  F   UNL     1       2.235  17.488   9.986  1.00  0.00    -0.203 F 
ATOM     95  F   UNL     1       7.633  16.733  10.251  1.00  0.00    -0.200 F 
ATOM     96  C   UNL     1       5.740  18.082  10.671  1.00  0.00     0.200 A 
ATOM     97  F   UNL     1       3.817  19.389  11.083  1.00  0.00    -0.200 F 
ATOM     98  F   UNL     1       6.514  19.015  11.242  1.00  0.00    -0.200 F 
ENDBRANCH  65  88
ENDBRANCH  39  40
ENDBRANCH  31  34
ENDBRANCH  29  30
ENDBRANCH  28  29
ENDBRANCH  27  28
ENDBRANCH   1  27
TORSDOF 16
