REMARK SMILES O=C(NCCCCCCNC(=O)[C@H](c1ccccc1)N1C(=O)/C(=C\c2ccc(Br)cc2)SC1=S)c1ccc(-c2c3nc(c(-c4c(F)c(F)c(F)c(F)c4F)c4ccc([nH]4)c(-c4c(F)c(F)c(F)c(F)c4F)c4nc(c(-c5c(F)c(F)c(F)c(F)c5F)c5ccc2[nH]5)C=C4)C=C3)cc1
REMARK SMILES IDX 6 1 5 2 4 3 3 4 1 5 2 6 35 8 36 9 97 10 37 11 96 12 38 13
REMARK SMILES IDX 39 14 40 15 90 16 41 17 95 18 89 19 91 20 42 21 94 22 88 23
REMARK SMILES IDX 87 24 43 26 75 27 55 28 74 29 56 30 59 31 73 32 92 33 57 34
REMARK SMILES IDX 58 35 72 37 93 38 60 39 44 40 45 41 53 42 46 43 47 44 51 45
REMARK SMILES IDX 54 46 48 47 49 48 52 49 50 50 76 51 77 52 85 53 78 54 79 55
REMARK SMILES IDX 83 56 86 57 80 58 81 59 84 60 82 61 61 62 62 63 70 64 63 65
REMARK SMILES IDX 64 66 68 67 71 68 65 69 66 70 69 71 67 72 7 73 8 74 9 75
REMARK SMILES IDX 10 76 11 77 12 79 13 80 20 81 21 82 33 83 22 84 23 85 32 86
REMARK SMILES IDX 34 87 24 88 25 89 26 90 31 91 27 92 30 93 28 94 29 95 14 96
REMARK SMILES IDX 15 97 19 98 16 99 18 100 17 101
REMARK H PARENT 3 7 91 25 59 36 10 78
REMARK Flexibility Score: inf
ROOT
ATOM      1  C   UNL     1       5.647  -4.970   5.002  1.00  0.00     0.002 C 
ENDROOT
BRANCH   1   2
ATOM      2  C   UNL     1       4.420  -4.871   5.913  1.00  0.00     0.021 C 
BRANCH   2   3
ATOM      3  C   UNL     1       3.183  -4.285   5.241  1.00  0.00     0.116 C 
BRANCH   3   4
ATOM      4  N   UNL     1       2.716  -5.126   4.151  1.00  0.00    -0.352 N 
ATOM      5  O   UNL     1       1.427  -6.694   3.169  1.00  0.00    -0.269 OA
ATOM      6  C   UNL     1       1.550  -5.839   4.040  1.00  0.00     0.251 C 
ATOM      7  H   UNL     1       3.325  -5.194   3.381  1.00  0.00     0.163 HD
BRANCH   6   8
ATOM      8  C   UNL     1       0.435  -5.575   4.973  1.00  0.00     0.039 A 
ATOM      9  C   UNL     1       0.064  -4.263   5.278  1.00  0.00     0.014 A 
ATOM     10  C   UNL     1      -0.281  -6.652   5.503  1.00  0.00     0.014 A 
ATOM     11  C   UNL     1      -0.955  -4.027   6.194  1.00  0.00     0.010 A 
ATOM     12  C   UNL     1      -1.354  -6.413   6.363  1.00  0.00     0.010 A 
ATOM     13  C   UNL     1      -1.690  -5.099   6.725  1.00  0.00    -0.014 A 
BRANCH  13  14
ATOM     14  C   UNL     1      -2.866  -4.818   7.582  1.00  0.00     0.031 A 
ATOM     15  C   UNL     1      -2.886  -5.213   9.028  1.00  0.00     0.074 A 
ATOM     16  C   UNL     1      -3.927  -4.201   7.029  1.00  0.00     0.049 A 
ATOM     17  N   UNL     1      -3.838  -5.054   9.913  1.00  0.00    -0.248 NA
ATOM     18  C   UNL     1      -1.687  -5.885   9.550  1.00  0.00     0.031 C 
ATOM     19  C   UNL     1      -4.024  -3.796   5.625  1.00  0.00     0.029 A 
ATOM     20  N   UNL     1      -5.122  -3.805   7.573  1.00  0.00    -0.354 N 
ATOM     21  C   UNL     1      -3.363  -5.619  11.088  1.00  0.00     0.074 A 
ATOM     22  C   UNL     1      -2.046  -6.148  10.799  1.00  0.00     0.031 C 
ATOM     23  C   UNL     1      -5.201  -3.188   5.422  1.00  0.00     0.029 A 
ATOM     24  C   UNL     1      -5.964  -3.211   6.665  1.00  0.00     0.049 A 
ATOM     25  H   UNL     1      -5.353  -3.933   8.521  1.00  0.00     0.167 HD
ATOM     26  C   UNL     1      -3.972  -5.682  12.297  1.00  0.00     0.037 A 
ATOM     27  C   UNL     1      -7.222  -2.759   6.809  1.00  0.00     0.037 A 
ATOM     28  C   UNL     1      -5.280  -5.143  12.573  1.00  0.00     0.049 A 
ATOM     29  C   UNL     1      -7.878  -2.853   8.156  1.00  0.00     0.074 A 
ATOM     30  C   UNL     1      -5.962  -5.106  13.777  1.00  0.00     0.029 A 
ATOM     31  N   UNL     1      -6.109  -4.555  11.627  1.00  0.00    -0.354 N 
ATOM     32  N   UNL     1      -7.398  -3.339   9.274  1.00  0.00    -0.248 NA
ATOM     33  C   UNL     1      -9.248  -2.336   8.261  1.00  0.00     0.031 C 
ATOM     34  C   UNL     1      -7.223  -4.543  13.549  1.00  0.00     0.029 A 
ATOM     35  C   UNL     1      -7.308  -4.180  12.214  1.00  0.00     0.049 A 
ATOM     36  H   UNL     1      -5.879  -4.423  10.679  1.00  0.00     0.167 HD
ATOM     37  C   UNL     1      -8.399  -3.180  10.220  1.00  0.00     0.074 A 
ATOM     38  C   UNL     1      -9.507  -2.529   9.547  1.00  0.00     0.031 C 
ATOM     39  C   UNL     1      -8.402  -3.542  11.526  1.00  0.00     0.037 A 
BRANCH  26  40
ATOM     40  C   UNL     1      -3.242  -6.380  13.409  1.00  0.00     0.064 A 
ATOM     41  C   UNL     1      -2.103  -5.824  14.010  1.00  0.00     0.173 A 
ATOM     42  C   UNL     1      -3.709  -7.608  13.902  1.00  0.00     0.173 A 
ATOM     43  F   UNL     1      -1.608  -4.658  13.569  1.00  0.00    -0.203 F 
ATOM     44  C   UNL     1      -1.442  -6.486  15.043  1.00  0.00     0.198 A 
ATOM     45  C   UNL     1      -3.063  -8.253  14.954  1.00  0.00     0.198 A 
ATOM     46  F   UNL     1      -4.799  -8.182  13.369  1.00  0.00    -0.203 F 
ATOM     47  F   UNL     1      -0.328  -5.958  15.569  1.00  0.00    -0.200 F 
ATOM     48  C   UNL     1      -1.926  -7.695  15.518  1.00  0.00     0.200 A 
ATOM     49  F   UNL     1      -3.539  -9.416  15.419  1.00  0.00    -0.200 F 
ATOM     50  F   UNL     1      -1.291  -8.328  16.514  1.00  0.00    -0.200 F 
ENDBRANCH  26  40
BRANCH  27  51
ATOM     51  C   UNL     1      -7.930  -2.190   5.635  1.00  0.00     0.064 A 
ATOM     52  C   UNL     1      -8.200  -0.819   5.546  1.00  0.00     0.173 A 
ATOM     53  C   UNL     1      -8.312  -3.004   4.557  1.00  0.00     0.173 A 
ATOM     54  F   UNL     1      -7.869  -0.004   6.558  1.00  0.00    -0.203 F 
ATOM     55  C   UNL     1      -8.832  -0.283   4.426  1.00  0.00     0.198 A 
ATOM     56  C   UNL     1      -8.916  -2.464   3.426  1.00  0.00     0.198 A 
ATOM     57  F   UNL     1      -8.066  -4.322   4.592  1.00  0.00    -0.203 F 
ATOM     58  F   UNL     1      -9.106   1.027   4.377  1.00  0.00    -0.200 F 
ATOM     59  C   UNL     1      -9.181  -1.104   3.363  1.00  0.00     0.200 A 
ATOM     60  F   UNL     1      -9.233  -3.257   2.394  1.00  0.00    -0.200 F 
ATOM     61  F   UNL     1      -9.773  -0.585   2.279  1.00  0.00    -0.200 F 
ENDBRANCH  27  51
BRANCH  39  62
ATOM     62  C   UNL     1      -9.638  -3.228  12.316  1.00  0.00     0.064 A 
ATOM     63  C   UNL     1     -10.828  -3.948  12.133  1.00  0.00     0.173 A 
ATOM     64  C   UNL     1      -9.622  -2.217  13.288  1.00  0.00     0.173 A 
ATOM     65  F   UNL     1     -10.897  -4.912  11.202  1.00  0.00    -0.203 F 
ATOM     66  C   UNL     1     -11.964  -3.652  12.882  1.00  0.00     0.198 A 
ATOM     67  C   UNL     1     -10.752  -1.943  14.054  1.00  0.00     0.198 A 
ATOM     68  F   UNL     1      -8.508  -1.502  13.503  1.00  0.00    -0.203 F 
ATOM     69  F   UNL     1     -13.103  -4.322  12.659  1.00  0.00    -0.200 F 
ATOM     70  C   UNL     1     -11.923  -2.656  13.846  1.00  0.00     0.200 A 
ATOM     71  F   UNL     1     -10.707  -0.987  14.992  1.00  0.00    -0.200 F 
ATOM     72  F   UNL     1     -13.016  -2.377  14.569  1.00  0.00    -0.200 F 
ENDBRANCH  39  62
ENDBRANCH  13  14
ENDBRANCH   6   8
ENDBRANCH   3   4
ENDBRANCH   2   3
ENDBRANCH   1   2
BRANCH   1  73
ATOM     73  C   UNL     1       6.131  -3.642   4.405  1.00  0.00     0.002 C 
BRANCH  73  74
ATOM     74  C   UNL     1       6.317  -2.500   5.409  1.00  0.00     0.021 C 
BRANCH  74  75
ATOM     75  C   UNL     1       7.305  -2.805   6.534  1.00  0.00     0.116 C 
BRANCH  75  76
ATOM     76  N   UNL     1       8.659  -2.401   6.211  1.00  0.00    -0.354 N 
ATOM     77  C   UNL     1       9.372  -1.277   6.493  1.00  0.00     0.247 C 
ATOM     78  H   UNL     1       9.159  -3.069   5.688  1.00  0.00     0.163 HD
ATOM     79  O   UNL     1      10.574  -1.322   6.187  1.00  0.00    -0.272 OA
BRANCH  77  80
ATOM     80  C   UNL     1       8.822  -0.020   7.206  1.00  0.00     0.211 C 
BRANCH  80  81
ATOM     81  N   UNL     1       9.332   1.266   6.685  1.00  0.00    -0.276 N 
ATOM     82  C   UNL     1       9.469   2.277   7.626  1.00  0.00     0.267 C 
ATOM     83  C   UNL     1       9.454   1.655   5.367  1.00  0.00     0.149 C 
ATOM     84  O   UNL     1       9.539   2.116   8.836  1.00  0.00    -0.268 OA
ATOM     85  C   UNL     1       9.482   3.600   6.948  1.00  0.00     0.081 C 
ATOM     86  S   UNL     1       9.917   3.362   5.298  1.00  0.00    -0.054 SA
ATOM     87  S   UNL     1       9.188   0.794   3.962  1.00  0.00    -0.052 S 
ATOM     88  C   UNL     1       9.003   4.766   7.409  1.00  0.00     0.029 C 
BRANCH  88  89
ATOM     89  C   UNL     1       8.282   4.938   8.677  1.00  0.00    -0.024 A 
ATOM     90  C   UNL     1       6.926   5.297   8.632  1.00  0.00     0.009 A 
ATOM     91  C   UNL     1       8.890   4.729   9.917  1.00  0.00     0.009 A 
ATOM     92  C   UNL     1       6.179   5.397   9.809  1.00  0.00     0.016 A 
ATOM     93  C   UNL     1       8.142   4.814  11.095  1.00  0.00     0.016 A 
ATOM     94  C   UNL     1       6.789   5.140  11.034  1.00  0.00     0.018 A 
ATOM     95  Br  UNL     1       5.770   5.219  12.624  1.00  0.00    -0.051 Br
ENDBRANCH  88  89
ENDBRANCH  80  81
BRANCH  80  96
ATOM     96  C   UNL     1       7.340   0.103   7.559  1.00  0.00    -0.016 A 
ATOM     97  C   UNL     1       6.380   0.567   6.649  1.00  0.00     0.006 A 
ATOM     98  C   UNL     1       6.922  -0.189   8.874  1.00  0.00     0.006 A 
ATOM     99  C   UNL     1       5.040   0.689   7.025  1.00  0.00     0.000 A 
ATOM    100  C   UNL     1       5.583  -0.075   9.245  1.00  0.00     0.000 A 
ATOM    101  C   UNL     1       4.641   0.359   8.318  1.00  0.00     0.000 A 
ENDBRANCH  80  96
ENDBRANCH  77  80
ENDBRANCH  75  76
ENDBRANCH  74  75
ENDBRANCH  73  74
ENDBRANCH   1  73
TORSDOF 16
