REMARK SMILES Cn1ccc(C(=O)N[C@H]2CCCCC[C@H]2C(=O)NCCCCCCNC(=O)c2ccc(-c3c4nc(c(-c5c(F)c(F)c(F)c(F)c5F)c5ccc([nH]5)c(-c5c(F)c(F)c(F)c(F)c5F)c5nc(c(-c6c(F)c(F)c(F)c(F)c6F)c6ccc3[nH]6)C=C5)C=C4)cc2)cc1=O
REMARK SMILES IDX 21 1 20 2 19 3 18 4 16 5 17 6 15 8 9 9 8 10 6 11 7 12 5 14
REMARK SMILES IDX 1 15 2 16 3 17 92 18 4 19 91 20 93 21 10 22 11 23 14 25
REMARK SMILES IDX 13 26 12 27 22 29 23 30 24 31 25 32 26 33 27 35 28 36 29 37
REMARK SMILES IDX 90 38 30 39 89 40 31 41 32 42 33 43 83 44 34 45 88 46 82 47
REMARK SMILES IDX 84 48 35 49 87 50 81 51 80 52 36 54 68 55 48 56 67 57 49 58
REMARK SMILES IDX 52 59 66 60 85 61 50 62 51 63 65 65 86 66 53 67 37 68 38 69
REMARK SMILES IDX 46 70 39 71 40 72 44 73 47 74 41 75 42 76 45 77 43 78 69 79
REMARK SMILES IDX 70 80 78 81 71 82 72 83 76 84 79 85 73 86 74 87 77 88 75 89
REMARK SMILES IDX 54 90 55 91 63 92 56 93 57 94 61 95 64 96 58 97 59 98 62 99
REMARK SMILES IDX 60 100
REMARK H PARENT 18 7 8 13 25 34 84 53 52 64
REMARK Flexibility Score: 100.00
ROOT
ATOM      1  C   UNL     1      -3.107   6.843  -0.535  1.00  0.00     0.002 C 
ENDROOT
BRANCH   1   2
ATOM      2  C   UNL     1      -1.759   6.119  -0.571  1.00  0.00     0.021 C 
BRANCH   2   3
ATOM      3  C   UNL     1      -1.749   4.798   0.188  1.00  0.00     0.116 C 
BRANCH   3   4
ATOM      4  N   UNL     1      -1.569   3.639  -0.647  1.00  0.00    -0.356 N 
ATOM      5  C   UNL     1      -0.662   2.634  -0.572  1.00  0.00     0.225 C 
ATOM      6  O   UNL     1      -0.809   1.702  -1.372  1.00  0.00    -0.275 OA
ATOM      7  H   UNL     1      -2.207   3.565  -1.393  1.00  0.00     0.163 HD
BRANCH   5   8
ATOM      8  C   UNL     1       0.526   2.609   0.405  1.00  0.00     0.101 C 
BRANCH   8   9
ATOM      9  C   UNL     1       1.668   3.653   0.190  1.00  0.00     0.094 C 
BRANCH   9  10
ATOM     10  N   UNL     1       1.448   4.512  -0.996  1.00  0.00    -0.349 N 
ATOM     11  C   UNL     1       1.838   5.714  -1.491  1.00  0.00     0.251 C 
ATOM     12  O   UNL     1       1.575   5.964  -2.669  1.00  0.00    -0.269 OA
ATOM     13  H   UNL     1       0.825   4.074  -1.620  1.00  0.00     0.164 HD
BRANCH  11  14
ATOM     14  C   UNL     1       2.400   6.785  -0.642  1.00  0.00     0.046 A 
ATOM     15  C   UNL     1       3.544   9.756   2.109  1.00  0.00     0.153 C 
ATOM     16  N   UNL     1       3.200   8.781   1.090  1.00  0.00    -0.319 N 
ATOM     17  C   UNL     1       2.097   8.990   0.287  1.00  0.00     0.089 A 
ATOM     18  C   UNL     1       4.024   7.665   0.945  1.00  0.00     0.251 A 
ATOM     19  C   UNL     1       1.690   8.045  -0.564  1.00  0.00     0.032 A 
ATOM     20  C   UNL     1       3.599   6.656  -0.062  1.00  0.00     0.085 A 
ATOM     21  O   UNL     1       5.029   7.448   1.618  1.00  0.00    -0.269 OA
ENDBRANCH  11  14
ENDBRANCH   9  10
BRANCH   9  22
ATOM     22  C   UNL     1       2.204   4.243   1.498  1.00  0.00     0.026 C 
BRANCH  22  23
ATOM     23  C   UNL     1       1.260   5.149   2.264  1.00  0.00     0.002 CG0
ATOM     24  G   UNL     1       0.404   4.400   3.280  1.00  0.00     0.000 G0
ENDBRANCH  22  23
ENDBRANCH   9  22
ENDBRANCH   8   9
BRANCH   8  25
ATOM     25  C   UNL     1       0.152   2.208   1.849  1.00  0.00     0.015 C 
BRANCH  25  26
ATOM     26  C   UNL     1      -0.456   3.225   2.812  1.00  0.00     0.001 C 
BRANCH  26  27
ATOM     27  C   UNL     1       0.404   4.400   3.280  1.00  0.00     0.000 CG0
ATOM     28  G   UNL     1       1.260   5.149   2.264  1.00  0.00     0.000 G0
ENDBRANCH  26  27
ENDBRANCH  25  26
ENDBRANCH   8  25
ENDBRANCH   5   8
ENDBRANCH   3   4
ENDBRANCH   2   3
ENDBRANCH   1   2
BRANCH   1  29
ATOM     29  C   UNL     1      -3.658   7.163   0.862  1.00  0.00     0.002 C 
BRANCH  29  30
ATOM     30  C   UNL     1      -2.752   7.994   1.775  1.00  0.00     0.021 C 
BRANCH  30  31
ATOM     31  C   UNL     1      -2.291   9.334   1.204  1.00  0.00     0.116 C 
BRANCH  31  32
ATOM     32  N   UNL     1      -3.400  10.141   0.725  1.00  0.00    -0.352 N 
ATOM     33  C   UNL     1      -3.815  11.397   1.073  1.00  0.00     0.251 C 
ATOM     34  H   UNL     1      -3.948   9.710   0.030  1.00  0.00     0.163 HD
ATOM     35  O   UNL     1      -4.907  11.802   0.671  1.00  0.00    -0.269 OA
BRANCH  33  36
ATOM     36  C   UNL     1      -2.982  12.283   1.915  1.00  0.00     0.039 A 
ATOM     37  C   UNL     1      -3.621  13.120   2.835  1.00  0.00     0.014 A 
ATOM     38  C   UNL     1      -1.598  12.370   1.742  1.00  0.00     0.014 A 
ATOM     39  C   UNL     1      -2.876  14.024   3.595  1.00  0.00     0.010 A 
ATOM     40  C   UNL     1      -0.846  13.225   2.547  1.00  0.00     0.010 A 
ATOM     41  C   UNL     1      -1.481  14.077   3.465  1.00  0.00    -0.014 A 
BRANCH  41  42
ATOM     42  C   UNL     1      -0.677  15.057   4.238  1.00  0.00     0.031 A 
ATOM     43  C   UNL     1       0.043  16.168   3.521  1.00  0.00     0.074 A 
ATOM     44  C   UNL     1      -0.558  14.924   5.573  1.00  0.00     0.049 A 
ATOM     45  N   UNL     1       0.854  17.077   4.002  1.00  0.00    -0.248 NA
ATOM     46  C   UNL     1      -0.151  16.251   2.064  1.00  0.00     0.031 C 
ATOM     47  C   UNL     1      -1.177  13.869   6.377  1.00  0.00     0.029 A 
ATOM     48  N   UNL     1       0.135  15.676   6.488  1.00  0.00    -0.354 N 
ATOM     49  C   UNL     1       1.284  17.817   2.908  1.00  0.00     0.074 A 
ATOM     50  C   UNL     1       0.678  17.230   1.733  1.00  0.00     0.031 C 
ATOM     51  C   UNL     1      -0.846  14.048   7.666  1.00  0.00     0.029 A 
ATOM     52  C   UNL     1       0.029  15.211   7.777  1.00  0.00     0.049 A 
ATOM     53  H   UNL     1       0.658  16.474   6.245  1.00  0.00     0.167 HD
ATOM     54  C   UNL     1       2.097  18.901   2.889  1.00  0.00     0.037 A 
ATOM     55  C   UNL     1       0.580  15.672   8.916  1.00  0.00     0.037 A 
ATOM     56  C   UNL     1       2.654  19.516   4.064  1.00  0.00     0.049 A 
ATOM     57  C   UNL     1       1.445  16.904   8.867  1.00  0.00     0.074 A 
ATOM     58  C   UNL     1       3.438  20.653   4.154  1.00  0.00     0.029 A 
ATOM     59  N   UNL     1       2.475  19.049   5.357  1.00  0.00    -0.354 N 
ATOM     60  N   UNL     1       1.795  17.629   7.833  1.00  0.00    -0.248 NA
ATOM     61  C   UNL     1       1.979  17.389  10.147  1.00  0.00     0.031 C 
ATOM     62  C   UNL     1       3.760  20.857   5.500  1.00  0.00     0.029 A 
ATOM     63  C   UNL     1       3.140  19.872   6.251  1.00  0.00     0.049 A 
ATOM     64  H   UNL     1       1.954  18.251   5.603  1.00  0.00     0.167 HD
ATOM     65  C   UNL     1       2.552  18.677   8.341  1.00  0.00     0.074 A 
ATOM     66  C   UNL     1       2.604  18.497   9.776  1.00  0.00     0.031 C 
ATOM     67  C   UNL     1       3.151  19.696   7.679  1.00  0.00     0.037 A 
BRANCH  54  68
ATOM     68  C   UNL     1       2.429  19.505   1.556  1.00  0.00     0.064 A 
ATOM     69  C   UNL     1       1.481  20.231   0.820  1.00  0.00     0.173 A 
ATOM     70  C   UNL     1       3.730  19.412   1.039  1.00  0.00     0.173 A 
ATOM     71  F   UNL     1       0.220  20.338   1.265  1.00  0.00    -0.203 F 
ATOM     72  C   UNL     1       1.819  20.827  -0.392  1.00  0.00     0.198 A 
ATOM     73  C   UNL     1       4.072  20.032  -0.159  1.00  0.00     0.198 A 
ATOM     74  F   UNL     1       4.676  18.733   1.706  1.00  0.00    -0.203 F 
ATOM     75  F   UNL     1       0.887  21.485  -1.096  1.00  0.00    -0.200 F 
ATOM     76  C   UNL     1       3.115  20.736  -0.876  1.00  0.00     0.200 A 
ATOM     77  F   UNL     1       5.328  19.953  -0.619  1.00  0.00    -0.200 F 
ATOM     78  F   UNL     1       3.442  21.323  -2.036  1.00  0.00    -0.200 F 
ENDBRANCH  54  68
BRANCH  55  79
ATOM     79  C   UNL     1       0.313  14.988  10.208  1.00  0.00     0.064 A 
ATOM     80  C   UNL     1      -0.460  15.604  11.202  1.00  0.00     0.173 A 
ATOM     81  C   UNL     1       0.851  13.724  10.489  1.00  0.00     0.173 A 
ATOM     82  F   UNL     1      -0.978  16.822  10.987  1.00  0.00    -0.203 F 
ATOM     83  C   UNL     1      -0.656  14.998  12.441  1.00  0.00     0.198 A 
ATOM     84  C   UNL     1       0.628  13.105  11.717  1.00  0.00     0.198 A 
ATOM     85  F   UNL     1       1.591  13.088   9.569  1.00  0.00    -0.203 F 
ATOM     86  F   UNL     1      -1.349  15.636  13.394  1.00  0.00    -0.200 F 
ATOM     87  C   UNL     1      -0.115  13.747  12.697  1.00  0.00     0.200 A 
ATOM     88  F   UNL     1       1.142  11.891  11.956  1.00  0.00    -0.200 F 
ATOM     89  F   UNL     1      -0.299  13.167  13.890  1.00  0.00    -0.200 F 
ENDBRANCH  55  79
BRANCH  67  90
ATOM     90  C   UNL     1       3.855  20.733   8.504  1.00  0.00     0.064 A 
ATOM     91  C   UNL     1       5.074  20.466   9.142  1.00  0.00     0.173 A 
ATOM     92  C   UNL     1       3.315  22.022   8.626  1.00  0.00     0.173 A 
ATOM     93  F   UNL     1       5.623  19.244   9.066  1.00  0.00    -0.203 F 
ATOM     94  C   UNL     1       5.713  21.445   9.898  1.00  0.00     0.198 A 
ATOM     95  C   UNL     1       3.971  23.006   9.359  1.00  0.00     0.198 A 
ATOM     96  F   UNL     1       2.155  22.329   8.027  1.00  0.00    -0.203 F 
ATOM     97  F   UNL     1       6.853  21.154  10.541  1.00  0.00    -0.200 F 
ATOM     98  C   UNL     1       5.165  22.715  10.001  1.00  0.00     0.200 A 
ATOM     99  F   UNL     1       3.446  24.236   9.446  1.00  0.00    -0.200 F 
ATOM    100  F   UNL     1       5.784  23.656  10.726  1.00  0.00    -0.200 F 
ENDBRANCH  67  90
ENDBRANCH  41  42
ENDBRANCH  33  36
ENDBRANCH  31  32
ENDBRANCH  30  31
ENDBRANCH  29  30
ENDBRANCH   1  29
TORSDOF 15
