REMARK SMILES Cn1cc(S(=O)(=O)N2CCCc3cc(C(=O)NCCCCCCNC(=O)c4ccc(-c5c6nc(c(-c7c(F)c(F)c(F)c(F)c7F)c7ccc([nH]7)c(-c7c(F)c(F)c(F)c(F)c7F)c7nc(c(-c8c(F)c(F)c(F)c(F)c8F)c8ccc5[nH]8)C=C7)C=C6)cc4)ccc32)cc1C(N)=O
REMARK SMILES IDX 20 1 19 2 18 3 17 4 15 5 16 6 14 8 8 9 9 10 92 11 10 12
REMARK SMILES IDX 12 13 91 14 11 15 13 16 90 17 5 18 6 19 7 20 4 21 1 22 2 23
REMARK SMILES IDX 3 24 94 25 93 26 95 27 96 28 97 29 21 32 22 33 23 34 24 35
REMARK SMILES IDX 25 36 26 38 27 39 28 40 89 41 29 42 88 43 30 44 31 45 32 46
REMARK SMILES IDX 82 47 33 48 87 49 81 50 83 51 34 52 86 53 80 54 79 55 35 57
REMARK SMILES IDX 67 58 47 59 66 60 48 61 51 62 65 63 84 64 49 65 50 66 64 68
REMARK SMILES IDX 85 69 52 70 36 71 37 72 45 73 38 74 39 75 43 76 46 77 40 78
REMARK SMILES IDX 41 79 44 80 42 81 68 82 69 83 77 84 70 85 71 86 75 87 78 88
REMARK SMILES IDX 72 89 73 90 76 91 74 92 53 93 54 94 62 95 55 96 56 97 60 98
REMARK SMILES IDX 63 99 57 100 58 101 61 102 59 103
REMARK H PARENT 17 7 96 30 96 31 24 37 83 56 51 67
REMARK Flexibility Score: inf
ROOT
ATOM      1  C   UNL     1      -7.108   1.189  -8.183  1.00  0.00     0.002 C 
ENDROOT
BRANCH   1   2
ATOM      2  C   UNL     1      -6.300   1.196  -6.877  1.00  0.00     0.021 C 
BRANCH   2   3
ATOM      3  C   UNL     1      -6.930   2.061  -5.782  1.00  0.00     0.116 C 
BRANCH   3   4
ATOM      4  N   UNL     1      -8.031   1.349  -5.166  1.00  0.00    -0.352 N 
ATOM      5  C   UNL     1      -8.142   0.648  -3.995  1.00  0.00     0.251 C 
ATOM      6  O   UNL     1      -9.227   0.119  -3.751  1.00  0.00    -0.269 OA
ATOM      7  H   UNL     1      -8.863   1.374  -5.692  1.00  0.00     0.163 HD
BRANCH   5   8
ATOM      8  C   UNL     1      -7.049   0.545  -2.987  1.00  0.00     0.040 A 
ATOM      9  N   UNL     1      -4.189   0.405   0.166  1.00  0.00    -0.266 N 
ATOM     10  C   UNL     1      -4.568  -0.296   1.408  1.00  0.00     0.136 C 
ATOM     11  C   UNL     1      -5.138   0.434  -0.908  1.00  0.00     0.055 A 
ATOM     12  C   UNL     1      -5.939   0.183   1.851  1.00  0.00     0.028 C 
ATOM     13  C   UNL     1      -6.499   0.264  -0.617  1.00  0.00    -0.023 A 
ATOM     14  C   UNL     1      -4.738   0.547  -2.241  1.00  0.00     0.028 A 
ATOM     15  C   UNL     1      -6.973  -0.101   0.768  1.00  0.00     0.039 C 
ATOM     16  C   UNL     1      -7.441   0.342  -1.655  1.00  0.00     0.019 A 
ATOM     17  C   UNL     1      -5.684   0.578  -3.273  1.00  0.00     0.016 A 
BRANCH   9  18
ATOM     18  S   UNL     1      -2.900   1.509   0.236  1.00  0.00     0.265 S 
ATOM     19  O   UNL     1      -2.821   2.059   1.577  1.00  0.00    -0.201 OA
ATOM     20  O   UNL     1      -2.844   2.348  -0.937  1.00  0.00    -0.201 OA
BRANCH  18  21
ATOM     21  C   UNL     1      -1.451   0.564   0.115  1.00  0.00     0.106 A 
ATOM     22  C   UNL     1       2.127   0.114  -0.009  1.00  0.00     0.150 C 
ATOM     23  N   UNL     1       0.687  -0.046   0.020  1.00  0.00    -0.345 N 
ATOM     24  C   UNL     1      -0.160   1.036   0.111  1.00  0.00     0.108 A 
ATOM     25  C   UNL     1      -0.043  -1.226  -0.035  1.00  0.00     0.107 A 
ATOM     26  C   UNL     1      -1.381  -0.844   0.000  1.00  0.00     0.056 A 
BRANCH  25  27
ATOM     27  C   UNL     1       0.510  -2.567  -0.116  1.00  0.00     0.265 C 
ATOM     28  N   UNL     1      -0.394  -3.591  -0.077  1.00  0.00    -0.364 N 
ATOM     29  O   UNL     1       1.702  -2.842  -0.207  1.00  0.00    -0.268 OA
ATOM     30  H   UNL     1      -1.356  -3.395  -0.003  1.00  0.00     0.160 HD
ATOM     31  H   UNL     1      -0.083  -4.524  -0.122  1.00  0.00     0.160 HD
ENDBRANCH  25  27
ENDBRANCH  18  21
ENDBRANCH   9  18
ENDBRANCH   5   8
ENDBRANCH   3   4
ENDBRANCH   2   3
ENDBRANCH   1   2
BRANCH   1  32
ATOM     32  C   UNL     1      -7.200   2.548  -8.889  1.00  0.00     0.002 C 
BRANCH  32  33
ATOM     33  C   UNL     1      -5.855   3.214  -9.187  1.00  0.00     0.021 C 
BRANCH  33  34
ATOM     34  C   UNL     1      -4.939   2.401 -10.097  1.00  0.00     0.116 C 
BRANCH  34  35
ATOM     35  N   UNL     1      -5.495   2.265 -11.434  1.00  0.00    -0.352 N 
ATOM     36  C   UNL     1      -4.946   2.614 -12.642  1.00  0.00     0.251 C 
ATOM     37  H   UNL     1      -6.393   1.865 -11.479  1.00  0.00     0.163 HD
ATOM     38  O   UNL     1      -5.639   2.640 -13.654  1.00  0.00    -0.269 OA
BRANCH  36  39
ATOM     39  C   UNL     1      -3.514   2.968 -12.723  1.00  0.00     0.039 A 
ATOM     40  C   UNL     1      -3.134   4.083 -13.474  1.00  0.00     0.014 A 
ATOM     41  C   UNL     1      -2.547   2.189 -12.081  1.00  0.00     0.014 A 
ATOM     42  C   UNL     1      -1.787   4.447 -13.541  1.00  0.00     0.010 A 
ATOM     43  C   UNL     1      -1.214   2.588 -12.095  1.00  0.00     0.010 A 
ATOM     44  C   UNL     1      -0.820   3.717 -12.830  1.00  0.00    -0.014 A 
BRANCH  44  45
ATOM     45  C   UNL     1       0.611   4.111 -12.855  1.00  0.00     0.031 A 
ATOM     46  C   UNL     1       1.629   3.201 -13.485  1.00  0.00     0.074 A 
ATOM     47  C   UNL     1       0.998   5.257 -12.263  1.00  0.00     0.049 A 
ATOM     48  N   UNL     1       2.932   3.323 -13.533  1.00  0.00    -0.248 NA
ATOM     49  C   UNL     1       1.117   1.980 -14.126  1.00  0.00     0.031 C 
ATOM     50  C   UNL     1       0.109   6.202 -11.586  1.00  0.00     0.029 A 
ATOM     51  N   UNL     1       2.244   5.816 -12.125  1.00  0.00    -0.354 N 
ATOM     52  C   UNL     1       3.392   2.198 -14.204  1.00  0.00     0.074 A 
ATOM     53  C   UNL     1       2.237   1.375 -14.493  1.00  0.00     0.031 C 
ATOM     54  C   UNL     1       0.835   7.229 -11.115  1.00  0.00     0.029 A 
ATOM     55  C   UNL     1       2.243   6.997 -11.424  1.00  0.00     0.049 A 
ATOM     56  H   UNL     1       3.062   5.408 -12.492  1.00  0.00     0.167 HD
ATOM     57  C   UNL     1       4.659   1.893 -14.573  1.00  0.00     0.037 A 
ATOM     58  C   UNL     1       3.265   7.796 -11.063  1.00  0.00     0.037 A 
ATOM     59  C   UNL     1       5.804   2.720 -14.297  1.00  0.00     0.049 A 
ATOM     60  C   UNL     1       4.666   7.422 -11.469  1.00  0.00     0.074 A 
ATOM     61  C   UNL     1       7.127   2.509 -14.643  1.00  0.00     0.029 A 
ATOM     62  N   UNL     1       5.758   3.924 -13.609  1.00  0.00    -0.354 N 
ATOM     63  N   UNL     1       5.082   6.379 -12.145  1.00  0.00    -0.248 NA
ATOM     64  C   UNL     1       5.739   8.342 -11.068  1.00  0.00     0.031 C 
ATOM     65  C   UNL     1       7.887   3.568 -14.138  1.00  0.00     0.029 A 
ATOM     66  C   UNL     1       7.032   4.462 -13.515  1.00  0.00     0.049 A 
ATOM     67  H   UNL     1       4.942   4.335 -13.242  1.00  0.00     0.167 HD
ATOM     68  C   UNL     1       6.455   6.533 -12.278  1.00  0.00     0.074 A 
ATOM     69  C   UNL     1       6.801   7.779 -11.627  1.00  0.00     0.031 C 
ATOM     70  C   UNL     1       7.351   5.715 -12.881  1.00  0.00     0.037 A 
BRANCH  57  71
ATOM     71  C   UNL     1       4.872   0.618 -15.335  1.00  0.00     0.064 A 
ATOM     72  C   UNL     1       4.440   0.482 -16.663  1.00  0.00     0.173 A 
ATOM     73  C   UNL     1       5.557  -0.460 -14.754  1.00  0.00     0.173 A 
ATOM     74  F   UNL     1       3.770   1.480 -17.260  1.00  0.00    -0.203 F 
ATOM     75  C   UNL     1       4.666  -0.693 -17.374  1.00  0.00     0.198 A 
ATOM     76  C   UNL     1       5.806  -1.623 -15.478  1.00  0.00     0.198 A 
ATOM     77  F   UNL     1       5.996  -0.380 -13.489  1.00  0.00    -0.203 F 
ATOM     78  F   UNL     1       4.207  -0.814 -18.627  1.00  0.00    -0.200 F 
ATOM     79  C   UNL     1       5.356  -1.741 -16.784  1.00  0.00     0.200 A 
ATOM     80  F   UNL     1       6.484  -2.631 -14.911  1.00  0.00    -0.200 F 
ATOM     81  F   UNL     1       5.582  -2.868 -17.474  1.00  0.00    -0.200 F 
ENDBRANCH  57  71
BRANCH  58  82
ATOM     82  C   UNL     1       3.009   9.035 -10.282  1.00  0.00     0.064 A 
ATOM     83  C   UNL     1       3.215  10.300 -10.849  1.00  0.00     0.173 A 
ATOM     84  C   UNL     1       2.584   8.980  -8.946  1.00  0.00     0.173 A 
ATOM     85  F   UNL     1       3.641  10.404 -12.116  1.00  0.00    -0.203 F 
ATOM     86  C   UNL     1       3.040  11.462 -10.100  1.00  0.00     0.198 A 
ATOM     87  C   UNL     1       2.379  10.144  -8.208  1.00  0.00     0.198 A 
ATOM     88  F   UNL     1       2.366   7.795  -8.358  1.00  0.00    -0.203 F 
ATOM     89  F   UNL     1       3.303  12.656 -10.649  1.00  0.00    -0.200 F 
ATOM     90  C   UNL     1       2.619  11.383  -8.782  1.00  0.00     0.200 A 
ATOM     91  F   UNL     1       1.958  10.064  -6.938  1.00  0.00    -0.200 F 
ATOM     92  F   UNL     1       2.455  12.501  -8.060  1.00  0.00    -0.200 F 
ENDBRANCH  58  82
BRANCH  70  93
ATOM     93  C   UNL     1       8.783   6.163 -12.905  1.00  0.00     0.064 A 
ATOM     94  C   UNL     1       9.577   6.153 -11.749  1.00  0.00     0.173 A 
ATOM     95  C   UNL     1       9.376   6.574 -14.108  1.00  0.00     0.173 A 
ATOM     96  F   UNL     1       9.051   5.783 -10.572  1.00  0.00    -0.203 F 
ATOM     97  C   UNL     1      10.907   6.564 -11.792  1.00  0.00     0.198 A 
ATOM     98  C   UNL     1      10.714   6.956 -14.153  1.00  0.00     0.198 A 
ATOM     99  F   UNL     1       8.661   6.595 -15.242  1.00  0.00    -0.203 F 
ATOM    100  F   UNL     1      11.634   6.592 -10.667  1.00  0.00    -0.200 F 
ATOM    101  C   UNL     1      11.476   6.958 -12.994  1.00  0.00     0.200 A 
ATOM    102  F   UNL     1      11.265   7.324 -15.318  1.00  0.00    -0.200 F 
ATOM    103  F   UNL     1      12.757   7.347 -13.035  1.00  0.00    -0.200 F 
ENDBRANCH  70  93
ENDBRANCH  44  45
ENDBRANCH  36  39
ENDBRANCH  34  35
ENDBRANCH  33  34
ENDBRANCH  32  33
ENDBRANCH   1  32
TORSDOF 16
