REMARK SMILES C[C@H](C(=O)NCCCCCCNC(=O)c1ccc(-c2c3nc(c(-c4c(F)c(F)c(F)c(F)c4F)c4ccc([nH]4)c(-c4c(F)c(F)c(F)c(F)c4F)c4nc(c(-c5c(F)c(F)c(F)c(F)c5F)c5ccc2[nH]5)C=C4)C=C3)cc1)c1cccc(C(=O)c2ccccc2)c1
REMARK SMILES IDX 8 1 7 2 6 3 5 4 3 5 4 6 2 8 1 9 78 10 79 11 91 12 80 13
REMARK SMILES IDX 82 14 81 15 83 16 84 17 85 18 86 19 90 20 87 21 89 22 88 23
REMARK SMILES IDX 9 24 10 25 11 26 12 27 13 28 14 30 15 31 16 32 77 33 17 34
REMARK SMILES IDX 76 35 18 36 19 37 20 38 70 39 21 40 75 41 69 42 71 43 22 44
REMARK SMILES IDX 74 45 68 46 67 47 23 49 55 50 35 51 54 52 36 53 39 54 53 55
REMARK SMILES IDX 72 56 37 57 38 58 52 60 73 61 40 62 24 63 25 64 33 65 26 66
REMARK SMILES IDX 27 67 31 68 34 69 28 70 29 71 32 72 30 73 56 74 57 75 65 76
REMARK SMILES IDX 58 77 59 78 63 79 66 80 60 81 61 82 64 83 62 84 41 85 42 86
REMARK SMILES IDX 50 87 43 88 44 89 48 90 51 91 45 92 46 93 49 94 47 95
REMARK H PARENT 5 7 12 29 71 48 39 59
REMARK Flexibility Score: inf
ROOT
ATOM      1  C   UNL     1      -1.620  -0.639   3.199  1.00  0.00     0.002 C 
ENDROOT
BRANCH   1   2
ATOM      2  C   UNL     1      -1.779   0.132   1.885  1.00  0.00     0.021 C 
BRANCH   2   3
ATOM      3  C   UNL     1      -0.634   1.098   1.573  1.00  0.00     0.116 C 
BRANCH   3   4
ATOM      4  N   UNL     1       0.539   0.378   1.112  1.00  0.00    -0.356 N 
ATOM      5  C   UNL     1       0.972   0.086  -0.149  1.00  0.00     0.227 C 
ATOM      6  O   UNL     1       1.939  -0.678  -0.229  1.00  0.00    -0.274 OA
ATOM      7  H   UNL     1       1.121   0.042   1.831  1.00  0.00     0.163 HD
BRANCH   5   8
ATOM      8  C   UNL     1       0.361   0.749  -1.400  1.00  0.00     0.105 C 
ATOM      9  C   UNL     1       1.040   0.211  -2.668  1.00  0.00     0.023 C 
BRANCH   8  10
ATOM     10  C   UNL     1      -1.149   0.608  -1.533  1.00  0.00    -0.035 A 
ATOM     11  C   UNL     1      -1.945   1.760  -1.644  1.00  0.00     0.004 A 
ATOM     12  C   UNL     1      -1.774  -0.650  -1.499  1.00  0.00     0.016 A 
ATOM     13  C   UNL     1      -3.335   1.666  -1.623  1.00  0.00     0.001 A 
ATOM     14  C   UNL     1      -3.171  -0.749  -1.429  1.00  0.00     0.023 A 
ATOM     15  C   UNL     1      -3.944   0.419  -1.494  1.00  0.00     0.012 A 
BRANCH  14  16
ATOM     16  C   UNL     1      -3.885  -2.047  -1.248  1.00  0.00     0.193 C 
ATOM     17  O   UNL     1      -5.112  -2.079  -1.210  1.00  0.00    -0.289 OA
BRANCH  16  18
ATOM     18  C   UNL     1      -3.158  -3.327  -1.134  1.00  0.00     0.022 A 
ATOM     19  C   UNL     1      -3.426  -4.319  -2.080  1.00  0.00     0.012 A 
ATOM     20  C   UNL     1      -2.251  -3.566  -0.096  1.00  0.00     0.012 A 
ATOM     21  C   UNL     1      -2.745  -5.534  -2.018  1.00  0.00     0.001 A 
ATOM     22  C   UNL     1      -1.567  -4.780  -0.043  1.00  0.00     0.001 A 
ATOM     23  C   UNL     1      -1.810  -5.760  -1.007  1.00  0.00     0.000 A 
ENDBRANCH  16  18
ENDBRANCH  14  16
ENDBRANCH   8  10
ENDBRANCH   5   8
ENDBRANCH   3   4
ENDBRANCH   2   3
ENDBRANCH   1   2
BRANCH   1  24
ATOM     24  C   UNL     1      -1.786   0.207   4.463  1.00  0.00     0.002 C 
BRANCH  24  25
ATOM     25  C   UNL     1      -3.113   0.965   4.570  1.00  0.00     0.021 C 
BRANCH  25  26
ATOM     26  C   UNL     1      -4.362   0.088   4.522  1.00  0.00     0.116 C 
BRANCH  26  27
ATOM     27  N   UNL     1      -4.451  -0.788   5.680  1.00  0.00    -0.352 N 
ATOM     28  C   UNL     1      -5.459  -0.914   6.597  1.00  0.00     0.251 C 
ATOM     29  H   UNL     1      -3.675  -1.376   5.824  1.00  0.00     0.163 HD
ATOM     30  O   UNL     1      -5.269  -1.549   7.638  1.00  0.00    -0.269 OA
BRANCH  28  31
ATOM     31  C   UNL     1      -6.777  -0.288   6.359  1.00  0.00     0.039 A 
ATOM     32  C   UNL     1      -7.423   0.352   7.420  1.00  0.00     0.014 A 
ATOM     33  C   UNL     1      -7.402  -0.378   5.111  1.00  0.00     0.014 A 
ATOM     34  C   UNL     1      -8.680   0.929   7.224  1.00  0.00     0.010 A 
ATOM     35  C   UNL     1      -8.627   0.253   4.899  1.00  0.00     0.010 A 
ATOM     36  C   UNL     1      -9.286   0.895   5.958  1.00  0.00    -0.014 A 
BRANCH  36  37
ATOM     37  C   UNL     1     -10.629   1.490   5.740  1.00  0.00     0.031 A 
ATOM     38  C   UNL     1     -11.802   0.605   5.422  1.00  0.00     0.074 A 
ATOM     39  C   UNL     1     -10.785   2.827   5.786  1.00  0.00     0.049 A 
ATOM     40  N   UNL     1     -13.045   0.933   5.173  1.00  0.00    -0.248 NA
ATOM     41  C   UNL     1     -11.538  -0.841   5.350  1.00  0.00     0.031 C 
ATOM     42  C   UNL     1      -9.718   3.794   6.042  1.00  0.00     0.029 A 
ATOM     43  N   UNL     1     -11.905   3.602   5.615  1.00  0.00    -0.354 N 
ATOM     44  C   UNL     1     -13.701  -0.259   4.893  1.00  0.00     0.074 A 
ATOM     45  C   UNL     1     -12.712  -1.312   4.959  1.00  0.00     0.031 C 
ATOM     46  C   UNL     1     -10.238   5.032   6.038  1.00  0.00     0.029 A 
ATOM     47  C   UNL     1     -11.668   4.948   5.753  1.00  0.00     0.049 A 
ATOM     48  H   UNL     1     -12.793   3.229   5.413  1.00  0.00     0.167 HD
ATOM     49  C   UNL     1     -15.014  -0.460   4.625  1.00  0.00     0.037 A 
ATOM     50  C   UNL     1     -12.512   5.993   5.664  1.00  0.00     0.037 A 
ATOM     51  C   UNL     1     -16.004   0.585   4.599  1.00  0.00     0.049 A 
ATOM     52  C   UNL     1     -13.969   5.741   5.385  1.00  0.00     0.074 A 
ATOM     53  C   UNL     1     -17.371   0.475   4.413  1.00  0.00     0.029 A 
ATOM     54  N   UNL     1     -15.729   1.934   4.764  1.00  0.00    -0.354 N 
ATOM     55  N   UNL     1     -14.592   4.603   5.199  1.00  0.00    -0.248 NA
ATOM     56  C   UNL     1     -14.842   6.922   5.315  1.00  0.00     0.031 C 
ATOM     57  C   UNL     1     -17.919   1.763   4.428  1.00  0.00     0.029 A 
ATOM     58  C   UNL     1     -16.899   2.670   4.666  1.00  0.00     0.049 A 
ATOM     59  H   UNL     1     -14.835   2.313   4.927  1.00  0.00     0.167 HD
ATOM     60  C   UNL     1     -15.931   4.926   5.024  1.00  0.00     0.074 A 
ATOM     61  C   UNL     1     -16.032   6.366   5.136  1.00  0.00     0.031 C 
ATOM     62  C   UNL     1     -16.983   4.102   4.794  1.00  0.00     0.037 A 
BRANCH  49  63
ATOM     63  C   UNL     1     -15.455  -1.866   4.339  1.00  0.00     0.064 A 
ATOM     64  C   UNL     1     -15.498  -2.844   5.344  1.00  0.00     0.173 A 
ATOM     65  C   UNL     1     -15.865  -2.233   3.048  1.00  0.00     0.173 A 
ATOM     66  F   UNL     1     -15.107  -2.547   6.592  1.00  0.00    -0.203 F 
ATOM     67  C   UNL     1     -15.903  -4.146   5.061  1.00  0.00     0.198 A 
ATOM     68  C   UNL     1     -16.298  -3.529   2.775  1.00  0.00     0.198 A 
ATOM     69  F   UNL     1     -15.851  -1.335   2.052  1.00  0.00    -0.203 F 
ATOM     70  F   UNL     1     -15.887  -5.076   6.026  1.00  0.00    -0.200 F 
ATOM     71  C   UNL     1     -16.308  -4.486   3.779  1.00  0.00     0.200 A 
ATOM     72  F   UNL     1     -16.701  -3.852   1.539  1.00  0.00    -0.200 F 
ATOM     73  F   UNL     1     -16.702  -5.738   3.509  1.00  0.00    -0.200 F 
ENDBRANCH  49  63
BRANCH  50  74
ATOM     74  C   UNL     1     -12.011   7.372   5.891  1.00  0.00     0.064 A 
ATOM     75  C   UNL     1     -12.358   8.077   7.052  1.00  0.00     0.173 A 
ATOM     76  C   UNL     1     -11.181   8.013   4.960  1.00  0.00     0.173 A 
ATOM     77  F   UNL     1     -13.166   7.511   7.961  1.00  0.00    -0.203 F 
ATOM     78  C   UNL     1     -11.911   9.379   7.265  1.00  0.00     0.198 A 
ATOM     79  C   UNL     1     -10.714   9.306   5.186  1.00  0.00     0.198 A 
ATOM     80  F   UNL     1     -10.817   7.380   3.836  1.00  0.00    -0.203 F 
ATOM     81  F   UNL     1     -12.292  10.044   8.363  1.00  0.00    -0.200 F 
ATOM     82  C   UNL     1     -11.085   9.991   6.334  1.00  0.00     0.200 A 
ATOM     83  F   UNL     1      -9.906   9.891   4.291  1.00  0.00    -0.200 F 
ATOM     84  F   UNL     1     -10.652  11.242   6.541  1.00  0.00    -0.200 F 
ENDBRANCH  50  74
BRANCH  62  85
ATOM     85  C   UNL     1     -18.340   4.735   4.692  1.00  0.00     0.064 A 
ATOM     86  C   UNL     1     -18.719   5.489   3.572  1.00  0.00     0.173 A 
ATOM     87  C   UNL     1     -19.283   4.556   5.716  1.00  0.00     0.173 A 
ATOM     88  F   UNL     1     -17.847   5.701   2.575  1.00  0.00    -0.203 F 
ATOM     89  C   UNL     1     -19.984   6.064   3.493  1.00  0.00     0.198 A 
ATOM     90  C   UNL     1     -20.556   5.109   5.620  1.00  0.00     0.198 A 
ATOM     91  F   UNL     1     -18.971   3.838   6.805  1.00  0.00    -0.203 F 
ATOM     92  F   UNL     1     -20.309   6.821   2.436  1.00  0.00    -0.200 F 
ATOM     93  C   UNL     1     -20.904   5.868   4.513  1.00  0.00     0.200 A 
ATOM     94  F   UNL     1     -21.447   4.910   6.602  1.00  0.00    -0.200 F 
ATOM     95  F   UNL     1     -22.122   6.420   4.433  1.00  0.00    -0.200 F 
ENDBRANCH  62  85
ENDBRANCH  36  37
ENDBRANCH  28  31
ENDBRANCH  26  27
ENDBRANCH  25  26
ENDBRANCH  24  25
ENDBRANCH   1  24
TORSDOF 16
