REMARK SMILES CC(C)c1cccc2c1N[C@H](c1ccc(C(=O)NCCCCCCNC(=O)c3ccc(-c4c5nc(c(-c6c(F)c(F)c(F)c(F)c6F)c6ccc([nH]6)c(-c6c(F)c(F)c(F)c(F)c6F)c6nc(c(-c7c(F)c(F)c(F)c(F)c7F)c7ccc4[nH]7)C=C6)C=C5)cc3)cc1)[C@H]1CC=C[C@H]21
REMARK SMILES IDX 21 1 20 2 19 3 18 4 16 5 17 6 15 8 12 9 13 10 92 11 14 12
REMARK SMILES IDX 91 13 11 14 4 15 5 16 9 17 6 18 8 19 10 20 7 21 97 22 93 24
REMARK SMILES IDX 96 25 94 26 95 27 2 28 1 29 3 30 22 31 23 32 24 33 25 34
REMARK SMILES IDX 26 35 27 37 28 38 29 39 90 40 30 41 89 42 31 43 32 44 33 45
REMARK SMILES IDX 83 46 34 47 88 48 82 49 84 50 35 51 87 52 81 53 80 54 36 56
REMARK SMILES IDX 68 57 48 58 67 59 49 60 52 61 66 62 85 63 50 64 51 65 65 67
REMARK SMILES IDX 86 68 53 69 37 70 38 71 46 72 39 73 40 74 44 75 47 76 41 77
REMARK SMILES IDX 42 78 45 79 43 80 69 81 70 82 78 83 71 84 72 85 76 86 79 87
REMARK SMILES IDX 73 88 74 89 77 90 75 91 54 92 55 93 63 94 56 95 57 96 61 97
REMARK SMILES IDX 64 98 58 99 59 100 62 101 60 102
REMARK H PARENT 18 7 10 23 25 36 84 55 52 66
REMARK Flexibility Score: inf
ROOT
ATOM      1  C   UNL     1      -1.087   6.915   7.837  1.00  0.00     0.002 C 
ENDROOT
BRANCH   1   2
ATOM      2  C   UNL     1      -1.200   5.775   6.825  1.00  0.00     0.021 C 
BRANCH   2   3
ATOM      3  C   UNL     1      -1.130   6.162   5.354  1.00  0.00     0.116 C 
BRANCH   3   4
ATOM      4  N   UNL     1       0.151   6.691   4.910  1.00  0.00    -0.352 N 
ATOM      5  C   UNL     1       0.764   6.548   3.676  1.00  0.00     0.251 C 
ATOM      6  O   UNL     1       1.876   7.029   3.478  1.00  0.00    -0.269 OA
ATOM      7  H   UNL     1       0.648   7.221   5.574  1.00  0.00     0.163 HD
BRANCH   5   8
ATOM      8  C   UNL     1       0.100   5.753   2.612  1.00  0.00     0.039 A 
ATOM      9  C   UNL     1      -1.270   3.811   1.072  1.00  0.00    -0.025 A 
ATOM     10  C   UNL     1       0.139   3.872   1.089  1.00  0.00     0.006 A 
ATOM     11  C   UNL     1      -1.935   4.897   1.655  1.00  0.00     0.006 A 
ATOM     12  C   UNL     1       0.822   4.813   1.878  1.00  0.00     0.014 A 
ATOM     13  C   UNL     1      -1.262   5.877   2.382  1.00  0.00     0.014 A 
BRANCH   9  14
ATOM     14  C   UNL     1      -2.022   2.628   0.425  1.00  0.00     0.114 C 
ATOM     15  C   UNL     1      -1.026  -1.069   0.835  1.00  0.00    -0.022 A 
ATOM     16  C   UNL     1      -1.664  -2.330   0.923  1.00  0.00     0.006 A 
ATOM     17  C   UNL     1      -1.825   0.095   0.719  1.00  0.00     0.042 A 
ATOM     18  C   UNL     1      -3.044  -2.462   0.836  1.00  0.00     0.001 A 
ATOM     19  C   UNL     1      -3.224  -0.066   0.568  1.00  0.00    -0.017 A 
ATOM     20  N   UNL     1      -1.268   1.374   0.693  1.00  0.00    -0.377 N 
ATOM     21  C   UNL     1      -3.820  -1.335   0.630  1.00  0.00     0.006 A 
ATOM     22  C   UNL     1      -4.022   1.146   0.200  1.00  0.00     0.049 C 
ATOM     23  H   UNL     1      -0.302   1.452   0.864  1.00  0.00     0.161 HD
ATOM     24  C   UNL     1      -3.473   2.397   0.906  1.00  0.00     0.031 C 
ATOM     25  C   UNL     1      -5.478   1.246   0.550  1.00  0.00    -0.023 C 
ATOM     26  C   UNL     1      -4.598   3.408   0.630  1.00  0.00     0.034 C 
ATOM     27  C   UNL     1      -5.809   2.530   0.733  1.00  0.00    -0.030 C 
BRANCH  15  28
ATOM     28  C   UNL     1       0.500  -1.116   0.865  1.00  0.00     0.015 C 
ATOM     29  C   UNL     1       1.226  -0.193  -0.116  1.00  0.00     0.012 C 
ATOM     30  C   UNL     1       1.027  -0.953   2.291  1.00  0.00     0.012 C 
ENDBRANCH  15  28
ENDBRANCH   9  14
ENDBRANCH   5   8
ENDBRANCH   3   4
ENDBRANCH   2   3
ENDBRANCH   1   2
BRANCH   1  31
ATOM     31  C   UNL     1      -2.060   8.085   7.671  1.00  0.00     0.002 C 
BRANCH  31  32
ATOM     32  C   UNL     1      -3.547   7.739   7.579  1.00  0.00     0.021 C 
BRANCH  32  33
ATOM     33  C   UNL     1      -4.109   6.863   8.693  1.00  0.00     0.116 C 
BRANCH  33  34
ATOM     34  N   UNL     1      -3.995   7.455  10.015  1.00  0.00    -0.352 N 
ATOM     35  C   UNL     1      -4.950   7.642  10.990  1.00  0.00     0.251 C 
ATOM     36  H   UNL     1      -3.094   7.773  10.252  1.00  0.00     0.163 HD
ATOM     37  O   UNL     1      -4.671   8.252  12.013  1.00  0.00    -0.269 OA
BRANCH  35  38
ATOM     38  C   UNL     1      -6.333   7.146  10.787  1.00  0.00     0.039 A 
ATOM     39  C   UNL     1      -6.579   5.876  10.264  1.00  0.00     0.014 A 
ATOM     40  C   UNL     1      -7.405   7.978  11.126  1.00  0.00     0.014 A 
ATOM     41  C   UNL     1      -7.877   5.513   9.914  1.00  0.00     0.010 A 
ATOM     42  C   UNL     1      -8.717   7.575  10.854  1.00  0.00     0.010 A 
ATOM     43  C   UNL     1      -8.961   6.361  10.195  1.00  0.00    -0.014 A 
BRANCH  43  44
ATOM     44  C   UNL     1     -10.332   5.961   9.780  1.00  0.00     0.031 A 
ATOM     45  C   UNL     1     -11.081   6.748   8.738  1.00  0.00     0.074 A 
ATOM     46  C   UNL     1     -10.878   4.842  10.295  1.00  0.00     0.049 A 
ATOM     47  N   UNL     1     -12.265   6.520   8.222  1.00  0.00    -0.248 NA
ATOM     48  C   UNL     1     -10.420   7.949   8.202  1.00  0.00     0.031 C 
ATOM     49  C   UNL     1     -10.247   3.987  11.301  1.00  0.00     0.029 A 
ATOM     50  N   UNL     1     -12.068   4.215  10.024  1.00  0.00    -0.354 N 
ATOM     51  C   UNL     1     -12.491   7.547   7.314  1.00  0.00     0.074 A 
ATOM     52  C   UNL     1     -11.341   8.423   7.374  1.00  0.00     0.031 C 
ATOM     53  C   UNL     1     -11.024   2.916  11.517  1.00  0.00     0.029 A 
ATOM     54  C   UNL     1     -12.237   3.038  10.713  1.00  0.00     0.049 A 
ATOM     55  H   UNL     1     -12.737   4.573   9.397  1.00  0.00     0.167 HD
ATOM     56  C   UNL     1     -13.552   7.732   6.492  1.00  0.00     0.037 A 
ATOM     57  C   UNL     1     -13.255   2.157  10.704  1.00  0.00     0.037 A 
ATOM     58  C   UNL     1     -14.689   6.851   6.421  1.00  0.00     0.049 A 
ATOM     59  C   UNL     1     -14.446   2.418   9.827  1.00  0.00     0.074 A 
ATOM     60  C   UNL     1     -15.807   6.951   5.611  1.00  0.00     0.029 A 
ATOM     61  N   UNL     1     -14.852   5.706   7.187  1.00  0.00    -0.354 N 
ATOM     62  N   UNL     1     -14.642   3.389   8.969  1.00  0.00    -0.248 NA
ATOM     63  C   UNL     1     -15.562   1.467   9.923  1.00  0.00     0.031 C 
ATOM     64  C   UNL     1     -16.666   5.892   5.917  1.00  0.00     0.029 A 
ATOM     65  C   UNL     1     -16.062   5.103   6.883  1.00  0.00     0.049 A 
ATOM     66  H   UNL     1     -14.204   5.372   7.849  1.00  0.00     0.167 HD
ATOM     67  C   UNL     1     -15.892   3.159   8.412  1.00  0.00     0.074 A 
ATOM     68  C   UNL     1     -16.403   1.946   9.017  1.00  0.00     0.031 C 
ATOM     69  C   UNL     1     -16.556   3.892   7.487  1.00  0.00     0.037 A 
BRANCH  56  70
ATOM     70  C   UNL     1     -13.542   8.934   5.593  1.00  0.00     0.064 A 
ATOM     71  C   UNL     1     -12.695   9.007   4.476  1.00  0.00     0.173 A 
ATOM     72  C   UNL     1     -14.440   9.992   5.804  1.00  0.00     0.173 A 
ATOM     73  F   UNL     1     -11.812   8.027   4.234  1.00  0.00    -0.203 F 
ATOM     74  C   UNL     1     -12.738  10.100   3.615  1.00  0.00     0.198 A 
ATOM     75  C   UNL     1     -14.499  11.070   4.925  1.00  0.00     0.198 A 
ATOM     76  F   UNL     1     -15.278   9.968   6.852  1.00  0.00    -0.203 F 
ATOM     77  F   UNL     1     -11.896  10.162   2.573  1.00  0.00    -0.200 F 
ATOM     78  C   UNL     1     -13.645  11.126   3.834  1.00  0.00     0.200 A 
ATOM     79  F   UNL     1     -15.386  12.053   5.130  1.00  0.00    -0.200 F 
ATOM     80  F   UNL     1     -13.695  12.169   2.994  1.00  0.00    -0.200 F 
ENDBRANCH  56  70
BRANCH  57  81
ATOM     81  C   UNL     1     -13.174   0.936  11.546  1.00  0.00     0.064 A 
ATOM     82  C   UNL     1     -13.023  -0.329  10.963  1.00  0.00     0.173 A 
ATOM     83  C   UNL     1     -13.210   1.010  12.947  1.00  0.00     0.173 A 
ATOM     84  F   UNL     1     -13.003  -0.453   9.628  1.00  0.00    -0.203 F 
ATOM     85  C   UNL     1     -12.912  -1.475  11.749  1.00  0.00     0.198 A 
ATOM     86  C   UNL     1     -13.070  -0.133  13.732  1.00  0.00     0.198 A 
ATOM     87  F   UNL     1     -13.351   2.197  13.553  1.00  0.00    -0.203 F 
ATOM     88  F   UNL     1     -12.795  -2.675  11.166  1.00  0.00    -0.200 F 
ATOM     89  C   UNL     1     -12.925  -1.374  13.132  1.00  0.00     0.200 A 
ATOM     90  F   UNL     1     -13.067  -0.029  15.068  1.00  0.00    -0.200 F 
ATOM     91  F   UNL     1     -12.800  -2.474  13.887  1.00  0.00    -0.200 F 
ENDBRANCH  57  81
BRANCH  69  92
ATOM     92  C   UNL     1     -17.904   3.402   7.048  1.00  0.00     0.064 A 
ATOM     93  C   UNL     1     -19.030   3.519   7.875  1.00  0.00     0.173 A 
ATOM     94  C   UNL     1     -18.087   2.884   5.756  1.00  0.00     0.173 A 
ATOM     95  F   UNL     1     -18.904   3.995   9.123  1.00  0.00    -0.203 F 
ATOM     96  C   UNL     1     -20.289   3.126   7.428  1.00  0.00     0.198 A 
ATOM     97  C   UNL     1     -19.351   2.518   5.304  1.00  0.00     0.198 A 
ATOM     98  F   UNL     1     -17.042   2.759   4.924  1.00  0.00    -0.203 F 
ATOM     99  F   UNL     1     -21.347   3.219   8.246  1.00  0.00    -0.200 F 
ATOM    100  C   UNL     1     -20.450   2.636   6.141  1.00  0.00     0.200 A 
ATOM    101  F   UNL     1     -19.506   2.059   4.054  1.00  0.00    -0.200 F 
ATOM    102  F   UNL     1     -21.666   2.277   5.706  1.00  0.00    -0.200 F 
ENDBRANCH  69  92
ENDBRANCH  43  44
ENDBRANCH  35  38
ENDBRANCH  33  34
ENDBRANCH  32  33
ENDBRANCH  31  32
ENDBRANCH   1  31
TORSDOF 15
