REMARK SMILES CS(=O)(=O)c1ccc(/C=C(/C(=O)NCCCCCCNC(=O)c2ccc(-c3c4nc(c(-c5c(F)c(F)c(F)c(F)c5F)c5ccc([nH]5)c(-c5c(F)c(F)c(F)c(F)c5F)c5nc(c(-c6c(F)c(F)c(F)c(F)c6F)c6ccc3[nH]6)C=C5)C=C4)cc2)c2ccc(-c3ccc(F)cc3F)cc2)cc1
REMARK SMILES IDX 16 1 15 2 14 3 13 4 11 5 12 6 10 8 9 9 8 10 5 11 6 12 101 13
REMARK SMILES IDX 7 14 100 15 2 16 1 17 3 18 4 19 86 20 87 21 99 22 88 23
REMARK SMILES IDX 98 24 89 25 90 26 91 27 96 28 92 29 95 30 97 31 93 32 94 33
REMARK SMILES IDX 17 34 18 35 19 36 20 37 21 38 22 40 23 41 24 42 85 43 25 44
REMARK SMILES IDX 84 45 26 46 27 47 28 48 78 49 29 50 83 51 77 52 79 53 30 54
REMARK SMILES IDX 82 55 76 56 75 57 31 59 63 60 43 61 62 62 44 63 47 64 61 65
REMARK SMILES IDX 80 66 45 67 46 68 60 70 81 71 48 72 32 73 33 74 41 75 34 76
REMARK SMILES IDX 35 77 39 78 42 79 36 80 37 81 40 82 38 83 64 84 65 85 73 86
REMARK SMILES IDX 66 87 67 88 71 89 74 90 68 91 69 92 72 93 70 94 49 95 50 96
REMARK SMILES IDX 58 97 51 98 52 99 56 100 59 101 53 102 54 103 57 104 55 105
REMARK H PARENT 13 7 20 39 79 58 47 69
REMARK Flexibility Score: inf
ROOT
ATOM      1  C   UNL     1       2.014  -5.243  10.380  1.00  0.00     0.002 C 
ENDROOT
BRANCH   1   2
ATOM      2  C   UNL     1       1.855  -4.306   9.171  1.00  0.00     0.021 C 
BRANCH   2   3
ATOM      3  C   UNL     1       2.804  -4.632   8.013  1.00  0.00     0.116 C 
BRANCH   3   4
ATOM      4  N   UNL     1       2.394  -5.868   7.379  1.00  0.00    -0.352 N 
ATOM      5  C   UNL     1       1.714  -6.174   6.245  1.00  0.00     0.251 C 
ATOM      6  O   UNL     1       1.460  -7.370   6.082  1.00  0.00    -0.269 OA
ATOM      7  H   UNL     1       2.670  -6.666   7.885  1.00  0.00     0.163 HD
BRANCH   5   8
ATOM      8  C   UNL     1       1.351  -5.166   5.179  1.00  0.00     0.047 C 
ATOM      9  C   UNL     1       1.036  -3.879   5.455  1.00  0.00     0.022 C 
BRANCH   9  10
ATOM     10  C   UNL     1       0.763  -2.761   4.520  1.00  0.00    -0.025 A 
ATOM     11  C   UNL     1       0.445  -0.589   2.766  1.00  0.00     0.067 A 
ATOM     12  C   UNL     1      -0.271  -1.768   2.550  1.00  0.00     0.021 A 
ATOM     13  C   UNL     1       1.275  -0.461   3.879  1.00  0.00     0.021 A 
ATOM     14  C   UNL     1      -0.122  -2.840   3.437  1.00  0.00     0.009 A 
ATOM     15  C   UNL     1       1.433  -1.547   4.747  1.00  0.00     0.009 A 
BRANCH  11  16
ATOM     16  S   UNL     1       0.254   0.768   1.635  1.00  0.00     0.175 S 
ATOM     17  C   UNL     1       1.055   0.207   0.154  1.00  0.00     0.163 C 
ATOM     18  O   UNL     1       1.015   1.885   2.151  1.00  0.00    -0.224 OA
ATOM     19  O   UNL     1      -1.169   0.894   1.363  1.00  0.00    -0.224 OA
ENDBRANCH  11  16
ENDBRANCH   9  10
BRANCH   8  20
ATOM     20  C   UNL     1       1.143  -5.699   3.810  1.00  0.00    -0.013 A 
ATOM     21  C   UNL     1       0.033  -6.527   3.591  1.00  0.00     0.009 A 
ATOM     22  C   UNL     1       1.931  -5.326   2.718  1.00  0.00     0.009 A 
ATOM     23  C   UNL     1      -0.332  -6.904   2.301  1.00  0.00     0.009 A 
ATOM     24  C   UNL     1       1.550  -5.695   1.419  1.00  0.00     0.009 A 
ATOM     25  C   UNL     1       0.388  -6.453   1.185  1.00  0.00    -0.015 A 
BRANCH  25  26
ATOM     26  C   UNL     1      -0.118  -6.715  -0.176  1.00  0.00     0.018 A 
ATOM     27  C   UNL     1      -1.488  -6.528  -0.464  1.00  0.00     0.015 A 
ATOM     28  C   UNL     1       0.709  -7.136  -1.229  1.00  0.00     0.133 A 
ATOM     29  C   UNL     1      -2.000  -6.765  -1.741  1.00  0.00     0.040 A 
ATOM     30  C   UNL     1       0.207  -7.373  -2.507  1.00  0.00     0.079 A 
ATOM     31  F   UNL     1       2.021  -7.329  -1.024  1.00  0.00    -0.206 F 
ATOM     32  C   UNL     1      -1.145  -7.186  -2.750  1.00  0.00     0.126 A 
ATOM     33  F   UNL     1      -1.635  -7.411  -3.975  1.00  0.00    -0.207 F 
ENDBRANCH  25  26
ENDBRANCH   8  20
ENDBRANCH   5   8
ENDBRANCH   3   4
ENDBRANCH   2   3
ENDBRANCH   1   2
BRANCH   1  34
ATOM     34  C   UNL     1       3.394  -5.217  11.048  1.00  0.00     0.002 C 
BRANCH  34  35
ATOM     35  C   UNL     1       3.885  -3.828  11.463  1.00  0.00     0.021 C 
BRANCH  35  36
ATOM     36  C   UNL     1       2.984  -3.110  12.462  1.00  0.00     0.116 C 
BRANCH  36  37
ATOM     37  N   UNL     1       2.977  -3.767  13.759  1.00  0.00    -0.352 N 
ATOM     38  C   UNL     1       3.195  -3.228  15.002  1.00  0.00     0.251 C 
ATOM     39  H   UNL     1       2.789  -4.733  13.744  1.00  0.00     0.163 HD
ATOM     40  O   UNL     1       3.343  -3.957  15.978  1.00  0.00    -0.269 OA
BRANCH  38  41
ATOM     41  C   UNL     1       3.271  -1.760  15.165  1.00  0.00     0.039 A 
ATOM     42  C   UNL     1       4.300  -1.219  15.940  1.00  0.00     0.014 A 
ATOM     43  C   UNL     1       2.320  -0.924  14.574  1.00  0.00     0.014 A 
ATOM     44  C   UNL     1       4.405   0.166  16.082  1.00  0.00     0.010 A 
ATOM     45  C   UNL     1       2.459   0.459  14.667  1.00  0.00     0.010 A 
ATOM     46  C   UNL     1       3.499   1.016  15.428  1.00  0.00    -0.014 A 
BRANCH  46  47
ATOM     47  C   UNL     1       3.614   2.491  15.540  1.00  0.00     0.031 A 
ATOM     48  C   UNL     1       2.549   3.277  16.251  1.00  0.00     0.074 A 
ATOM     49  C   UNL     1       4.643   3.127  14.948  1.00  0.00     0.049 A 
ATOM     50  N   UNL     1       2.432   4.573  16.395  1.00  0.00    -0.248 NA
ATOM     51  C   UNL     1       1.455   2.504  16.860  1.00  0.00     0.031 C 
ATOM     52  C   UNL     1       5.714   2.478  14.191  1.00  0.00     0.029 A 
ATOM     53  N   UNL     1       4.949   4.463  14.882  1.00  0.00    -0.354 N 
ATOM     54  C   UNL     1       1.248   4.770  17.091  1.00  0.00     0.074 A 
ATOM     55  C   UNL     1       0.658   3.466  17.303  1.00  0.00     0.031 C 
ATOM     56  C   UNL     1       6.568   3.416  13.749  1.00  0.00     0.029 A 
ATOM     57  C   UNL     1       6.090   4.731  14.167  1.00  0.00     0.049 A 
ATOM     58  H   UNL     1       4.402   5.163  15.306  1.00  0.00     0.167 HD
ATOM     59  C   UNL     1       0.711   5.933  17.532  1.00  0.00     0.037 A 
ATOM     60  C   UNL     1       6.681   5.905  13.878  1.00  0.00     0.037 A 
ATOM     61  C   UNL     1       1.316   7.226  17.350  1.00  0.00     0.049 A 
ATOM     62  C   UNL     1       6.072   7.181  14.393  1.00  0.00     0.074 A 
ATOM     63  C   UNL     1       0.884   8.455  17.815  1.00  0.00     0.029 A 
ATOM     64  N   UNL     1       2.489   7.454  16.645  1.00  0.00    -0.354 N 
ATOM     65  N   UNL     1       4.986   7.350  15.106  1.00  0.00    -0.248 NA
ATOM     66  C   UNL     1       6.778   8.429  14.070  1.00  0.00     0.031 C 
ATOM     67  C   UNL     1       1.777   9.433  17.364  1.00  0.00     0.029 A 
ATOM     68  C   UNL     1       2.787   8.807  16.651  1.00  0.00     0.049 A 
ATOM     69  H   UNL     1       3.029   6.758  16.207  1.00  0.00     0.167 HD
ATOM     70  C   UNL     1       4.890   8.715  15.338  1.00  0.00     0.074 A 
ATOM     71  C   UNL     1       6.036   9.329  14.701  1.00  0.00     0.031 C 
ATOM     72  C   UNL     1       3.938   9.398  16.019  1.00  0.00     0.037 A 
BRANCH  59  73
ATOM     73  C   UNL     1      -0.598   5.858  18.262  1.00  0.00     0.064 A 
ATOM     74  C   UNL     1      -0.685   5.328  19.558  1.00  0.00     0.173 A 
ATOM     75  C   UNL     1      -1.771   6.352  17.674  1.00  0.00     0.173 A 
ATOM     76  F   UNL     1       0.406   4.831  20.159  1.00  0.00    -0.203 F 
ATOM     77  C   UNL     1      -1.905   5.269  20.227  1.00  0.00     0.198 A 
ATOM     78  C   UNL     1      -2.984   6.317  18.356  1.00  0.00     0.198 A 
ATOM     79  F   UNL     1      -1.741   6.874  16.438  1.00  0.00    -0.203 F 
ATOM     80  F   UNL     1      -1.972   4.716  21.446  1.00  0.00    -0.200 F 
ATOM     81  C   UNL     1      -3.051   5.770  19.629  1.00  0.00     0.200 A 
ATOM     82  F   UNL     1      -4.090   6.811  17.782  1.00  0.00    -0.200 F 
ATOM     83  F   UNL     1      -4.224   5.718  20.276  1.00  0.00    -0.200 F 
ENDBRANCH  59  73
BRANCH  60  84
ATOM     84  C   UNL     1       7.936   5.927  13.086  1.00  0.00     0.064 A 
ATOM     85  C   UNL     1       9.160   6.244  13.691  1.00  0.00     0.173 A 
ATOM     86  C   UNL     1       7.941   5.630  11.716  1.00  0.00     0.173 A 
ATOM     87  F   UNL     1       9.201   6.554  14.995  1.00  0.00    -0.203 F 
ATOM     88  C   UNL     1      10.340   6.279  12.952  1.00  0.00     0.198 A 
ATOM     89  C   UNL     1       9.126   5.642  10.982  1.00  0.00     0.198 A 
ATOM     90  F   UNL     1       6.796   5.315  11.092  1.00  0.00    -0.203 F 
ATOM     91  F   UNL     1      11.491   6.623  13.547  1.00  0.00    -0.200 F 
ATOM     92  C   UNL     1      10.323   5.973  11.599  1.00  0.00     0.200 A 
ATOM     93  F   UNL     1       9.108   5.333   9.679  1.00  0.00    -0.200 F 
ATOM     94  F   UNL     1      11.459   6.003  10.889  1.00  0.00    -0.200 F 
ENDBRANCH  60  84
BRANCH  72  95
ATOM     95  C   UNL     1       4.111  10.883  16.136  1.00  0.00     0.064 A 
ATOM     96  C   UNL     1       3.881  11.737  15.048  1.00  0.00     0.173 A 
ATOM     97  C   UNL     1       4.471  11.460  17.363  1.00  0.00     0.173 A 
ATOM     98  F   UNL     1       3.551  11.230  13.851  1.00  0.00    -0.203 F 
ATOM     99  C   UNL     1       4.024  13.115  15.180  1.00  0.00     0.198 A 
ATOM    100  C   UNL     1       4.588  12.840  17.498  1.00  0.00     0.198 A 
ATOM    101  F   UNL     1       4.697  10.685  18.435  1.00  0.00    -0.203 F 
ATOM    102  F   UNL     1       3.838  13.911  14.117  1.00  0.00    -0.200 F 
ATOM    103  C   UNL     1       4.370  13.666  16.405  1.00  0.00     0.200 A 
ATOM    104  F   UNL     1       4.913  13.372  18.684  1.00  0.00    -0.200 F 
ATOM    105  F   UNL     1       4.502  14.994  16.531  1.00  0.00    -0.200 F 
ENDBRANCH  72  95
ENDBRANCH  46  47
ENDBRANCH  38  41
ENDBRANCH  36  37
ENDBRANCH  35  36
ENDBRANCH  34  35
ENDBRANCH   1  34
TORSDOF 17
