REMARK SMILES Cn1c(=O)[nH]c(=O)c2c1nc(NC1CCCC1)n2CC(=O)NCCCCCCNC(=O)c1ccc(-c2c3nc(c(-c4c(F)c(F)c(F)c(F)c4F)c4ccc([nH]4)c(-c4c(F)c(F)c(F)c(F)c4F)c4nc(c(-c5c(F)c(F)c(F)c(F)c5F)c5ccc2[nH]5)C=C4)C=C3)cc1
REMARK SMILES IDX 25 1 24 2 23 3 22 4 20 5 21 6 19 8 18 9 1 10 2 11 3 12 9 13
REMARK SMILES IDX 4 14 5 15 8 16 10 17 6 18 11 20 7 21 12 22 13 24 14 25 17 26
REMARK SMILES IDX 15 27 16 28 26 29 27 30 28 31 29 32 30 33 31 35 32 36 33 37
REMARK SMILES IDX 94 38 34 39 93 40 35 41 36 42 37 43 87 44 38 45 92 46 86 47
REMARK SMILES IDX 88 48 39 49 91 50 85 51 84 52 40 54 72 55 52 56 71 57 53 58
REMARK SMILES IDX 56 59 70 60 89 61 54 62 55 63 69 65 90 66 57 67 41 68 42 69
REMARK SMILES IDX 50 70 43 71 44 72 48 73 51 74 45 75 46 76 49 77 47 78 73 79
REMARK SMILES IDX 74 80 82 81 75 82 76 83 80 84 83 85 77 86 78 87 81 88 79 89
REMARK SMILES IDX 58 90 59 91 67 92 60 93 61 94 65 95 68 96 62 97 63 98 66 99
REMARK SMILES IDX 64 100
REMARK H PARENT 22 7 5 19 12 23 29 34 88 53 56 64
REMARK Flexibility Score: inf
ROOT
ATOM      1  C   UNL     1       3.492   0.219   6.291  1.00  0.00     0.002 C 
ENDROOT
BRANCH   1   2
ATOM      2  C   UNL     1       2.444  -0.397   5.356  1.00  0.00     0.021 C 
BRANCH   2   3
ATOM      3  C   UNL     1       1.438  -1.306   6.065  1.00  0.00     0.116 C 
BRANCH   3   4
ATOM      4  N   UNL     1       0.503  -0.539   6.864  1.00  0.00    -0.355 N 
ATOM      5  C   UNL     1      -0.816  -0.282   6.627  1.00  0.00     0.240 C 
ATOM      6  O   UNL     1      -1.404   0.517   7.361  1.00  0.00    -0.273 OA
ATOM      7  H   UNL     1       0.870  -0.150   7.691  1.00  0.00     0.163 HD
BRANCH   5   8
ATOM      8  C   UNL     1      -1.550  -0.984   5.503  1.00  0.00     0.226 C 
BRANCH   8   9
ATOM      9  N   UNL     1      -1.124  -0.549   4.188  1.00  0.00    -0.295 N 
ATOM     10  C   UNL     1       0.805   0.039   0.033  1.00  0.00     0.157 C 
ATOM     11  N   UNL     1       0.371  -0.895   1.051  1.00  0.00    -0.279 N 
ATOM     12  C   UNL     1       0.662  -2.245   0.905  1.00  0.00     0.329 A 
ATOM     13  C   UNL     1      -0.268  -0.476   2.197  1.00  0.00     0.170 A 
ATOM     14  O   UNL     1       1.291  -2.710  -0.046  1.00  0.00    -0.248 OA
ATOM     15  N   UNL     1       0.235  -3.093   1.907  1.00  0.00    -0.272 N 
ATOM     16  C   UNL     1      -0.631  -1.344   3.182  1.00  0.00     0.154 A 
ATOM     17  N   UNL     1      -0.574   0.802   2.516  1.00  0.00    -0.194 NA
ATOM     18  C   UNL     1      -0.406  -2.748   3.080  1.00  0.00     0.279 A 
ATOM     19  H   UNL     1       0.406  -4.053   1.769  1.00  0.00     0.175 HD
ATOM     20  C   UNL     1      -1.093   0.756   3.725  1.00  0.00     0.206 A 
ATOM     21  O   UNL     1      -0.689  -3.575   3.927  1.00  0.00    -0.267 OA
BRANCH  20  22
ATOM     22  N   UNL     1      -1.524   1.794   4.471  1.00  0.00    -0.353 N 
ATOM     23  H   UNL     1      -1.838   1.618   5.388  1.00  0.00     0.163 HD
BRANCH  22  24
ATOM     24  C   UNL     1      -1.545   3.163   3.979  1.00  0.00     0.082 C 
ATOM     25  C   UNL     1      -0.186   3.702   3.542  1.00  0.00     0.025 C 
ATOM     26  C   UNL     1      -2.454   3.366   2.769  1.00  0.00     0.025 C 
ATOM     27  C   UNL     1      -0.537   4.899   2.669  1.00  0.00     0.002 C 
ATOM     28  C   UNL     1      -1.893   4.585   2.041  1.00  0.00     0.002 C 
ENDBRANCH  22  24
ENDBRANCH  20  22
ENDBRANCH   8   9
ENDBRANCH   5   8
ENDBRANCH   3   4
ENDBRANCH   2   3
ENDBRANCH   1   2
BRANCH   1  29
ATOM     29  C   UNL     1       4.278  -0.774   7.162  1.00  0.00     0.002 C 
BRANCH  29  30
ATOM     30  C   UNL     1       4.949  -1.948   6.433  1.00  0.00     0.021 C 
BRANCH  30  31
ATOM     31  C   UNL     1       6.072  -1.537   5.494  1.00  0.00     0.116 C 
BRANCH  31  32
ATOM     32  N   UNL     1       7.207  -0.942   6.202  1.00  0.00    -0.352 N 
ATOM     33  C   UNL     1       8.327  -0.326   5.679  1.00  0.00     0.251 C 
ATOM     34  H   UNL     1       7.167  -0.988   7.184  1.00  0.00     0.163 HD
ATOM     35  O   UNL     1       9.354  -0.216   6.338  1.00  0.00    -0.269 OA
BRANCH  33  36
ATOM     36  C   UNL     1       8.266   0.206   4.308  1.00  0.00     0.039 A 
ATOM     37  C   UNL     1       9.355   0.127   3.437  1.00  0.00     0.014 A 
ATOM     38  C   UNL     1       7.069   0.779   3.896  1.00  0.00     0.014 A 
ATOM     39  C   UNL     1       9.194   0.567   2.125  1.00  0.00     0.010 A 
ATOM     40  C   UNL     1       6.850   1.018   2.568  1.00  0.00     0.010 A 
ATOM     41  C   UNL     1       7.927   0.996   1.696  1.00  0.00    -0.014 A 
BRANCH  41  42
ATOM     42  C   UNL     1       7.683   1.374   0.312  1.00  0.00     0.031 A 
ATOM     43  C   UNL     1       8.052   0.342  -0.688  1.00  0.00     0.074 A 
ATOM     44  C   UNL     1       6.998   2.486  -0.034  1.00  0.00     0.049 A 
ATOM     45  N   UNL     1       9.011   0.394  -1.551  1.00  0.00    -0.248 NA
ATOM     46  C   UNL     1       7.361  -0.956  -0.639  1.00  0.00     0.031 C 
ATOM     47  C   UNL     1       6.295   3.441   0.834  1.00  0.00     0.029 A 
ATOM     48  N   UNL     1       6.711   2.953  -1.278  1.00  0.00    -0.354 N 
ATOM     49  C   UNL     1       8.935  -0.787  -2.284  1.00  0.00     0.074 A 
ATOM     50  C   UNL     1       8.025  -1.644  -1.571  1.00  0.00     0.031 C 
ATOM     51  C   UNL     1       5.491   4.230   0.088  1.00  0.00     0.029 A 
ATOM     52  C   UNL     1       5.762   3.966  -1.311  1.00  0.00     0.049 A 
ATOM     53  H   UNL     1       7.141   2.600  -2.091  1.00  0.00     0.167 HD
ATOM     54  C   UNL     1       9.454  -0.857  -3.542  1.00  0.00     0.037 A 
ATOM     55  C   UNL     1       5.233   4.539  -2.418  1.00  0.00     0.037 A 
ATOM     56  C   UNL     1      10.354   0.245  -3.784  1.00  0.00     0.049 A 
ATOM     57  C   UNL     1       6.179   4.276  -3.529  1.00  0.00     0.074 A 
ATOM     58  C   UNL     1      11.546   0.670  -3.231  1.00  0.00     0.029 A 
ATOM     59  N   UNL     1       9.862   1.320  -4.481  1.00  0.00    -0.354 N 
ATOM     60  N   UNL     1       7.377   4.787  -3.602  1.00  0.00    -0.248 NA
ATOM     61  C   UNL     1       5.951   3.095  -4.346  1.00  0.00     0.031 C 
ATOM     62  C   UNL     1      11.471   2.095  -3.236  1.00  0.00     0.029 A 
ATOM     63  C   UNL     1      10.270   2.462  -3.846  1.00  0.00     0.049 A 
ATOM     64  H   UNL     1       9.311   1.277  -5.296  1.00  0.00     0.167 HD
ATOM     65  C   UNL     1       8.162   3.766  -4.114  1.00  0.00     0.074 A 
ATOM     66  C   UNL     1       7.215   2.794  -4.654  1.00  0.00     0.031 C 
ATOM     67  C   UNL     1       9.487   3.676  -3.795  1.00  0.00     0.037 A 
BRANCH  54  68
ATOM     68  C   UNL     1       8.872  -1.672  -4.676  1.00  0.00     0.064 A 
ATOM     69  C   UNL     1       9.550  -1.695  -5.914  1.00  0.00     0.173 A 
ATOM     70  C   UNL     1       7.553  -2.171  -4.703  1.00  0.00     0.173 A 
ATOM     71  F   UNL     1      10.807  -1.238  -6.016  1.00  0.00    -0.203 F 
ATOM     72  C   UNL     1       8.921  -2.093  -7.097  1.00  0.00     0.198 A 
ATOM     73  C   UNL     1       6.946  -2.619  -5.876  1.00  0.00     0.198 A 
ATOM     74  F   UNL     1       6.754  -2.144  -3.632  1.00  0.00    -0.203 F 
ATOM     75  F   UNL     1       9.562  -1.965  -8.266  1.00  0.00    -0.200 F 
ATOM     76  C   UNL     1       7.616  -2.547  -7.078  1.00  0.00     0.200 A 
ATOM     77  F   UNL     1       5.674  -3.040  -5.840  1.00  0.00    -0.200 F 
ATOM     78  F   UNL     1       6.989  -2.866  -8.217  1.00  0.00    -0.200 F 
ENDBRANCH  54  68
BRANCH  55  79
ATOM     79  C   UNL     1       3.852   5.020  -2.652  1.00  0.00     0.064 A 
ATOM     80  C   UNL     1       3.551   5.808  -3.777  1.00  0.00     0.173 A 
ATOM     81  C   UNL     1       2.756   4.466  -1.964  1.00  0.00     0.173 A 
ATOM     82  F   UNL     1       4.539   6.345  -4.507  1.00  0.00    -0.203 F 
ATOM     83  C   UNL     1       2.236   5.984  -4.218  1.00  0.00     0.198 A 
ATOM     84  C   UNL     1       1.442   4.649  -2.402  1.00  0.00     0.198 A 
ATOM     85  F   UNL     1       2.942   3.650  -0.916  1.00  0.00    -0.203 F 
ATOM     86  F   UNL     1       1.996   6.674  -5.342  1.00  0.00    -0.200 F 
ATOM     87  C   UNL     1       1.185   5.391  -3.540  1.00  0.00     0.200 A 
ATOM     88  F   UNL     1       0.436   4.040  -1.758  1.00  0.00    -0.200 F 
ATOM     89  F   UNL     1      -0.068   5.496  -4.006  1.00  0.00    -0.200 F 
ENDBRANCH  55  79
BRANCH  67  90
ATOM     90  C   UNL     1      10.129   4.863  -3.127  1.00  0.00     0.064 A 
ATOM     91  C   UNL     1       9.786   5.334  -1.847  1.00  0.00     0.173 A 
ATOM     92  C   UNL     1      11.241   5.446  -3.748  1.00  0.00     0.173 A 
ATOM     93  F   UNL     1       8.792   4.775  -1.148  1.00  0.00    -0.203 F 
ATOM     94  C   UNL     1      10.507   6.359  -1.235  1.00  0.00     0.198 A 
ATOM     95  C   UNL     1      11.982   6.443  -3.120  1.00  0.00     0.198 A 
ATOM     96  F   UNL     1      11.645   5.006  -4.951  1.00  0.00    -0.203 F 
ATOM     97  F   UNL     1      10.156   6.793  -0.015  1.00  0.00    -0.200 F 
ATOM     98  C   UNL     1      11.611   6.904  -1.867  1.00  0.00     0.200 A 
ATOM     99  F   UNL     1      13.077   6.934  -3.716  1.00  0.00    -0.200 F 
ATOM    100  F   UNL     1      12.335   7.854  -1.259  1.00  0.00    -0.200 F 
ENDBRANCH  67  90
ENDBRANCH  41  42
ENDBRANCH  33  36
ENDBRANCH  31  32
ENDBRANCH  30  31
ENDBRANCH  29  30
ENDBRANCH   1  29
TORSDOF 16
