REMARK SMILES Cc1cc2c(c(C)c1Cl)C=C(C(=O)NCCCCCCNC(=O)c1ccc(-c3c4nc(c(-c5c(F)c(F)c(F)c(F)c5F)c5ccc([nH]5)c(-c5c(F)c(F)c(F)c(F)c5F)c5nc(c(-c6c(F)c(F)c(F)c(F)c6F)c6ccc3[nH]6)C=C5)C=C4)cc1)[C@@H](C(F)(F)F)O2
REMARK SMILES IDX 18 1 17 2 16 3 15 4 14 5 12 6 13 7 11 9 1 10 2 11 3 12 8 13
REMARK SMILES IDX 4 14 6 15 9 16 5 17 92 18 7 19 10 20 87 21 88 22 89 23 90 24
REMARK SMILES IDX 91 25 19 26 20 27 21 28 22 29 23 31 24 32 25 33 86 34 26 35
REMARK SMILES IDX 85 36 27 37 28 38 29 39 79 40 30 41 84 42 78 43 80 44 31 45
REMARK SMILES IDX 83 46 77 47 76 48 32 50 64 51 44 52 63 53 45 54 48 55 62 56
REMARK SMILES IDX 81 57 46 58 47 59 61 61 82 62 49 63 33 64 34 65 42 66 35 67
REMARK SMILES IDX 36 68 40 69 43 70 37 71 38 72 41 73 39 74 65 75 66 76 74 77
REMARK SMILES IDX 67 78 68 79 72 80 75 81 69 82 70 83 73 84 71 85 50 86 51 87
REMARK SMILES IDX 59 88 52 89 53 90 57 91 60 92 54 93 55 94 58 95 56 96
REMARK H PARENT 14 8 21 30 80 49 48 60
REMARK Flexibility Score: inf
ROOT
ATOM      1  C   UNL     1      -4.708   6.755   8.243  1.00  0.00     0.002 C 
ENDROOT
BRANCH   1   2
ATOM      2  C   UNL     1      -3.176   6.675   8.234  1.00  0.00     0.002 C 
BRANCH   2   3
ATOM      3  C   UNL     1      -2.595   5.499   7.445  1.00  0.00     0.021 C 
BRANCH   3   4
ATOM      4  C   UNL     1      -3.068   5.444   5.997  1.00  0.00     0.116 C 
BRANCH   4   5
ATOM      5  N   UNL     1      -2.284   6.317   5.144  1.00  0.00    -0.352 N 
ATOM      6  C   UNL     1      -1.513   6.191   4.039  1.00  0.00     0.251 C 
ATOM      7  O   UNL     1      -1.032   7.246   3.612  1.00  0.00    -0.270 OA
ATOM      8  H   UNL     1      -2.324   7.252   5.450  1.00  0.00     0.163 HD
BRANCH   6   9
ATOM      9  C   UNL     1      -1.218   4.906   3.336  1.00  0.00     0.067 C 
ATOM     10  C   UNL     1       1.156  -0.011  -0.212  1.00  0.00     0.046 C 
ATOM     11  C   UNL     1       0.802   1.319   0.394  1.00  0.00    -0.028 A 
ATOM     12  C   UNL     1      -0.075   1.339   1.480  1.00  0.00     0.052 A 
ATOM     13  C   UNL     1       1.312   2.540  -0.090  1.00  0.00     0.047 A 
ATOM     14  C   UNL     1      -0.428   2.541   2.080  1.00  0.00     0.128 A 
ATOM     15  C   UNL     1       0.965   3.773   0.517  1.00  0.00    -0.021 A 
ATOM     16  Cl  UNL     1       2.391   2.496  -1.452  1.00  0.00    -0.084 Cl
ATOM     17  C   UNL     1       0.090   3.759   1.631  1.00  0.00     0.022 A 
ATOM     18  O   UNL     1      -1.266   2.418   3.147  1.00  0.00    -0.475 OA
ATOM     19  C   UNL     1       1.510   5.091   0.017  1.00  0.00     0.047 C 
ATOM     20  C   UNL     1      -0.270   4.965   2.383  1.00  0.00     0.026 C 
ATOM     21  C   UNL     1      -1.925   3.616   3.619  1.00  0.00     0.314 C 
BRANCH  21  22
ATOM     22  C   UNL     1      -3.385   3.612   3.131  1.00  0.00     0.429 C 
ATOM     23  F   UNL     1      -4.082   2.617   3.735  1.00  0.00    -0.167 F 
ATOM     24  F   UNL     1      -4.039   4.761   3.422  1.00  0.00    -0.167 F 
ATOM     25  F   UNL     1      -3.486   3.427   1.796  1.00  0.00    -0.167 F 
ENDBRANCH  21  22
ENDBRANCH   6   9
ENDBRANCH   4   5
ENDBRANCH   3   4
ENDBRANCH   2   3
ENDBRANCH   1   2
BRANCH   1  26
ATOM     26  C   UNL     1      -5.425   5.455   8.615  1.00  0.00     0.021 C 
BRANCH  26  27
ATOM     27  C   UNL     1      -5.021   4.884   9.968  1.00  0.00     0.116 C 
BRANCH  27  28
ATOM     28  N   UNL     1      -5.317   5.807  11.051  1.00  0.00    -0.352 N 
ATOM     29  C   UNL     1      -6.168   5.650  12.112  1.00  0.00     0.251 C 
ATOM     30  H   UNL     1      -4.837   6.666  11.017  1.00  0.00     0.163 HD
ATOM     31  O   UNL     1      -6.477   6.611  12.811  1.00  0.00    -0.269 OA
BRANCH  29  32
ATOM     32  C   UNL     1      -6.722   4.315  12.407  1.00  0.00     0.039 A 
ATOM     33  C   UNL     1      -8.084   4.194  12.685  1.00  0.00     0.014 A 
ATOM     34  C   UNL     1      -5.892   3.189  12.415  1.00  0.00     0.014 A 
ATOM     35  C   UNL     1      -8.624   2.933  12.931  1.00  0.00     0.010 A 
ATOM     36  C   UNL     1      -6.446   1.925  12.582  1.00  0.00     0.010 A 
ATOM     37  C   UNL     1      -7.813   1.787  12.860  1.00  0.00    -0.014 A 
BRANCH  37  38
ATOM     38  C   UNL     1      -8.377   0.441  13.116  1.00  0.00     0.031 A 
ATOM     39  C   UNL     1      -7.930  -0.337  14.322  1.00  0.00     0.074 A 
ATOM     40  C   UNL     1      -9.267  -0.087  12.256  1.00  0.00     0.049 A 
ATOM     41  N   UNL     1      -8.285  -1.534  14.712  1.00  0.00    -0.248 NA
ATOM     42  C   UNL     1      -6.935   0.307  15.196  1.00  0.00     0.031 C 
ATOM     43  C   UNL     1      -9.750   0.563  11.037  1.00  0.00     0.029 A 
ATOM     44  N   UNL     1      -9.929  -1.289  12.277  1.00  0.00    -0.354 N 
ATOM     45  C   UNL     1      -7.563  -1.782  15.871  1.00  0.00     0.074 A 
ATOM     46  C   UNL     1      -6.697  -0.645  16.085  1.00  0.00     0.031 C 
ATOM     47  C   UNL     1     -10.659  -0.230  10.448  1.00  0.00     0.029 A 
ATOM     48  C   UNL     1     -10.794  -1.460  11.224  1.00  0.00     0.049 A 
ATOM     49  H   UNL     1      -9.796  -1.965  12.980  1.00  0.00     0.167 HD
ATOM     50  C   UNL     1      -7.643  -2.847  16.701  1.00  0.00     0.037 A 
ATOM     51  C   UNL     1     -11.605  -2.492  10.922  1.00  0.00     0.037 A 
ATOM     52  C   UNL     1      -8.524  -3.965  16.494  1.00  0.00     0.049 A 
ATOM     53  C   UNL     1     -11.640  -3.686  11.839  1.00  0.00     0.074 A 
ATOM     54  C   UNL     1      -8.712  -5.072  17.301  1.00  0.00     0.029 A 
ATOM     55  N   UNL     1      -9.365  -4.115  15.401  1.00  0.00    -0.354 N 
ATOM     56  N   UNL     1     -10.999  -3.883  12.965  1.00  0.00    -0.248 NA
ATOM     57  C   UNL     1     -12.512  -4.801  11.443  1.00  0.00     0.031 C 
ATOM     58  C   UNL     1      -9.629  -5.918  16.670  1.00  0.00     0.029 A 
ATOM     59  C   UNL     1     -10.051  -5.314  15.496  1.00  0.00     0.049 A 
ATOM     60  H   UNL     1      -9.459  -3.466  14.667  1.00  0.00     0.167 HD
ATOM     61  C   UNL     1     -11.399  -5.131  13.421  1.00  0.00     0.074 A 
ATOM     62  C   UNL     1     -12.359  -5.637  12.461  1.00  0.00     0.031 C 
ATOM     63  C   UNL     1     -11.003  -5.801  14.530  1.00  0.00     0.037 A 
BRANCH  50  64
ATOM     64  C   UNL     1      -6.771  -2.848  17.923  1.00  0.00     0.064 A 
ATOM     65  C   UNL     1      -7.010  -1.970  18.992  1.00  0.00     0.173 A 
ATOM     66  C   UNL     1      -5.726  -3.774  18.055  1.00  0.00     0.173 A 
ATOM     67  F   UNL     1      -7.989  -1.057  18.910  1.00  0.00    -0.203 F 
ATOM     68  C   UNL     1      -6.223  -2.007  20.139  1.00  0.00     0.198 A 
ATOM     69  C   UNL     1      -4.960  -3.828  19.217  1.00  0.00     0.198 A 
ATOM     70  F   UNL     1      -5.457  -4.637  17.064  1.00  0.00    -0.203 F 
ATOM     71  F   UNL     1      -6.444  -1.132  21.130  1.00  0.00    -0.200 F 
ATOM     72  C   UNL     1      -5.206  -2.943  20.255  1.00  0.00     0.200 A 
ATOM     73  F   UNL     1      -3.987  -4.742  19.333  1.00  0.00    -0.200 F 
ATOM     74  F   UNL     1      -4.460  -2.988  21.367  1.00  0.00    -0.200 F 
ENDBRANCH  50  64
BRANCH  51  75
ATOM     75  C   UNL     1     -12.471  -2.425   9.716  1.00  0.00     0.064 A 
ATOM     76  C   UNL     1     -13.864  -2.319   9.839  1.00  0.00     0.173 A 
ATOM     77  C   UNL     1     -11.931  -2.448   8.422  1.00  0.00     0.173 A 
ATOM     78  F   UNL     1     -14.430  -2.313  11.054  1.00  0.00    -0.203 F 
ATOM     79  C   UNL     1     -14.683  -2.249   8.713  1.00  0.00     0.198 A 
ATOM     80  C   UNL     1     -12.748  -2.350   7.298  1.00  0.00     0.198 A 
ATOM     81  F   UNL     1     -10.604  -2.546   8.249  1.00  0.00    -0.203 F 
ATOM     82  F   UNL     1     -16.013  -2.185   8.859  1.00  0.00    -0.200 F 
ATOM     83  C   UNL     1     -14.124  -2.256   7.444  1.00  0.00     0.200 A 
ATOM     84  F   UNL     1     -12.203  -2.341   6.074  1.00  0.00    -0.200 F 
ATOM     85  F   UNL     1     -14.911  -2.178   6.363  1.00  0.00    -0.200 F 
ENDBRANCH  51  75
BRANCH  63  86
ATOM     86  C   UNL     1     -11.599  -7.157  14.776  1.00  0.00     0.064 A 
ATOM     87  C   UNL     1     -11.232  -8.265  13.999  1.00  0.00     0.173 A 
ATOM     88  C   UNL     1     -12.474  -7.368  15.853  1.00  0.00     0.173 A 
ATOM     89  F   UNL     1     -10.408  -8.112  12.951  1.00  0.00    -0.203 F 
ATOM     90  C   UNL     1     -11.727  -9.534  14.286  1.00  0.00     0.198 A 
ATOM     91  C   UNL     1     -12.941  -8.644  16.155  1.00  0.00     0.198 A 
ATOM     92  F   UNL     1     -12.848  -6.342  16.632  1.00  0.00    -0.203 F 
ATOM     93  F   UNL     1     -11.387 -10.574  13.511  1.00  0.00    -0.200 F 
ATOM     94  C   UNL     1     -12.571  -9.724  15.370  1.00  0.00     0.200 A 
ATOM     95  F   UNL     1     -13.741  -8.829  17.215  1.00  0.00    -0.200 F 
ATOM     96  F   UNL     1     -13.027 -10.951  15.658  1.00  0.00    -0.200 F 
ENDBRANCH  63  86
ENDBRANCH  37  38
ENDBRANCH  29  32
ENDBRANCH  27  28
ENDBRANCH  26  27
ENDBRANCH   1  26
TORSDOF 14
