REMARK SMILES C[C@H](Nc1ccc(N(C)C)cc1)[C@@H](C)C(=O)NCCCCCCNC(=O)c1ccc(-c2c3nc(c(-c4c(F)c(F)c(F)c(F)c4F)c4ccc([nH]4)c(-c4c(F)c(F)c(F)c(F)c4F)c4nc(c(-c5c(F)c(F)c(F)c(F)c5F)c5ccc2[nH]5)C=C4)C=C3)cc1
REMARK SMILES IDX 19 1 18 2 17 3 15 4 16 5 13 7 14 8 2 9 1 10 3 11 4 13 5 14
REMARK SMILES IDX 12 15 6 16 11 17 7 18 8 19 9 20 10 21 20 22 21 23 22 24
REMARK SMILES IDX 23 25 24 26 25 27 26 29 27 30 28 31 89 32 29 33 88 34 30 35
REMARK SMILES IDX 31 36 32 37 82 38 33 39 87 40 81 41 83 42 34 43 86 44 80 45
REMARK SMILES IDX 79 46 35 48 67 49 47 50 66 51 48 52 51 53 65 54 84 55 49 56
REMARK SMILES IDX 50 57 64 59 85 60 52 61 36 62 37 63 45 64 38 65 39 66 43 67
REMARK SMILES IDX 46 68 40 69 41 70 44 71 42 72 68 73 69 74 77 75 70 76 71 77
REMARK SMILES IDX 75 78 78 79 72 80 73 81 76 82 74 83 53 84 54 85 62 86 55 87
REMARK SMILES IDX 56 88 60 89 63 90 57 91 58 92 61 93 59 94
REMARK H PARENT 17 6 3 12 24 28 83 47 51 58
REMARK Flexibility Score: inf
ROOT
ATOM      1  C   UNL     1       0.724   4.657   1.023  1.00  0.00     0.021 C 
ENDROOT
BRANCH   1   2
ATOM      2  C   UNL     1      -0.519   3.787   1.229  1.00  0.00     0.116 C 
BRANCH   2   3
ATOM      3  N   UNL     1      -1.287   3.684   0.001  1.00  0.00    -0.356 N 
ATOM      4  C   UNL     1      -1.476   2.652  -0.865  1.00  0.00     0.224 C 
ATOM      5  O   UNL     1      -2.103   2.893  -1.900  1.00  0.00    -0.275 OA
ATOM      6  H   UNL     1      -1.756   4.512  -0.252  1.00  0.00     0.163 HD
BRANCH   4   7
ATOM      7  C   UNL     1      -0.989   1.236  -0.575  1.00  0.00     0.097 C 
ATOM      8  C   UNL     1      -1.792   0.670   0.596  1.00  0.00     0.020 C 
BRANCH   7   9
ATOM      9  C   UNL     1       0.550   1.156  -0.483  1.00  0.00     0.088 C 
ATOM     10  C   UNL     1       1.178   1.424  -1.862  1.00  0.00     0.031 C 
BRANCH   9  11
ATOM     11  N   UNL     1       1.012  -0.161  -0.017  1.00  0.00    -0.382 N 
ATOM     12  H   UNL     1       0.827  -0.982  -0.528  1.00  0.00     0.160 HD
BRANCH  11  13
ATOM     13  C   UNL     1       1.726  -0.195   1.181  1.00  0.00     0.034 A 
ATOM     14  C   UNL     1       3.115  -0.257   1.190  1.00  0.00     0.028 A 
ATOM     15  C   UNL     1       1.088  -0.057   2.408  1.00  0.00     0.028 A 
ATOM     16  C   UNL     1       3.839  -0.201   2.398  1.00  0.00     0.028 A 
ATOM     17  C   UNL     1       1.813  -0.012   3.608  1.00  0.00     0.028 A 
ATOM     18  C   UNL     1       3.214  -0.084   3.650  1.00  0.00     0.036 A 
BRANCH  18  19
ATOM     19  N   UNL     1       3.905  -0.045   4.851  1.00  0.00    -0.378 N 
ATOM     20  C   UNL     1       5.353  -0.165   4.970  1.00  0.00     0.143 C 
ATOM     21  C   UNL     1       3.190   0.123   6.115  1.00  0.00     0.143 C 
ENDBRANCH  18  19
ENDBRANCH  11  13
ENDBRANCH   9  11
ENDBRANCH   7   9
ENDBRANCH   4   7
ENDBRANCH   2   3
ENDBRANCH   1   2
BRANCH   1  22
ATOM     22  C   UNL     1       0.419   6.148   0.837  1.00  0.00     0.002 C 
BRANCH  22  23
ATOM     23  C   UNL     1      -0.326   6.811   2.001  1.00  0.00     0.002 C 
BRANCH  23  24
ATOM     24  C   UNL     1       0.334   6.650   3.374  1.00  0.00     0.021 C 
BRANCH  24  25
ATOM     25  C   UNL     1       1.756   7.195   3.471  1.00  0.00     0.116 C 
BRANCH  25  26
ATOM     26  N   UNL     1       1.810   8.631   3.251  1.00  0.00    -0.352 N 
ATOM     27  C   UNL     1       2.397   9.610   4.008  1.00  0.00     0.251 C 
ATOM     28  H   UNL     1       1.356   8.947   2.436  1.00  0.00     0.163 HD
ATOM     29  O   UNL     1       2.184  10.795   3.754  1.00  0.00    -0.269 OA
BRANCH  27  30
ATOM     30  C   UNL     1       3.276   9.255   5.143  1.00  0.00     0.039 A 
ATOM     31  C   UNL     1       3.147   9.967   6.339  1.00  0.00     0.014 A 
ATOM     32  C   UNL     1       4.245   8.254   5.025  1.00  0.00     0.014 A 
ATOM     33  C   UNL     1       3.955   9.645   7.431  1.00  0.00     0.010 A 
ATOM     34  C   UNL     1       5.010   7.893   6.133  1.00  0.00     0.010 A 
ATOM     35  C   UNL     1       4.877   8.589   7.343  1.00  0.00    -0.014 A 
BRANCH  35  36
ATOM     36  C   UNL     1       5.710   8.208   8.511  1.00  0.00     0.031 A 
ATOM     37  C   UNL     1       7.200   8.402   8.477  1.00  0.00     0.074 A 
ATOM     38  C   UNL     1       5.128   7.638   9.584  1.00  0.00     0.049 A 
ATOM     39  N   UNL     1       8.096   8.092   9.380  1.00  0.00    -0.248 NA
ATOM     40  C   UNL     1       7.761   9.002   7.256  1.00  0.00     0.031 C 
ATOM     41  C   UNL     1       3.699   7.351   9.716  1.00  0.00     0.029 A 
ATOM     42  N   UNL     1       5.668   7.191  10.764  1.00  0.00    -0.354 N 
ATOM     43  C   UNL     1       9.322   8.444   8.832  1.00  0.00     0.074 A 
ATOM     44  C   UNL     1       9.062   8.949   7.501  1.00  0.00     0.031 C 
ATOM     45  C   UNL     1       3.473   6.793  10.916  1.00  0.00     0.029 A 
ATOM     46  C   UNL     1       4.742   6.658  11.626  1.00  0.00     0.049 A 
ATOM     47  H   UNL     1       6.629   7.247  10.972  1.00  0.00     0.167 HD
ATOM     48  C   UNL     1      10.552   8.371   9.396  1.00  0.00     0.037 A 
ATOM     49  C   UNL     1       4.899   6.120  12.850  1.00  0.00     0.037 A 
ATOM     50  C   UNL     1      10.806   7.899  10.732  1.00  0.00     0.049 A 
ATOM     51  C   UNL     1       6.272   6.072  13.461  1.00  0.00     0.074 A 
ATOM     52  C   UNL     1      12.007   7.849  11.417  1.00  0.00     0.029 A 
ATOM     53  N   UNL     1       9.837   7.395  11.587  1.00  0.00    -0.354 N 
ATOM     54  N   UNL     1       7.415   6.471  12.960  1.00  0.00    -0.248 NA
ATOM     55  C   UNL     1       6.375   5.506  14.814  1.00  0.00     0.031 C 
ATOM     56  C   UNL     1      11.772   7.280  12.673  1.00  0.00     0.029 A 
ATOM     57  C   UNL     1      10.417   7.015  12.787  1.00  0.00     0.049 A 
ATOM     58  H   UNL     1       8.879   7.318  11.373  1.00  0.00     0.167 HD
ATOM     59  C   UNL     1       8.367   6.231  13.941  1.00  0.00     0.074 A 
ATOM     60  C   UNL     1       7.665   5.663  15.074  1.00  0.00     0.031 C 
ATOM     61  C   UNL     1       9.703   6.457  13.906  1.00  0.00     0.037 A 
BRANCH  48  62
ATOM     62  C   UNL     1      11.722   8.821   8.571  1.00  0.00     0.064 A 
ATOM     63  C   UNL     1      11.939  10.177   8.283  1.00  0.00     0.173 A 
ATOM     64  C   UNL     1      12.661   7.891   8.101  1.00  0.00     0.173 A 
ATOM     65  F   UNL     1      11.064  11.104   8.700  1.00  0.00    -0.203 F 
ATOM     66  C   UNL     1      13.039  10.582   7.532  1.00  0.00     0.198 A 
ATOM     67  C   UNL     1      13.775   8.303   7.373  1.00  0.00     0.198 A 
ATOM     68  F   UNL     1      12.503   6.583   8.353  1.00  0.00    -0.203 F 
ATOM     69  F   UNL     1      13.203  11.878   7.232  1.00  0.00    -0.200 F 
ATOM     70  C   UNL     1      13.960   9.647   7.084  1.00  0.00     0.200 A 
ATOM     71  F   UNL     1      14.669   7.399   6.951  1.00  0.00    -0.200 F 
ATOM     72  F   UNL     1      15.022  10.039   6.369  1.00  0.00    -0.200 F 
ENDBRANCH  48  62
BRANCH  49  73
ATOM     73  C   UNL     1       3.718   5.610  13.591  1.00  0.00     0.064 A 
ATOM     74  C   UNL     1       3.230   6.287  14.718  1.00  0.00     0.173 A 
ATOM     75  C   UNL     1       3.056   4.440  13.194  1.00  0.00     0.173 A 
ATOM     76  F   UNL     1       3.844   7.399  15.148  1.00  0.00    -0.203 F 
ATOM     77  C   UNL     1       2.136   5.801  15.431  1.00  0.00     0.198 A 
ATOM     78  C   UNL     1       1.947   3.969  13.893  1.00  0.00     0.198 A 
ATOM     79  F   UNL     1       3.482   3.759  12.120  1.00  0.00    -0.203 F 
ATOM     80  F   UNL     1       1.717   6.444  16.530  1.00  0.00    -0.200 F 
ATOM     81  C   UNL     1       1.492   4.646  15.015  1.00  0.00     0.200 A 
ATOM     82  F   UNL     1       1.319   2.859  13.480  1.00  0.00    -0.200 F 
ATOM     83  F   UNL     1       0.439   4.180  15.699  1.00  0.00    -0.200 F 
ENDBRANCH  49  73
BRANCH  61  84
ATOM     84  C   UNL     1      10.488   6.118  15.139  1.00  0.00     0.064 A 
ATOM     85  C   UNL     1      10.749   4.788  15.498  1.00  0.00     0.173 A 
ATOM     86  C   UNL     1      11.010   7.135  15.951  1.00  0.00     0.173 A 
ATOM     87  F   UNL     1      10.258   3.780  14.762  1.00  0.00    -0.203 F 
ATOM     88  C   UNL     1      11.486   4.489  16.641  1.00  0.00     0.198 A 
ATOM     89  C   UNL     1      11.769   6.832  17.078  1.00  0.00     0.198 A 
ATOM     90  F   UNL     1      10.792   8.423  15.646  1.00  0.00    -0.203 F 
ATOM     91  F   UNL     1      11.685   3.210  16.992  1.00  0.00    -0.200 F 
ATOM     92  C   UNL     1      12.000   5.510  17.426  1.00  0.00     0.200 A 
ATOM     93  F   UNL     1      12.274   7.821  17.829  1.00  0.00    -0.200 F 
ATOM     94  F   UNL     1      12.711   5.220  18.524  1.00  0.00    -0.200 F 
ENDBRANCH  61  84
ENDBRANCH  35  36
ENDBRANCH  27  30
ENDBRANCH  25  26
ENDBRANCH  24  25
ENDBRANCH  23  24
ENDBRANCH  22  23
ENDBRANCH   1  22
TORSDOF 17
