REMARK SMILES CC1=C(C(=O)NCCCCCCNC(=O)c2ccc(-c3c4nc(c(-c5c(F)c(F)c(F)c(F)c5F)c5ccc([nH]5)c(-c5c(F)c(F)c(F)c(F)c5F)c5nc(c(-c6c(F)c(F)c(F)c(F)c6F)c6ccc3[nH]6)C=C5)C=C4)cc2)N2C(=O)[C@H](NC(=O)c3cc(C(F)(F)F)nn3C)[C@@H]2SC1
REMARK SMILES IDX 9 1 8 2 7 3 6 4 4 5 5 6 3 8 1 9 2 10 98 11 79 12 97 13 80 14
REMARK SMILES IDX 96 15 81 16 82 17 83 18 84 19 85 21 86 22 87 23 94 24 88 25
REMARK SMILES IDX 93 26 95 27 89 28 90 29 91 30 92 31 10 32 11 33 12 34 13 35
REMARK SMILES IDX 14 36 15 38 16 39 17 40 78 41 18 42 77 43 19 44 20 45 21 46
REMARK SMILES IDX 71 47 22 48 76 49 70 50 72 51 23 52 75 53 69 54 68 55 24 57
REMARK SMILES IDX 56 58 36 59 55 60 37 61 40 62 54 63 73 64 38 65 39 66 53 68
REMARK SMILES IDX 74 69 41 70 25 71 26 72 34 73 27 74 28 75 32 76 35 77 29 78
REMARK SMILES IDX 30 79 33 80 31 81 57 82 58 83 66 84 59 85 60 86 64 87 67 88
REMARK SMILES IDX 61 89 62 90 65 91 63 92 42 93 43 94 51 95 44 96 45 97 49 98
REMARK SMILES IDX 52 99 46 100 47 101 50 102 48 103
REMARK H PARENT 6 7 83 20 13 37 72 56 40 67
REMARK Flexibility Score: inf
ROOT
ATOM      1  C   UNL     1       1.098  -2.859   2.771  1.00  0.00     0.002 C 
ENDROOT
BRANCH   1   2
ATOM      2  C   UNL     1       0.875  -1.724   1.769  1.00  0.00     0.021 C 
BRANCH   2   3
ATOM      3  C   UNL     1       1.667  -1.870   0.460  1.00  0.00     0.116 C 
BRANCH   3   4
ATOM      4  N   UNL     1       0.818  -2.506  -0.522  1.00  0.00    -0.351 N 
ATOM      5  C   UNL     1       0.024  -2.012  -1.502  1.00  0.00     0.268 C 
ATOM      6  O   UNL     1      -0.848  -2.763  -1.953  1.00  0.00    -0.268 OA
ATOM      7  H   UNL     1       0.816  -3.489  -0.468  1.00  0.00     0.163 HD
BRANCH   5   8
ATOM      8  C   UNL     1       0.182  -0.646  -2.133  1.00  0.00     0.110 C 
ATOM      9  C   UNL     1      -0.029   0.837  -0.081  1.00  0.00     0.043 C 
ATOM     10  C   UNL     1       0.165   0.579  -1.548  1.00  0.00    -0.034 C 
ATOM     11  C   UNL     1       0.284   1.901  -2.308  1.00  0.00     0.104 C 
ATOM     12  N   UNL     1       0.151  -0.693  -3.493  1.00  0.00    -0.290 N 
ATOM     13  S   UNL     1       0.547   1.799  -4.097  1.00  0.00    -0.129 SA
ATOM     14  C   UNL     1       0.405  -1.577  -4.478  1.00  0.00     0.253 C 
ATOM     15  C   UNL     1      -0.479   0.322  -4.295  1.00  0.00     0.181 C 
ATOM     16  O   UNL     1       0.955  -2.651  -4.503  1.00  0.00    -0.272 OA
ATOM     17  C   UNL     1      -0.209  -0.594  -5.526  1.00  0.00     0.206 C 
BRANCH  17  18
ATOM     18  N   UNL     1       0.708  -0.059  -6.559  1.00  0.00    -0.336 N 
ATOM     19  C   UNL     1       0.414   0.336  -7.839  1.00  0.00     0.270 C 
ATOM     20  H   UNL     1       1.652   0.023  -6.292  1.00  0.00     0.164 HD
ATOM     21  O   UNL     1       1.334   0.704  -8.565  1.00  0.00    -0.268 OA
BRANCH  19  22
ATOM     22  C   UNL     1      -0.952   0.254  -8.287  1.00  0.00     0.126 A 
ATOM     23  C   UNL     1      -2.123   0.717  -7.713  1.00  0.00     0.069 A 
ATOM     24  N   UNL     1      -1.345  -0.308  -9.475  1.00  0.00    -0.262 N 
ATOM     25  C   UNL     1      -3.178   0.303  -8.569  1.00  0.00     0.167 A 
ATOM     26  N   UNL     1      -2.683  -0.329  -9.648  1.00  0.00    -0.168 NA
ATOM     27  C   UNL     1      -0.521  -0.940 -10.482  1.00  0.00     0.174 C 
BRANCH  25  28
ATOM     28  C   UNL     1      -4.655   0.497  -8.341  1.00  0.00     0.435 C 
ATOM     29  F   UNL     1      -5.241   1.267  -9.296  1.00  0.00    -0.164 F 
ATOM     30  F   UNL     1      -5.334  -0.680  -8.301  1.00  0.00    -0.164 F 
ATOM     31  F   UNL     1      -4.896   1.114  -7.149  1.00  0.00    -0.164 F 
ENDBRANCH  25  28
ENDBRANCH  19  22
ENDBRANCH  17  18
ENDBRANCH   5   8
ENDBRANCH   3   4
ENDBRANCH   2   3
ENDBRANCH   1   2
BRANCH   1  32
ATOM     32  C   UNL     1       2.459  -2.827   3.470  1.00  0.00     0.002 C 
BRANCH  32  33
ATOM     33  C   UNL     1       2.783  -1.523   4.208  1.00  0.00     0.021 C 
BRANCH  33  34
ATOM     34  C   UNL     1       1.759  -1.105   5.261  1.00  0.00     0.116 C 
BRANCH  34  35
ATOM     35  N   UNL     1       1.663  -2.079   6.335  1.00  0.00    -0.352 N 
ATOM     36  C   UNL     1       1.962  -1.949   7.667  1.00  0.00     0.251 C 
ATOM     37  H   UNL     1       1.334  -2.967   6.066  1.00  0.00     0.163 HD
ATOM     38  O   UNL     1       2.063  -2.949   8.372  1.00  0.00    -0.269 OA
BRANCH  36  39
ATOM     39  C   UNL     1       2.163  -0.611   8.265  1.00  0.00     0.039 A 
ATOM     40  C   UNL     1       3.184  -0.441   9.204  1.00  0.00     0.014 A 
ATOM     41  C   UNL     1       1.314   0.456   7.955  1.00  0.00     0.014 A 
ATOM     42  C   UNL     1       3.374   0.805   9.806  1.00  0.00     0.010 A 
ATOM     43  C   UNL     1       1.548   1.715   8.504  1.00  0.00     0.010 A 
ATOM     44  C   UNL     1       2.568   1.898   9.448  1.00  0.00    -0.014 A 
BRANCH  44  45
ATOM     45  C   UNL     1       2.768   3.228  10.079  1.00  0.00     0.031 A 
ATOM     46  C   UNL     1       1.702   3.816  10.963  1.00  0.00     0.074 A 
ATOM     47  C   UNL     1       3.894   3.921   9.826  1.00  0.00     0.049 A 
ATOM     48  N   UNL     1       1.685   4.967  11.586  1.00  0.00    -0.248 NA
ATOM     49  C   UNL     1       0.481   3.016  11.150  1.00  0.00     0.031 C 
ATOM     50  C   UNL     1       4.977   3.481   8.946  1.00  0.00     0.029 A 
ATOM     51  N   UNL     1       4.313   5.145  10.284  1.00  0.00    -0.354 N 
ATOM     52  C   UNL     1       0.454   5.032  12.227  1.00  0.00     0.074 A 
ATOM     53  C   UNL     1      -0.272   3.833  11.871  1.00  0.00     0.031 C 
ATOM     54  C   UNL     1       5.949   4.407   8.949  1.00  0.00     0.029 A 
ATOM     55  C   UNL     1       5.546   5.518   9.807  1.00  0.00     0.049 A 
ATOM     56  H   UNL     1       3.781   5.702  10.897  1.00  0.00     0.167 HD
ATOM     57  C   UNL     1      -0.018   5.992  13.059  1.00  0.00     0.037 A 
ATOM     58  C   UNL     1       6.270   6.629  10.040  1.00  0.00     0.037 A 
ATOM     59  C   UNL     1       0.718   7.172  13.432  1.00  0.00     0.049 A 
ATOM     60  C   UNL     1       5.728   7.673  10.978  1.00  0.00     0.074 A 
ATOM     61  C   UNL     1       0.353   8.176  14.313  1.00  0.00     0.029 A 
ATOM     62  N   UNL     1       1.972   7.507  12.944  1.00  0.00    -0.354 N 
ATOM     63  N   UNL     1       4.593   7.690  11.634  1.00  0.00    -0.248 NA
ATOM     64  C   UNL     1       6.577   8.849  11.216  1.00  0.00     0.031 C 
ATOM     65  C   UNL     1       1.368   9.139  14.325  1.00  0.00     0.029 A 
ATOM     66  C   UNL     1       2.387   8.712  13.489  1.00  0.00     0.049 A 
ATOM     67  H   UNL     1       2.491   6.968  12.303  1.00  0.00     0.167 HD
ATOM     68  C   UNL     1       4.601   8.861  12.380  1.00  0.00     0.074 A 
ATOM     69  C   UNL     1       5.865   9.516  12.112  1.00  0.00     0.031 C 
ATOM     70  C   UNL     1       3.648   9.351  13.210  1.00  0.00     0.037 A 
BRANCH  57  71
ATOM     71  C   UNL     1      -1.396   5.803  13.626  1.00  0.00     0.064 A 
ATOM     72  C   UNL     1      -1.671   4.805  14.574  1.00  0.00     0.173 A 
ATOM     73  C   UNL     1      -2.449   6.646  13.240  1.00  0.00     0.173 A 
ATOM     74  F   UNL     1      -0.702   3.963  14.968  1.00  0.00    -0.203 F 
ATOM     75  C   UNL     1      -2.953   4.638  15.090  1.00  0.00     0.198 A 
ATOM     76  C   UNL     1      -3.723   6.496  13.782  1.00  0.00     0.198 A 
ATOM     77  F   UNL     1      -2.242   7.620  12.341  1.00  0.00    -0.203 F 
ATOM     78  F   UNL     1      -3.202   3.644  15.954  1.00  0.00    -0.200 F 
ATOM     79  C   UNL     1      -3.977   5.487  14.699  1.00  0.00     0.200 A 
ATOM     80  F   UNL     1      -4.709   7.326  13.412  1.00  0.00    -0.200 F 
ATOM     81  F   UNL     1      -5.209   5.329  15.200  1.00  0.00    -0.200 F 
ENDBRANCH  57  71
BRANCH  58  82
ATOM     82  C   UNL     1       7.601   6.794   9.402  1.00  0.00     0.064 A 
ATOM     83  C   UNL     1       8.776   6.739  10.164  1.00  0.00     0.173 A 
ATOM     84  C   UNL     1       7.728   7.016   8.023  1.00  0.00     0.173 A 
ATOM     85  F   UNL     1       8.705   6.549  11.490  1.00  0.00    -0.203 F 
ATOM     86  C   UNL     1      10.026   6.922   9.576  1.00  0.00     0.198 A 
ATOM     87  C   UNL     1       8.980   7.170   7.431  1.00  0.00     0.198 A 
ATOM     88  F   UNL     1       6.635   7.071   7.248  1.00  0.00    -0.203 F 
ATOM     89  F   UNL     1      11.130   6.911  10.336  1.00  0.00    -0.200 F 
ATOM     90  C   UNL     1      10.127   7.131   8.209  1.00  0.00     0.200 A 
ATOM     91  F   UNL     1       9.074   7.357   6.107  1.00  0.00    -0.200 F 
ATOM     92  F   UNL     1      11.329   7.304   7.643  1.00  0.00    -0.200 F 
ENDBRANCH  58  82
BRANCH  70  93
ATOM     93  C   UNL     1       3.950  10.647  13.905  1.00  0.00     0.064 A 
ATOM     94  C   UNL     1       3.988  11.864  13.209  1.00  0.00     0.173 A 
ATOM     95  C   UNL     1       4.188  10.674  15.288  1.00  0.00     0.173 A 
ATOM     96  F   UNL     1       3.783  11.890  11.883  1.00  0.00    -0.203 F 
ATOM     97  C   UNL     1       4.289  13.055  13.864  1.00  0.00     0.198 A 
ATOM     98  C   UNL     1       4.456  11.871  15.946  1.00  0.00     0.198 A 
ATOM     99  F   UNL     1       4.155   9.539  16.002  1.00  0.00    -0.203 F 
ATOM    100  F   UNL     1       4.379  14.196  13.168  1.00  0.00    -0.200 F 
ATOM    101  C   UNL     1       4.517  13.058  15.232  1.00  0.00     0.200 A 
ATOM    102  F   UNL     1       4.663  11.874  17.270  1.00  0.00    -0.200 F 
ATOM    103  F   UNL     1       4.807  14.205  15.862  1.00  0.00    -0.200 F 
ENDBRANCH  70  93
ENDBRANCH  44  45
ENDBRANCH  36  39
ENDBRANCH  34  35
ENDBRANCH  33  34
ENDBRANCH  32  33
ENDBRANCH   1  32
TORSDOF 16
