REMARK SMILES O=C(NCCCCCCNC(=O)c1ccn(CC(F)(F)F)c1)c1ccc(-c2c3nc(c(-c4c(F)c(F)c(F)c(F)c4F)c4ccc([nH]4)c(-c4c(F)c(F)c(F)c(F)c4F)c4nc(c(-c5c(F)c(F)c(F)c(F)c5F)c5ccc2[nH]5)C=C4)C=C3)cc1
REMARK SMILES IDX 6 1 5 2 4 3 3 4 1 5 2 6 23 8 24 9 85 10 25 11 84 12 26 13
REMARK SMILES IDX 27 14 28 15 78 16 29 17 83 18 77 19 79 20 30 21 82 22 76 23
REMARK SMILES IDX 75 24 31 26 63 27 43 28 62 29 44 30 47 31 61 32 80 33 45 34
REMARK SMILES IDX 46 35 60 37 81 38 48 39 32 40 33 41 41 42 34 43 35 44 39 45
REMARK SMILES IDX 42 46 36 47 37 48 40 49 38 50 64 51 65 52 73 53 66 54 67 55
REMARK SMILES IDX 71 56 74 57 68 58 69 59 72 60 70 61 49 62 50 63 58 64 51 65
REMARK SMILES IDX 52 66 56 67 59 68 53 69 54 70 57 71 55 72 7 73 8 74 9 75
REMARK SMILES IDX 10 76 11 77 12 79 13 80 14 81 22 82 15 83 16 84 17 85 18 86
REMARK SMILES IDX 19 87 20 88 21 89
REMARK H PARENT 3 7 79 25 47 36 10 78
REMARK Flexibility Score: inf
ROOT
ATOM      1  C   UNL     1       4.238  -3.307  -1.743  1.00  0.00     0.002 C 
ENDROOT
BRANCH   1   2
ATOM      2  C   UNL     1       4.771  -2.299  -0.724  1.00  0.00     0.021 C 
BRANCH   2   3
ATOM      3  C   UNL     1       4.631  -0.833  -1.139  1.00  0.00     0.116 C 
BRANCH   3   4
ATOM      4  N   UNL     1       3.272  -0.322  -1.173  1.00  0.00    -0.352 N 
ATOM      5  O   UNL     1       1.258   0.399  -0.521  1.00  0.00    -0.269 OA
ATOM      6  C   UNL     1       2.328  -0.117  -0.201  1.00  0.00     0.251 C 
ATOM      7  H   UNL     1       2.968  -0.073  -2.076  1.00  0.00     0.163 HD
BRANCH   6   8
ATOM      8  C   UNL     1       2.520  -0.550   1.204  1.00  0.00     0.039 A 
ATOM      9  C   UNL     1       3.754  -0.510   1.853  1.00  0.00     0.014 A 
ATOM     10  C   UNL     1       1.386  -0.991   1.908  1.00  0.00     0.014 A 
ATOM     11  C   UNL     1       3.884  -1.002   3.144  1.00  0.00     0.010 A 
ATOM     12  C   UNL     1       1.498  -1.435   3.227  1.00  0.00     0.010 A 
ATOM     13  C   UNL     1       2.755  -1.447   3.840  1.00  0.00    -0.014 A 
BRANCH  13  14
ATOM     14  C   UNL     1       2.933  -1.727   5.283  1.00  0.00     0.031 A 
ATOM     15  C   UNL     1       3.085  -0.453   6.108  1.00  0.00     0.074 A 
ATOM     16  C   UNL     1       3.034  -3.028   5.671  1.00  0.00     0.049 A 
ATOM     17  N   UNL     1       3.741  -0.249   7.210  1.00  0.00    -0.248 NA
ATOM     18  C   UNL     1       2.491   0.803   5.579  1.00  0.00     0.031 C 
ATOM     19  C   UNL     1       2.861  -4.166   4.758  1.00  0.00     0.029 A 
ATOM     20  N   UNL     1       3.311  -3.660   6.871  1.00  0.00    -0.354 N 
ATOM     21  C   UNL     1       3.484   1.079   7.599  1.00  0.00     0.074 A 
ATOM     22  C   UNL     1       2.831   1.712   6.493  1.00  0.00     0.031 C 
ATOM     23  C   UNL     1       3.089  -5.327   5.401  1.00  0.00     0.029 A 
ATOM     24  C   UNL     1       3.424  -5.071   6.789  1.00  0.00     0.049 A 
ATOM     25  H   UNL     1       3.421  -3.168   7.716  1.00  0.00     0.167 HD
ATOM     26  C   UNL     1       3.681   1.543   8.866  1.00  0.00     0.037 A 
ATOM     27  C   UNL     1       3.794  -5.975   7.751  1.00  0.00     0.037 A 
ATOM     28  C   UNL     1       4.253   0.539   9.698  1.00  0.00     0.049 A 
ATOM     29  C   UNL     1       3.944  -5.208   9.002  1.00  0.00     0.074 A 
ATOM     30  C   UNL     1       5.508   0.011   9.834  1.00  0.00     0.029 A 
ATOM     31  N   UNL     1       3.379  -0.226  10.430  1.00  0.00    -0.354 N 
ATOM     32  N   UNL     1       2.956  -4.747   9.710  1.00  0.00    -0.248 NA
ATOM     33  C   UNL     1       5.293  -4.897   9.493  1.00  0.00     0.031 C 
ATOM     34  C   UNL     1       5.307  -1.272  10.393  1.00  0.00     0.029 A 
ATOM     35  C   UNL     1       3.937  -1.471  10.586  1.00  0.00     0.049 A 
ATOM     36  H   UNL     1       2.507   0.067  10.781  1.00  0.00     0.167 HD
ATOM     37  C   UNL     1       3.575  -3.835  10.536  1.00  0.00     0.074 A 
ATOM     38  C   UNL     1       4.972  -4.193  10.575  1.00  0.00     0.031 C 
ATOM     39  C   UNL     1       3.036  -2.599  10.680  1.00  0.00     0.037 A 
BRANCH  26  40
ATOM     40  C   UNL     1       3.168   2.786   9.543  1.00  0.00     0.064 A 
ATOM     41  C   UNL     1       3.802   3.210  10.736  1.00  0.00     0.173 A 
ATOM     42  C   UNL     1       1.914   3.356   9.277  1.00  0.00     0.173 A 
ATOM     43  F   UNL     1       5.020   2.751  11.067  1.00  0.00    -0.203 F 
ATOM     44  C   UNL     1       3.169   4.043  11.656  1.00  0.00     0.198 A 
ATOM     45  C   UNL     1       1.306   4.236  10.177  1.00  0.00     0.198 A 
ATOM     46  F   UNL     1       1.201   3.000   8.201  1.00  0.00    -0.203 F 
ATOM     47  F   UNL     1       3.753   4.302  12.835  1.00  0.00    -0.200 F 
ATOM     48  C   UNL     1       1.913   4.545  11.382  1.00  0.00     0.200 A 
ATOM     49  F   UNL     1       0.088   4.724   9.903  1.00  0.00    -0.200 F 
ATOM     50  F   UNL     1       1.273   5.294  12.289  1.00  0.00    -0.200 F 
ENDBRANCH  26  40
BRANCH  27  51
ATOM     51  C   UNL     1       4.115  -7.458   7.825  1.00  0.00     0.064 A 
ATOM     52  C   UNL     1       3.973  -8.391   6.787  1.00  0.00     0.173 A 
ATOM     53  C   UNL     1       4.669  -8.015   9.016  1.00  0.00     0.173 A 
ATOM     54  F   UNL     1       3.362  -8.080   5.644  1.00  0.00    -0.203 F 
ATOM     55  C   UNL     1       4.439  -9.714   6.888  1.00  0.00     0.198 A 
ATOM     56  C   UNL     1       5.160  -9.320   9.108  1.00  0.00     0.198 A 
ATOM     57  F   UNL     1       4.758  -7.308  10.150  1.00  0.00    -0.203 F 
ATOM     58  F   UNL     1       4.288 -10.548   5.849  1.00  0.00    -0.200 F 
ATOM     59  C   UNL     1       5.061 -10.168   8.034  1.00  0.00     0.200 A 
ATOM     60  F   UNL     1       5.744  -9.731  10.243  1.00  0.00    -0.200 F 
ATOM     61  F   UNL     1       5.545 -11.415   8.107  1.00  0.00    -0.200 F 
ENDBRANCH  27  51
BRANCH  39  62
ATOM     62  C   UNL     1       1.547  -2.574  10.400  1.00  0.00     0.064 A 
ATOM     63  C   UNL     1       0.654  -3.241  11.251  1.00  0.00     0.173 A 
ATOM     64  C   UNL     1       1.000  -2.039   9.223  1.00  0.00     0.173 A 
ATOM     65  F   UNL     1       1.096  -3.779  12.397  1.00  0.00    -0.203 F 
ATOM     66  C   UNL     1      -0.700  -3.374  10.927  1.00  0.00     0.198 A 
ATOM     67  C   UNL     1      -0.350  -2.158   8.902  1.00  0.00     0.198 A 
ATOM     68  F   UNL     1       1.774  -1.393   8.355  1.00  0.00    -0.203 F 
ATOM     69  F   UNL     1      -1.523  -4.030  11.757  1.00  0.00    -0.200 F 
ATOM     70  C   UNL     1      -1.200  -2.834   9.752  1.00  0.00     0.200 A 
ATOM     71  F   UNL     1      -0.819  -1.614   7.768  1.00  0.00    -0.200 F 
ATOM     72  F   UNL     1      -2.499  -2.958   9.445  1.00  0.00    -0.200 F 
ENDBRANCH  39  62
ENDBRANCH  13  14
ENDBRANCH   6   8
ENDBRANCH   3   4
ENDBRANCH   2   3
ENDBRANCH   1   2
BRANCH   1  73
ATOM     73  C   UNL     1       4.853  -3.208  -3.141  1.00  0.00     0.002 C 
BRANCH  73  74
ATOM     74  C   UNL     1       6.386  -3.203  -3.188  1.00  0.00     0.021 C 
BRANCH  74  75
ATOM     75  C   UNL     1       7.050  -4.451  -2.604  1.00  0.00     0.116 C 
BRANCH  75  76
ATOM     76  N   UNL     1       6.770  -5.621  -3.416  1.00  0.00    -0.352 N 
ATOM     77  C   UNL     1       7.627  -6.333  -4.212  1.00  0.00     0.252 C 
ATOM     78  H   UNL     1       5.841  -5.947  -3.390  1.00  0.00     0.163 HD
ATOM     79  O   UNL     1       7.161  -7.086  -5.071  1.00  0.00    -0.269 OA
BRANCH  77  80
ATOM     80  C   UNL     1       9.059  -6.172  -4.020  1.00  0.00     0.057 A 
ATOM     81  C   UNL     1       9.810  -6.212  -2.808  1.00  0.00     0.033 A 
ATOM     82  C   UNL     1       9.982  -6.013  -5.040  1.00  0.00     0.099 A 
ATOM     83  C   UNL     1      11.139  -6.040  -3.126  1.00  0.00     0.087 A 
ATOM     84  N   UNL     1      11.227  -5.890  -4.484  1.00  0.00    -0.344 N 
BRANCH  84  85
ATOM     85  C   UNL     1      12.458  -5.695  -5.226  1.00  0.00     0.236 C 
BRANCH  85  86
ATOM     86  C   UNL     1      13.050  -4.317  -5.034  1.00  0.00     0.406 C 
ATOM     87  F   UNL     1      13.433  -4.100  -3.756  1.00  0.00    -0.169 F 
ATOM     88  F   UNL     1      14.155  -4.176  -5.807  1.00  0.00    -0.169 F 
ATOM     89  F   UNL     1      12.191  -3.337  -5.387  1.00  0.00    -0.169 F 
ENDBRANCH  85  86
ENDBRANCH  84  85
ENDBRANCH  77  80
ENDBRANCH  75  76
ENDBRANCH  74  75
ENDBRANCH  73  74
ENDBRANCH   1  73
TORSDOF 15
