REMARK SMILES [NH3+][C@]1(C(=O)NCCCCCCNC(=O)c2ccc(-c3c4nc(c(-c5c(F)c(F)c(F)c(F)c5F)c5ccc([nH]5)c(-c5c(F)c(F)c(F)c(F)c5F)c5nc(c(-c6c(F)c(F)c(F)c(F)c6F)c6ccc3[nH]6)C=C5)C=C4)cc2)CC[C@@H]([N@H+](CC2CC2)C2CC2)C1
REMARK SMILES IDX 8 1 7 2 6 3 5 4 3 5 4 6 2 8 78 9 89 10 79 11 80 12 1 13
REMARK SMILES IDX 81 17 82 19 83 20 84 21 85 22 86 23 87 24 88 25 9 26 10 27
REMARK SMILES IDX 11 28 12 29 13 30 14 32 15 33 16 34 77 35 17 36 76 37 18 38
REMARK SMILES IDX 19 39 20 40 70 41 21 42 75 43 69 44 71 45 22 46 74 47 68 48
REMARK SMILES IDX 67 49 23 51 55 52 35 53 54 54 36 55 39 56 53 57 72 58 37 59
REMARK SMILES IDX 38 60 52 62 73 63 40 64 24 65 25 66 33 67 26 68 27 69 31 70
REMARK SMILES IDX 34 71 28 72 29 73 32 74 30 75 56 76 57 77 65 78 58 79 59 80
REMARK SMILES IDX 63 81 66 82 60 83 61 84 64 85 62 86 41 87 42 88 50 89 43 90
REMARK SMILES IDX 44 91 48 92 51 93 45 94 46 95 49 96 47 97
REMARK H PARENT 5 7 1 14 1 15 1 16 81 18 12 31 71 50 39 61
REMARK Flexibility Score: inf
ROOT
ATOM      1  C   UNL     1       4.922  -1.476  -1.320  1.00  0.00     0.002 C 
ENDROOT
BRANCH   1   2
ATOM      2  C   UNL     1       3.894  -1.613  -0.191  1.00  0.00     0.021 C 
BRANCH   2   3
ATOM      3  C   UNL     1       2.999  -0.395   0.026  1.00  0.00     0.116 C 
BRANCH   3   4
ATOM      4  N   UNL     1       1.736  -0.451  -0.661  1.00  0.00    -0.351 N 
ATOM      5  C   UNL     1       0.509  -0.052  -0.235  1.00  0.00     0.281 C 
ATOM      6  O   UNL     1      -0.372  -0.008  -1.108  1.00  0.00    -0.268 OA
ATOM      7  H   UNL     1       1.765  -0.833  -1.569  1.00  0.00     0.163 HD
BRANCH   5   8
ATOM      8  C   UNL     1       0.152   0.310   1.254  1.00  0.00     0.179 C 
ATOM      9  C   UNL     1       0.278  -0.850   2.238  1.00  0.00     0.085 C 
ATOM     10  C   UNL     1       0.949   1.445   1.945  1.00  0.00     0.144 C 
ATOM     11  C   UNL     1       0.166  -0.136   3.585  1.00  0.00     0.072 C 
ATOM     12  C   UNL     1       1.142   1.064   3.452  1.00  0.00     0.191 C 
BRANCH   8  13
ATOM     13  N   UNL     1      -1.298   0.703   1.253  1.00  0.00    -0.345 N 
ATOM     14  H   UNL     1      -1.585   0.949   2.200  1.00  0.00     0.345 HD
ATOM     15  H   UNL     1      -1.862  -0.079   0.920  1.00  0.00     0.345 HD
ATOM     16  H   UNL     1      -1.433   1.505   0.637  1.00  0.00     0.345 HD
ENDBRANCH   8  13
BRANCH  12  17
ATOM     17  N   UNL     1       2.465   0.622   3.971  1.00  0.00    -0.330 N 
ATOM     18  H   UNL     1       2.583  -0.231   3.426  1.00  0.00     0.348 HD
BRANCH  17  19
ATOM     19  C   UNL     1       2.398   0.433   5.454  1.00  0.00     0.266 C 
BRANCH  19  20
ATOM     20  C   UNL     1       2.475  -0.990   5.929  1.00  0.00     0.044 C 
ATOM     21  C   UNL     1       2.575  -2.188   5.016  1.00  0.00     0.010 C 
ATOM     22  C   UNL     1       3.760  -1.777   5.837  1.00  0.00     0.010 C 
ENDBRANCH  19  20
ENDBRANCH  17  19
BRANCH  17  23
ATOM     23  C   UNL     1       3.712   1.352   3.649  1.00  0.00     0.184 C 
ATOM     24  C   UNL     1       4.739   0.393   3.062  1.00  0.00     0.071 C 
ATOM     25  C   UNL     1       4.381   1.645   2.343  1.00  0.00     0.071 C 
ENDBRANCH  17  23
ENDBRANCH  12  17
ENDBRANCH   5   8
ENDBRANCH   3   4
ENDBRANCH   2   3
ENDBRANCH   1   2
BRANCH   1  26
ATOM     26  C   UNL     1       5.947  -0.340  -1.183  1.00  0.00     0.002 C 
BRANCH  26  27
ATOM     27  C   UNL     1       6.828  -0.359   0.069  1.00  0.00     0.021 C 
BRANCH  27  28
ATOM     28  C   UNL     1       7.660  -1.618   0.286  1.00  0.00     0.116 C 
BRANCH  28  29
ATOM     29  N   UNL     1       8.568  -1.883  -0.819  1.00  0.00    -0.352 N 
ATOM     30  C   UNL     1       9.930  -2.025  -0.837  1.00  0.00     0.251 C 
ATOM     31  H   UNL     1       8.132  -1.974  -1.697  1.00  0.00     0.163 HD
ATOM     32  O   UNL     1      10.523  -2.058  -1.918  1.00  0.00    -0.269 OA
BRANCH  30  33
ATOM     33  C   UNL     1      10.706  -2.125   0.418  1.00  0.00     0.039 A 
ATOM     34  C   UNL     1      11.940  -1.471   0.500  1.00  0.00     0.014 A 
ATOM     35  C   UNL     1      10.255  -2.892   1.496  1.00  0.00     0.014 A 
ATOM     36  C   UNL     1      12.691  -1.540   1.676  1.00  0.00     0.010 A 
ATOM     37  C   UNL     1      10.968  -2.898   2.694  1.00  0.00     0.010 A 
ATOM     38  C   UNL     1      12.197  -2.227   2.796  1.00  0.00    -0.014 A 
BRANCH  38  39
ATOM     39  C   UNL     1      12.951  -2.253   4.076  1.00  0.00     0.031 A 
ATOM     40  C   UNL     1      13.468  -3.553   4.630  1.00  0.00     0.074 A 
ATOM     41  C   UNL     1      13.123  -1.111   4.770  1.00  0.00     0.049 A 
ATOM     42  N   UNL     1      14.093  -3.784   5.758  1.00  0.00    -0.248 NA
ATOM     43  C   UNL     1      13.227  -4.758   3.821  1.00  0.00     0.031 C 
ATOM     44  C   UNL     1      12.633   0.206   4.363  1.00  0.00     0.029 A 
ATOM     45  N   UNL     1      13.749  -0.875   5.970  1.00  0.00    -0.354 N 
ATOM     46  C   UNL     1      14.308  -5.156   5.798  1.00  0.00     0.074 A 
ATOM     47  C   UNL     1      13.697  -5.713   4.610  1.00  0.00     0.031 C 
ATOM     48  C   UNL     1      12.995   1.115   5.282  1.00  0.00     0.029 A 
ATOM     49  C   UNL     1      13.704   0.440   6.365  1.00  0.00     0.049 A 
ATOM     50  H   UNL     1      14.188  -1.582   6.497  1.00  0.00     0.167 HD
ATOM     51  C   UNL     1      14.973  -5.882   6.728  1.00  0.00     0.037 A 
ATOM     52  C   UNL     1      14.171   1.033   7.481  1.00  0.00     0.037 A 
ATOM     53  C   UNL     1      15.595  -5.320   7.900  1.00  0.00     0.049 A 
ATOM     54  C   UNL     1      14.893   0.201   8.507  1.00  0.00     0.074 A 
ATOM     55  C   UNL     1      16.341  -5.963   8.873  1.00  0.00     0.029 A 
ATOM     56  N   UNL     1      15.537  -3.982   8.261  1.00  0.00    -0.354 N 
ATOM     57  N   UNL     1      15.150  -1.084   8.499  1.00  0.00    -0.248 NA
ATOM     58  C   UNL     1      15.395   0.905   9.695  1.00  0.00     0.031 C 
ATOM     59  C   UNL     1      16.684  -5.025   9.852  1.00  0.00     0.029 A 
ATOM     60  C   UNL     1      16.210  -3.785   9.457  1.00  0.00     0.049 A 
ATOM     61  H   UNL     1      15.085  -3.276   7.744  1.00  0.00     0.167 HD
ATOM     62  C   UNL     1      15.870  -1.337   9.660  1.00  0.00     0.074 A 
ATOM     63  C   UNL     1      16.021  -0.068  10.340  1.00  0.00     0.031 C 
ATOM     64  C   UNL     1      16.360  -2.514  10.120  1.00  0.00     0.037 A 
BRANCH  51  65
ATOM     65  C   UNL     1      15.063  -7.368   6.521  1.00  0.00     0.064 A 
ATOM     66  C   UNL     1      15.827  -7.923   5.482  1.00  0.00     0.173 A 
ATOM     67  C   UNL     1      14.412  -8.250   7.396  1.00  0.00     0.173 A 
ATOM     68  F   UNL     1      16.463  -7.126   4.610  1.00  0.00    -0.203 F 
ATOM     69  C   UNL     1      15.908  -9.303   5.309  1.00  0.00     0.198 A 
ATOM     70  C   UNL     1      14.524  -9.630   7.241  1.00  0.00     0.198 A 
ATOM     71  F   UNL     1      13.675  -7.775   8.411  1.00  0.00    -0.203 F 
ATOM     72  F   UNL     1      16.600  -9.807   4.278  1.00  0.00    -0.200 F 
ATOM     73  C   UNL     1      15.264 -10.155   6.192  1.00  0.00     0.200 A 
ATOM     74  F   UNL     1      13.913 -10.451   8.106  1.00  0.00    -0.200 F 
ATOM     75  F   UNL     1      15.351 -11.482   6.030  1.00  0.00    -0.200 F 
ENDBRANCH  51  65
BRANCH  52  76
ATOM     76  C   UNL     1      13.987   2.496   7.678  1.00  0.00     0.064 A 
ATOM     77  C   UNL     1      15.083   3.370   7.660  1.00  0.00     0.173 A 
ATOM     78  C   UNL     1      12.717   3.049   7.896  1.00  0.00     0.173 A 
ATOM     79  F   UNL     1      16.321   2.888   7.475  1.00  0.00    -0.203 F 
ATOM     80  C   UNL     1      14.918   4.737   7.878  1.00  0.00     0.198 A 
ATOM     81  C   UNL     1      12.549   4.420   8.081  1.00  0.00     0.198 A 
ATOM     82  F   UNL     1      11.634   2.258   7.917  1.00  0.00    -0.203 F 
ATOM     83  F   UNL     1      15.989   5.542   7.908  1.00  0.00    -0.200 F 
ATOM     84  C   UNL     1      13.651   5.261   8.082  1.00  0.00     0.200 A 
ATOM     85  F   UNL     1      11.321   4.924   8.261  1.00  0.00    -0.200 F 
ATOM     86  F   UNL     1      13.493   6.576   8.287  1.00  0.00    -0.200 F 
ENDBRANCH  52  76
BRANCH  64  87
ATOM     87  C   UNL     1      17.143  -2.481  11.402  1.00  0.00     0.064 A 
ATOM     88  C   UNL     1      16.529  -2.237  12.639  1.00  0.00     0.173 A 
ATOM     89  C   UNL     1      18.524  -2.735  11.394  1.00  0.00     0.173 A 
ATOM     90  F   UNL     1      15.215  -1.975  12.701  1.00  0.00    -0.203 F 
ATOM     91  C   UNL     1      17.273  -2.219  13.817  1.00  0.00     0.198 A 
ATOM     92  C   UNL     1      19.258  -2.751  12.577  1.00  0.00     0.198 A 
ATOM     93  F   UNL     1      19.160  -2.982  10.239  1.00  0.00    -0.203 F 
ATOM     94  F   UNL     1      16.674  -1.930  14.980  1.00  0.00    -0.200 F 
ATOM     95  C   UNL     1      18.634  -2.484  13.786  1.00  0.00     0.200 A 
ATOM     96  F   UNL     1      20.570  -3.023  12.546  1.00  0.00    -0.200 F 
ATOM     97  F   UNL     1      19.346  -2.474  14.921  1.00  0.00    -0.200 F 
ENDBRANCH  64  87
ENDBRANCH  38  39
ENDBRANCH  30  33
ENDBRANCH  28  29
ENDBRANCH  27  28
ENDBRANCH  26  27
ENDBRANCH   1  26
TORSDOF 18
