REMARK SMILES NS(=O)(=O)c1ccc(-n2nc(C(=O)NCCCCCCNC(=O)c3ccc(-c4c5nc(c(-c6c(F)c(F)c(F)c(F)c6F)c6ccc([nH]6)c(-c6c(F)c(F)c(F)c(F)c6F)c6nc(c(-c7c(F)c(F)c(F)c(F)c7F)c7ccc4[nH]7)C=C6)C=C5)cc3)cc2-c2ccc(Cl)s2)cc1
REMARK SMILES IDX 17 1 16 2 15 3 14 4 12 5 13 6 11 8 9 9 10 10 88 11 87 12
REMARK SMILES IDX 8 13 5 14 6 15 96 16 7 17 95 18 2 19 3 20 4 21 1 22 89 25
REMARK SMILES IDX 90 26 94 27 91 28 92 29 93 30 18 31 19 32 20 33 21 34 22 35
REMARK SMILES IDX 23 37 24 38 25 39 86 40 26 41 85 42 27 43 28 44 29 45 79 46
REMARK SMILES IDX 30 47 84 48 78 49 80 50 31 51 83 52 77 53 76 54 32 56 64 57
REMARK SMILES IDX 44 58 63 59 45 60 48 61 62 62 81 63 46 64 47 65 61 67 82 68
REMARK SMILES IDX 49 69 33 70 34 71 42 72 35 73 36 74 40 75 43 76 37 77 38 78
REMARK SMILES IDX 41 79 39 80 65 81 66 82 74 83 67 84 68 85 72 86 75 87 69 88
REMARK SMILES IDX 70 89 73 90 71 91 50 92 51 93 59 94 52 95 53 96 57 97 60 98
REMARK SMILES IDX 54 99 55 100 58 101 56 102
REMARK H PARENT 14 7 1 23 1 24 21 36 80 55 48 66
REMARK Flexibility Score: inf
ROOT
ATOM      1  C   UNL     1       4.135  -2.174  13.357  1.00  0.00     0.002 C 
ENDROOT
BRANCH   1   2
ATOM      2  C   UNL     1       4.187  -2.109  11.825  1.00  0.00     0.021 C 
BRANCH   2   3
ATOM      3  C   UNL     1       2.872  -2.512  11.156  1.00  0.00     0.116 C 
BRANCH   3   4
ATOM      4  N   UNL     1       1.963  -1.389  11.071  1.00  0.00    -0.351 N 
ATOM      5  C   UNL     1       1.535  -0.585  10.039  1.00  0.00     0.271 C 
ATOM      6  O   UNL     1       0.719   0.285  10.358  1.00  0.00    -0.267 OA
ATOM      7  H   UNL     1       1.564  -1.149  11.939  1.00  0.00     0.163 HD
BRANCH   5   8
ATOM      8  C   UNL     1       1.984  -0.768   8.639  1.00  0.00     0.151 A 
ATOM      9  N   UNL     1       1.899  -0.548   6.494  1.00  0.00    -0.231 N 
ATOM     10  N   UNL     1       1.404  -0.054   7.650  1.00  0.00    -0.162 NA
ATOM     11  C   UNL     1       2.910  -1.459   6.720  1.00  0.00     0.085 A 
ATOM     12  C   UNL     1       3.005  -1.579   8.087  1.00  0.00     0.066 A 
BRANCH   9  13
ATOM     13  C   UNL     1       1.395  -0.108   5.246  1.00  0.00     0.065 A 
ATOM     14  C   UNL     1       0.675   0.785   2.718  1.00  0.00     0.082 A 
ATOM     15  C   UNL     1       0.771  -0.588   2.961  1.00  0.00     0.024 A 
ATOM     16  C   UNL     1       0.889   1.713   3.744  1.00  0.00     0.024 A 
ATOM     17  C   UNL     1       1.150  -1.036   4.225  1.00  0.00     0.030 A 
ATOM     18  C   UNL     1       1.216   1.263   5.026  1.00  0.00     0.030 A 
BRANCH  14  19
ATOM     19  S   UNL     1       0.355   1.359   1.076  1.00  0.00     0.238 S 
ATOM     20  O   UNL     1       1.087   2.599   0.867  1.00  0.00    -0.207 OA
ATOM     21  O   UNL     1      -1.040   1.217   0.797  1.00  0.00    -0.207 OA
BRANCH  19  22
ATOM     22  N   UNL     1       1.152   0.232   0.110  1.00  0.00    -0.225 NA
ATOM     23  H   UNL     1       1.027   0.477  -0.872  1.00  0.00     0.137 HD
ATOM     24  H   UNL     1       0.765  -0.696   0.280  1.00  0.00     0.137 HD
ENDBRANCH  19  22
ENDBRANCH  14  19
ENDBRANCH   9  13
BRANCH  11  25
ATOM     25  C   UNL     1       3.773  -2.053   5.744  1.00  0.00     0.054 A 
ATOM     26  C   UNL     1       3.920  -3.401   5.479  1.00  0.00     0.024 A 
ATOM     27  S   UNL     1       4.858  -1.102   4.818  1.00  0.00    -0.122 S 
ATOM     28  C   UNL     1       4.938  -3.649   4.509  1.00  0.00     0.033 A 
ATOM     29  C   UNL     1       5.518  -2.479   4.093  1.00  0.00     0.094 A 
ATOM     30  Cl  UNL     1       6.803  -2.317   2.967  1.00  0.00    -0.072 Cl
ENDBRANCH  11  25
ENDBRANCH   5   8
ENDBRANCH   3   4
ENDBRANCH   2   3
ENDBRANCH   1   2
BRANCH   1  31
ATOM     31  C   UNL     1       3.773  -3.547  13.948  1.00  0.00     0.002 C 
BRANCH  31  32
ATOM     32  C   UNL     1       4.583  -4.740  13.419  1.00  0.00     0.021 C 
BRANCH  32  33
ATOM     33  C   UNL     1       6.058  -4.688  13.795  1.00  0.00     0.116 C 
BRANCH  33  34
ATOM     34  N   UNL     1       6.249  -4.822  15.233  1.00  0.00    -0.352 N 
ATOM     35  C   UNL     1       7.413  -4.776  15.960  1.00  0.00     0.251 C 
ATOM     36  H   UNL     1       5.428  -4.966  15.757  1.00  0.00     0.163 HD
ATOM     37  O   UNL     1       7.453  -5.242  17.094  1.00  0.00    -0.269 OA
BRANCH  35  38
ATOM     38  C   UNL     1       8.626  -4.186  15.367  1.00  0.00     0.039 A 
ATOM     39  C   UNL     1       9.861  -4.801  15.582  1.00  0.00     0.014 A 
ATOM     40  C   UNL     1       8.538  -3.016  14.611  1.00  0.00     0.014 A 
ATOM     41  C   UNL     1      10.994  -4.280  14.967  1.00  0.00     0.010 A 
ATOM     42  C   UNL     1       9.645  -2.552  13.927  1.00  0.00     0.010 A 
ATOM     43  C   UNL     1      10.879  -3.171  14.114  1.00  0.00    -0.014 A 
BRANCH  43  44
ATOM     44  C   UNL     1      12.035  -2.775  13.309  1.00  0.00     0.031 A 
ATOM     45  C   UNL     1      12.634  -3.869  12.489  1.00  0.00     0.074 A 
ATOM     46  C   UNL     1      12.445  -1.502  13.133  1.00  0.00     0.049 A 
ATOM     47  N   UNL     1      13.843  -4.323  12.539  1.00  0.00    -0.248 NA
ATOM     48  C   UNL     1      11.760  -4.611  11.566  1.00  0.00     0.031 C 
ATOM     49  C   UNL     1      11.808  -0.269  13.597  1.00  0.00     0.029 A 
ATOM     50  N   UNL     1      13.486  -1.041  12.382  1.00  0.00    -0.354 N 
ATOM     51  C   UNL     1      13.939  -5.306  11.555  1.00  0.00     0.074 A 
ATOM     52  C   UNL     1      12.598  -5.530  11.082  1.00  0.00     0.031 C 
ATOM     53  C   UNL     1      12.331   0.782  12.927  1.00  0.00     0.029 A 
ATOM     54  C   UNL     1      13.430   0.317  12.099  1.00  0.00     0.049 A 
ATOM     55  H   UNL     1      14.216  -1.623  12.067  1.00  0.00     0.167 HD
ATOM     56  C   UNL     1      15.152  -5.710  11.080  1.00  0.00     0.037 A 
ATOM     57  C   UNL     1      14.197   0.996  11.209  1.00  0.00     0.037 A 
ATOM     58  C   UNL     1      16.207  -5.356  11.998  1.00  0.00     0.049 A 
ATOM     59  C   UNL     1      15.412   0.179  10.957  1.00  0.00     0.074 A 
ATOM     60  C   UNL     1      16.451  -5.618  13.335  1.00  0.00     0.029 A 
ATOM     61  N   UNL     1      17.036  -4.307  11.680  1.00  0.00    -0.354 N 
ATOM     62  N   UNL     1      16.360  -0.006  11.833  1.00  0.00    -0.248 NA
ATOM     63  C   UNL     1      15.365  -0.792   9.873  1.00  0.00     0.031 C 
ATOM     64  C   UNL     1      16.981  -4.401  13.855  1.00  0.00     0.029 A 
ATOM     65  C   UNL     1      17.099  -3.507  12.791  1.00  0.00     0.049 A 
ATOM     66  H   UNL     1      17.495  -4.159  10.822  1.00  0.00     0.167 HD
ATOM     67  C   UNL     1      16.720  -1.335  11.677  1.00  0.00     0.074 A 
ATOM     68  C   UNL     1      16.152  -1.737  10.392  1.00  0.00     0.031 C 
ATOM     69  C   UNL     1      17.188  -2.070  12.727  1.00  0.00     0.037 A 
BRANCH  56  70
ATOM     70  C   UNL     1      15.436  -6.085   9.640  1.00  0.00     0.064 A 
ATOM     71  C   UNL     1      16.745  -6.482   9.287  1.00  0.00     0.173 A 
ATOM     72  C   UNL     1      14.593  -5.766   8.556  1.00  0.00     0.173 A 
ATOM     73  F   UNL     1      17.637  -6.824  10.229  1.00  0.00    -0.203 F 
ATOM     74  C   UNL     1      17.206  -6.428   7.969  1.00  0.00     0.198 A 
ATOM     75  C   UNL     1      15.042  -5.766   7.235  1.00  0.00     0.198 A 
ATOM     76  F   UNL     1      13.338  -5.337   8.724  1.00  0.00    -0.203 F 
ATOM     77  F   UNL     1      18.499  -6.663   7.708  1.00  0.00    -0.200 F 
ATOM     78  C   UNL     1      16.358  -6.055   6.946  1.00  0.00     0.200 A 
ATOM     79  F   UNL     1      14.204  -5.396   6.256  1.00  0.00    -0.200 F 
ATOM     80  F   UNL     1      16.815  -5.927   5.693  1.00  0.00    -0.200 F 
ENDBRANCH  56  70
BRANCH  57  81
ATOM     81  C   UNL     1      13.858   2.186  10.390  1.00  0.00     0.064 A 
ATOM     82  C   UNL     1      14.855   2.893   9.696  1.00  0.00     0.173 A 
ATOM     83  C   UNL     1      12.527   2.498  10.049  1.00  0.00     0.173 A 
ATOM     84  F   UNL     1      16.151   2.635   9.925  1.00  0.00    -0.203 F 
ATOM     85  C   UNL     1      14.542   3.825   8.701  1.00  0.00     0.198 A 
ATOM     86  C   UNL     1      12.214   3.439   9.066  1.00  0.00     0.198 A 
ATOM     87  F   UNL     1      11.499   1.830  10.591  1.00  0.00    -0.203 F 
ATOM     88  F   UNL     1      15.524   4.423   8.013  1.00  0.00    -0.200 F 
ATOM     89  C   UNL     1      13.222   4.090   8.380  1.00  0.00     0.200 A 
ATOM     90  F   UNL     1      10.932   3.661   8.744  1.00  0.00    -0.200 F 
ATOM     91  F   UNL     1      12.921   4.935   7.385  1.00  0.00    -0.200 F 
ENDBRANCH  57  81
BRANCH  69  92
ATOM     92  C   UNL     1      17.582  -1.362  13.991  1.00  0.00     0.064 A 
ATOM     93  C   UNL     1      16.716  -0.562  14.756  1.00  0.00     0.173 A 
ATOM     94  C   UNL     1      18.847  -1.640  14.532  1.00  0.00     0.173 A 
ATOM     95  F   UNL     1      15.454  -0.335  14.368  1.00  0.00    -0.203 F 
ATOM     96  C   UNL     1      17.117  -0.030  15.980  1.00  0.00     0.198 A 
ATOM     97  C   UNL     1      19.228  -1.144  15.775  1.00  0.00     0.198 A 
ATOM     98  F   UNL     1      19.699  -2.442  13.874  1.00  0.00    -0.203 F 
ATOM     99  F   UNL     1      16.277   0.743  16.684  1.00  0.00    -0.200 F 
ATOM    100  C   UNL     1      18.369  -0.330  16.493  1.00  0.00     0.200 A 
ATOM    101  F   UNL     1      20.419  -1.481  16.289  1.00  0.00    -0.200 F 
ATOM    102  F   UNL     1      18.736   0.143  17.692  1.00  0.00    -0.200 F 
ENDBRANCH  69  92
ENDBRANCH  43  44
ENDBRANCH  35  38
ENDBRANCH  33  34
ENDBRANCH  32  33
ENDBRANCH  31  32
ENDBRANCH   1  31
TORSDOF 17
