REMARK SMILES [NH3+][C@H]1C=C[C@@H](C(=O)N2CCC(CC(=O)NCCCCCCNC(=O)c3ccc(-c4c5nc(c(-c6c(F)c(F)c(F)c(F)c6F)c6ccc([nH]6)c(-c6c(F)c(F)c(F)c(F)c6F)c6nc(c(-c7c(F)c(F)c(F)c(F)c7F)c7ccc4[nH]7)C=C6)C=C5)cc3)CC2)C1
REMARK SMILES IDX 18 1 17 2 16 3 15 4 13 5 14 6 12 8 11 9 6 10 7 11 8 12 9 13
REMARK SMILES IDX 89 14 10 15 88 16 5 17 2 18 3 19 90 20 4 21 1 22 19 26 20 27
REMARK SMILES IDX 21 28 22 29 23 30 24 32 25 33 26 34 87 35 27 36 86 37 28 38
REMARK SMILES IDX 29 39 30 40 80 41 31 42 85 43 79 44 81 45 32 46 84 47 78 48
REMARK SMILES IDX 77 49 33 51 65 52 45 53 64 54 46 55 49 56 63 57 82 58 47 59
REMARK SMILES IDX 48 60 62 62 83 63 50 64 34 65 35 66 43 67 36 68 37 69 41 70
REMARK SMILES IDX 44 71 38 72 39 73 42 74 40 75 66 76 67 77 75 78 68 79 69 80
REMARK SMILES IDX 73 81 76 82 70 83 71 84 74 85 72 86 51 87 52 88 60 89 53 90
REMARK SMILES IDX 54 91 58 92 61 93 55 94 56 95 59 96 57 97
REMARK H PARENT 15 7 1 23 1 24 1 25 22 31 81 50 49 61
REMARK Flexibility Score: inf
ROOT
ATOM      1  C   UNL     1      -1.339   8.516  -6.341  1.00  0.00     0.002 C 
ENDROOT
BRANCH   1   2
ATOM      2  C   UNL     1      -1.573   7.159  -5.678  1.00  0.00     0.021 C 
BRANCH   2   3
ATOM      3  C   UNL     1      -2.779   6.386  -6.220  1.00  0.00     0.116 C 
BRANCH   3   4
ATOM      4  N   UNL     1      -2.370   5.477  -7.278  1.00  0.00    -0.356 N 
ATOM      5  C   UNL     1      -2.281   4.117  -7.285  1.00  0.00     0.220 C 
ATOM      6  O   UNL     1      -1.770   3.569  -8.264  1.00  0.00    -0.275 OA
ATOM      7  H   UNL     1      -2.117   5.913  -8.123  1.00  0.00     0.163 HD
BRANCH   5   8
ATOM      8  C   UNL     1      -2.806   3.296  -6.121  1.00  0.00     0.103 C 
BRANCH   8   9
ATOM      9  C   UNL     1      -1.722   2.867  -5.114  1.00  0.00     0.002 C 
ATOM     10  C   UNL     1      -1.547   3.207  -1.224  1.00  0.00     0.229 C 
ATOM     11  O   UNL     1      -2.420   4.068  -1.351  1.00  0.00    -0.274 OA
ATOM     12  N   UNL     1      -0.862   2.695  -2.320  1.00  0.00    -0.342 N 
ATOM     13  C   UNL     1      -0.230   3.657  -3.202  1.00  0.00     0.120 C 
ATOM     14  C   UNL     1      -1.345   1.496  -2.987  1.00  0.00     0.120 C 
ATOM     15  C   UNL     1      -1.154   4.064  -4.342  1.00  0.00     0.026 C 
ATOM     16  C   UNL     1      -2.304   1.831  -4.132  1.00  0.00     0.026 C 
BRANCH  10  17
ATOM     17  C   UNL     1      -0.997   2.833   0.160  1.00  0.00     0.107 C 
ATOM     18  C   UNL     1       0.533   0.998   0.791  1.00  0.00     0.205 C 
ATOM     19  C   UNL     1       1.252   2.292   0.619  1.00  0.00     0.033 C 
ATOM     20  C   UNL     1      -0.936   1.340   0.497  1.00  0.00     0.087 C 
ATOM     21  C   UNL     1       0.426   3.292   0.299  1.00  0.00    -0.012 C 
BRANCH  18  22
ATOM     22  N   UNL     1       1.044  -0.015  -0.115  1.00  0.00    -0.352 N 
ATOM     23  H   UNL     1       2.018  -0.214   0.111  1.00  0.00     0.345 HD
ATOM     24  H   UNL     1       0.980   0.325  -1.075  1.00  0.00     0.345 HD
ATOM     25  H   UNL     1       0.491  -0.867  -0.019  1.00  0.00     0.345 HD
ENDBRANCH  18  22
ENDBRANCH  10  17
ENDBRANCH   8   9
ENDBRANCH   5   8
ENDBRANCH   3   4
ENDBRANCH   2   3
ENDBRANCH   1   2
BRANCH   1  26
ATOM     26  C   UNL     1      -2.373   9.591  -6.001  1.00  0.00     0.002 C 
BRANCH  26  27
ATOM     27  C   UNL     1      -2.594   9.850  -4.507  1.00  0.00     0.021 C 
BRANCH  27  28
ATOM     28  C   UNL     1      -1.331  10.140  -3.699  1.00  0.00     0.116 C 
BRANCH  28  29
ATOM     29  N   UNL     1      -0.631  11.321  -4.176  1.00  0.00    -0.352 N 
ATOM     30  C   UNL     1      -0.364  12.504  -3.535  1.00  0.00     0.251 C 
ATOM     31  H   UNL     1      -0.297  11.263  -5.101  1.00  0.00     0.163 HD
ATOM     32  O   UNL     1       0.065  13.465  -4.165  1.00  0.00    -0.269 OA
BRANCH  30  33
ATOM     33  C   UNL     1      -0.604  12.632  -2.082  1.00  0.00     0.039 A 
ATOM     34  C   UNL     1      -1.248  13.777  -1.604  1.00  0.00     0.014 A 
ATOM     35  C   UNL     1      -0.167  11.648  -1.191  1.00  0.00     0.014 A 
ATOM     36  C   UNL     1      -1.502  13.910  -0.237  1.00  0.00     0.010 A 
ATOM     37  C   UNL     1      -0.476  11.751   0.163  1.00  0.00     0.010 A 
ATOM     38  C   UNL     1      -1.142  12.885   0.654  1.00  0.00    -0.014 A 
BRANCH  38  39
ATOM     39  C   UNL     1      -1.448  12.987   2.103  1.00  0.00     0.031 A 
ATOM     40  C   UNL     1      -0.333  13.088   3.105  1.00  0.00     0.074 A 
ATOM     41  C   UNL     1      -2.727  12.926   2.519  1.00  0.00     0.049 A 
ATOM     42  N   UNL     1      -0.394  13.118   4.413  1.00  0.00    -0.248 NA
ATOM     43  C   UNL     1       1.036  13.137   2.567  1.00  0.00     0.031 C 
ATOM     44  C   UNL     1      -3.893  12.781   1.646  1.00  0.00     0.029 A 
ATOM     45  N   UNL     1      -3.260  12.965   3.783  1.00  0.00    -0.354 N 
ATOM     46  C   UNL     1       0.922  13.173   4.852  1.00  0.00     0.074 A 
ATOM     47  C   UNL     1       1.763  13.124   3.675  1.00  0.00     0.031 C 
ATOM     48  C   UNL     1      -5.004  12.761   2.399  1.00  0.00     0.029 A 
ATOM     49  C   UNL     1      -4.629  12.857   3.806  1.00  0.00     0.049 A 
ATOM     50  H   UNL     1      -2.713  13.060   4.596  1.00  0.00     0.167 HD
ATOM     51  C   UNL     1       1.387  13.276   6.120  1.00  0.00     0.037 A 
ATOM     52  C   UNL     1      -5.483  12.832   4.846  1.00  0.00     0.037 A 
ATOM     53  C   UNL     1       0.547  13.352   7.287  1.00  0.00     0.049 A 
ATOM     54  C   UNL     1      -4.942  12.954   6.245  1.00  0.00     0.074 A 
ATOM     55  C   UNL     1       0.918  13.519   8.610  1.00  0.00     0.029 A 
ATOM     56  N   UNL     1      -0.838  13.264   7.269  1.00  0.00    -0.354 N 
ATOM     57  N   UNL     1      -3.699  13.072   6.644  1.00  0.00    -0.248 NA
ATOM     58  C   UNL     1      -5.924  12.946   7.338  1.00  0.00     0.031 C 
ATOM     59  C   UNL     1      -0.238  13.492   9.396  1.00  0.00     0.029 A 
ATOM     60  C   UNL     1      -1.334  13.355   8.559  1.00  0.00     0.049 A 
ATOM     61  H   UNL     1      -1.386  13.154   6.459  1.00  0.00     0.167 HD
ATOM     62  C   UNL     1      -3.750  13.180   8.027  1.00  0.00     0.074 A 
ATOM     63  C   UNL     1      -5.149  13.128   8.398  1.00  0.00     0.031 C 
ATOM     64  C   UNL     1      -2.731  13.310   8.910  1.00  0.00     0.037 A 
BRANCH  51  65
ATOM     65  C   UNL     1       2.875  13.317   6.313  1.00  0.00     0.064 A 
ATOM     66  C   UNL     1       3.635  14.432   5.930  1.00  0.00     0.173 A 
ATOM     67  C   UNL     1       3.545  12.244   6.920  1.00  0.00     0.173 A 
ATOM     68  F   UNL     1       3.044  15.480   5.335  1.00  0.00    -0.203 F 
ATOM     69  C   UNL     1       5.014  14.460   6.120  1.00  0.00     0.198 A 
ATOM     70  C   UNL     1       4.920  12.287   7.135  1.00  0.00     0.198 A 
ATOM     71  F   UNL     1       2.865  11.155   7.311  1.00  0.00    -0.203 F 
ATOM     72  F   UNL     1       5.726  15.516   5.702  1.00  0.00    -0.200 F 
ATOM     73  C   UNL     1       5.654  13.391   6.729  1.00  0.00     0.200 A 
ATOM     74  F   UNL     1       5.536  11.258   7.734  1.00  0.00    -0.200 F 
ATOM     75  F   UNL     1       6.981  13.421   6.917  1.00  0.00    -0.200 F 
ENDBRANCH  51  65
BRANCH  52  76
ATOM     76  C   UNL     1      -6.944  12.715   4.603  1.00  0.00     0.064 A 
ATOM     77  C   UNL     1      -7.799  13.801   4.836  1.00  0.00     0.173 A 
ATOM     78  C   UNL     1      -7.514  11.523   4.135  1.00  0.00     0.173 A 
ATOM     79  F   UNL     1      -7.303  14.956   5.304  1.00  0.00    -0.203 F 
ATOM     80  C   UNL     1      -9.172  13.693   4.628  1.00  0.00     0.198 A 
ATOM     81  C   UNL     1      -8.884  11.424   3.902  1.00  0.00     0.198 A 
ATOM     82  F   UNL     1      -6.737  10.457   3.893  1.00  0.00    -0.203 F 
ATOM     83  F   UNL     1      -9.973  14.732   4.901  1.00  0.00    -0.200 F 
ATOM     84  C   UNL     1      -9.713  12.506   4.156  1.00  0.00     0.200 A 
ATOM     85  F   UNL     1      -9.401  10.280   3.434  1.00  0.00    -0.200 F 
ATOM     86  F   UNL     1     -11.034  12.404   3.953  1.00  0.00    -0.200 F 
ENDBRANCH  52  76
BRANCH  64  87
ATOM     87  C   UNL     1      -3.091  13.440  10.361  1.00  0.00     0.064 A 
ATOM     88  C   UNL     1      -3.563  12.347  11.102  1.00  0.00     0.173 A 
ATOM     89  C   UNL     1      -2.928  14.665  11.025  1.00  0.00     0.173 A 
ATOM     90  F   UNL     1      -3.752  11.159  10.508  1.00  0.00    -0.203 F 
ATOM     91  C   UNL     1      -3.882  12.482  12.450  1.00  0.00     0.198 A 
ATOM     92  C   UNL     1      -3.220  14.789  12.380  1.00  0.00     0.198 A 
ATOM     93  F   UNL     1      -2.473  15.739  10.362  1.00  0.00    -0.203 F 
ATOM     94  F   UNL     1      -4.375  11.437  13.129  1.00  0.00    -0.200 F 
ATOM     95  C   UNL     1      -3.703  13.700  13.090  1.00  0.00     0.200 A 
ATOM     96  F   UNL     1      -3.035  15.963  12.999  1.00  0.00    -0.200 F 
ATOM     97  F   UNL     1      -4.004  13.826  14.389  1.00  0.00    -0.200 F 
ENDBRANCH  64  87
ENDBRANCH  38  39
ENDBRANCH  30  33
ENDBRANCH  28  29
ENDBRANCH  27  28
ENDBRANCH  26  27
ENDBRANCH   1  26
TORSDOF 16
