REMARK SMILES CC1=C[C@H](C)[C@H](CN2C[C@@]34C=C[C@@H](O3)[C@@H](C(=O)NCCCCCCNC(=O)c3ccc(-c5c6nc(c(-c7c(F)c(F)c(F)c(F)c7F)c7ccc([nH]7)c(-c7c(F)c(F)c(F)c(F)c7F)c7nc(c(-c8c(F)c(F)c(F)c(F)c8F)c8ccc5[nH]8)C=C7)C=C6)cc3)[C@@H]4C2=O)[C@H](C)C1
REMARK SMILES IDX 21 1 20 2 19 3 18 4 16 5 17 6 15 8 8 9 9 10 92 11 10 12
REMARK SMILES IDX 91 13 93 14 11 15 14 16 12 17 13 18 7 19 6 20 1 21 2 22 3 23
REMARK SMILES IDX 96 24 4 25 94 26 5 27 95 28 22 29 23 30 24 31 25 32 26 33
REMARK SMILES IDX 27 35 28 36 29 37 90 38 30 39 89 40 31 41 32 42 33 43 83 44
REMARK SMILES IDX 34 45 88 46 82 47 84 48 35 49 87 50 81 51 80 52 36 54 68 55
REMARK SMILES IDX 48 56 67 57 49 58 52 59 66 60 85 61 50 62 51 63 65 65 86 66
REMARK SMILES IDX 53 67 37 68 38 69 46 70 39 71 40 72 44 73 47 74 41 75 42 76
REMARK SMILES IDX 45 77 43 78 69 79 70 80 78 81 71 82 72 83 76 84 79 85 73 86
REMARK SMILES IDX 74 87 77 88 75 89 54 90 55 91 63 92 56 93 57 94 61 95 64 96
REMARK SMILES IDX 58 97 59 98 62 99 60 100
REMARK H PARENT 18 7 25 34 84 53 52 64
REMARK Flexibility Score: inf
ROOT
ATOM      1  C   UNL     1      -1.870  -2.349   2.259  1.00  0.00     0.002 C 
ENDROOT
BRANCH   1   2
ATOM      2  C   UNL     1      -2.804  -2.192   1.053  1.00  0.00     0.021 C 
BRANCH   2   3
ATOM      3  C   UNL     1      -3.818  -1.051   1.167  1.00  0.00     0.116 C 
BRANCH   3   4
ATOM      4  N   UNL     1      -3.196   0.242   1.026  1.00  0.00    -0.356 N 
ATOM      5  C   UNL     1      -2.944   0.673  -0.269  1.00  0.00     0.227 C 
ATOM      6  O   UNL     1      -1.997   0.229  -0.907  1.00  0.00    -0.275 OA
ATOM      7  H   UNL     1      -2.962   0.791   1.809  1.00  0.00     0.163 HD
BRANCH   5   8
ATOM      8  C   UNL     1      -3.915   1.813  -0.718  1.00  0.00     0.127 C 
ATOM      9  N   UNL     1      -1.763   4.734  -0.086  1.00  0.00    -0.339 N 
ATOM     10  C   UNL     1      -1.574   4.546  -1.545  1.00  0.00     0.160 C 
ATOM     11  C   UNL     1      -2.885   4.010   0.343  1.00  0.00     0.230 C 
ATOM     12  C   UNL     1      -2.821   3.728  -1.886  1.00  0.00     0.117 C 
ATOM     13  C   UNL     1      -2.869   2.878  -0.614  1.00  0.00     0.132 C 
ATOM     14  O   UNL     1      -3.619   4.202   1.291  1.00  0.00    -0.274 OA
ATOM     15  C   UNL     1      -4.146   4.407  -2.114  1.00  0.00     0.009 C 
ATOM     16  O   UNL     1      -2.902   2.648  -2.797  1.00  0.00    -0.360 OA
ATOM     17  C   UNL     1      -5.011   3.398  -2.278  1.00  0.00     0.004 C 
ATOM     18  C   UNL     1      -4.162   2.133  -2.257  1.00  0.00     0.155 C 
BRANCH   9  19
ATOM     19  C   UNL     1      -0.810   5.256   0.859  1.00  0.00     0.124 C 
BRANCH  19  20
ATOM     20  C   UNL     1       0.236   4.270   1.493  1.00  0.00     0.018 C 
ATOM     21  C   UNL     1       1.246  -0.016   0.521  1.00  0.00     0.039 C 
ATOM     22  C   UNL     1       0.904   1.400   0.901  1.00  0.00    -0.077 C 
ATOM     23  C   UNL     1       0.186   1.690   1.993  1.00  0.00    -0.025 C 
ATOM     24  C   UNL     1       1.433   2.472  -0.002  1.00  0.00     0.034 C 
ATOM     25  C   UNL     1      -0.190   3.083   2.447  1.00  0.00     0.014 C 
ATOM     26  C   UNL     1       1.478   3.874   0.631  1.00  0.00    -0.005 C 
ATOM     27  C   UNL     1      -1.623   3.026   2.961  1.00  0.00     0.012 C 
ATOM     28  C   UNL     1       1.897   4.898  -0.424  1.00  0.00     0.008 C 
ENDBRANCH  19  20
ENDBRANCH   9  19
ENDBRANCH   5   8
ENDBRANCH   3   4
ENDBRANCH   2   3
ENDBRANCH   1   2
BRANCH   1  29
ATOM     29  C   UNL     1      -2.563  -2.507   3.615  1.00  0.00     0.002 C 
BRANCH  29  30
ATOM     30  C   UNL     1      -3.694  -3.534   3.648  1.00  0.00     0.021 C 
BRANCH  30  31
ATOM     31  C   UNL     1      -3.280  -4.942   3.246  1.00  0.00     0.116 C 
BRANCH  31  32
ATOM     32  N   UNL     1      -2.425  -5.568   4.240  1.00  0.00    -0.352 N 
ATOM     33  C   UNL     1      -2.586  -6.771   4.881  1.00  0.00     0.251 C 
ATOM     34  H   UNL     1      -1.620  -5.060   4.487  1.00  0.00     0.163 HD
ATOM     35  O   UNL     1      -1.872  -7.062   5.835  1.00  0.00    -0.269 OA
BRANCH  33  36
ATOM     36  C   UNL     1      -3.640  -7.710   4.436  1.00  0.00     0.039 A 
ATOM     37  C   UNL     1      -4.399  -8.378   5.400  1.00  0.00     0.014 A 
ATOM     38  C   UNL     1      -3.873  -7.946   3.078  1.00  0.00     0.014 A 
ATOM     39  C   UNL     1      -5.415  -9.250   5.001  1.00  0.00     0.010 A 
ATOM     40  C   UNL     1      -4.946  -8.740   2.683  1.00  0.00     0.010 A 
ATOM     41  C   UNL     1      -5.714  -9.420   3.639  1.00  0.00    -0.014 A 
BRANCH  41  42
ATOM     42  C   UNL     1      -6.794 -10.342   3.198  1.00  0.00     0.031 A 
ATOM     43  C   UNL     1      -6.458 -11.542   2.352  1.00  0.00     0.074 A 
ATOM     44  C   UNL     1      -8.076 -10.088   3.530  1.00  0.00     0.049 A 
ATOM     45  N   UNL     1      -7.257 -12.439   1.829  1.00  0.00    -0.248 NA
ATOM     46  C   UNL     1      -5.037 -11.750   2.028  1.00  0.00     0.031 C 
ATOM     47  C   UNL     1      -8.536  -8.941   4.314  1.00  0.00     0.029 A 
ATOM     48  N   UNL     1      -9.228 -10.779   3.245  1.00  0.00    -0.354 N 
ATOM     49  C   UNL     1      -6.438 -13.306   1.116  1.00  0.00     0.074 A 
ATOM     50  C   UNL     1      -5.091 -12.791   1.212  1.00  0.00     0.031 C 
ATOM     51  C   UNL     1      -9.867  -9.022   4.472  1.00  0.00     0.029 A 
ATOM     52  C   UNL     1     -10.361 -10.200   3.766  1.00  0.00     0.049 A 
ATOM     53  H   UNL     1      -9.242 -11.610   2.718  1.00  0.00     0.167 HD
ATOM     54  C   UNL     1      -6.773 -14.447   0.468  1.00  0.00     0.037 A 
ATOM     55  C   UNL     1     -11.652 -10.575   3.674  1.00  0.00     0.037 A 
ATOM     56  C   UNL     1      -8.112 -14.968   0.387  1.00  0.00     0.049 A 
ATOM     57  C   UNL     1     -11.997 -11.830   2.914  1.00  0.00     0.074 A 
ATOM     58  C   UNL     1      -8.549 -16.133  -0.218  1.00  0.00     0.029 A 
ATOM     59  N   UNL     1      -9.232 -14.355   0.929  1.00  0.00    -0.354 N 
ATOM     60  N   UNL     1     -11.206 -12.674   2.297  1.00  0.00    -0.248 NA
ATOM     61  C   UNL     1     -13.420 -12.191   2.848  1.00  0.00     0.031 C 
ATOM     62  C   UNL     1      -9.940 -16.197  -0.092  1.00  0.00     0.029 A 
ATOM     63  C   UNL     1     -10.362 -15.108   0.654  1.00  0.00     0.049 A 
ATOM     64  H   UNL     1      -9.225 -13.510   1.435  1.00  0.00     0.167 HD
ATOM     65  C   UNL     1     -12.027 -13.683   1.810  1.00  0.00     0.074 A 
ATOM     66  C   UNL     1     -13.376 -13.355   2.220  1.00  0.00     0.031 C 
ATOM     67  C   UNL     1     -11.696 -14.781   1.086  1.00  0.00     0.037 A 
BRANCH  54  68
ATOM     68  C   UNL     1      -5.670 -15.219  -0.201  1.00  0.00     0.064 A 
ATOM     69  C   UNL     1      -4.681 -15.881   0.542  1.00  0.00     0.173 A 
ATOM     70  C   UNL     1      -5.633 -15.345  -1.598  1.00  0.00     0.173 A 
ATOM     71  F   UNL     1      -4.662 -15.784   1.880  1.00  0.00    -0.203 F 
ATOM     72  C   UNL     1      -3.682 -16.618  -0.089  1.00  0.00     0.198 A 
ATOM     73  C   UNL     1      -4.654 -16.112  -2.224  1.00  0.00     0.198 A 
ATOM     74  F   UNL     1      -6.557 -14.737  -2.358  1.00  0.00    -0.203 F 
ATOM     75  F   UNL     1      -2.720 -17.201   0.640  1.00  0.00    -0.200 F 
ATOM     76  C   UNL     1      -3.675 -16.742  -1.470  1.00  0.00     0.200 A 
ATOM     77  F   UNL     1      -4.659 -16.244  -3.557  1.00  0.00    -0.200 F 
ATOM     78  F   UNL     1      -2.723 -17.465  -2.075  1.00  0.00    -0.200 F 
ENDBRANCH  54  68
BRANCH  55  79
ATOM     79  C   UNL     1     -12.722  -9.768   4.322  1.00  0.00     0.064 A 
ATOM     80  C   UNL     1     -13.491 -10.295   5.371  1.00  0.00     0.173 A 
ATOM     81  C   UNL     1     -13.036  -8.476   3.873  1.00  0.00     0.173 A 
ATOM     82  F   UNL     1     -13.245 -11.532   5.825  1.00  0.00    -0.203 F 
ATOM     83  C   UNL     1     -14.559  -9.582   5.912  1.00  0.00     0.198 A 
ATOM     84  C   UNL     1     -14.080  -7.748   4.442  1.00  0.00     0.198 A 
ATOM     85  F   UNL     1     -12.330  -7.920   2.878  1.00  0.00    -0.203 F 
ATOM     86  F   UNL     1     -15.324 -10.142   6.859  1.00  0.00    -0.200 F 
ATOM     87  C   UNL     1     -14.851  -8.308   5.449  1.00  0.00     0.200 A 
ATOM     88  F   UNL     1     -14.347  -6.511   4.003  1.00  0.00    -0.200 F 
ATOM     89  F   UNL     1     -15.883  -7.626   5.963  1.00  0.00    -0.200 F 
ENDBRANCH  55  79
BRANCH  67  90
ATOM     90  C   UNL     1     -12.801 -15.743   0.746  1.00  0.00     0.064 A 
ATOM     91  C   UNL     1     -13.830 -15.411  -0.148  1.00  0.00     0.173 A 
ATOM     92  C   UNL     1     -12.816 -17.028   1.312  1.00  0.00     0.173 A 
ATOM     93  F   UNL     1     -13.870 -14.192  -0.709  1.00  0.00    -0.203 F 
ATOM     94  C   UNL     1     -14.854 -16.311  -0.428  1.00  0.00     0.198 A 
ATOM     95  C   UNL     1     -13.818 -17.941   0.997  1.00  0.00     0.198 A 
ATOM     96  F   UNL     1     -11.851 -17.404   2.164  1.00  0.00    -0.203 F 
ATOM     97  F   UNL     1     -15.863 -15.945  -1.231  1.00  0.00    -0.200 F 
ATOM     98  C   UNL     1     -14.844 -17.577   0.138  1.00  0.00     0.200 A 
ATOM     99  F   UNL     1     -13.795 -19.170   1.529  1.00  0.00    -0.200 F 
ATOM    100  F   UNL     1     -15.828 -18.444  -0.136  1.00  0.00    -0.200 F 
ENDBRANCH  67  90
ENDBRANCH  41  42
ENDBRANCH  33  36
ENDBRANCH  31  32
ENDBRANCH  30  31
ENDBRANCH  29  30
ENDBRANCH   1  29
TORSDOF 15
