REMARK SMILES O=C(NCCCCCCNC(=O)c1[nH]ncc1C[NH+]1CCC([N@H+]2CCC[C@@H](C(=O)N3CCCC3)C2)CC1)c1ccc(-c2c3nc(c(-c4c(F)c(F)c(F)c(F)c4F)c4ccc([nH]4)c(-c4c(F)c(F)c(F)c(F)c4F)c4nc(c(-c5c(F)c(F)c(F)c(F)c5F)c5ccc2[nH]5)C=C4)C=C3)cc1
REMARK SMILES IDX 7 1 6 2 5 3 4 4 3 5 1 6 2 7 38 9 39 10 100 11 40 12 99 13
REMARK SMILES IDX 41 14 42 15 43 16 93 17 44 18 98 19 92 20 94 21 45 22 97 23
REMARK SMILES IDX 91 24 90 25 46 27 78 28 58 29 77 30 59 31 62 32 76 33 95 34
REMARK SMILES IDX 60 35 61 36 75 38 96 39 63 40 47 41 48 42 56 43 49 44 50 45
REMARK SMILES IDX 54 46 57 47 51 48 52 49 55 50 53 51 79 52 80 53 88 54 81 55
REMARK SMILES IDX 82 56 86 57 89 58 83 59 84 60 87 61 85 62 64 63 65 64 73 65
REMARK SMILES IDX 66 66 67 67 71 68 74 69 68 70 69 71 72 72 70 73 8 74 9 75
REMARK SMILES IDX 10 76 11 77 12 79 13 80 14 81 17 82 15 83 16 85 18 86 19 87
REMARK SMILES IDX 20 88 37 89 21 91 36 92 22 93 23 94 24 95 35 96 25 98 27 99
REMARK SMILES IDX 26 100 28 101 29 102 30 103 31 104 34 105 32 106 33 107
REMARK H PARENT 3 8 94 26 62 37 10 78 14 84 19 90 23 97
REMARK Flexibility Score: inf
ROOT
ATOM      1  C   UNL     1       4.607  -3.180   3.125  1.00  0.00     0.002 C 
ENDROOT
BRANCH   1   2
ATOM      2  C   UNL     1       4.195  -1.758   3.516  1.00  0.00     0.002 C 
BRANCH   2   3
ATOM      3  C   UNL     1       4.724  -0.631   2.627  1.00  0.00     0.021 C 
BRANCH   3   4
ATOM      4  C   UNL     1       4.465  -0.789   1.132  1.00  0.00     0.116 C 
BRANCH   4   5
ATOM      5  N   UNL     1       3.052  -0.874   0.815  1.00  0.00    -0.352 N 
ATOM      6  O   UNL     1       1.087  -0.266  -0.101  1.00  0.00    -0.269 OA
ATOM      7  C   UNL     1       2.308  -0.141  -0.073  1.00  0.00     0.251 C 
ATOM      8  H   UNL     1       2.552  -1.561   1.312  1.00  0.00     0.163 HD
BRANCH   7   9
ATOM      9  C   UNL     1       2.965   0.822  -0.983  1.00  0.00     0.039 A 
ATOM     10  C   UNL     1       4.108   0.477  -1.711  1.00  0.00     0.014 A 
ATOM     11  C   UNL     1       2.387   2.085  -1.142  1.00  0.00     0.014 A 
ATOM     12  C   UNL     1       4.728   1.425  -2.523  1.00  0.00     0.010 A 
ATOM     13  C   UNL     1       2.977   3.016  -1.998  1.00  0.00     0.010 A 
ATOM     14  C   UNL     1       4.162   2.699  -2.679  1.00  0.00    -0.014 A 
BRANCH  14  15
ATOM     15  C   UNL     1       4.775   3.691  -3.595  1.00  0.00     0.031 A 
ATOM     16  C   UNL     1       5.392   4.948  -3.058  1.00  0.00     0.074 A 
ATOM     17  C   UNL     1       4.724   3.475  -4.923  1.00  0.00     0.049 A 
ATOM     18  N   UNL     1       5.878   5.975  -3.708  1.00  0.00    -0.248 NA
ATOM     19  C   UNL     1       5.462   5.074  -1.595  1.00  0.00     0.031 C 
ATOM     20  C   UNL     1       4.140   2.295  -5.560  1.00  0.00     0.029 A 
ATOM     21  N   UNL     1       5.151   4.247  -5.973  1.00  0.00    -0.354 N 
ATOM     22  C   UNL     1       6.288   6.878  -2.738  1.00  0.00     0.074 A 
ATOM     23  C   UNL     1       5.979   6.286  -1.453  1.00  0.00     0.031 C 
ATOM     24  C   UNL     1       4.240   2.422  -6.891  1.00  0.00     0.029 A 
ATOM     25  C   UNL     1       4.850   3.712  -7.200  1.00  0.00     0.049 A 
ATOM     26  H   UNL     1       5.626   5.102  -5.857  1.00  0.00     0.167 HD
ATOM     27  C   UNL     1       6.870   8.089  -2.908  1.00  0.00     0.037 A 
ATOM     28  C   UNL     1       5.014   4.218  -8.436  1.00  0.00     0.037 A 
ATOM     29  C   UNL     1       7.187   8.665  -4.190  1.00  0.00     0.049 A 
ATOM     30  C   UNL     1       5.643   5.570  -8.601  1.00  0.00     0.074 A 
ATOM     31  C   UNL     1       7.827   9.861  -4.465  1.00  0.00     0.029 A 
ATOM     32  N   UNL     1       6.877   8.086  -5.412  1.00  0.00    -0.354 N 
ATOM     33  N   UNL     1       6.065   6.399  -7.678  1.00  0.00    -0.248 NA
ATOM     34  C   UNL     1       5.818   6.059  -9.975  1.00  0.00     0.031 C 
ATOM     35  C   UNL     1       7.867  10.026  -5.854  1.00  0.00     0.029 A 
ATOM     36  C   UNL     1       7.291   8.912  -6.445  1.00  0.00     0.049 A 
ATOM     37  H   UNL     1       6.430   7.217  -5.529  1.00  0.00     0.167 HD
ATOM     38  C   UNL     1       6.572   7.498  -8.355  1.00  0.00     0.074 A 
ATOM     39  C   UNL     1       6.410   7.228  -9.770  1.00  0.00     0.031 C 
ATOM     40  C   UNL     1       7.126   8.626  -7.848  1.00  0.00     0.037 A 
BRANCH  27  41
ATOM     41  C   UNL     1       7.181   8.887  -1.676  1.00  0.00     0.064 A 
ATOM     42  C   UNL     1       8.223   8.529  -0.808  1.00  0.00     0.173 A 
ATOM     43  C   UNL     1       6.439  10.038  -1.371  1.00  0.00     0.173 A 
ATOM     44  F   UNL     1       8.954   7.430  -1.048  1.00  0.00    -0.203 F 
ATOM     45  C   UNL     1       8.493   9.279   0.334  1.00  0.00     0.198 A 
ATOM     46  C   UNL     1       6.728  10.800  -0.242  1.00  0.00     0.198 A 
ATOM     47  F   UNL     1       5.435  10.427  -2.171  1.00  0.00    -0.203 F 
ATOM     48  F   UNL     1       9.463   8.892   1.174  1.00  0.00    -0.200 F 
ATOM     49  C   UNL     1       7.749  10.415   0.614  1.00  0.00     0.200 A 
ATOM     50  F   UNL     1       6.013  11.902   0.022  1.00  0.00    -0.200 F 
ATOM     51  F   UNL     1       8.009  11.135   1.714  1.00  0.00    -0.200 F 
ENDBRANCH  27  41
BRANCH  28  52
ATOM     52  C   UNL     1       4.560   3.424  -9.604  1.00  0.00     0.064 A 
ATOM     53  C   UNL     1       5.481   2.781 -10.440  1.00  0.00     0.173 A 
ATOM     54  C   UNL     1       3.194   3.243  -9.869  1.00  0.00     0.173 A 
ATOM     55  F   UNL     1       6.797   2.941 -10.234  1.00  0.00    -0.203 F 
ATOM     56  C   UNL     1       5.053   1.982 -11.497  1.00  0.00     0.198 A 
ATOM     57  C   UNL     1       2.768   2.425 -10.912  1.00  0.00     0.198 A 
ATOM     58  F   UNL     1       2.276   3.833  -9.090  1.00  0.00    -0.203 F 
ATOM     59  F   UNL     1       5.953   1.389 -12.293  1.00  0.00    -0.200 F 
ATOM     60  C   UNL     1       3.697   1.796 -11.726  1.00  0.00     0.200 A 
ATOM     61  F   UNL     1       1.457   2.235 -11.119  1.00  0.00    -0.200 F 
ATOM     62  F   UNL     1       3.287   1.010 -12.731  1.00  0.00    -0.200 F 
ENDBRANCH  28  52
BRANCH  40  63
ATOM     63  C   UNL     1       7.627   9.646  -8.825  1.00  0.00     0.064 A 
ATOM     64  C   UNL     1       6.748  10.494  -9.514  1.00  0.00     0.173 A 
ATOM     65  C   UNL     1       9.004   9.818  -9.025  1.00  0.00     0.173 A 
ATOM     66  F   UNL     1       5.422  10.356  -9.366  1.00  0.00    -0.203 F 
ATOM     67  C   UNL     1       7.233  11.474 -10.376  1.00  0.00     0.198 A 
ATOM     68  C   UNL     1       9.485  10.812  -9.871  1.00  0.00     0.198 A 
ATOM     69  F   UNL     1       9.883   9.032  -8.386  1.00  0.00    -0.203 F 
ATOM     70  F   UNL     1       6.376  12.258 -11.046  1.00  0.00    -0.200 F 
ATOM     71  C   UNL     1       8.600  11.638 -10.547  1.00  0.00     0.200 A 
ATOM     72  F   UNL     1      10.806  10.975 -10.029  1.00  0.00    -0.200 F 
ATOM     73  F   UNL     1       9.064  12.590 -11.368  1.00  0.00    -0.200 F 
ENDBRANCH  40  63
ENDBRANCH  14  15
ENDBRANCH   7   9
ENDBRANCH   4   5
ENDBRANCH   3   4
ENDBRANCH   2   3
ENDBRANCH   1   2
BRANCH   1  74
ATOM     74  C   UNL     1       6.107  -3.422   2.931  1.00  0.00     0.021 C 
BRANCH  74  75
ATOM     75  C   UNL     1       6.998  -2.984   4.088  1.00  0.00     0.116 C 
BRANCH  75  76
ATOM     76  N   UNL     1       6.740  -3.721   5.310  1.00  0.00    -0.351 N 
ATOM     77  C   UNL     1       7.630  -4.339   6.150  1.00  0.00     0.269 C 
ATOM     78  H   UNL     1       5.794  -3.786   5.574  1.00  0.00     0.163 HD
ATOM     79  O   UNL     1       7.185  -5.079   7.027  1.00  0.00    -0.268 OA
BRANCH  77  80
ATOM     80  C   UNL     1       9.039  -4.171   5.938  1.00  0.00     0.131 A 
ATOM     81  N   UNL     1       9.884  -5.248   5.943  1.00  0.00    -0.272 N 
ATOM     82  C   UNL     1       9.859  -3.058   5.766  1.00  0.00     0.057 A 
ATOM     83  N   UNL     1      11.148  -4.949   5.611  1.00  0.00    -0.183 NA
ATOM     84  H   UNL     1       9.590  -6.160   6.169  1.00  0.00     0.190 HD
ATOM     85  C   UNL     1      11.134  -3.620   5.510  1.00  0.00     0.145 A 
BRANCH  82  86
ATOM     86  C   UNL     1       9.493  -1.610   5.785  1.00  0.00     0.303 C 
BRANCH  86  87
ATOM     87  N   UNL     1      10.029  -0.849   6.915  1.00  0.00    -0.331 N 
ATOM     88  C   UNL     1       9.610  -1.359   8.218  1.00  0.00     0.268 C 
ATOM     89  C   UNL     1      11.465  -0.586   6.851  1.00  0.00     0.268 C 
ATOM     90  H   UNL     1       9.590   0.067   6.813  1.00  0.00     0.348 HD
ATOM     91  C   UNL     1       9.961  -0.364   9.325  1.00  0.00     0.126 C 
ATOM     92  C   UNL     1      11.864   0.453   7.901  1.00  0.00     0.126 C 
ATOM     93  C   UNL     1      11.465  -0.019   9.310  1.00  0.00     0.195 C 
BRANCH  93  94
ATOM     94  N   UNL     1      11.932   0.900  10.382  1.00  0.00    -0.331 N 
ATOM     95  C   UNL     1      11.448   2.281  10.262  1.00  0.00     0.262 C 
ATOM     96  C   UNL     1      11.606   0.356  11.714  1.00  0.00     0.275 C 
ATOM     97  H   UNL     1      12.944   0.955  10.265  1.00  0.00     0.348 HD
ATOM     98  C   UNL     1      12.055   3.164  11.354  1.00  0.00     0.062 C 
ATOM     99  C   UNL     1      12.165   1.152  12.887  1.00  0.00     0.134 C 
ATOM    100  C   UNL     1      11.753   2.627  12.748  1.00  0.00     0.025 C 
BRANCH  99 101
ATOM    101  C   UNL     1      11.731   0.694  14.290  1.00  0.00     0.231 C 
ATOM    102  O   UNL     1      12.347   1.122  15.272  1.00  0.00    -0.274 OA
ATOM    103  N   UNL     1      10.519   0.058  14.454  1.00  0.00    -0.342 N 
ATOM    104  C   UNL     1      10.112  -1.232  13.923  1.00  0.00     0.119 C 
ATOM    105  C   UNL     1       9.682   0.385  15.596  1.00  0.00     0.119 C 
ATOM    106  C   UNL     1       8.609  -1.207  14.122  1.00  0.00     0.023 C 
ATOM    107  C   UNL     1       8.464  -0.531  15.483  1.00  0.00     0.023 C 
ENDBRANCH  99 101
ENDBRANCH  93  94
ENDBRANCH  86  87
ENDBRANCH  82  86
ENDBRANCH  77  80
ENDBRANCH  75  76
ENDBRANCH  74  75
ENDBRANCH   1  74
TORSDOF 17
