REMARK SMILES O=C(NCCCCCCNC(=O)[C@H]1CC=CC[C@@H]1C(=O)NC1CCCCC1)c1ccc(-c2c3nc(c(-c4c(F)c(F)c(F)c(F)c4F)c4ccc([nH]4)c(-c4c(F)c(F)c(F)c(F)c4F)c4nc(c(-c5c(F)c(F)c(F)c(F)c5F)c5ccc2[nH]5)C=C4)C=C3)cc1
REMARK SMILES IDX 6 1 5 2 4 3 3 4 1 5 2 6 28 8 29 9 90 10 30 11 89 12 31 13
REMARK SMILES IDX 32 14 33 15 83 16 34 17 88 18 82 19 84 20 35 21 87 22 81 23
REMARK SMILES IDX 80 24 36 26 68 27 48 28 67 29 49 30 52 31 66 32 85 33 50 34
REMARK SMILES IDX 51 35 65 37 86 38 53 39 37 40 38 41 46 42 39 43 40 44 44 45
REMARK SMILES IDX 47 46 41 47 42 48 45 49 43 50 69 51 70 52 78 53 71 54 72 55
REMARK SMILES IDX 76 56 79 57 73 58 74 59 77 60 75 61 54 62 55 63 63 64 56 65
REMARK SMILES IDX 57 66 61 67 64 68 58 69 59 70 62 71 60 72 7 73 8 74 9 75
REMARK SMILES IDX 10 76 11 77 12 79 13 80 14 81 18 82 15 83 17 84 16 85 19 86
REMARK SMILES IDX 20 87 21 88 22 90 23 91 27 92 24 93 26 94 25 95
REMARK H PARENT 3 7 84 25 52 36 10 78 21 89
REMARK Flexibility Score: inf
ROOT
ATOM      1  C   UNL     1       4.051  -3.862   1.089  1.00  0.00     0.002 C 
ENDROOT
BRANCH   1   2
ATOM      2  C   UNL     1       4.706  -2.493   1.280  1.00  0.00     0.021 C 
BRANCH   2   3
ATOM      3  C   UNL     1       4.444  -1.482   0.170  1.00  0.00     0.116 C 
BRANCH   3   4
ATOM      4  N   UNL     1       3.029  -1.224  -0.039  1.00  0.00    -0.352 N 
ATOM      5  O   UNL     1       1.123  -0.026  -0.126  1.00  0.00    -0.269 OA
ATOM      6  C   UNL     1       2.345  -0.033  -0.069  1.00  0.00     0.251 C 
ATOM      7  H   UNL     1       2.476  -2.026  -0.182  1.00  0.00     0.163 HD
BRANCH   6   8
ATOM      8  C   UNL     1       3.087   1.245  -0.009  1.00  0.00     0.039 A 
ATOM      9  C   UNL     1       4.237   1.445  -0.776  1.00  0.00     0.014 A 
ATOM     10  C   UNL     1       2.604   2.270   0.810  1.00  0.00     0.014 A 
ATOM     11  C   UNL     1       4.975   2.612  -0.623  1.00  0.00     0.010 A 
ATOM     12  C   UNL     1       3.300   3.478   0.897  1.00  0.00     0.010 A 
ATOM     13  C   UNL     1       4.505   3.649   0.199  1.00  0.00    -0.014 A 
BRANCH  13  14
ATOM     14  C   UNL     1       5.252   4.931   0.251  1.00  0.00     0.031 A 
ATOM     15  C   UNL     1       5.902   5.405   1.518  1.00  0.00     0.074 A 
ATOM     16  C   UNL     1       5.350   5.661  -0.877  1.00  0.00     0.049 A 
ATOM     17  N   UNL     1       6.603   6.492   1.728  1.00  0.00    -0.248 NA
ATOM     18  C   UNL     1       5.742   4.556   2.707  1.00  0.00     0.031 C 
ATOM     19  C   UNL     1       4.743   5.306  -2.162  1.00  0.00     0.029 A 
ATOM     20  N   UNL     1       6.001   6.840  -1.132  1.00  0.00    -0.354 N 
ATOM     21  C   UNL     1       6.954   6.466   3.071  1.00  0.00     0.074 A 
ATOM     22  C   UNL     1       6.365   5.269   3.636  1.00  0.00     0.031 C 
ATOM     23  C   UNL     1       5.086   6.221  -3.079  1.00  0.00     0.029 A 
ATOM     24  C   UNL     1       5.879   7.261  -2.433  1.00  0.00     0.049 A 
ATOM     25  H   UNL     1       6.506   7.337  -0.449  1.00  0.00     0.167 HD
ATOM     26  C   UNL     1       7.706   7.356   3.763  1.00  0.00     0.037 A 
ATOM     27  C   UNL     1       6.338   8.371  -3.038  1.00  0.00     0.037 A 
ATOM     28  C   UNL     1       8.291   8.542   3.189  1.00  0.00     0.049 A 
ATOM     29  C   UNL     1       7.138   9.357  -2.237  1.00  0.00     0.074 A 
ATOM     30  C   UNL     1       9.102   9.486   3.797  1.00  0.00     0.029 A 
ATOM     31  N   UNL     1       8.118   8.954   1.875  1.00  0.00    -0.354 N 
ATOM     32  N   UNL     1       7.503   9.298  -0.980  1.00  0.00    -0.248 NA
ATOM     33  C   UNL     1       7.587  10.566  -2.939  1.00  0.00     0.031 C 
ATOM     34  C   UNL     1       9.373  10.495   2.867  1.00  0.00     0.029 A 
ATOM     35  C   UNL     1       8.782  10.153   1.662  1.00  0.00     0.049 A 
ATOM     36  H   UNL     1       7.600   8.467   1.194  1.00  0.00     0.167 HD
ATOM     37  C   UNL     1       8.238  10.450  -0.742  1.00  0.00     0.074 A 
ATOM     38  C   UNL     1       8.286  11.178  -1.994  1.00  0.00     0.031 C 
ATOM     39  C   UNL     1       8.817  10.868   0.410  1.00  0.00     0.037 A 
BRANCH  26  40
ATOM     40  C   UNL     1       7.923   7.097   5.228  1.00  0.00     0.064 A 
ATOM     41  C   UNL     1       8.733   6.044   5.681  1.00  0.00     0.173 A 
ATOM     42  C   UNL     1       7.348   7.939   6.192  1.00  0.00     0.173 A 
ATOM     43  F   UNL     1       9.300   5.202   4.803  1.00  0.00    -0.203 F 
ATOM     44  C   UNL     1       8.935   5.828   7.042  1.00  0.00     0.198 A 
ATOM     45  C   UNL     1       7.576   7.738   7.551  1.00  0.00     0.198 A 
ATOM     46  F   UNL     1       6.571   8.966   5.815  1.00  0.00    -0.203 F 
ATOM     47  F   UNL     1       9.674   4.787   7.451  1.00  0.00    -0.200 F 
ATOM     48  C   UNL     1       8.362   6.678   7.976  1.00  0.00     0.200 A 
ATOM     49  F   UNL     1       7.033   8.570   8.451  1.00  0.00    -0.200 F 
ATOM     50  F   UNL     1       8.563   6.473   9.285  1.00  0.00    -0.200 F 
ENDBRANCH  26  40
BRANCH  27  51
ATOM     51  C   UNL     1       6.045   8.600  -4.476  1.00  0.00     0.064 A 
ATOM     52  C   UNL     1       7.063   8.553  -5.437  1.00  0.00     0.173 A 
ATOM     53  C   UNL     1       4.737   8.849  -4.921  1.00  0.00     0.173 A 
ATOM     54  F   UNL     1       8.331   8.335  -5.059  1.00  0.00    -0.203 F 
ATOM     55  C   UNL     1       6.787   8.760  -6.787  1.00  0.00     0.198 A 
ATOM     56  C   UNL     1       4.458   9.023  -6.274  1.00  0.00     0.198 A 
ATOM     57  F   UNL     1       3.726   8.897  -4.041  1.00  0.00    -0.203 F 
ATOM     58  F   UNL     1       7.785   8.748  -7.681  1.00  0.00    -0.200 F 
ATOM     59  C   UNL     1       5.484   8.986  -7.205  1.00  0.00     0.200 A 
ATOM     60  F   UNL     1       3.195   9.222  -6.674  1.00  0.00    -0.200 F 
ATOM     61  F   UNL     1       5.218   9.173  -8.505  1.00  0.00    -0.200 F 
ENDBRANCH  27  51
BRANCH  39  62
ATOM     62  C   UNL     1       9.576  12.162   0.360  1.00  0.00     0.064 A 
ATOM     63  C   UNL     1       8.921  13.396   0.233  1.00  0.00     0.173 A 
ATOM     64  C   UNL     1      10.976  12.169   0.463  1.00  0.00     0.173 A 
ATOM     65  F   UNL     1       7.585  13.442   0.113  1.00  0.00    -0.203 F 
ATOM     66  C   UNL     1       9.641  14.587   0.182  1.00  0.00     0.198 A 
ATOM     67  C   UNL     1      11.690  13.364   0.444  1.00  0.00     0.198 A 
ATOM     68  F   UNL     1      11.650  11.017   0.590  1.00  0.00    -0.203 F 
ATOM     69  F   UNL     1       8.997  15.749   0.006  1.00  0.00    -0.200 F 
ATOM     70  C   UNL     1      11.023  14.570   0.295  1.00  0.00     0.200 A 
ATOM     71  F   UNL     1      13.024  13.347   0.567  1.00  0.00    -0.200 F 
ATOM     72  F   UNL     1      11.714  15.718   0.251  1.00  0.00    -0.200 F 
ENDBRANCH  39  62
ENDBRANCH  13  14
ENDBRANCH   6   8
ENDBRANCH   3   4
ENDBRANCH   2   3
ENDBRANCH   1   2
BRANCH   1  73
ATOM     73  C   UNL     1       4.332  -4.557  -0.248  1.00  0.00     0.002 C 
BRANCH  73  74
ATOM     74  C   UNL     1       5.809  -4.731  -0.607  1.00  0.00     0.021 C 
BRANCH  74  75
ATOM     75  C   UNL     1       6.625  -5.512   0.413  1.00  0.00     0.116 C 
BRANCH  75  76
ATOM     76  N   UNL     1       6.321  -6.917   0.456  1.00  0.00    -0.356 N 
ATOM     77  C   UNL     1       7.106  -7.940   0.905  1.00  0.00     0.224 C 
ATOM     78  H   UNL     1       5.432  -7.175   0.118  1.00  0.00     0.163 HD
ATOM     79  O   UNL     1       6.529  -9.006   1.125  1.00  0.00    -0.275 OA
BRANCH  77  80
ATOM     80  C   UNL     1       8.629  -7.744   1.097  1.00  0.00     0.095 C 
ATOM     81  C   UNL     1       9.152  -8.761   2.135  1.00  0.00     0.041 C 
ATOM     82  C   UNL     1       9.405  -7.897  -0.230  1.00  0.00     0.095 C 
ATOM     83  C   UNL     1       9.349 -10.142   1.577  1.00  0.00    -0.030 C 
ATOM     84  C   UNL     1       9.141  -9.330  -0.783  1.00  0.00     0.041 C 
ATOM     85  C   UNL     1       9.310 -10.405   0.262  1.00  0.00    -0.030 C 
BRANCH  82  86
ATOM     86  C   UNL     1      10.941  -7.684  -0.162  1.00  0.00     0.224 C 
ATOM     87  O   UNL     1      11.718  -8.545  -0.598  1.00  0.00    -0.275 OA
ATOM     88  N   UNL     1      11.583  -6.567   0.257  1.00  0.00    -0.353 N 
ATOM     89  H   UNL     1      12.555  -6.658   0.130  1.00  0.00     0.163 HD
BRANCH  88  90
ATOM     90  C   UNL     1      11.259  -5.266   0.843  1.00  0.00     0.082 C 
ATOM     91  C   UNL     1      10.260  -4.469   0.010  1.00  0.00     0.025 C 
ATOM     92  C   UNL     1      11.013  -5.365   2.352  1.00  0.00     0.025 C 
ATOM     93  C   UNL     1       9.630  -3.284   0.737  1.00  0.00     0.002 C 
ATOM     94  C   UNL     1      10.436  -4.096   2.964  1.00  0.00     0.002 C 
ATOM     95  C   UNL     1       9.236  -3.602   2.173  1.00  0.00     0.000 C 
ENDBRANCH  88  90
ENDBRANCH  82  86
ENDBRANCH  77  80
ENDBRANCH  75  76
ENDBRANCH  74  75
ENDBRANCH  73  74
ENDBRANCH   1  73
TORSDOF 15
