REMARK SMILES C[C@@H]([NH3+])CCC(=O)N[C@H]1C=C[C@@H](C(=O)NCCCCCCNC(=O)c2ccc(-c3c4nc(c(-c5c(F)c(F)c(F)c(F)c5F)c5ccc([nH]5)c(-c5c(F)c(F)c(F)c(F)c5F)c5nc(c(-c6c(F)c(F)c(F)c(F)c6F)c6ccc3[nH]6)C=C5)C=C4)cc2)C1
REMARK SMILES IDX 17 1 16 2 15 3 13 4 14 5 12 7 9 8 10 9 88 10 11 11 8 12 6 13
REMARK SMILES IDX 7 14 5 16 4 17 2 18 1 19 3 20 18 24 19 25 20 26 21 27 22 28
REMARK SMILES IDX 23 29 24 31 25 32 26 33 87 34 27 35 86 36 28 37 29 38 30 39
REMARK SMILES IDX 80 40 31 41 85 42 79 43 81 44 32 45 84 46 78 47 77 48 33 50
REMARK SMILES IDX 65 51 45 52 64 53 46 54 49 55 63 56 82 57 47 58 48 59 62 61
REMARK SMILES IDX 83 62 50 63 34 64 35 65 43 66 36 67 37 68 41 69 44 70 38 71
REMARK SMILES IDX 39 72 42 73 40 74 66 75 67 76 75 77 68 78 69 79 73 80 76 81
REMARK SMILES IDX 70 82 71 83 74 84 72 85 51 86 52 87 60 88 53 89 54 90 58 91
REMARK SMILES IDX 61 92 55 93 56 94 59 95 57 96
REMARK H PARENT 15 6 8 15 3 21 3 22 3 23 22 30 81 49 49 60
REMARK Flexibility Score: inf
ROOT
ATOM      1  C   UNL     1       1.286  -0.611   5.835  1.00  0.00     0.021 C 
ENDROOT
BRANCH   1   2
ATOM      2  C   UNL     1       2.588  -0.179   5.170  1.00  0.00     0.116 C 
BRANCH   2   3
ATOM      3  N   UNL     1       3.329  -1.320   4.675  1.00  0.00    -0.356 N 
ATOM      4  C   UNL     1       3.636  -1.677   3.398  1.00  0.00     0.227 C 
ATOM      5  O   UNL     1       4.281  -2.714   3.225  1.00  0.00    -0.274 OA
ATOM      6  H   UNL     1       3.662  -1.933   5.370  1.00  0.00     0.163 HD
BRANCH   4   7
ATOM      7  C   UNL     1       3.220  -0.817   2.212  1.00  0.00     0.103 C 
ATOM      8  C   UNL     1       1.569   0.898   1.746  1.00  0.00     0.106 C 
ATOM      9  C   UNL     1       2.892   1.506   2.065  1.00  0.00    -0.006 C 
ATOM     10  C   UNL     1       1.709  -0.580   2.104  1.00  0.00     0.047 C 
ATOM     11  C   UNL     1       3.814   0.563   2.280  1.00  0.00    -0.016 C 
BRANCH   8  12
ATOM     12  N   UNL     1       0.515   1.613   2.414  1.00  0.00    -0.350 N 
ATOM     13  C   UNL     1      -0.797   1.731   2.065  1.00  0.00     0.220 C 
ATOM     14  O   UNL     1      -1.506   2.498   2.719  1.00  0.00    -0.275 OA
ATOM     15  H   UNL     1       0.779   2.083   3.238  1.00  0.00     0.164 HD
BRANCH  13  16
ATOM     16  C   UNL     1      -1.375   0.906   0.929  1.00  0.00     0.106 C 
BRANCH  16  17
ATOM     17  C   UNL     1      -1.353   1.577  -0.455  1.00  0.00     0.074 C 
BRANCH  17  18
ATOM     18  C   UNL     1      -0.002   1.568  -1.189  1.00  0.00     0.178 C 
ATOM     19  C   UNL     1       0.520   0.155  -1.482  1.00  0.00     0.075 C 
BRANCH  18  20
ATOM     20  N   UNL     1      -0.077   2.285  -2.461  1.00  0.00    -0.355 N 
ATOM     21  H   UNL     1      -0.727   1.805  -3.084  1.00  0.00     0.344 HD
ATOM     22  H   UNL     1       0.847   2.314  -2.891  1.00  0.00     0.344 HD
ATOM     23  H   UNL     1      -0.405   3.237  -2.296  1.00  0.00     0.344 HD
ENDBRANCH  18  20
ENDBRANCH  17  18
ENDBRANCH  16  17
ENDBRANCH  13  16
ENDBRANCH   8  12
ENDBRANCH   4   7
ENDBRANCH   2   3
ENDBRANCH   1   2
BRANCH   1  24
ATOM     24  C   UNL     1       1.505  -1.293   7.184  1.00  0.00     0.002 C 
BRANCH  24  25
ATOM     25  C   UNL     1       2.332  -0.466   8.173  1.00  0.00     0.002 C 
BRANCH  25  26
ATOM     26  C   UNL     1       1.810   0.955   8.401  1.00  0.00     0.021 C 
BRANCH  26  27
ATOM     27  C   UNL     1       0.370   1.008   8.893  1.00  0.00     0.116 C 
BRANCH  27  28
ATOM     28  N   UNL     1       0.216   0.295  10.150  1.00  0.00    -0.352 N 
ATOM     29  C   UNL     1      -0.230   0.761  11.358  1.00  0.00     0.251 C 
ATOM     30  H   UNL     1       0.467  -0.657  10.130  1.00  0.00     0.163 HD
ATOM     31  O   UNL     1      -0.050   0.114  12.381  1.00  0.00    -0.269 OA
BRANCH  29  32
ATOM     32  C   UNL     1      -0.926   2.061  11.413  1.00  0.00     0.039 A 
ATOM     33  C   UNL     1      -0.602   2.960  12.429  1.00  0.00     0.014 A 
ATOM     34  C   UNL     1      -1.898   2.384  10.461  1.00  0.00     0.014 A 
ATOM     35  C   UNL     1      -1.224   4.208  12.464  1.00  0.00     0.010 A 
ATOM     36  C   UNL     1      -2.456   3.656  10.449  1.00  0.00     0.010 A 
ATOM     37  C   UNL     1      -2.133   4.575  11.458  1.00  0.00    -0.014 A 
BRANCH  37  38
ATOM     38  C   UNL     1      -2.764   5.917  11.450  1.00  0.00     0.031 A 
ATOM     39  C   UNL     1      -4.253   6.049  11.605  1.00  0.00     0.074 A 
ATOM     40  C   UNL     1      -2.002   7.007  11.243  1.00  0.00     0.049 A 
ATOM     41  N   UNL     1      -4.997   7.125  11.567  1.00  0.00    -0.248 NA
ATOM     42  C   UNL     1      -5.011   4.803  11.804  1.00  0.00     0.031 C 
ATOM     43  C   UNL     1      -0.553   6.998  11.033  1.00  0.00     0.029 A 
ATOM     44  N   UNL     1      -2.340   8.335  11.167  1.00  0.00    -0.354 N 
ATOM     45  C   UNL     1      -6.305   6.685  11.724  1.00  0.00     0.074 A 
ATOM     46  C   UNL     1      -6.261   5.242  11.797  1.00  0.00     0.031 C 
ATOM     47  C   UNL     1      -0.124   8.260  10.876  1.00  0.00     0.029 A 
ATOM     48  C   UNL     1      -1.270   9.162  10.931  1.00  0.00     0.049 A 
ATOM     49  H   UNL     1      -3.263   8.663  11.271  1.00  0.00     0.167 HD
ATOM     50  C   UNL     1      -7.436   7.422  11.822  1.00  0.00     0.037 A 
ATOM     51  C   UNL     1      -1.222  10.498  10.767  1.00  0.00     0.037 A 
ATOM     52  C   UNL     1      -7.469   8.860  11.764  1.00  0.00     0.049 A 
ATOM     53  C   UNL     1      -2.498  11.291  10.862  1.00  0.00     0.074 A 
ATOM     54  C   UNL     1      -8.555   9.704  11.909  1.00  0.00     0.029 A 
ATOM     55  N   UNL     1      -6.363   9.666  11.534  1.00  0.00    -0.354 N 
ATOM     56  N   UNL     1      -3.720  10.872  11.085  1.00  0.00    -0.248 NA
ATOM     57  C   UNL     1      -2.385  12.746  10.690  1.00  0.00     0.031 C 
ATOM     58  C   UNL     1      -8.117  11.017  11.708  1.00  0.00     0.029 A 
ATOM     59  C   UNL     1      -6.747  10.997  11.505  1.00  0.00     0.049 A 
ATOM     60  H   UNL     1      -5.442   9.340  11.409  1.00  0.00     0.167 HD
ATOM     61  C   UNL     1      -4.515  12.009  11.113  1.00  0.00     0.074 A 
ATOM     62  C   UNL     1      -3.634  13.138  10.899  1.00  0.00     0.031 C 
ATOM     63  C   UNL     1      -5.854  12.111  11.301  1.00  0.00     0.037 A 
BRANCH  50  64
ATOM     64  C   UNL     1      -8.734   6.685  12.001  1.00  0.00     0.064 A 
ATOM     65  C   UNL     1      -9.030   5.986  13.181  1.00  0.00     0.173 A 
ATOM     66  C   UNL     1      -9.710   6.708  10.993  1.00  0.00     0.173 A 
ATOM     67  F   UNL     1      -8.128   5.923  14.173  1.00  0.00    -0.203 F 
ATOM     68  C   UNL     1     -10.239   5.312  13.333  1.00  0.00     0.198 A 
ATOM     69  C   UNL     1     -10.932   6.063  11.162  1.00  0.00     0.198 A 
ATOM     70  F   UNL     1      -9.484   7.366   9.846  1.00  0.00    -0.203 F 
ATOM     71  F   UNL     1     -10.476   4.607  14.448  1.00  0.00    -0.200 F 
ATOM     72  C   UNL     1     -11.192   5.358  12.328  1.00  0.00     0.200 A 
ATOM     73  F   UNL     1     -11.859   6.122  10.196  1.00  0.00    -0.200 F 
ATOM     74  F   UNL     1     -12.359   4.718  12.479  1.00  0.00    -0.200 F 
ENDBRANCH  50  64
BRANCH  51  75
ATOM     75  C   UNL     1       0.080  11.170  10.517  1.00  0.00     0.064 A 
ATOM     76  C   UNL     1       0.646  12.025  11.474  1.00  0.00     0.173 A 
ATOM     77  C   UNL     1       0.782  10.980   9.318  1.00  0.00     0.173 A 
ATOM     78  F   UNL     1       0.005  12.253  12.630  1.00  0.00    -0.203 F 
ATOM     79  C   UNL     1       1.849  12.683  11.230  1.00  0.00     0.198 A 
ATOM     80  C   UNL     1       2.002  11.613   9.089  1.00  0.00     0.198 A 
ATOM     81  F   UNL     1       0.290  10.166   8.372  1.00  0.00    -0.203 F 
ATOM     82  F   UNL     1       2.341  13.534  12.141  1.00  0.00    -0.200 F 
ATOM     83  C   UNL     1       2.529  12.472  10.040  1.00  0.00     0.200 A 
ATOM     84  F   UNL     1       2.664  11.392   7.945  1.00  0.00    -0.200 F 
ATOM     85  F   UNL     1       3.688  13.102   9.808  1.00  0.00    -0.200 F 
ENDBRANCH  51  75
BRANCH  63  86
ATOM     86  C   UNL     1      -6.445  13.491  11.329  1.00  0.00     0.064 A 
ATOM     87  C   UNL     1      -6.537  14.282  10.174  1.00  0.00     0.173 A 
ATOM     88  C   UNL     1      -6.965  14.013  12.524  1.00  0.00     0.173 A 
ATOM     89  F   UNL     1      -6.042  13.836   9.009  1.00  0.00    -0.203 F 
ATOM     90  C   UNL     1      -7.102  15.554  10.220  1.00  0.00     0.198 A 
ATOM     91  C   UNL     1      -7.561  15.270  12.559  1.00  0.00     0.198 A 
ATOM     92  F   UNL     1      -6.910  13.295  13.656  1.00  0.00    -0.203 F 
ATOM     93  F   UNL     1      -7.131  16.312   9.116  1.00  0.00    -0.200 F 
ATOM     94  C   UNL     1      -7.621  16.043  11.410  1.00  0.00     0.200 A 
ATOM     95  F   UNL     1      -8.078  15.733  13.706  1.00  0.00    -0.200 F 
ATOM     96  F   UNL     1      -8.174  17.263  11.450  1.00  0.00    -0.200 F 
ENDBRANCH  63  86
ENDBRANCH  37  38
ENDBRANCH  29  32
ENDBRANCH  27  28
ENDBRANCH  26  27
ENDBRANCH  25  26
ENDBRANCH  24  25
ENDBRANCH   1  24
TORSDOF 18
