REMARK SMILES CC(=O)N[C@H]1[C@@H](Oc2ccc(C)c(C)c2)O[C@H]2CO[C@H](c3ccco3)O[C@@H]2[C@H]1OCC(=O)NCCCCCCNC(=O)c1ccc(-c2c3nc(c(-c4c(F)c(F)c(F)c(F)c4F)c4ccc([nH]4)c(-c4c(F)c(F)c(F)c(F)c4F)c4nc(c(-c5c(F)c(F)c(F)c(F)c5F)c5ccc2[nH]5)C=C4)C=C3)cc1
REMARK SMILES IDX 35 1 34 2 33 3 31 4 32 5 30 7 29 8 28 9 5 10 6 11 16 12
REMARK SMILES IDX 27 13 17 14 26 15 18 16 20 17 19 18 4 19 1 20 2 21 3 22 7 24
REMARK SMILES IDX 8 25 9 26 15 27 10 28 13 29 11 30 14 31 12 32 21 33 22 34
REMARK SMILES IDX 25 35 23 36 24 37 36 38 37 39 38 40 39 41 40 42 41 43 42 45
REMARK SMILES IDX 43 46 44 47 105 48 45 49 104 50 46 51 47 52 48 53 98 54
REMARK SMILES IDX 49 55 103 56 97 57 99 58 50 59 102 60 96 61 95 62 51 64
REMARK SMILES IDX 83 65 63 66 82 67 64 68 67 69 81 70 100 71 65 72 66 73 80 75
REMARK SMILES IDX 101 76 68 77 52 78 53 79 61 80 54 81 55 82 59 83 62 84 56 85
REMARK SMILES IDX 57 86 60 87 58 88 84 89 85 90 93 91 86 92 87 93 91 94 94 95
REMARK SMILES IDX 88 96 89 97 92 98 90 99 69 100 70 101 78 102 71 103 72 104
REMARK SMILES IDX 76 105 79 106 73 107 74 108 77 109 75 110
REMARK H PARENT 33 6 4 23 40 44 99 63 67 74
REMARK Flexibility Score: inf
ROOT
ATOM      1  C   UNL     1       5.254  -2.967  -2.243  1.00  0.00     0.021 C 
ENDROOT
BRANCH   1   2
ATOM      2  C   UNL     1       5.637  -2.194  -0.981  1.00  0.00     0.116 C 
BRANCH   2   3
ATOM      3  N   UNL     1       6.089  -0.857  -1.314  1.00  0.00    -0.354 N 
ATOM      4  C   UNL     1       5.486   0.337  -1.046  1.00  0.00     0.246 C 
ATOM      5  O   UNL     1       5.978   1.367  -1.508  1.00  0.00    -0.272 OA
ATOM      6  H   UNL     1       6.944  -0.804  -1.799  1.00  0.00     0.163 HD
BRANCH   4   7
ATOM      7  C   UNL     1       4.243   0.351  -0.158  1.00  0.00     0.260 C 
BRANCH   7   8
ATOM      8  O   UNL     1       3.152  -0.433  -0.611  1.00  0.00    -0.363 OA
BRANCH   8   9
ATOM      9  C   UNL     1       2.452   0.046  -1.765  1.00  0.00     0.179 C 
ATOM     10  C   UNL     1       1.627  -1.136  -2.326  1.00  0.00     0.182 C 
ATOM     11  C   UNL     1       0.725  -0.637  -3.521  1.00  0.00     0.333 C 
ATOM     12  O   UNL     1      -0.030   0.550  -3.262  1.00  0.00    -0.332 OA
ATOM     13  C   UNL     1       1.483   1.204  -1.498  1.00  0.00     0.184 C 
ATOM     14  C   UNL     1       0.765   1.629  -2.776  1.00  0.00     0.180 C 
ATOM     15  O   UNL     1       2.100   2.323  -0.891  1.00  0.00    -0.337 OA
ATOM     16  C   UNL     1      -0.152   2.819  -2.448  1.00  0.00     0.199 C 
ATOM     17  C   UNL     1       1.079   3.236  -0.503  1.00  0.00     0.319 C 
ATOM     18  O   UNL     1       0.501   3.824  -1.666  1.00  0.00    -0.343 OA
BRANCH  10  19
ATOM     19  N   UNL     1       0.989  -2.051  -1.326  1.00  0.00    -0.345 N 
ATOM     20  C   UNL     1       0.498  -0.851   0.855  1.00  0.00     0.114 C 
ATOM     21  C   UNL     1       0.548  -2.054  -0.044  1.00  0.00     0.217 C 
ATOM     22  O   UNL     1       0.111  -3.128   0.385  1.00  0.00    -0.275 OA
ATOM     23  H   UNL     1       0.844  -2.937  -1.730  1.00  0.00     0.164 HD
ENDBRANCH  10  19
BRANCH  11  24
ATOM     24  O   UNL     1      -0.050  -1.667  -4.156  1.00  0.00    -0.463 OA
BRANCH  24  25
ATOM     25  C   UNL     1      -1.153  -2.178  -3.534  1.00  0.00     0.123 A 
ATOM     26  C   UNL     1      -1.743  -1.684  -2.378  1.00  0.00     0.047 A 
ATOM     27  C   UNL     1      -1.680  -3.336  -4.112  1.00  0.00     0.050 A 
ATOM     28  C   UNL     1      -2.708  -2.432  -1.706  1.00  0.00     0.007 A 
ATOM     29  C   UNL     1      -2.701  -4.071  -3.480  1.00  0.00    -0.045 A 
ATOM     30  C   UNL     1      -3.157  -3.655  -2.217  1.00  0.00    -0.048 A 
ATOM     31  C   UNL     1      -3.260  -5.268  -4.198  1.00  0.00     0.045 C 
ATOM     32  C   UNL     1      -4.107  -4.471  -1.387  1.00  0.00     0.044 C 
ENDBRANCH  24  25
ENDBRANCH  11  24
BRANCH  17  33
ATOM     33  C   UNL     1       1.660   4.291   0.367  1.00  0.00     0.159 A 
ATOM     34  C   UNL     1       1.112   5.420   0.946  1.00  0.00     0.051 A 
ATOM     35  O   UNL     1       2.931   4.108   0.838  1.00  0.00    -0.464 OA
ATOM     36  C   UNL     1       2.100   5.952   1.807  1.00  0.00     0.042 A 
ATOM     37  C   UNL     1       3.192   5.124   1.697  1.00  0.00     0.195 A 
ENDBRANCH  17  33
ENDBRANCH   8   9
ENDBRANCH   7   8
ENDBRANCH   4   7
ENDBRANCH   2   3
ENDBRANCH   1   2
BRANCH   1  38
ATOM     38  C   UNL     1       6.400  -3.139  -3.248  1.00  0.00     0.002 C 
BRANCH  38  39
ATOM     39  C   UNL     1       7.667  -3.777  -2.674  1.00  0.00     0.002 C 
BRANCH  39  40
ATOM     40  C   UNL     1       7.458  -5.156  -2.048  1.00  0.00     0.021 C 
BRANCH  40  41
ATOM     41  C   UNL     1       6.895  -6.200  -3.005  1.00  0.00     0.116 C 
BRANCH  41  42
ATOM     42  N   UNL     1       7.790  -6.457  -4.122  1.00  0.00    -0.352 N 
ATOM     43  C   UNL     1       8.321  -7.645  -4.559  1.00  0.00     0.251 C 
ATOM     44  H   UNL     1       8.055  -5.662  -4.641  1.00  0.00     0.163 HD
ATOM     45  O   UNL     1       9.219  -7.655  -5.390  1.00  0.00    -0.269 OA
BRANCH  43  46
ATOM     46  C   UNL     1       7.814  -8.918  -4.003  1.00  0.00     0.039 A 
ATOM     47  C   UNL     1       8.729  -9.907  -3.638  1.00  0.00     0.014 A 
ATOM     48  C   UNL     1       6.442  -9.132  -3.844  1.00  0.00     0.014 A 
ATOM     49  C   UNL     1       8.270 -11.090  -3.058  1.00  0.00     0.010 A 
ATOM     50  C   UNL     1       5.993 -10.275  -3.191  1.00  0.00     0.010 A 
ATOM     51  C   UNL     1       6.901 -11.269  -2.797  1.00  0.00    -0.014 A 
BRANCH  51  52
ATOM     52  C   UNL     1       6.404 -12.489  -2.114  1.00  0.00     0.031 A 
ATOM     53  C   UNL     1       5.466 -13.425  -2.822  1.00  0.00     0.074 A 
ATOM     54  C   UNL     1       6.745 -12.718  -0.832  1.00  0.00     0.049 A 
ATOM     55  N   UNL     1       4.878 -14.506  -2.374  1.00  0.00    -0.248 NA
ATOM     56  C   UNL     1       5.119 -13.084  -4.210  1.00  0.00     0.031 C 
ATOM     57  C   UNL     1       7.603 -11.854  -0.020  1.00  0.00     0.029 A 
ATOM     58  N   UNL     1       6.401 -13.740   0.017  1.00  0.00    -0.354 N 
ATOM     59  C   UNL     1       4.091 -14.967  -3.420  1.00  0.00     0.074 A 
ATOM     60  C   UNL     1       4.220 -14.012  -4.499  1.00  0.00     0.031 C 
ATOM     61  C   UNL     1       7.732 -12.390   1.204  1.00  0.00     0.029 A 
ATOM     62  C   UNL     1       6.935 -13.611   1.276  1.00  0.00     0.049 A 
ATOM     63  H   UNL     1       5.827 -14.494  -0.251  1.00  0.00     0.167 HD
ATOM     64  C   UNL     1       3.350 -16.100  -3.486  1.00  0.00     0.037 A 
ATOM     65  C   UNL     1       6.787 -14.382   2.370  1.00  0.00     0.037 A 
ATOM     66  C   UNL     1       3.226 -17.047  -2.409  1.00  0.00     0.049 A 
ATOM     67  C   UNL     1       5.944 -15.625   2.283  1.00  0.00     0.074 A 
ATOM     68  C   UNL     1       2.539 -18.248  -2.388  1.00  0.00     0.029 A 
ATOM     69  N   UNL     1       3.795 -16.892  -1.151  1.00  0.00    -0.354 N 
ATOM     70  N   UNL     1       5.263 -16.093   1.265  1.00  0.00    -0.248 NA
ATOM     71  C   UNL     1       5.859 -16.452   3.493  1.00  0.00     0.031 C 
ATOM     72  C   UNL     1       2.643 -18.789  -1.102  1.00  0.00     0.029 A 
ATOM     73  C   UNL     1       3.451 -17.961  -0.339  1.00  0.00     0.049 A 
ATOM     74  H   UNL     1       4.360 -16.133  -0.877  1.00  0.00     0.167 HD
ATOM     75  C   UNL     1       4.687 -17.278   1.702  1.00  0.00     0.074 A 
ATOM     76  C   UNL     1       5.115 -17.466   3.074  1.00  0.00     0.031 C 
ATOM     77  C   UNL     1       3.879 -18.133   1.028  1.00  0.00     0.037 A 
BRANCH  64  78
ATOM     78  C   UNL     1       2.612 -16.364  -4.769  1.00  0.00     0.064 A 
ATOM     79  C   UNL     1       3.290 -16.636  -5.969  1.00  0.00     0.173 A 
ATOM     80  C   UNL     1       1.209 -16.348  -4.804  1.00  0.00     0.173 A 
ATOM     81  F   UNL     1       4.632 -16.655  -5.997  1.00  0.00    -0.203 F 
ATOM     82  C   UNL     1       2.595 -16.830  -7.160  1.00  0.00     0.198 A 
ATOM     83  C   UNL     1       0.516 -16.582  -5.989  1.00  0.00     0.198 A 
ATOM     84  F   UNL     1       0.507 -16.103  -3.687  1.00  0.00    -0.203 F 
ATOM     85  F   UNL     1       3.269 -17.014  -8.304  1.00  0.00    -0.200 F 
ATOM     86  C   UNL     1       1.210 -16.808  -7.168  1.00  0.00     0.200 A 
ATOM     87  F   UNL     1      -0.824 -16.576  -5.993  1.00  0.00    -0.200 F 
ATOM     88  F   UNL     1       0.542 -16.994  -8.316  1.00  0.00    -0.200 F 
ENDBRANCH  64  78
BRANCH  65  89
ATOM     89  C   UNL     1       7.471 -13.999   3.632  1.00  0.00     0.064 A 
ATOM     90  C   UNL     1       8.549 -14.744   4.127  1.00  0.00     0.173 A 
ATOM     91  C   UNL     1       7.077 -12.862   4.354  1.00  0.00     0.173 A 
ATOM     92  F   UNL     1       8.950 -15.850   3.483  1.00  0.00    -0.203 F 
ATOM     93  C   UNL     1       9.200 -14.375   5.303  1.00  0.00     0.198 A 
ATOM     94  C   UNL     1       7.748 -12.476   5.513  1.00  0.00     0.198 A 
ATOM     95  F   UNL     1       6.056 -12.109   3.918  1.00  0.00    -0.203 F 
ATOM     96  F   UNL     1      10.204 -15.126   5.774  1.00  0.00    -0.200 F 
ATOM     97  C   UNL     1       8.805 -13.236   5.989  1.00  0.00     0.200 A 
ATOM     98  F   UNL     1       7.375 -11.365   6.162  1.00  0.00    -0.200 F 
ATOM     99  F   UNL     1       9.441 -12.874   7.112  1.00  0.00    -0.200 F 
ENDBRANCH  65  89
BRANCH  77 100
ATOM    100  C   UNL     1       3.424 -19.368   1.753  1.00  0.00     0.064 A 
ATOM    101  C   UNL     1       2.504 -19.308   2.811  1.00  0.00     0.173 A 
ATOM    102  C   UNL     1       3.885 -20.634   1.357  1.00  0.00     0.173 A 
ATOM    103  F   UNL     1       2.043 -18.123   3.239  1.00  0.00    -0.203 F 
ATOM    104  C   UNL     1       2.086 -20.466   3.463  1.00  0.00     0.198 A 
ATOM    105  C   UNL     1       3.437 -21.791   1.988  1.00  0.00     0.198 A 
ATOM    106  F   UNL     1       4.760 -20.749   0.347  1.00  0.00    -0.203 F 
ATOM    107  F   UNL     1       1.247 -20.380   4.505  1.00  0.00    -0.200 F 
ATOM    108  C   UNL     1       2.545 -21.706   3.046  1.00  0.00     0.200 A 
ATOM    109  F   UNL     1       3.870 -22.989   1.572  1.00  0.00    -0.200 F 
ATOM    110  F   UNL     1       2.134 -22.819   3.668  1.00  0.00    -0.200 F 
ENDBRANCH  77 100
ENDBRANCH  51  52
ENDBRANCH  43  46
ENDBRANCH  41  42
ENDBRANCH  40  41
ENDBRANCH  39  40
ENDBRANCH  38  39
ENDBRANCH   1  38
TORSDOF 19
