REMARK SMILES CO[C@H]1C[C@@H](C(=O)NCCCCCCNC(=O)c2ccc(-c3c4nc(c(-c5c(F)c(F)c(F)c(F)c5F)c5ccc([nH]5)c(-c5c(F)c(F)c(F)c(F)c5F)c5nc(c(-c6c(F)c(F)c(F)c(F)c6F)c6ccc3[nH]6)C=C5)C=C4)cc2)N(C(=O)[C@@H](CCSC)NC(N)=O)C1
REMARK SMILES IDX 10 1 9 2 8 3 6 4 7 5 5 7 3 8 4 9 93 10 81 11 2 12 1 13 82 14
REMARK SMILES IDX 83 15 84 16 85 17 86 18 87 19 88 20 89 21 90 22 91 24 92 25
REMARK SMILES IDX 11 28 12 29 13 30 14 31 15 32 16 33 17 35 18 36 19 37 80 38
REMARK SMILES IDX 20 39 79 40 21 41 22 42 23 43 73 44 24 45 78 46 72 47 74 48
REMARK SMILES IDX 25 49 77 50 71 51 70 52 26 54 58 55 38 56 57 57 39 58 42 59
REMARK SMILES IDX 56 60 75 61 40 62 41 63 55 65 76 66 43 67 27 68 28 69 36 70
REMARK SMILES IDX 29 71 30 72 34 73 37 74 31 75 32 76 35 77 33 78 59 79 60 80
REMARK SMILES IDX 68 81 61 82 62 83 66 84 69 85 63 86 64 87 67 88 65 89 44 90
REMARK SMILES IDX 45 91 53 92 46 93 47 94 51 95 54 96 48 97 49 98 52 99 50 100
REMARK H PARENT 8 6 89 23 91 26 91 27 15 34 74 53 42 64
REMARK Flexibility Score: inf
ROOT
ATOM      1  C   UNL     1      -1.375   8.438  -2.973  1.00  0.00     0.021 C 
ENDROOT
BRANCH   1   2
ATOM      2  C   UNL     1      -0.220   7.443  -3.209  1.00  0.00     0.116 C 
BRANCH   2   3
ATOM      3  N   UNL     1       0.724   7.255  -2.080  1.00  0.00    -0.354 N 
ATOM      4  C   UNL     1       1.444   6.250  -1.471  1.00  0.00     0.242 C 
ATOM      5  O   UNL     1       2.421   6.678  -0.834  1.00  0.00    -0.273 OA
ATOM      6  H   UNL     1       0.887   8.113  -1.627  1.00  0.00     0.163 HD
BRANCH   4   7
ATOM      7  C   UNL     1       1.295   4.668  -1.612  1.00  0.00     0.177 C 
ATOM      8  C   UNL     1       1.629   2.533  -0.497  1.00  0.00     0.139 C 
ATOM      9  C   UNL     1       1.372   4.013  -0.209  1.00  0.00     0.069 C 
ATOM     10  C   UNL     1       2.637   2.605  -1.632  1.00  0.00     0.152 C 
ATOM     11  N   UNL     1       2.271   3.819  -2.371  1.00  0.00    -0.326 N 
BRANCH   8  12
ATOM     12  O   UNL     1       2.017   1.714   0.594  1.00  0.00    -0.380 OA
ATOM     13  C   UNL     1       2.862   2.311   1.564  1.00  0.00     0.195 C 
ENDBRANCH   8  12
BRANCH  11  14
ATOM     14  C   UNL     1       2.520   3.798  -3.734  1.00  0.00     0.246 C 
ATOM     15  O   UNL     1       3.155   2.891  -4.272  1.00  0.00    -0.272 OA
BRANCH  14  16
ATOM     16  C   UNL     1       1.983   4.958  -4.550  1.00  0.00     0.174 C 
BRANCH  16  17
ATOM     17  C   UNL     1       0.421   4.902  -4.791  1.00  0.00     0.046 C 
BRANCH  17  18
ATOM     18  C   UNL     1      -0.710   4.144  -3.935  1.00  0.00     0.072 C 
BRANCH  18  19
ATOM     19  S   UNL     1      -2.239   4.646  -2.798  1.00  0.00    -0.165 SA
ATOM     20  C   UNL     1      -1.779   5.473  -1.204  1.00  0.00     0.085 C 
ENDBRANCH  18  19
ENDBRANCH  17  18
ENDBRANCH  16  17
BRANCH  16  21
ATOM     21  N   UNL     1       2.618   6.138  -3.941  1.00  0.00    -0.327 N 
ATOM     22  C   UNL     1       3.480   7.012  -4.522  1.00  0.00     0.312 C 
ATOM     23  H   UNL     1       2.391   6.314  -2.999  1.00  0.00     0.166 HD
ATOM     24  N   UNL     1       3.987   7.883  -3.603  1.00  0.00    -0.352 N 
ATOM     25  O   UNL     1       3.797   7.043  -5.703  1.00  0.00    -0.249 OA
ATOM     26  H   UNL     1       3.706   7.824  -2.662  1.00  0.00     0.161 HD
ATOM     27  H   UNL     1       4.636   8.569  -3.882  1.00  0.00     0.161 HD
ENDBRANCH  16  21
ENDBRANCH  14  16
ENDBRANCH  11  14
ENDBRANCH   4   7
ENDBRANCH   2   3
ENDBRANCH   1   2
BRANCH   1  28
ATOM     28  C   UNL     1      -1.262   9.782  -3.698  1.00  0.00     0.002 C 
BRANCH  28  29
ATOM     29  C   UNL     1      -1.220   9.740  -5.231  1.00  0.00     0.002 C 
BRANCH  29  30
ATOM     30  C   UNL     1      -2.408   9.084  -5.944  1.00  0.00     0.021 C 
BRANCH  30  31
ATOM     31  C   UNL     1      -3.787   9.655  -5.616  1.00  0.00     0.116 C 
BRANCH  31  32
ATOM     32  N   UNL     1      -3.837  11.102  -5.758  1.00  0.00    -0.352 N 
ATOM     33  C   UNL     1      -4.607  11.900  -6.563  1.00  0.00     0.251 C 
ATOM     34  H   UNL     1      -3.212  11.592  -5.175  1.00  0.00     0.163 HD
ATOM     35  O   UNL     1      -4.329  13.090  -6.681  1.00  0.00    -0.269 OA
BRANCH  33  36
ATOM     36  C   UNL     1      -5.767  11.348  -7.294  1.00  0.00     0.039 A 
ATOM     37  C   UNL     1      -6.006  11.789  -8.599  1.00  0.00     0.014 A 
ATOM     38  C   UNL     1      -6.651  10.452  -6.686  1.00  0.00     0.014 A 
ATOM     39  C   UNL     1      -7.100  11.294  -9.310  1.00  0.00     0.010 A 
ATOM     40  C   UNL     1      -7.701   9.904  -7.421  1.00  0.00     0.010 A 
ATOM     41  C   UNL     1      -7.939  10.323  -8.738  1.00  0.00    -0.014 A 
BRANCH  41  42
ATOM     42  C   UNL     1      -9.053   9.731  -9.522  1.00  0.00     0.031 A 
ATOM     43  C   UNL     1     -10.482   9.944  -9.107  1.00  0.00     0.074 A 
ATOM     44  C   UNL     1      -8.766   8.967 -10.593  1.00  0.00     0.049 A 
ATOM     45  N   UNL     1     -11.580   9.502  -9.668  1.00  0.00    -0.248 NA
ATOM     46  C   UNL     1     -10.708  10.737  -7.890  1.00  0.00     0.031 C 
ATOM     47  C   UNL     1      -7.416   8.646 -11.061  1.00  0.00     0.029 A 
ATOM     48  N   UNL     1      -9.588   8.322 -11.482  1.00  0.00    -0.354 N 
ATOM     49  C   UNL     1     -12.622   9.959  -8.873  1.00  0.00     0.074 A 
ATOM     50  C   UNL     1     -12.025  10.661  -7.757  1.00  0.00     0.031 C 
ATOM     51  C   UNL     1      -7.503   7.894 -12.169  1.00  0.00     0.029 A 
ATOM     52  C   UNL     1      -8.909   7.645 -12.466  1.00  0.00     0.049 A 
ATOM     53  H   UNL     1     -10.570   8.342 -11.421  1.00  0.00     0.167 HD
ATOM     54  C   UNL     1     -13.956   9.825  -9.069  1.00  0.00     0.037 A 
ATOM     55  C   UNL     1      -9.370   6.903 -13.491  1.00  0.00     0.037 A 
ATOM     56  C   UNL     1     -14.543   9.132 -10.187  1.00  0.00     0.049 A 
ATOM     57  C   UNL     1     -10.856   6.758 -13.676  1.00  0.00     0.074 A 
ATOM     58  C   UNL     1     -15.882   8.990 -10.509  1.00  0.00     0.029 A 
ATOM     59  N   UNL     1     -13.825   8.456 -11.164  1.00  0.00    -0.354 N 
ATOM     60  N   UNL     1     -11.833   7.263 -12.963  1.00  0.00    -0.248 NA
ATOM     61  C   UNL     1     -11.302   5.946 -14.816  1.00  0.00     0.031 C 
ATOM     62  C   UNL     1     -15.976   8.177 -11.644  1.00  0.00     0.029 A 
ATOM     63  C   UNL     1     -14.694   7.867 -12.069  1.00  0.00     0.049 A 
ATOM     64  H   UNL     1     -12.843   8.403 -11.207  1.00  0.00     0.167 HD
ATOM     65  C   UNL     1     -13.008   6.852 -13.579  1.00  0.00     0.074 A 
ATOM     66  C   UNL     1     -12.618   6.076 -14.739  1.00  0.00     0.031 C 
ATOM     67  C   UNL     1     -14.292   7.092 -13.217  1.00  0.00     0.037 A 
BRANCH  54  68
ATOM     68  C   UNL     1     -14.876  10.437  -8.049  1.00  0.00     0.064 A 
ATOM     69  C   UNL     1     -14.990  11.828  -7.898  1.00  0.00     0.173 A 
ATOM     70  C   UNL     1     -15.682   9.624  -7.237  1.00  0.00     0.173 A 
ATOM     71  F   UNL     1     -14.237  12.652  -8.642  1.00  0.00    -0.203 F 
ATOM     72  C   UNL     1     -15.851  12.380  -6.952  1.00  0.00     0.198 A 
ATOM     73  C   UNL     1     -16.567  10.181  -6.316  1.00  0.00     0.198 A 
ATOM     74  F   UNL     1     -15.619   8.289  -7.342  1.00  0.00    -0.203 F 
ATOM     75  F   UNL     1     -15.902  13.710  -6.791  1.00  0.00    -0.200 F 
ATOM     76  C   UNL     1     -16.644  11.557  -6.168  1.00  0.00     0.200 A 
ATOM     77  F   UNL     1     -17.343   9.383  -5.569  1.00  0.00    -0.200 F 
ATOM     78  F   UNL     1     -17.477  12.090  -5.264  1.00  0.00    -0.200 F 
ENDBRANCH  54  68
BRANCH  55  79
ATOM     79  C   UNL     1      -8.414   6.261 -14.431  1.00  0.00     0.064 A 
ATOM     80  C   UNL     1      -8.320   6.682 -15.765  1.00  0.00     0.173 A 
ATOM     81  C   UNL     1      -7.578   5.213 -14.018  1.00  0.00     0.173 A 
ATOM     82  F   UNL     1      -9.111   7.668 -16.213  1.00  0.00    -0.203 F 
ATOM     83  C   UNL     1      -7.443   6.065 -16.655  1.00  0.00     0.198 A 
ATOM     84  C   UNL     1      -6.678   4.619 -14.900  1.00  0.00     0.198 A 
ATOM     85  F   UNL     1      -7.623   4.777 -12.751  1.00  0.00    -0.203 F 
ATOM     86  F   UNL     1      -7.410   6.453 -17.937  1.00  0.00    -0.200 F 
ATOM     87  C   UNL     1      -6.619   5.038 -16.220  1.00  0.00     0.200 A 
ATOM     88  F   UNL     1      -5.871   3.639 -14.471  1.00  0.00    -0.200 F 
ATOM     89  F   UNL     1      -5.772   4.448 -17.075  1.00  0.00    -0.200 F 
ENDBRANCH  55  79
BRANCH  67  90
ATOM     90  C   UNL     1     -15.370   6.529 -14.100  1.00  0.00     0.064 A 
ATOM     91  C   UNL     1     -15.614   5.149 -14.177  1.00  0.00     0.173 A 
ATOM     92  C   UNL     1     -16.183   7.382 -14.861  1.00  0.00     0.173 A 
ATOM     93  F   UNL     1     -14.856   4.289 -13.481  1.00  0.00    -0.203 F 
ATOM     94  C   UNL     1     -16.607   4.644 -15.012  1.00  0.00     0.198 A 
ATOM     95  C   UNL     1     -17.199   6.875 -15.666  1.00  0.00     0.198 A 
ATOM     96  F   UNL     1     -15.998   8.710 -14.818  1.00  0.00    -0.203 F 
ATOM     97  F   UNL     1     -16.781   3.319 -15.117  1.00  0.00    -0.200 F 
ATOM     98  C   UNL     1     -17.403   5.507 -15.750  1.00  0.00     0.200 A 
ATOM     99  F   UNL     1     -17.978   7.712 -16.365  1.00  0.00    -0.200 F 
ATOM    100  F   UNL     1     -18.361   5.018 -16.549  1.00  0.00    -0.200 F 
ENDBRANCH  67  90
ENDBRANCH  41  42
ENDBRANCH  33  36
ENDBRANCH  31  32
ENDBRANCH  30  31
ENDBRANCH  29  30
ENDBRANCH  28  29
ENDBRANCH   1  28
TORSDOF 20
