REMARK SMILES O=C(C[C@@H]1CN(c2ccc([N+](=O)[O-])cc2Cl)CCO1)NCCCCCCNC(=O)c1ccc(-c2c3nc(c(-c4c(F)c(F)c(F)c(F)c4F)c4ccc([nH]4)c(-c4c(F)c(F)c(F)c(F)c4F)c4nc(c(-c5c(F)c(F)c(F)c(F)c5F)c5ccc2[nH]5)C=C4)C=C3)cc1
REMARK SMILES IDX 23 1 22 2 21 3 20 4 1 5 2 6 3 8 4 9 5 10 19 11 6 12 18 13
REMARK SMILES IDX 17 14 7 15 8 16 15 17 9 18 14 19 16 20 10 21 11 22 12 23
REMARK SMILES IDX 13 24 24 25 25 26 26 27 27 28 28 29 29 31 30 32 31 33 92 34
REMARK SMILES IDX 32 35 91 36 33 37 34 38 35 39 85 40 36 41 90 42 84 43 86 44
REMARK SMILES IDX 37 45 89 46 83 47 82 48 38 50 70 51 50 52 69 53 51 54 54 55
REMARK SMILES IDX 68 56 87 57 52 58 53 59 67 61 88 62 55 63 39 64 40 65 48 66
REMARK SMILES IDX 41 67 42 68 46 69 49 70 43 71 44 72 47 73 45 74 71 75 72 76
REMARK SMILES IDX 80 77 73 78 74 79 78 80 81 81 75 82 76 83 79 84 77 85 56 86
REMARK SMILES IDX 57 87 65 88 58 89 59 90 63 91 66 92 60 93 61 94 64 95 62 96
REMARK H PARENT 20 7 27 30 86 49 54 60
REMARK Flexibility Score: inf
ROOT
ATOM      1  C   UNL     1       4.137   3.440   0.975  1.00  0.00     0.002 C 
ENDROOT
BRANCH   1   2
ATOM      2  C   UNL     1       2.632   3.143   1.036  1.00  0.00     0.021 C 
BRANCH   2   3
ATOM      3  C   UNL     1       2.100   2.327  -0.142  1.00  0.00     0.116 C 
BRANCH   3   4
ATOM      4  N   UNL     1       2.750   1.039  -0.215  1.00  0.00    -0.356 N 
ATOM      5  O   UNL     1       0.899  -0.247   0.224  1.00  0.00    -0.275 OA
ATOM      6  C   UNL     1       2.102  -0.150   0.005  1.00  0.00     0.222 C 
ATOM      7  H   UNL     1       3.710   1.013  -0.433  1.00  0.00     0.163 HD
BRANCH   6   8
ATOM      8  C   UNL     1       3.022  -1.350   0.043  1.00  0.00     0.133 C 
BRANCH   8   9
ATOM      9  C   UNL     1       3.854  -1.467  -1.231  1.00  0.00     0.147 C 
ATOM     10  C   UNL     1       4.445  -2.889  -1.345  1.00  0.00     0.149 C 
ATOM     11  O   UNL     1       4.925  -0.483  -1.182  1.00  0.00    -0.374 OA
ATOM     12  N   UNL     1       5.321  -2.948  -2.520  1.00  0.00    -0.365 N 
ATOM     13  C   UNL     1       5.725  -0.551  -2.382  1.00  0.00     0.182 C 
ATOM     14  C   UNL     1       6.375  -1.935  -2.562  1.00  0.00     0.145 C 
BRANCH  12  15
ATOM     15  C   UNL     1       5.274  -4.012  -3.394  1.00  0.00     0.056 A 
ATOM     16  C   UNL     1       6.407  -4.825  -3.567  1.00  0.00     0.034 A 
ATOM     17  C   UNL     1       4.120  -4.334  -4.149  1.00  0.00     0.071 A 
ATOM     18  C   UNL     1       6.394  -5.925  -4.433  1.00  0.00     0.088 A 
ATOM     19  C   UNL     1       4.095  -5.426  -5.021  1.00  0.00     0.108 A 
ATOM     20  Cl  UNL     1       2.695  -3.348  -4.109  1.00  0.00    -0.082 Cl
ATOM     21  C   UNL     1       5.234  -6.220  -5.155  1.00  0.00     0.271 A 
BRANCH  21  22
ATOM     22  N   UNL     1       5.211  -7.368  -6.069  1.00  0.00     0.062 N 
ATOM     23  O   UNL     1       6.235  -8.060  -6.149  1.00  0.00    -0.258 OA
ATOM     24  O   UNL     1       4.168  -7.576  -6.705  1.00  0.00    -0.258 OA
ENDBRANCH  21  22
ENDBRANCH  12  15
ENDBRANCH   8   9
ENDBRANCH   6   8
ENDBRANCH   3   4
ENDBRANCH   2   3
ENDBRANCH   1   2
BRANCH   1  25
ATOM     25  C   UNL     1       4.605   4.197  -0.271  1.00  0.00     0.002 C 
BRANCH  25  26
ATOM     26  C   UNL     1       3.921   5.544  -0.508  1.00  0.00     0.021 C 
BRANCH  26  27
ATOM     27  C   UNL     1       4.064   6.545   0.634  1.00  0.00     0.116 C 
BRANCH  27  28
ATOM     28  N   UNL     1       5.445   6.947   0.854  1.00  0.00    -0.352 N 
ATOM     29  C   UNL     1       5.984   8.206   0.933  1.00  0.00     0.251 C 
ATOM     30  H   UNL     1       6.086   6.208   0.961  1.00  0.00     0.163 HD
ATOM     31  O   UNL     1       7.204   8.356   0.953  1.00  0.00    -0.269 OA
BRANCH  29  32
ATOM     32  C   UNL     1       5.100   9.391   0.966  1.00  0.00     0.039 A 
ATOM     33  C   UNL     1       5.422  10.497   0.176  1.00  0.00     0.014 A 
ATOM     34  C   UNL     1       3.960   9.416   1.774  1.00  0.00     0.014 A 
ATOM     35  C   UNL     1       4.566  11.600   0.144  1.00  0.00     0.010 A 
ATOM     36  C   UNL     1       3.068  10.480   1.681  1.00  0.00     0.010 A 
ATOM     37  C   UNL     1       3.361  11.585   0.867  1.00  0.00    -0.014 A 
BRANCH  37  38
ATOM     38  C   UNL     1       2.395  12.710   0.776  1.00  0.00     0.031 A 
ATOM     39  C   UNL     1       2.063  13.526   1.994  1.00  0.00     0.074 A 
ATOM     40  C   UNL     1       1.764  12.953  -0.389  1.00  0.00     0.049 A 
ATOM     41  N   UNL     1       1.201  14.504   2.127  1.00  0.00    -0.248 NA
ATOM     42  C   UNL     1       2.773  13.180   3.234  1.00  0.00     0.031 C 
ATOM     43  C   UNL     1       1.962  12.201  -1.629  1.00  0.00     0.029 A 
ATOM     44  N   UNL     1       0.820  13.894  -0.718  1.00  0.00    -0.354 N 
ATOM     45  C   UNL     1       1.258  14.877   3.463  1.00  0.00     0.074 A 
ATOM     46  C   UNL     1       2.193  13.984   4.112  1.00  0.00     0.031 C 
ATOM     47  C   UNL     1       1.181  12.723  -2.588  1.00  0.00     0.029 A 
ATOM     48  C   UNL     1       0.397  13.817  -2.022  1.00  0.00     0.049 A 
ATOM     49  H   UNL     1       0.478  14.561  -0.079  1.00  0.00     0.167 HD
ATOM     50  C   UNL     1       0.607  15.889   4.088  1.00  0.00     0.037 A 
ATOM     51  C   UNL     1      -0.526  14.539  -2.686  1.00  0.00     0.037 A 
ATOM     52  C   UNL     1      -0.314  16.783   3.435  1.00  0.00     0.049 A 
ATOM     53  C   UNL     1      -1.249  15.646  -1.968  1.00  0.00     0.074 A 
ATOM     54  C   UNL     1      -0.979  17.875   3.964  1.00  0.00     0.029 A 
ATOM     55  N   UNL     1      -0.710  16.680   2.108  1.00  0.00    -0.354 N 
ATOM     56  N   UNL     1      -1.132  16.040  -0.723  1.00  0.00    -0.248 NA
ATOM     57  C   UNL     1      -2.227  16.414  -2.750  1.00  0.00     0.031 C 
ATOM     58  C   UNL     1      -1.821  18.396   2.977  1.00  0.00     0.029 A 
ATOM     59  C   UNL     1      -1.633  17.671   1.811  1.00  0.00     0.049 A 
ATOM     60  H   UNL     1      -0.383  16.004   1.472  1.00  0.00     0.167 HD
ATOM     61  C   UNL     1      -1.997  17.117  -0.580  1.00  0.00     0.074 A 
ATOM     62  C   UNL     1      -2.622  17.323  -1.870  1.00  0.00     0.031 C 
ATOM     63  C   UNL     1      -2.248  17.868   0.521  1.00  0.00     0.037 A 
BRANCH  50  64
ATOM     64  C   UNL     1       0.865  16.074   5.557  1.00  0.00     0.064 A 
ATOM     65  C   UNL     1       2.114  16.494   6.042  1.00  0.00     0.173 A 
ATOM     66  C   UNL     1      -0.156  15.847   6.494  1.00  0.00     0.173 A 
ATOM     67  F   UNL     1       3.128  16.717   5.193  1.00  0.00    -0.203 F 
ATOM     68  C   UNL     1       2.343  16.637   7.409  1.00  0.00     0.198 A 
ATOM     69  C   UNL     1       0.066  16.027   7.857  1.00  0.00     0.198 A 
ATOM     70  F   UNL     1      -1.372  15.454   6.087  1.00  0.00    -0.203 F 
ATOM     71  F   UNL     1       3.563  16.975   7.849  1.00  0.00    -0.200 F 
ATOM     72  C   UNL     1       1.318  16.409   8.314  1.00  0.00     0.200 A 
ATOM     73  F   UNL     1      -0.930  15.823   8.729  1.00  0.00    -0.200 F 
ATOM     74  F   UNL     1       1.539  16.550   9.628  1.00  0.00    -0.200 F 
ENDBRANCH  50  64
BRANCH  51  75
ATOM     75  C   UNL     1      -0.799  14.249  -4.118  1.00  0.00     0.064 A 
ATOM     76  C   UNL     1      -0.421  15.152  -5.121  1.00  0.00     0.173 A 
ATOM     77  C   UNL     1      -1.428  13.059  -4.515  1.00  0.00     0.173 A 
ATOM     78  F   UNL     1       0.166  16.312  -4.790  1.00  0.00    -0.203 F 
ATOM     79  C   UNL     1      -0.677  14.885  -6.464  1.00  0.00     0.198 A 
ATOM     80  C   UNL     1      -1.656  12.780  -5.860  1.00  0.00     0.198 A 
ATOM     81  F   UNL     1      -1.804  12.159  -3.595  1.00  0.00    -0.203 F 
ATOM     82  F   UNL     1      -0.343  15.785  -7.399  1.00  0.00    -0.200 F 
ATOM     83  C   UNL     1      -1.287  13.695  -6.834  1.00  0.00     0.200 A 
ATOM     84  F   UNL     1      -2.229  11.621  -6.214  1.00  0.00    -0.200 F 
ATOM     85  F   UNL     1      -1.523  13.434  -8.127  1.00  0.00    -0.200 F 
ENDBRANCH  51  75
BRANCH  63  86
ATOM     86  C   UNL     1      -3.215  19.008   0.374  1.00  0.00     0.064 A 
ATOM     87  C   UNL     1      -4.590  18.795   0.194  1.00  0.00     0.173 A 
ATOM     88  C   UNL     1      -2.763  20.335   0.455  1.00  0.00     0.173 A 
ATOM     89  F   UNL     1      -5.072  17.547   0.096  1.00  0.00    -0.203 F 
ATOM     90  C   UNL     1      -5.471  19.866   0.073  1.00  0.00     0.198 A 
ATOM     91  C   UNL     1      -3.651  21.403   0.368  1.00  0.00     0.198 A 
ATOM     92  F   UNL     1      -1.459  20.596   0.632  1.00  0.00    -0.203 F 
ATOM     93  F   UNL     1      -6.773  19.639  -0.149  1.00  0.00    -0.200 F 
ATOM     94  C   UNL     1      -5.003  21.168   0.169  1.00  0.00     0.200 A 
ATOM     95  F   UNL     1      -3.199  22.660   0.477  1.00  0.00    -0.200 F 
ATOM     96  F   UNL     1      -5.854  22.198   0.062  1.00  0.00    -0.200 F 
ENDBRANCH  63  86
ENDBRANCH  37  38
ENDBRANCH  29  32
ENDBRANCH  27  28
ENDBRANCH  26  27
ENDBRANCH  25  26
ENDBRANCH   1  25
TORSDOF 16
