REMARK SMILES COc1ccc([C@@H]([NH3+])CC(=O)NCCCCCCNC(=O)c2ccc(-c3c4nc(c(-c5c(F)c(F)c(F)c(F)c5F)c5ccc([nH]5)c(-c5c(F)c(F)c(F)c(F)c5F)c5nc(c(-c6c(F)c(F)c(F)c(F)c6F)c6ccc3[nH]6)C=C5)C=C4)cc2)cc1
REMARK SMILES IDX 15 1 14 2 13 3 12 4 10 5 11 6 9 8 7 9 6 10 3 11 4 12 86 13
REMARK SMILES IDX 5 14 85 15 2 16 1 17 8 18 16 22 17 23 18 24 19 25 20 26
REMARK SMILES IDX 21 28 22 29 23 30 84 31 24 32 83 33 25 34 26 35 27 36 77 37
REMARK SMILES IDX 28 38 82 39 76 40 78 41 29 42 81 43 75 44 74 45 30 47 62 48
REMARK SMILES IDX 42 49 61 50 43 51 46 52 60 53 79 54 44 55 45 56 59 58 80 59
REMARK SMILES IDX 47 60 31 61 32 62 40 63 33 64 34 65 38 66 41 67 35 68 36 69
REMARK SMILES IDX 39 70 37 71 63 72 64 73 72 74 65 75 66 76 70 77 73 78 67 79
REMARK SMILES IDX 68 80 71 81 69 82 48 83 49 84 57 85 50 86 51 87 55 88 58 89
REMARK SMILES IDX 52 90 53 91 56 92 54 93
REMARK H PARENT 12 7 8 19 8 20 8 21 19 27 78 46 46 57
REMARK Flexibility Score: inf
ROOT
ATOM      1  C   UNL     1       1.101  -3.348  -0.654  1.00  0.00     0.002 C 
ENDROOT
BRANCH   1   2
ATOM      2  C   UNL     1       1.075  -3.411   0.876  1.00  0.00     0.021 C 
BRANCH   2   3
ATOM      3  C   UNL     1       0.225  -4.536   1.473  1.00  0.00     0.116 C 
BRANCH   3   4
ATOM      4  N   UNL     1       1.032  -5.720   1.708  1.00  0.00    -0.356 N 
ATOM      5  C   UNL     1       1.519  -6.231   2.873  1.00  0.00     0.226 C 
ATOM      6  O   UNL     1       2.338  -7.151   2.801  1.00  0.00    -0.275 OA
ATOM      7  H   UNL     1       1.263  -6.233   0.900  1.00  0.00     0.163 HD
BRANCH   5   8
ATOM      8  C   UNL     1       1.056  -5.719   4.223  1.00  0.00     0.170 C 
BRANCH   8   9
ATOM      9  C   UNL     1       2.044  -4.713   4.841  1.00  0.00     0.221 C 
BRANCH   9  10
ATOM     10  C   UNL     1       1.832  -3.285   4.365  1.00  0.00     0.010 A 
ATOM     11  C   UNL     1       1.431  -0.693   3.353  1.00  0.00     0.118 A 
ATOM     12  C   UNL     1       0.392  -1.357   4.002  1.00  0.00     0.047 A 
ATOM     13  C   UNL     1       2.695  -1.279   3.294  1.00  0.00     0.047 A 
ATOM     14  C   UNL     1       0.593  -2.640   4.513  1.00  0.00     0.014 A 
ATOM     15  C   UNL     1       2.893  -2.570   3.792  1.00  0.00     0.014 A 
BRANCH  11  16
ATOM     16  O   UNL     1       1.103   0.513   2.801  1.00  0.00    -0.497 OA
ATOM     17  C   UNL     1       1.884   0.882   1.672  1.00  0.00     0.278 C 
ENDBRANCH  11  16
ENDBRANCH   9  10
BRANCH   9  18
ATOM     18  N   UNL     1       1.933  -4.730   6.308  1.00  0.00    -0.351 N 
ATOM     19  H   UNL     1       0.997  -4.430   6.582  1.00  0.00     0.345 HD
ATOM     20  H   UNL     1       2.624  -4.097   6.709  1.00  0.00     0.345 HD
ATOM     21  H   UNL     1       2.100  -5.677   6.650  1.00  0.00     0.345 HD
ENDBRANCH   9  18
ENDBRANCH   8   9
ENDBRANCH   5   8
ENDBRANCH   3   4
ENDBRANCH   2   3
ENDBRANCH   1   2
BRANCH   1  22
ATOM     22  C   UNL     1      -0.228  -2.960  -1.316  1.00  0.00     0.002 C 
BRANCH  22  23
ATOM     23  C   UNL     1      -0.836  -1.617  -0.888  1.00  0.00     0.021 C 
BRANCH  23  24
ATOM     24  C   UNL     1      -0.008  -0.373  -1.210  1.00  0.00     0.116 C 
BRANCH  24  25
ATOM     25  N   UNL     1       0.154  -0.131  -2.632  1.00  0.00    -0.352 N 
ATOM     26  C   UNL     1       0.111   1.042  -3.346  1.00  0.00     0.251 C 
ATOM     27  H   UNL     1       0.321  -0.937  -3.172  1.00  0.00     0.163 HD
ATOM     28  O   UNL     1       0.255   1.010  -4.567  1.00  0.00    -0.269 OA
BRANCH  26  29
ATOM     29  C   UNL     1      -0.157   2.343  -2.688  1.00  0.00     0.039 A 
ATOM     30  C   UNL     1      -1.085   3.198  -3.287  1.00  0.00     0.014 A 
ATOM     31  C   UNL     1       0.508   2.757  -1.532  1.00  0.00     0.014 A 
ATOM     32  C   UNL     1      -1.388   4.428  -2.698  1.00  0.00     0.010 A 
ATOM     33  C   UNL     1       0.152   3.960  -0.902  1.00  0.00     0.010 A 
ATOM     34  C   UNL     1      -0.805   4.811  -1.476  1.00  0.00    -0.014 A 
BRANCH  34  35
ATOM     35  C   UNL     1      -1.251   6.076  -0.820  1.00  0.00     0.031 A 
ATOM     36  C   UNL     1      -0.318   7.242  -0.624  1.00  0.00     0.074 A 
ATOM     37  C   UNL     1      -2.535   6.191  -0.423  1.00  0.00     0.049 A 
ATOM     38  N   UNL     1      -0.590   8.456  -0.205  1.00  0.00    -0.248 NA
ATOM     39  C   UNL     1       1.104   7.018  -0.916  1.00  0.00     0.031 C 
ATOM     40  C   UNL     1      -3.533   5.122  -0.488  1.00  0.00     0.029 A 
ATOM     41  N   UNL     1      -3.231   7.261   0.088  1.00  0.00    -0.354 N 
ATOM     42  C   UNL     1       0.620   9.138  -0.194  1.00  0.00     0.074 A 
ATOM     43  C   UNL     1       1.637   8.187  -0.587  1.00  0.00     0.031 C 
ATOM     44  C   UNL     1      -4.722   5.604  -0.094  1.00  0.00     0.029 A 
ATOM     45  C   UNL     1      -4.567   7.006   0.287  1.00  0.00     0.049 A 
ATOM     46  H   UNL     1      -2.812   8.129   0.292  1.00  0.00     0.167 HD
ATOM     47  C   UNL     1       0.859  10.443   0.090  1.00  0.00     0.037 A 
ATOM     48  C   UNL     1      -5.562   7.807   0.713  1.00  0.00     0.037 A 
ATOM     49  C   UNL     1      -0.152  11.396   0.479  1.00  0.00     0.049 A 
ATOM     50  C   UNL     1      -5.269   9.250   1.025  1.00  0.00     0.074 A 
ATOM     51  C   UNL     1      -0.011  12.751   0.727  1.00  0.00     0.029 A 
ATOM     52  N   UNL     1      -1.489  11.092   0.692  1.00  0.00    -0.354 N 
ATOM     53  N   UNL     1      -4.139   9.906   0.930  1.00  0.00    -0.248 NA
ATOM     54  C   UNL     1      -6.398  10.067   1.493  1.00  0.00     0.031 C 
ATOM     55  C   UNL     1      -1.247  13.254   1.149  1.00  0.00     0.029 A 
ATOM     56  C   UNL     1      -2.175  12.228   1.100  1.00  0.00     0.049 A 
ATOM     57  H   UNL     1      -1.892  10.202   0.570  1.00  0.00     0.167 HD
ATOM     58  C   UNL     1      -4.424  11.213   1.304  1.00  0.00     0.074 A 
ATOM     59  C   UNL     1      -5.841  11.264   1.597  1.00  0.00     0.031 C 
ATOM     60  C   UNL     1      -3.584  12.274   1.400  1.00  0.00     0.037 A 
BRANCH  47  61
ATOM     61  C   UNL     1       2.278  10.930  -0.011  1.00  0.00     0.064 A 
ATOM     62  C   UNL     1       2.933  11.040  -1.248  1.00  0.00     0.173 A 
ATOM     63  C   UNL     1       2.974  11.348   1.135  1.00  0.00     0.173 A 
ATOM     64  F   UNL     1       2.317  10.651  -2.374  1.00  0.00    -0.203 F 
ATOM     65  C   UNL     1       4.239  11.518  -1.330  1.00  0.00     0.198 A 
ATOM     66  C   UNL     1       4.268  11.857   1.045  1.00  0.00     0.198 A 
ATOM     67  F   UNL     1       2.394  11.278   2.342  1.00  0.00    -0.203 F 
ATOM     68  F   UNL     1       4.859  11.566  -2.517  1.00  0.00    -0.200 F 
ATOM     69  C   UNL     1       4.902  11.933  -0.185  1.00  0.00     0.200 A 
ATOM     70  F   UNL     1       4.900  12.275   2.150  1.00  0.00    -0.200 F 
ATOM     71  F   UNL     1       6.154  12.403  -0.268  1.00  0.00    -0.200 F 
ENDBRANCH  47  61
BRANCH  48  72
ATOM     72  C   UNL     1      -6.944   7.270   0.846  1.00  0.00     0.064 A 
ATOM     73  C   UNL     1      -7.980   7.717   0.012  1.00  0.00     0.173 A 
ATOM     74  C   UNL     1      -7.261   6.312   1.820  1.00  0.00     0.173 A 
ATOM     75  F   UNL     1      -7.734   8.649  -0.921  1.00  0.00    -0.203 F 
ATOM     76  C   UNL     1      -9.282   7.244   0.164  1.00  0.00     0.198 A 
ATOM     77  C   UNL     1      -8.555   5.814   1.948  1.00  0.00     0.198 A 
ATOM     78  F   UNL     1      -6.307   5.849   2.641  1.00  0.00    -0.203 F 
ATOM     79  F   UNL     1     -10.263   7.729  -0.609  1.00  0.00    -0.200 F 
ATOM     80  C   UNL     1      -9.567   6.288   1.127  1.00  0.00     0.200 A 
ATOM     81  F   UNL     1      -8.822   4.879   2.869  1.00  0.00    -0.200 F 
ATOM     82  F   UNL     1     -10.818   5.831   1.271  1.00  0.00    -0.200 F 
ENDBRANCH  48  72
BRANCH  60  83
ATOM     83  C   UNL     1      -4.183  13.589   1.820  1.00  0.00     0.064 A 
ATOM     84  C   UNL     1      -4.674  13.796   3.118  1.00  0.00     0.173 A 
ATOM     85  C   UNL     1      -4.258  14.660   0.915  1.00  0.00     0.173 A 
ATOM     86  F   UNL     1      -4.640  12.803   4.020  1.00  0.00    -0.203 F 
ATOM     87  C   UNL     1      -5.255  15.009   3.482  1.00  0.00     0.198 A 
ATOM     88  C   UNL     1      -4.805  15.883   1.293  1.00  0.00     0.198 A 
ATOM     89  F   UNL     1      -3.796  14.523  -0.336  1.00  0.00    -0.203 F 
ATOM     90  F   UNL     1      -5.778  15.159   4.707  1.00  0.00    -0.200 F 
ATOM     91  C   UNL     1      -5.315  16.053   2.571  1.00  0.00     0.200 A 
ATOM     92  F   UNL     1      -4.847  16.896   0.417  1.00  0.00    -0.200 F 
ATOM     93  F   UNL     1      -5.875  17.219   2.922  1.00  0.00    -0.200 F 
ENDBRANCH  60  83
ENDBRANCH  34  35
ENDBRANCH  26  29
ENDBRANCH  24  25
ENDBRANCH  23  24
ENDBRANCH  22  23
ENDBRANCH   1  22
TORSDOF 17
