REMARK SMILES C[C@H]1CCCC/C1=C\C(=O)NCCCCCCNC(=O)c1ccc(-c2c3nc(c(-c4c(F)c(F)c(F)c(F)c4F)c4ccc([nH]4)c(-c4c(F)c(F)c(F)c(F)c4F)c4nc(c(-c5c(F)c(F)c(F)c(F)c5F)c5ccc2[nH]5)C=C4)C=C3)cc1
REMARK SMILES IDX 15 1 14 2 13 3 12 4 11 5 9 6 10 7 8 9 1 10 2 11 3 12 7 13
REMARK SMILES IDX 4 14 6 15 5 16 16 17 17 18 18 19 19 20 20 22 21 23 22 24
REMARK SMILES IDX 83 25 23 26 82 27 24 28 25 29 26 30 76 31 27 32 81 33 75 34
REMARK SMILES IDX 77 35 28 36 80 37 74 38 73 39 29 41 61 42 41 43 60 44 42 45
REMARK SMILES IDX 45 46 59 47 78 48 43 49 44 50 58 52 79 53 46 54 30 55 31 56
REMARK SMILES IDX 39 57 32 58 33 59 37 60 40 61 34 62 35 63 38 64 36 65 62 66
REMARK SMILES IDX 63 67 71 68 64 69 65 70 69 71 72 72 66 73 67 74 70 75 68 76
REMARK SMILES IDX 47 77 48 78 56 79 49 80 50 81 54 82 57 83 51 84 52 85 55 86
REMARK SMILES IDX 53 87
REMARK H PARENT 11 8 18 21 77 40 45 51
REMARK Flexibility Score: inf
ROOT
ATOM      1  C   UNL     1      -0.032   0.182   6.964  1.00  0.00     0.002 C 
ENDROOT
BRANCH   1   2
ATOM      2  C   UNL     1      -1.481   0.375   6.499  1.00  0.00     0.002 C 
BRANCH   2   3
ATOM      3  C   UNL     1      -1.720   1.012   5.129  1.00  0.00     0.021 C 
BRANCH   3   4
ATOM      4  C   UNL     1      -0.871   0.517   3.969  1.00  0.00     0.116 C 
BRANCH   4   5
ATOM      5  N   UNL     1      -1.244  -0.691   3.295  1.00  0.00    -0.353 N 
ATOM      6  C   UNL     1      -0.989  -1.031   1.998  1.00  0.00     0.243 C 
ATOM      7  O   UNL     1      -1.356  -2.140   1.603  1.00  0.00    -0.270 OA
ATOM      8  H   UNL     1      -1.743  -1.352   3.829  1.00  0.00     0.163 HD
BRANCH   6   9
ATOM      9  C   UNL     1      -0.422  -0.077   0.978  1.00  0.00     0.070 C 
ATOM     10  C   UNL     1       0.310   1.252  -1.673  1.00  0.00     0.012 C 
ATOM     11  C   UNL     1       0.825   1.734  -0.317  1.00  0.00     0.012 C 
ATOM     12  C   UNL     1       0.339   3.159   0.001  1.00  0.00     0.008 C 
ATOM     13  C   UNL     1       0.533   0.880   0.927  1.00  0.00    -0.062 C 
ATOM     14  C   UNL     1       1.087   3.742   1.209  1.00  0.00     0.001 C 
ATOM     15  C   UNL     1       1.449   1.348   2.035  1.00  0.00     0.031 C 
ATOM     16  C   UNL     1       1.115   2.801   2.417  1.00  0.00     0.004 C 
ENDBRANCH   6   9
ENDBRANCH   4   5
ENDBRANCH   3   4
ENDBRANCH   2   3
ENDBRANCH   1   2
BRANCH   1  17
ATOM     17  C   UNL     1       0.909   1.390   6.909  1.00  0.00     0.021 C 
BRANCH  17  18
ATOM     18  C   UNL     1       0.446   2.658   7.619  1.00  0.00     0.116 C 
BRANCH  18  19
ATOM     19  N   UNL     1       0.124   2.447   9.020  1.00  0.00    -0.352 N 
ATOM     20  C   UNL     1       0.564   3.096  10.144  1.00  0.00     0.251 C 
ATOM     21  H   UNL     1      -0.514   1.717   9.190  1.00  0.00     0.163 HD
ATOM     22  O   UNL     1       0.250   2.664  11.256  1.00  0.00    -0.269 OA
BRANCH  20  23
ATOM     23  C   UNL     1       1.429   4.294  10.053  1.00  0.00     0.039 A 
ATOM     24  C   UNL     1       2.493   4.420  10.953  1.00  0.00     0.014 A 
ATOM     25  C   UNL     1       1.183   5.310   9.127  1.00  0.00     0.014 A 
ATOM     26  C   UNL     1       3.342   5.527  10.885  1.00  0.00     0.010 A 
ATOM     27  C   UNL     1       2.072   6.380   9.012  1.00  0.00     0.010 A 
ATOM     28  C   UNL     1       3.160   6.501   9.890  1.00  0.00    -0.014 A 
BRANCH  28  29
ATOM     29  C   UNL     1       4.098   7.646   9.755  1.00  0.00     0.031 A 
ATOM     30  C   UNL     1       3.618   9.055   9.973  1.00  0.00     0.074 A 
ATOM     31  C   UNL     1       5.373   7.422   9.381  1.00  0.00     0.049 A 
ATOM     32  N   UNL     1       4.268  10.184   9.837  1.00  0.00    -0.248 NA
ATOM     33  C   UNL     1       2.212   9.217  10.373  1.00  0.00     0.031 C 
ATOM     34  C   UNL     1       5.953   6.107   9.105  1.00  0.00     0.029 A 
ATOM     35  N   UNL     1       6.410   8.295   9.158  1.00  0.00    -0.354 N 
ATOM     36  C   UNL     1       3.350  11.186  10.125  1.00  0.00     0.074 A 
ATOM     37  C   UNL     1       2.084  10.536  10.386  1.00  0.00     0.031 C 
ATOM     38  C   UNL     1       7.245   6.257   8.773  1.00  0.00     0.029 A 
ATOM     39  C   UNL     1       7.575   7.679   8.770  1.00  0.00     0.049 A 
ATOM     40  H   UNL     1       6.326   9.270   9.266  1.00  0.00     0.167 HD
ATOM     41  C   UNL     1       3.551  12.525  10.189  1.00  0.00     0.037 A 
ATOM     42  C   UNL     1       8.771   8.202   8.439  1.00  0.00     0.037 A 
ATOM     43  C   UNL     1       4.816  13.168   9.941  1.00  0.00     0.049 A 
ATOM     44  C   UNL     1       8.960   9.695   8.489  1.00  0.00     0.074 A 
ATOM     45  C   UNL     1       5.133  14.512  10.027  1.00  0.00     0.029 A 
ATOM     46  N   UNL     1       5.974  12.509   9.553  1.00  0.00    -0.354 N 
ATOM     47  N   UNL     1       8.102  10.628   8.824  1.00  0.00    -0.248 NA
ATOM     48  C   UNL     1      10.287  10.206   8.118  1.00  0.00     0.031 C 
ATOM     49  C   UNL     1       6.467  14.674   9.637  1.00  0.00     0.029 A 
ATOM     50  C   UNL     1       7.000  13.424   9.369  1.00  0.00     0.049 A 
ATOM     51  H   UNL     1       6.056  11.537   9.426  1.00  0.00     0.167 HD
ATOM     52  C   UNL     1       8.791  11.830   8.737  1.00  0.00     0.074 A 
ATOM     53  C   UNL     1      10.143  11.507   8.332  1.00  0.00     0.031 C 
ATOM     54  C   UNL     1       8.345  13.088   8.973  1.00  0.00     0.037 A 
BRANCH  41  55
ATOM     55  C   UNL     1       2.372  13.389  10.539  1.00  0.00     0.064 A 
ATOM     56  C   UNL     1       1.797  13.368  11.819  1.00  0.00     0.173 A 
ATOM     57  C   UNL     1       1.829  14.273   9.594  1.00  0.00     0.173 A 
ATOM     58  F   UNL     1       2.271  12.536  12.759  1.00  0.00    -0.203 F 
ATOM     59  C   UNL     1       0.703  14.172  12.129  1.00  0.00     0.198 A 
ATOM     60  C   UNL     1       0.756  15.101   9.917  1.00  0.00     0.198 A 
ATOM     61  F   UNL     1       2.343  14.340   8.356  1.00  0.00    -0.203 F 
ATOM     62  F   UNL     1       0.137  14.093  13.341  1.00  0.00    -0.200 F 
ATOM     63  C   UNL     1       0.188  15.043  11.181  1.00  0.00     0.200 A 
ATOM     64  F   UNL     1       0.270  15.953   9.004  1.00  0.00    -0.200 F 
ATOM     65  F   UNL     1      -0.860  15.821  11.482  1.00  0.00    -0.200 F 
ENDBRANCH  41  55
BRANCH  42  66
ATOM     66  C   UNL     1       9.893   7.307   8.051  1.00  0.00     0.064 A 
ATOM     67  C   UNL     1      11.022   7.170   8.871  1.00  0.00     0.173 A 
ATOM     68  C   UNL     1       9.868   6.580   6.851  1.00  0.00     0.173 A 
ATOM     69  F   UNL     1      11.103   7.861  10.018  1.00  0.00    -0.203 F 
ATOM     70  C   UNL     1      12.092   6.359   8.497  1.00  0.00     0.198 A 
ATOM     71  C   UNL     1      10.924   5.744   6.493  1.00  0.00     0.198 A 
ATOM     72  F   UNL     1       8.810   6.671   6.032  1.00  0.00    -0.203 F 
ATOM     73  F   UNL     1      13.179   6.287   9.276  1.00  0.00    -0.200 F 
ATOM     74  C   UNL     1      12.039   5.642   7.311  1.00  0.00     0.200 A 
ATOM     75  F   UNL     1      10.863   5.042   5.354  1.00  0.00    -0.200 F 
ATOM     76  F   UNL     1      13.067   4.860   6.952  1.00  0.00    -0.200 F 
ENDBRANCH  42  66
BRANCH  54  77
ATOM     77  C   UNL     1       9.336  14.209   8.839  1.00  0.00     0.064 A 
ATOM     78  C   UNL     1       9.836  14.610   7.591  1.00  0.00     0.173 A 
ATOM     79  C   UNL     1       9.764  14.915   9.975  1.00  0.00     0.173 A 
ATOM     80  F   UNL     1       9.470  13.959   6.477  1.00  0.00    -0.203 F 
ATOM     81  C   UNL     1      10.748  15.658   7.489  1.00  0.00     0.198 A 
ATOM     82  C   UNL     1      10.650  15.983   9.864  1.00  0.00     0.198 A 
ATOM     83  F   UNL     1       9.313  14.577  11.192  1.00  0.00    -0.203 F 
ATOM     84  F   UNL     1      11.252  15.989   6.292  1.00  0.00    -0.200 F 
ATOM     85  C   UNL     1      11.148  16.348   8.623  1.00  0.00     0.200 A 
ATOM     86  F   UNL     1      11.022  16.659  10.960  1.00  0.00    -0.200 F 
ATOM     87  F   UNL     1      12.019  17.361   8.521  1.00  0.00    -0.200 F 
ENDBRANCH  54  77
ENDBRANCH  28  29
ENDBRANCH  20  23
ENDBRANCH  18  19
ENDBRANCH  17  18
ENDBRANCH   1  17
TORSDOF 13
