REMARK SMILES O=C(/C=C/[C@@]12C=C(O)C(=O)C=C1C(=O)C1=Cc3cc(O)c(O)cc3O[C@@H](c3ccc(O)c(O)c3)[C@@H]12)NCCCCCCNC(=O)c1ccc(-c2c3nc(c(-c4c(F)c(F)c(F)c(F)c4F)c4ccc([nH]4)c(-c4c(F)c(F)c(F)c(F)c4F)c4nc(c(-c5c(F)c(F)c(F)c(F)c5F)c5ccc2[nH]5)C=C4)C=C3)cc1
REMARK SMILES IDX 37 1 36 2 1 3 2 4 3 6 4 7 5 8 6 9 12 10 35 11 7 12 11 13
REMARK SMILES IDX 13 14 15 15 9 17 14 18 16 19 10 20 8 21 17 23 18 24 24 25
REMARK SMILES IDX 19 26 23 27 21 28 25 29 26 30 27 32 28 33 34 34 29 35 32 36
REMARK SMILES IDX 30 37 33 38 31 40 20 42 22 44 38 46 39 47 40 48 41 49 42 50
REMARK SMILES IDX 43 51 44 52 45 54 46 55 47 56 108 57 48 58 107 59 49 60
REMARK SMILES IDX 50 61 51 62 101 63 52 64 106 65 100 66 102 67 53 68 105 69
REMARK SMILES IDX 99 70 98 71 54 73 86 74 66 75 85 76 67 77 70 78 84 79 103 80
REMARK SMILES IDX 68 81 69 82 83 84 104 85 71 86 55 87 56 88 64 89 57 90 58 91
REMARK SMILES IDX 62 92 65 93 59 94 60 95 63 96 61 97 87 98 88 99 96 100
REMARK SMILES IDX 89 101 90 102 94 103 97 104 91 105 92 106 95 107 93 108
REMARK SMILES IDX 72 109 73 110 81 111 74 112 75 113 79 114 82 115 76 116
REMARK SMILES IDX 77 117 80 118 78 119
REMARK H PARENT 36 5 8 22 33 39 31 41 20 43 22 45 43 53 102 72 70 83
REMARK Flexibility Score: 80.00
ROOT
ATOM      1  C   UNL     1       2.166  -1.842  -1.825  1.00  0.00     0.116 C 
ENDROOT
BRANCH   1   2
ATOM      2  N   UNL     1       2.804  -1.131  -0.739  1.00  0.00    -0.353 N 
ATOM      3  O   UNL     1       1.067   0.330  -0.430  1.00  0.00    -0.270 OA
ATOM      4  C   UNL     1       2.203  -0.050  -0.170  1.00  0.00     0.243 C 
ATOM      5  H   UNL     1       3.680  -1.432  -0.408  1.00  0.00     0.163 HD
BRANCH   4   6
ATOM      6  C   UNL     1       2.992   0.689   0.840  1.00  0.00     0.068 C 
ATOM      7  C   UNL     1       4.332   0.823   0.947  1.00  0.00    -0.005 C 
BRANCH   7   8
ATOM      8  C   UNL     1       4.988   1.866   1.895  1.00  0.00     0.051 C 
ATOM      9  C   UNL     1       4.981   3.152   1.112  1.00  0.00     0.040 C 
ATOM     10  C   UNL     1       4.161   1.978   3.157  1.00  0.00     0.018 C 
ATOM     11  C   UNL     1       6.362   1.404   2.509  1.00  0.00     0.087 CG0
ATOM     12  C   UNL     1       4.148   4.167   1.382  1.00  0.00     0.160 C 
ATOM     13  C   UNL     1       3.338   2.975   3.494  1.00  0.00     0.065 C 
ATOM     14  C   UNL     1       4.530   0.835   4.024  1.00  0.00     0.186 C 
ATOM     15  C   UNL     1       5.896   0.443   3.587  1.00  0.00     0.009 C 
ATOM     16  G   UNL     1       7.236   2.476   3.252  1.00  0.00     0.000 G0
ATOM     17  C   UNL     1       3.229   4.125   2.566  1.00  0.00     0.220 C 
ATOM     18  O   UNL     1       3.886   0.375   4.938  1.00  0.00    -0.289 OA
ATOM     19  C   UNL     1       6.656  -0.467   4.200  1.00  0.00     0.020 C 
ATOM     20  O   UNL     1       2.463   5.059   2.772  1.00  0.00    -0.286 OA
BRANCH  12  21
ATOM     21  O   UNL     1       4.125   5.292   0.582  1.00  0.00    -0.504 OA
ATOM     22  H   UNL     1       4.689   5.347  -0.165  1.00  0.00     0.293 HD
ENDBRANCH  12  21
BRANCH  19  23
ATOM     23  C   UNL     1       8.101  -0.457   3.945  1.00  0.00     0.021 A 
ATOM     24  C   UNL     1       8.791  -1.670   3.792  1.00  0.00     0.062 A 
ATOM     25  C   UNL     1       8.826   0.755   3.957  1.00  0.00     0.131 A 
ATOM     26  C   UNL     1      10.179  -1.658   3.677  1.00  0.00     0.158 A 
ATOM     27  C   UNL     1      10.221   0.745   3.906  1.00  0.00     0.097 A 
ATOM     28  C   UNL     1      10.885  -0.460   3.750  1.00  0.00     0.161 A 
BRANCH  25  29
ATOM     29  O   UNL     1       8.261   1.987   4.157  1.00  0.00    -0.484 OA
BRANCH  29  30
ATOM     30  C   UNL     1       7.236   2.476   3.252  1.00  0.00     0.213 CG0
ATOM     31  G   UNL     1       6.362   1.404   2.509  1.00  0.00     0.000 G0
BRANCH  30  32
ATOM     32  C   UNL     1       7.880   3.509   2.337  1.00  0.00    -0.003 A 
ATOM     33  C   UNL     1       7.335   4.803   2.252  1.00  0.00     0.011 A 
ATOM     34  C   UNL     1       9.000   3.208   1.549  1.00  0.00     0.057 A 
ATOM     35  C   UNL     1       7.800   5.721   1.309  1.00  0.00     0.050 A 
ATOM     36  C   UNL     1       9.511   4.156   0.663  1.00  0.00     0.157 A 
ATOM     37  C   UNL     1       8.879   5.385   0.501  1.00  0.00     0.157 A 
BRANCH  36  38
ATOM     38  O   UNL     1      10.627   3.865  -0.067  1.00  0.00    -0.504 OA
ATOM     39  H   UNL     1      10.975   4.499  -0.664  1.00  0.00     0.293 HD
ENDBRANCH  36  38
BRANCH  37  40
ATOM     40  O   UNL     1       9.328   6.258  -0.447  1.00  0.00    -0.504 OA
ATOM     41  H   UNL     1       8.905   7.086  -0.558  1.00  0.00     0.293 HD
ENDBRANCH  37  40
ENDBRANCH  30  32
ENDBRANCH  29  30
ENDBRANCH  25  29
BRANCH  26  42
ATOM     42  O   UNL     1      10.906  -2.804   3.510  1.00  0.00    -0.504 OA
ATOM     43  H   UNL     1      10.470  -3.632   3.455  1.00  0.00     0.293 HD
ENDBRANCH  26  42
BRANCH  28  44
ATOM     44  O   UNL     1      12.248  -0.459   3.676  1.00  0.00    -0.504 OA
ATOM     45  H   UNL     1      12.712  -1.267   3.570  1.00  0.00     0.293 HD
ENDBRANCH  28  44
ENDBRANCH  19  23
ENDBRANCH   7   8
ENDBRANCH   4   6
ENDBRANCH   1   2
BRANCH   1  46
ATOM     46  C   UNL     1       2.659  -1.339  -3.182  1.00  0.00     0.021 C 
BRANCH  46  47
ATOM     47  C   UNL     1       4.178  -1.440  -3.378  1.00  0.00     0.002 C 
BRANCH  47  48
ATOM     48  C   UNL     1       4.787  -2.820  -3.109  1.00  0.00     0.002 C 
BRANCH  48  49
ATOM     49  C   UNL     1       4.144  -3.977  -3.873  1.00  0.00     0.021 C 
BRANCH  49  50
ATOM     50  C   UNL     1       4.156  -3.825  -5.388  1.00  0.00     0.116 C 
BRANCH  50  51
ATOM     51  N   UNL     1       5.494  -3.892  -5.955  1.00  0.00    -0.352 N 
ATOM     52  C   UNL     1       5.925  -4.610  -7.046  1.00  0.00     0.251 C 
ATOM     53  H   UNL     1       6.180  -3.353  -5.498  1.00  0.00     0.163 HD
ATOM     54  O   UNL     1       7.116  -4.668  -7.331  1.00  0.00    -0.269 OA
BRANCH  52  55
ATOM     55  C   UNL     1       4.931  -5.357  -7.846  1.00  0.00     0.039 A 
ATOM     56  C   UNL     1       3.756  -4.733  -8.270  1.00  0.00     0.014 A 
ATOM     57  C   UNL     1       5.143  -6.715  -8.097  1.00  0.00     0.014 A 
ATOM     58  C   UNL     1       2.718  -5.504  -8.780  1.00  0.00     0.010 A 
ATOM     59  C   UNL     1       4.127  -7.473  -8.684  1.00  0.00     0.010 A 
ATOM     60  C   UNL     1       2.885  -6.886  -8.974  1.00  0.00    -0.014 A 
BRANCH  60  61
ATOM     61  C   UNL     1       1.732  -7.701  -9.436  1.00  0.00     0.031 A 
ATOM     62  C   UNL     1       1.111  -8.730  -8.530  1.00  0.00     0.074 A 
ATOM     63  C   UNL     1       1.199  -7.465 -10.649  1.00  0.00     0.049 A 
ATOM     64  N   UNL     1       0.094  -9.525  -8.756  1.00  0.00    -0.248 NA
ATOM     65  C   UNL     1       1.706  -8.891  -7.193  1.00  0.00     0.031 C 
ATOM     66  C   UNL     1       1.696  -6.477 -11.608  1.00  0.00     0.029 A 
ATOM     67  N   UNL     1       0.106  -8.014 -11.271  1.00  0.00    -0.354 N 
ATOM     68  C   UNL     1      -0.058 -10.288  -7.605  1.00  0.00     0.074 A 
ATOM     69  C   UNL     1       0.985  -9.882  -6.688  1.00  0.00     0.031 C 
ATOM     70  C   UNL     1       0.880  -6.451 -12.672  1.00  0.00     0.029 A 
ATOM     71  C   UNL     1      -0.161  -7.460 -12.498  1.00  0.00     0.049 A 
ATOM     72  H   UNL     1      -0.434  -8.736 -10.875  1.00  0.00     0.167 HD
ATOM     73  C   UNL     1      -0.991 -11.231  -7.334  1.00  0.00     0.037 A 
ATOM     74  C   UNL     1      -1.129  -7.740 -13.390  1.00  0.00     0.037 A 
ATOM     75  C   UNL     1      -2.048 -11.614  -8.233  1.00  0.00     0.049 A 
ATOM     76  C   UNL     1      -2.124  -8.821 -13.081  1.00  0.00     0.074 A 
ATOM     77  C   UNL     1      -3.052 -12.547  -8.037  1.00  0.00     0.029 A 
ATOM     78  N   UNL     1      -2.242 -11.077  -9.497  1.00  0.00    -0.354 N 
ATOM     79  N   UNL     1      -2.247  -9.544 -11.995  1.00  0.00    -0.248 NA
ATOM     80  C   UNL     1      -3.105  -9.136 -14.128  1.00  0.00     0.031 C 
ATOM     81  C   UNL     1      -3.833 -12.600  -9.196  1.00  0.00     0.029 A 
ATOM     82  C   UNL     1      -3.339 -11.673 -10.099  1.00  0.00     0.049 A 
ATOM     83  H   UNL     1      -1.684 -10.377  -9.905  1.00  0.00     0.167 HD
ATOM     84  C   UNL     1      -3.317 -10.396 -12.224  1.00  0.00     0.074 A 
ATOM     85  C   UNL     1      -3.826 -10.084 -13.544  1.00  0.00     0.031 C 
ATOM     86  C   UNL     1      -3.827 -11.357 -11.416  1.00  0.00     0.037 A 
BRANCH  73  87
ATOM     87  C   UNL     1      -0.918 -11.928  -6.007  1.00  0.00     0.064 A 
ATOM     88  C   UNL     1      -1.308 -11.290  -4.821  1.00  0.00     0.173 A 
ATOM     89  C   UNL     1      -0.518 -13.271  -5.931  1.00  0.00     0.173 A 
ATOM     90  F   UNL     1      -1.686 -10.003  -4.840  1.00  0.00    -0.203 F 
ATOM     91  C   UNL     1      -1.290 -11.968  -3.605  1.00  0.00     0.198 A 
ATOM     92  C   UNL     1      -0.523 -13.952  -4.717  1.00  0.00     0.198 A 
ATOM     93  F   UNL     1      -0.139 -13.927  -7.038  1.00  0.00    -0.203 F 
ATOM     94  F   UNL     1      -1.639 -11.330  -2.479  1.00  0.00    -0.200 F 
ATOM     95  C   UNL     1      -0.906 -13.300  -3.555  1.00  0.00     0.200 A 
ATOM     96  F   UNL     1      -0.161 -15.242  -4.671  1.00  0.00    -0.200 F 
ATOM     97  F   UNL     1      -0.901 -13.954  -2.385  1.00  0.00    -0.200 F 
ENDBRANCH  73  87
BRANCH  74  98
ATOM     98  C   UNL     1      -1.197  -6.976 -14.661  1.00  0.00     0.064 A 
ATOM     99  C   UNL     1      -2.227  -6.054 -14.890  1.00  0.00     0.173 A 
ATOM    100  C   UNL     1      -0.221  -7.129 -15.656  1.00  0.00     0.173 A 
ATOM    101  F   UNL     1      -3.194  -5.890 -13.976  1.00  0.00    -0.203 F 
ATOM    102  C   UNL     1      -2.280  -5.316 -16.070  1.00  0.00     0.198 A 
ATOM    103  C   UNL     1      -0.260  -6.372 -16.823  1.00  0.00     0.198 A 
ATOM    104  F   UNL     1       0.785  -7.998 -15.480  1.00  0.00    -0.203 F 
ATOM    105  F   UNL     1      -3.290  -4.461 -16.278  1.00  0.00    -0.200 F 
ATOM    106  C   UNL     1      -1.291  -5.469 -17.032  1.00  0.00     0.200 A 
ATOM    107  F   UNL     1       0.704  -6.513 -17.743  1.00  0.00    -0.200 F 
ATOM    108  F   UNL     1      -1.335  -4.748 -18.160  1.00  0.00    -0.200 F 
ENDBRANCH  74  98
BRANCH  86 109
ATOM    109  C   UNL     1      -4.992 -12.144 -11.934  1.00  0.00     0.064 A 
ATOM    110  C   UNL     1      -4.822 -13.135 -12.911  1.00  0.00     0.173 A 
ATOM    111  C   UNL     1      -6.278 -11.944 -11.411  1.00  0.00     0.173 A 
ATOM    112  F   UNL     1      -3.613 -13.351 -13.450  1.00  0.00    -0.203 F 
ATOM    113  C   UNL     1      -5.903 -13.891 -13.356  1.00  0.00     0.198 A 
ATOM    114  C   UNL     1      -7.352 -12.718 -11.842  1.00  0.00     0.198 A 
ATOM    115  F   UNL     1      -6.489 -11.011 -10.471  1.00  0.00    -0.203 F 
ATOM    116  F   UNL     1      -5.725 -14.812 -14.313  1.00  0.00    -0.200 F 
ATOM    117  C   UNL     1      -7.165 -13.688 -12.816  1.00  0.00     0.200 A 
ATOM    118  F   UNL     1      -8.568 -12.528 -11.312  1.00  0.00    -0.200 F 
ATOM    119  F   UNL     1      -8.202 -14.424 -13.239  1.00  0.00    -0.200 F 
ENDBRANCH  86 109
ENDBRANCH  60  61
ENDBRANCH  52  55
ENDBRANCH  50  51
ENDBRANCH  49  50
ENDBRANCH  48  49
ENDBRANCH  47  48
ENDBRANCH  46  47
ENDBRANCH   1  46
TORSDOF 20
