REMARK SMILES Cc1cc(OC(F)F)ccc1NC(=O)[C@@H]1CCCC[C@@H]1C(=O)NCCCCCCNC(=O)c1ccc(-c2c3nc(c(-c4c(F)c(F)c(F)c(F)c4F)c4ccc([nH]4)c(-c4c(F)c(F)c(F)c(F)c4F)c4nc(c(-c5c(F)c(F)c(F)c(F)c5F)c5ccc2[nH]5)C=C4)C=C3)cc1
REMARK SMILES IDX 25 1 24 2 23 3 21 4 22 5 20 7 15 8 16 9 17 10 19 11 18 12
REMARK SMILES IDX 13 13 12 14 14 16 11 17 1 18 2 19 3 20 4 21 10 22 9 23 5 24
REMARK SMILES IDX 6 25 7 26 8 27 26 28 27 29 28 30 29 31 30 32 31 33 32 35
REMARK SMILES IDX 33 36 34 37 95 38 35 39 94 40 36 41 37 42 38 43 88 44 39 45
REMARK SMILES IDX 93 46 87 47 89 48 40 49 92 50 86 51 85 52 41 54 73 55 53 56
REMARK SMILES IDX 72 57 54 58 57 59 71 60 90 61 55 62 56 63 70 65 91 66 58 67
REMARK SMILES IDX 42 68 43 69 51 70 44 71 45 72 49 73 52 74 46 75 47 76 50 77
REMARK SMILES IDX 48 78 74 79 75 80 83 81 76 82 77 83 81 84 84 85 78 86 79 87
REMARK SMILES IDX 82 88 80 89 59 90 60 91 68 92 61 93 62 94 66 95 69 96 63 97
REMARK SMILES IDX 64 98 67 99 65 100
REMARK H PARENT 23 6 12 15 30 34 89 53 57 64
REMARK Flexibility Score: inf
ROOT
ATOM      1  C   UNL     1       2.372   2.349   2.089  1.00  0.00     0.021 C 
ENDROOT
BRANCH   1   2
ATOM      2  C   UNL     1       1.009   1.677   2.251  1.00  0.00     0.116 C 
BRANCH   2   3
ATOM      3  N   UNL     1       0.095   2.510   2.991  1.00  0.00    -0.356 N 
ATOM      4  C   UNL     1      -1.149   2.958   2.678  1.00  0.00     0.223 C 
ATOM      5  O   UNL     1      -1.729   3.596   3.559  1.00  0.00    -0.275 OA
ATOM      6  H   UNL     1       0.427   2.803   3.871  1.00  0.00     0.163 HD
BRANCH   4   7
ATOM      7  C   UNL     1      -1.799   2.646   1.317  1.00  0.00     0.091 C 
ATOM      8  C   UNL     1      -1.405   3.580   0.150  1.00  0.00     0.091 C 
ATOM      9  C   UNL     1      -1.730   5.034   0.526  1.00  0.00     0.014 C 
ATOM     10  C   UNL     1      -3.244   5.195   0.691  1.00  0.00     0.001 C 
ATOM     11  C   UNL     1      -3.342   2.728   1.442  1.00  0.00     0.014 C 
ATOM     12  C   UNL     1      -3.882   4.156   1.615  1.00  0.00     0.001 C 
BRANCH   8  13
ATOM     13  C   UNL     1      -0.023   3.408  -0.478  1.00  0.00     0.228 C 
ATOM     14  N   UNL     1       0.367   2.260  -1.126  1.00  0.00    -0.326 N 
ATOM     15  H   UNL     1       1.227   2.334  -1.599  1.00  0.00     0.169 HD
ATOM     16  O   UNL     1       0.819   4.311  -0.416  1.00  0.00    -0.274 OA
BRANCH  14  17
ATOM     17  C   UNL     1      -0.246   0.995  -1.234  1.00  0.00     0.044 A 
ATOM     18  C   UNL     1       2.047  -0.176  -1.105  1.00  0.00     0.047 C 
ATOM     19  C   UNL     1       0.542  -0.163  -1.083  1.00  0.00    -0.024 A 
ATOM     20  C   UNL     1      -0.104  -1.399  -0.884  1.00  0.00     0.052 A 
ATOM     21  C   UNL     1      -1.496  -1.502  -0.864  1.00  0.00     0.126 A 
ATOM     22  C   UNL     1      -1.625   0.849  -1.393  1.00  0.00     0.030 A 
ATOM     23  C   UNL     1      -2.251  -0.384  -1.191  1.00  0.00     0.049 A 
BRANCH  21  24
ATOM     24  O   UNL     1      -1.988  -2.731  -0.535  1.00  0.00    -0.435 OA
BRANCH  24  25
ATOM     25  C   UNL     1      -3.346  -2.799  -0.111  1.00  0.00     0.542 C 
ATOM     26  F   UNL     1      -3.604  -1.842   0.814  1.00  0.00    -0.167 F 
ATOM     27  F   UNL     1      -4.161  -2.592  -1.173  1.00  0.00    -0.167 F 
ENDBRANCH  24  25
ENDBRANCH  21  24
ENDBRANCH  14  17
ENDBRANCH   8  13
ENDBRANCH   4   7
ENDBRANCH   2   3
ENDBRANCH   1   2
BRANCH   1  28
ATOM     28  C   UNL     1       3.318   2.170   3.284  1.00  0.00     0.002 C 
BRANCH  28  29
ATOM     29  C   UNL     1       3.624   0.721   3.704  1.00  0.00     0.002 C 
BRANCH  29  30
ATOM     30  C   UNL     1       4.005  -0.237   2.575  1.00  0.00     0.021 C 
BRANCH  30  31
ATOM     31  C   UNL     1       5.378   0.026   1.969  1.00  0.00     0.116 C 
BRANCH  31  32
ATOM     32  N   UNL     1       6.435  -0.813   2.526  1.00  0.00    -0.352 N 
ATOM     33  C   UNL     1       7.790  -0.823   2.242  1.00  0.00     0.251 C 
ATOM     34  H   UNL     1       6.142  -1.466   3.202  1.00  0.00     0.163 HD
ATOM     35  O   UNL     1       8.540  -1.610   2.798  1.00  0.00    -0.269 OA
BRANCH  33  36
ATOM     36  C   UNL     1       8.340   0.228   1.354  1.00  0.00     0.039 A 
ATOM     37  C   UNL     1       9.418   0.987   1.824  1.00  0.00     0.014 A 
ATOM     38  C   UNL     1       7.661   0.603   0.200  1.00  0.00     0.014 A 
ATOM     39  C   UNL     1       9.638   2.254   1.290  1.00  0.00     0.010 A 
ATOM     40  C   UNL     1       7.805   1.896  -0.256  1.00  0.00     0.010 A 
ATOM     41  C   UNL     1       8.743   2.746   0.343  1.00  0.00    -0.014 A 
BRANCH  41  42
ATOM     42  C   UNL     1       8.644   4.154  -0.023  1.00  0.00     0.031 A 
ATOM     43  C   UNL     1       9.112   4.611  -1.345  1.00  0.00     0.074 A 
ATOM     44  C   UNL     1       8.015   5.015   0.809  1.00  0.00     0.049 A 
ATOM     45  N   UNL     1       9.288   5.845  -1.672  1.00  0.00    -0.248 NA
ATOM     46  C   UNL     1       9.490   3.681  -2.400  1.00  0.00     0.031 C 
ATOM     47  C   UNL     1       7.548   6.364   0.501  1.00  0.00     0.029 A 
ATOM     48  N   UNL     1       7.871   4.908   2.203  1.00  0.00    -0.354 N 
ATOM     49  C   UNL     1       9.543   5.901  -3.023  1.00  0.00     0.074 A 
ATOM     50  C   UNL     1       9.750   4.525  -3.403  1.00  0.00     0.031 C 
ATOM     51  C   UNL     1       7.482   7.066   1.642  1.00  0.00     0.029 A 
ATOM     52  C   UNL     1       8.038   6.231   2.690  1.00  0.00     0.049 A 
ATOM     53  H   UNL     1       7.692   4.094   2.728  1.00  0.00     0.167 HD
ATOM     54  C   UNL     1       9.437   7.109  -3.653  1.00  0.00     0.037 A 
ATOM     55  C   UNL     1       9.110   6.556   3.471  1.00  0.00     0.037 A 
ATOM     56  C   UNL     1       9.347   8.199  -2.673  1.00  0.00     0.049 A 
ATOM     57  C   UNL     1      10.037   7.598   2.877  1.00  0.00     0.074 A 
ATOM     58  C   UNL     1       8.335   9.008  -2.182  1.00  0.00     0.029 A 
ATOM     59  N   UNL     1      10.429   8.401  -1.833  1.00  0.00    -0.354 N 
ATOM     60  N   UNL     1       9.903   8.106   1.683  1.00  0.00    -0.248 NA
ATOM     61  C   UNL     1      11.246   8.077   3.549  1.00  0.00     0.031 C 
ATOM     62  C   UNL     1       8.825   9.677  -1.018  1.00  0.00     0.029 A 
ATOM     63  C   UNL     1      10.132   9.278  -0.811  1.00  0.00     0.049 A 
ATOM     64  H   UNL     1      11.306   7.969  -1.952  1.00  0.00     0.167 HD
ATOM     65  C   UNL     1      10.974   8.912   1.408  1.00  0.00     0.074 A 
ATOM     66  C   UNL     1      11.789   8.866   2.607  1.00  0.00     0.031 C 
ATOM     67  C   UNL     1      11.140   9.530   0.205  1.00  0.00     0.037 A 
BRANCH  54  68
ATOM     68  C   UNL     1       9.234   7.320  -5.146  1.00  0.00     0.064 A 
ATOM     69  C   UNL     1       8.753   8.559  -5.630  1.00  0.00     0.173 A 
ATOM     70  C   UNL     1       9.405   6.346  -6.150  1.00  0.00     0.173 A 
ATOM     71  F   UNL     1       8.605   9.618  -4.822  1.00  0.00    -0.203 F 
ATOM     72  C   UNL     1       8.394   8.766  -6.968  1.00  0.00     0.198 A 
ATOM     73  C   UNL     1       9.026   6.543  -7.482  1.00  0.00     0.198 A 
ATOM     74  F   UNL     1       9.981   5.168  -5.916  1.00  0.00    -0.203 F 
ATOM     75  F   UNL     1       7.921   9.960  -7.353  1.00  0.00    -0.200 F 
ATOM     76  C   UNL     1       8.508   7.749  -7.890  1.00  0.00     0.200 A 
ATOM     77  F   UNL     1       9.172   5.543  -8.364  1.00  0.00    -0.200 F 
ATOM     78  F   UNL     1       8.140   7.934  -9.165  1.00  0.00    -0.200 F 
ENDBRANCH  54  68
BRANCH  55  79
ATOM     79  C   UNL     1       9.522   5.436   4.357  1.00  0.00     0.064 A 
ATOM     80  C   UNL     1       8.585   4.955   5.295  1.00  0.00     0.173 A 
ATOM     81  C   UNL     1      10.601   4.605   4.036  1.00  0.00     0.173 A 
ATOM     82  F   UNL     1       7.533   5.715   5.640  1.00  0.00    -0.203 F 
ATOM     83  C   UNL     1       8.649   3.651   5.779  1.00  0.00     0.198 A 
ATOM     84  C   UNL     1      10.673   3.306   4.543  1.00  0.00     0.198 A 
ATOM     85  F   UNL     1      11.516   4.997   3.138  1.00  0.00    -0.203 F 
ATOM     86  F   UNL     1       7.670   3.181   6.564  1.00  0.00    -0.200 F 
ATOM     87  C   UNL     1       9.678   2.818   5.377  1.00  0.00     0.200 A 
ATOM     88  F   UNL     1      11.657   2.491   4.137  1.00  0.00    -0.200 F 
ATOM     89  F   UNL     1       9.688   1.533   5.757  1.00  0.00    -0.200 F 
ENDBRANCH  55  79
BRANCH  67  90
ATOM     90  C   UNL     1      12.297  10.430  -0.107  1.00  0.00     0.064 A 
ATOM     91  C   UNL     1      12.682  11.474   0.748  1.00  0.00     0.173 A 
ATOM     92  C   UNL     1      12.971  10.351  -1.343  1.00  0.00     0.173 A 
ATOM     93  F   UNL     1      12.071  11.651   1.929  1.00  0.00    -0.203 F 
ATOM     94  C   UNL     1      13.694  12.370   0.396  1.00  0.00     0.198 A 
ATOM     95  C   UNL     1      13.945  11.276  -1.713  1.00  0.00     0.198 A 
ATOM     96  F   UNL     1      12.719   9.361  -2.212  1.00  0.00    -0.203 F 
ATOM     97  F   UNL     1      14.064  13.328   1.257  1.00  0.00    -0.200 F 
ATOM     98  C   UNL     1      14.313  12.280  -0.840  1.00  0.00     0.200 A 
ATOM     99  F   UNL     1      14.525  11.184  -2.918  1.00  0.00    -0.200 F 
ATOM    100  F   UNL     1      15.265  13.157  -1.186  1.00  0.00    -0.200 F 
ENDBRANCH  67  90
ENDBRANCH  41  42
ENDBRANCH  33  36
ENDBRANCH  31  32
ENDBRANCH  30  31
ENDBRANCH  29  30
ENDBRANCH  28  29
ENDBRANCH   1  28
TORSDOF 17
