REMARK SMILES Cc1ccnc(C(=O)c2[nH]c3ccc(OC(F)(F)F)cc3c2CC(=O)NCCCCCCNC(=O)c2ccc(-c3c4nc(c(-c5c(F)c(F)c(F)c(F)c5F)c5ccc([nH]5)c(-c5c(F)c(F)c(F)c(F)c5F)c5nc(c(-c6c(F)c(F)c(F)c(F)c6F)c6ccc3[nH]6)C=C5)C=C4)cc2)c1
REMARK SMILES IDX 29 1 28 2 27 3 26 4 24 5 25 6 23 8 22 9 9 10 10 11 11 12
REMARK SMILES IDX 21 14 12 15 20 16 13 17 14 18 7 19 8 20 6 21 1 22 2 23 3 24
REMARK SMILES IDX 99 25 4 26 5 27 15 28 16 29 17 30 18 31 19 32 30 33 31 34
REMARK SMILES IDX 32 35 33 36 34 37 35 39 36 40 37 41 98 42 38 43 97 44 39 45
REMARK SMILES IDX 40 46 41 47 91 48 42 49 96 50 90 51 92 52 43 53 95 54 89 55
REMARK SMILES IDX 88 56 44 58 76 59 56 60 75 61 57 62 60 63 74 64 93 65 58 66
REMARK SMILES IDX 59 67 73 69 94 70 61 71 45 72 46 73 54 74 47 75 48 76 52 77
REMARK SMILES IDX 55 78 49 79 50 80 53 81 51 82 77 83 78 84 86 85 79 86 80 87
REMARK SMILES IDX 84 88 87 89 81 90 82 91 85 92 83 93 62 94 63 95 71 96 64 97
REMARK SMILES IDX 65 98 69 99 72 100 66 101 67 102 70 103 68 104
REMARK H PARENT 26 7 10 13 33 38 92 57 60 68
REMARK Flexibility Score: inf
ROOT
ATOM      1  C   UNL     1       4.827  -6.848  -1.448  1.00  0.00     0.002 C 
ENDROOT
BRANCH   1   2
ATOM      2  C   UNL     1       3.465  -6.787  -0.744  1.00  0.00     0.021 C 
BRANCH   2   3
ATOM      3  C   UNL     1       3.537  -6.810   0.783  1.00  0.00     0.116 C 
BRANCH   3   4
ATOM      4  N   UNL     1       4.073  -5.580   1.327  1.00  0.00    -0.356 N 
ATOM      5  C   UNL     1       3.431  -4.555   1.958  1.00  0.00     0.224 C 
ATOM      6  O   UNL     1       4.120  -3.645   2.428  1.00  0.00    -0.275 OA
ATOM      7  H   UNL     1       5.046  -5.467   1.226  1.00  0.00     0.163 HD
BRANCH   5   8
ATOM      8  C   UNL     1       1.931  -4.597   2.201  1.00  0.00     0.138 C 
BRANCH   8   9
ATOM      9  C   UNL     1       1.071  -4.655   0.970  1.00  0.00    -0.002 A 
ATOM     10  C   UNL     1       0.993  -3.720  -0.057  1.00  0.00     0.093 A 
ATOM     11  N   UNL     1       0.138  -4.225  -1.010  1.00  0.00    -0.352 N 
ATOM     12  C   UNL     1      -0.443  -5.390  -0.574  1.00  0.00     0.046 A 
ATOM     13  H   UNL     1      -0.033  -3.808  -1.885  1.00  0.00     0.167 HD
ATOM     14  C   UNL     1       0.111  -5.681   0.668  1.00  0.00     0.008 A 
ATOM     15  C   UNL     1      -1.399  -6.206  -1.185  1.00  0.00     0.030 A 
ATOM     16  C   UNL     1      -0.326  -6.846   1.334  1.00  0.00     0.057 A 
ATOM     17  C   UNL     1      -1.808  -7.361  -0.504  1.00  0.00     0.049 A 
ATOM     18  C   UNL     1      -1.279  -7.687   0.743  1.00  0.00     0.130 A 
BRANCH  10  19
ATOM     19  C   UNL     1       1.716  -2.471  -0.222  1.00  0.00     0.227 C 
ATOM     20  O   UNL     1       2.920  -2.470  -0.458  1.00  0.00    -0.285 OA
BRANCH  19  21
ATOM     21  C   UNL     1       0.943  -1.172  -0.140  1.00  0.00     0.113 A 
ATOM     22  C   UNL     1      -2.586   0.187   0.216  1.00  0.00     0.044 C 
ATOM     23  C   UNL     1      -1.096   0.098   0.065  1.00  0.00    -0.047 A 
ATOM     24  C   UNL     1      -0.336   1.259  -0.071  1.00  0.00     0.023 A 
ATOM     25  C   UNL     1      -0.440  -1.138   0.051  1.00  0.00     0.036 A 
ATOM     26  C   UNL     1       1.034   1.139  -0.236  1.00  0.00     0.112 A 
ATOM     27  N   UNL     1       1.681  -0.042  -0.289  1.00  0.00    -0.253 NA
ENDBRANCH  19  21
ENDBRANCH  10  19
BRANCH  18  28
ATOM     28  O   UNL     1      -1.592  -8.784   1.497  1.00  0.00    -0.406 OA
BRANCH  28  29
ATOM     29  C   UNL     1      -2.504  -9.724   0.956  1.00  0.00     0.573 C 
ATOM     30  F   UNL     1      -3.716  -9.165   0.757  1.00  0.00    -0.132 F 
ATOM     31  F   UNL     1      -2.044 -10.234  -0.207  1.00  0.00    -0.132 F 
ATOM     32  F   UNL     1      -2.647 -10.741   1.833  1.00  0.00    -0.132 F 
ENDBRANCH  28  29
ENDBRANCH  18  28
ENDBRANCH   8   9
ENDBRANCH   5   8
ENDBRANCH   3   4
ENDBRANCH   2   3
ENDBRANCH   1   2
BRANCH   1  33
ATOM     33  C   UNL     1       5.686  -8.079  -1.135  1.00  0.00     0.002 C 
BRANCH  33  34
ATOM     34  C   UNL     1       5.006  -9.436  -1.341  1.00  0.00     0.021 C 
BRANCH  34  35
ATOM     35  C   UNL     1       4.521  -9.714  -2.763  1.00  0.00     0.116 C 
BRANCH  35  36
ATOM     36  N   UNL     1       5.617  -9.830  -3.711  1.00  0.00    -0.352 N 
ATOM     37  C   UNL     1       5.868 -10.803  -4.646  1.00  0.00     0.251 C 
ATOM     38  H   UNL     1       6.278  -9.102  -3.677  1.00  0.00     0.163 HD
ATOM     39  O   UNL     1       6.935 -10.809  -5.255  1.00  0.00    -0.269 OA
BRANCH  37  40
ATOM     40  C   UNL     1       4.871 -11.863  -4.920  1.00  0.00     0.039 A 
ATOM     41  C   UNL     1       5.315 -13.184  -5.047  1.00  0.00     0.014 A 
ATOM     42  C   UNL     1       3.518 -11.561  -5.100  1.00  0.00     0.014 A 
ATOM     43  C   UNL     1       4.399 -14.208  -5.299  1.00  0.00     0.010 A 
ATOM     44  C   UNL     1       2.598 -12.589  -5.309  1.00  0.00     0.010 A 
ATOM     45  C   UNL     1       3.030 -13.921  -5.410  1.00  0.00    -0.014 A 
BRANCH  45  46
ATOM     46  C   UNL     1       2.035 -14.998  -5.637  1.00  0.00     0.031 A 
ATOM     47  C   UNL     1       1.310 -15.091  -6.949  1.00  0.00     0.074 A 
ATOM     48  C   UNL     1       1.739 -15.855  -4.642  1.00  0.00     0.049 A 
ATOM     49  N   UNL     1       0.332 -15.889  -7.301  1.00  0.00    -0.248 NA
ATOM     50  C   UNL     1       1.724 -14.148  -7.999  1.00  0.00     0.031 C 
ATOM     51  C   UNL     1       2.350 -15.852  -3.313  1.00  0.00     0.029 A 
ATOM     52  N   UNL     1       0.834 -16.886  -4.590  1.00  0.00    -0.354 N 
ATOM     53  C   UNL     1       0.003 -15.531  -8.601  1.00  0.00     0.074 A 
ATOM     54  C   UNL     1       0.866 -14.429  -8.969  1.00  0.00     0.031 C 
ATOM     55  C   UNL     1       1.807 -16.835  -2.577  1.00  0.00     0.029 A 
ATOM     56  C   UNL     1       0.791 -17.519  -3.373  1.00  0.00     0.049 A 
ATOM     57  H   UNL     1       0.269 -17.147  -5.354  1.00  0.00     0.167 HD
ATOM     58  C   UNL     1      -0.928 -16.081  -9.418  1.00  0.00     0.037 A 
ATOM     59  C   UNL     1       0.012 -18.530  -2.944  1.00  0.00     0.037 A 
ATOM     60  C   UNL     1      -1.765 -17.197  -9.066  1.00  0.00     0.049 A 
ATOM     61  C   UNL     1      -0.993 -19.140  -3.880  1.00  0.00     0.074 A 
ATOM     62  C   UNL     1      -2.717 -17.841  -9.839  1.00  0.00     0.029 A 
ATOM     63  N   UNL     1      -1.743 -17.843  -7.840  1.00  0.00    -0.354 N 
ATOM     64  N   UNL     1      -1.278 -18.809  -5.115  1.00  0.00    -0.248 NA
ATOM     65  C   UNL     1      -1.781 -20.270  -3.364  1.00  0.00     0.031 C 
ATOM     66  C   UNL     1      -3.283 -18.867  -9.073  1.00  0.00     0.029 A 
ATOM     67  C   UNL     1      -2.664 -18.878  -7.834  1.00  0.00     0.049 A 
ATOM     68  H   UNL     1      -1.158 -17.602  -7.085  1.00  0.00     0.167 HD
ATOM     69  C   UNL     1      -2.259 -19.698  -5.531  1.00  0.00     0.074 A 
ATOM     70  C   UNL     1      -2.515 -20.591  -4.421  1.00  0.00     0.031 C 
ATOM     71  C   UNL     1      -2.893 -19.766  -6.726  1.00  0.00     0.037 A 
BRANCH  58  72
ATOM     72  C   UNL     1      -1.088 -15.484 -10.782  1.00  0.00     0.064 A 
ATOM     73  C   UNL     1      -0.152 -15.723 -11.797  1.00  0.00     0.173 A 
ATOM     74  C   UNL     1      -2.211 -14.702 -11.090  1.00  0.00     0.173 A 
ATOM     75  F   UNL     1       0.944 -16.455 -11.546  1.00  0.00    -0.203 F 
ATOM     76  C   UNL     1      -0.325 -15.187 -13.070  1.00  0.00     0.198 A 
ATOM     77  C   UNL     1      -2.391 -14.184 -12.369  1.00  0.00     0.198 A 
ATOM     78  F   UNL     1      -3.136 -14.447 -10.152  1.00  0.00    -0.203 F 
ATOM     79  F   UNL     1       0.598 -15.401 -14.018  1.00  0.00    -0.200 F 
ATOM     80  C   UNL     1      -1.447 -14.423 -13.357  1.00  0.00     0.200 A 
ATOM     81  F   UNL     1      -3.479 -13.452 -12.647  1.00  0.00    -0.200 F 
ATOM     82  F   UNL     1      -1.616 -13.912 -14.584  1.00  0.00    -0.200 F 
ENDBRANCH  58  72
BRANCH  59  83
ATOM     83  C   UNL     1       0.164 -19.043  -1.560  1.00  0.00     0.064 A 
ATOM     84  C   UNL     1       0.774 -20.281  -1.317  1.00  0.00     0.173 A 
ATOM     85  C   UNL     1      -0.301 -18.313  -0.458  1.00  0.00     0.173 A 
ATOM     86  F   UNL     1       1.213 -21.023  -2.345  1.00  0.00    -0.203 F 
ATOM     87  C   UNL     1       0.899 -20.778  -0.022  1.00  0.00     0.198 A 
ATOM     88  C   UNL     1      -0.157 -18.801   0.839  1.00  0.00     0.198 A 
ATOM     89  F   UNL     1      -0.891 -17.122  -0.642  1.00  0.00    -0.203 F 
ATOM     90  F   UNL     1       1.451 -21.982   0.181  1.00  0.00    -0.200 F 
ATOM     91  C   UNL     1       0.437 -20.036   1.055  1.00  0.00     0.200 A 
ATOM     92  F   UNL     1      -0.597 -18.079   1.878  1.00  0.00    -0.200 F 
ATOM     93  F   UNL     1       0.557 -20.515   2.301  1.00  0.00    -0.200 F 
ENDBRANCH  59  83
BRANCH  71  94
ATOM     94  C   UNL     1      -3.899 -20.860  -6.906  1.00  0.00     0.064 A 
ATOM     95  C   UNL     1      -5.179 -20.776  -6.341  1.00  0.00     0.173 A 
ATOM     96  C   UNL     1      -3.591 -21.986  -7.684  1.00  0.00     0.173 A 
ATOM     97  F   UNL     1      -5.511 -19.724  -5.577  1.00  0.00    -0.203 F 
ATOM     98  C   UNL     1      -6.113 -21.790  -6.537  1.00  0.00     0.198 A 
ATOM     99  C   UNL     1      -4.533 -22.989  -7.892  1.00  0.00     0.198 A 
ATOM    100  F   UNL     1      -2.379 -22.108  -8.246  1.00  0.00    -0.203 F 
ATOM    101  F   UNL     1      -7.320 -21.706  -5.962  1.00  0.00    -0.200 F 
ATOM    102  C   UNL     1      -5.791 -22.892  -7.316  1.00  0.00     0.200 A 
ATOM    103  F   UNL     1      -4.224 -24.050  -8.649  1.00  0.00    -0.200 F 
ATOM    104  F   UNL     1      -6.693 -23.865  -7.505  1.00  0.00    -0.200 F 
ENDBRANCH  71  94
ENDBRANCH  45  46
ENDBRANCH  37  40
ENDBRANCH  35  36
ENDBRANCH  34  35
ENDBRANCH  33  34
ENDBRANCH   1  33
TORSDOF 18
