REMARK SMILES Cc1cccc(-c2cc(OCC(=O)NCCCCCCNC(=O)c3ccc(-c4c5nc(c(-c6c(F)c(F)c(F)c(F)c6F)c6ccc([nH]6)c(-c6c(F)c(F)c(F)c(F)c6F)c6nc(c(-c7c(F)c(F)c(F)c(F)c7F)c7ccc4[nH]7)C=C6)C=C5)cc3)ncn2)c1
REMARK SMILES IDX 17 1 16 2 15 3 14 4 12 5 13 6 11 8 10 9 9 10 7 11 8 12 89 13
REMARK SMILES IDX 88 14 87 15 6 16 1 17 2 18 3 19 90 20 4 21 5 22 18 23 19 24
REMARK SMILES IDX 20 25 21 26 22 27 23 29 24 30 25 31 86 32 26 33 85 34 27 35
REMARK SMILES IDX 28 36 29 37 79 38 30 39 84 40 78 41 80 42 31 43 83 44 77 45
REMARK SMILES IDX 76 46 32 48 64 49 44 50 63 51 45 52 48 53 62 54 81 55 46 56
REMARK SMILES IDX 47 57 61 59 82 60 49 61 33 62 34 63 42 64 35 65 36 66 40 67
REMARK SMILES IDX 43 68 37 69 38 70 41 71 39 72 65 73 66 74 74 75 67 76 68 77
REMARK SMILES IDX 72 78 75 79 69 80 70 81 73 82 71 83 50 84 51 85 59 86 52 87
REMARK SMILES IDX 53 88 57 89 60 90 54 91 55 92 58 93 56 94
REMARK H PARENT 14 7 21 28 80 47 48 58
REMARK Flexibility Score: inf
ROOT
ATOM      1  C   UNL     1       1.516   7.529   0.463  1.00  0.00     0.002 C 
ENDROOT
BRANCH   1   2
ATOM      2  C   UNL     1       0.111   7.494  -0.156  1.00  0.00     0.021 C 
BRANCH   2   3
ATOM      3  C   UNL     1       0.050   7.306  -1.671  1.00  0.00     0.116 C 
BRANCH   3   4
ATOM      4  N   UNL     1       0.659   6.065  -2.099  1.00  0.00    -0.353 N 
ATOM      5  C   UNL     1       0.094   5.047  -2.805  1.00  0.00     0.258 C 
ATOM      6  O   UNL     1       0.799   4.092  -3.136  1.00  0.00    -0.271 OA
ATOM      7  H   UNL     1       1.603   5.941  -1.848  1.00  0.00     0.163 HD
BRANCH   5   8
ATOM      8  C   UNL     1      -1.392   5.111  -3.182  1.00  0.00     0.331 C 
BRANCH   8   9
ATOM      9  O   UNL     1      -2.321   5.313  -2.131  1.00  0.00    -0.467 OA
BRANCH   9  10
ATOM     10  C   UNL     1      -2.389   4.374  -1.143  1.00  0.00     0.217 A 
ATOM     11  C   UNL     1      -1.887   2.366  -0.037  1.00  0.00     0.077 A 
ATOM     12  C   UNL     1      -1.743   3.162  -1.157  1.00  0.00     0.097 A 
ATOM     13  N   UNL     1      -2.669   2.712   1.003  1.00  0.00    -0.236 NA
ATOM     14  C   UNL     1      -3.272   3.902   0.904  1.00  0.00     0.226 A 
ATOM     15  N   UNL     1      -3.162   4.763  -0.116  1.00  0.00    -0.202 NA
BRANCH  11  16
ATOM     16  C   UNL     1      -1.155   1.102   0.073  1.00  0.00     0.001 A 
ATOM     17  C   UNL     1       2.471  -0.106   0.003  1.00  0.00     0.044 C 
ATOM     18  C   UNL     1       0.973  -0.111   0.062  1.00  0.00    -0.050 A 
ATOM     19  C   UNL     1       0.272  -1.318   0.132  1.00  0.00     0.003 A 
ATOM     20  C   UNL     1       0.252   1.089   0.029  1.00  0.00     0.013 A 
ATOM     21  C   UNL     1      -1.122  -1.324   0.192  1.00  0.00     0.001 A 
ATOM     22  C   UNL     1      -1.831  -0.121   0.172  1.00  0.00     0.010 A 
ENDBRANCH  11  16
ENDBRANCH   9  10
ENDBRANCH   8   9
ENDBRANCH   5   8
ENDBRANCH   3   4
ENDBRANCH   2   3
ENDBRANCH   1   2
BRANCH   1  23
ATOM     23  C   UNL     1       2.555   8.439  -0.210  1.00  0.00     0.002 C 
BRANCH  23  24
ATOM     24  C   UNL     1       2.104   9.863  -0.536  1.00  0.00     0.021 C 
BRANCH  24  25
ATOM     25  C   UNL     1       1.831  10.738   0.677  1.00  0.00     0.116 C 
BRANCH  25  26
ATOM     26  N   UNL     1       2.913  11.655   0.994  1.00  0.00    -0.352 N 
ATOM     27  C   UNL     1       3.007  12.615   1.986  1.00  0.00     0.251 C 
ATOM     28  H   UNL     1       3.704  11.581   0.412  1.00  0.00     0.163 HD
ATOM     29  O   UNL     1       3.963  13.369   2.011  1.00  0.00    -0.269 OA
BRANCH  27  30
ATOM     30  C   UNL     1       2.032  12.618   3.109  1.00  0.00     0.039 A 
ATOM     31  C   UNL     1       2.548  12.796   4.401  1.00  0.00     0.014 A 
ATOM     32  C   UNL     1       0.702  12.248   2.939  1.00  0.00     0.014 A 
ATOM     33  C   UNL     1       1.821  12.344   5.498  1.00  0.00     0.010 A 
ATOM     34  C   UNL     1       0.017  11.711   4.008  1.00  0.00     0.010 A 
ATOM     35  C   UNL     1       0.616  11.687   5.269  1.00  0.00    -0.014 A 
BRANCH  35  36
ATOM     36  C   UNL     1      -0.043  10.850   6.258  1.00  0.00     0.031 A 
ATOM     37  C   UNL     1      -1.223  11.350   6.982  1.00  0.00     0.074 A 
ATOM     38  C   UNL     1       0.386   9.577   6.409  1.00  0.00     0.049 A 
ATOM     39  N   UNL     1      -1.690  10.818   8.058  1.00  0.00    -0.248 NA
ATOM     40  C   UNL     1      -1.930  12.563   6.589  1.00  0.00     0.031 C 
ATOM     41  C   UNL     1      -0.289   8.482   7.099  1.00  0.00     0.029 A 
ATOM     42  N   UNL     1       1.667   9.073   6.123  1.00  0.00    -0.354 N 
ATOM     43  C   UNL     1      -2.888  11.429   8.348  1.00  0.00     0.074 A 
ATOM     44  C   UNL     1      -2.922  12.582   7.484  1.00  0.00     0.031 C 
ATOM     45  C   UNL     1       0.627   7.566   7.452  1.00  0.00     0.029 A 
ATOM     46  C   UNL     1       1.930   8.127   7.141  1.00  0.00     0.049 A 
ATOM     47  H   UNL     1       2.255   9.325   5.375  1.00  0.00     0.167 HD
ATOM     48  C   UNL     1      -3.746  10.794   9.198  1.00  0.00     0.037 A 
ATOM     49  C   UNL     1       2.925   8.329   8.053  1.00  0.00     0.037 A 
ATOM     50  C   UNL     1      -3.056   9.694   9.881  1.00  0.00     0.049 A 
ATOM     51  C   UNL     1       2.441   8.364   9.483  1.00  0.00     0.074 A 
ATOM     52  C   UNL     1      -3.054   8.320   9.710  1.00  0.00     0.029 A 
ATOM     53  N   UNL     1      -1.980   9.988  10.717  1.00  0.00    -0.354 N 
ATOM     54  N   UNL     1       1.211   8.626   9.830  1.00  0.00    -0.248 NA
ATOM     55  C   UNL     1       3.311   8.132  10.632  1.00  0.00     0.031 C 
ATOM     56  C   UNL     1      -1.916   7.799  10.383  1.00  0.00     0.029 A 
ATOM     57  C   UNL     1      -1.252   8.849  10.995  1.00  0.00     0.049 A 
ATOM     58  H   UNL     1      -1.769  10.886  11.061  1.00  0.00     0.167 HD
ATOM     59  C   UNL     1       1.111   8.620  11.197  1.00  0.00     0.074 A 
ATOM     60  C   UNL     1       2.449   8.285  11.652  1.00  0.00     0.031 C 
ATOM     61  C   UNL     1      -0.062   8.907  11.836  1.00  0.00     0.037 A 
BRANCH  48  62
ATOM     62  C   UNL     1      -5.257  10.989   9.263  1.00  0.00     0.064 A 
ATOM     63  C   UNL     1      -6.057  10.078   9.994  1.00  0.00     0.173 A 
ATOM     64  C   UNL     1      -6.000  11.957   8.555  1.00  0.00     0.173 A 
ATOM     65  F   UNL     1      -5.508   9.120  10.754  1.00  0.00    -0.203 F 
ATOM     66  C   UNL     1      -7.458  10.098   9.962  1.00  0.00     0.198 A 
ATOM     67  C   UNL     1      -7.399  11.987   8.535  1.00  0.00     0.198 A 
ATOM     68  F   UNL     1      -5.428  12.921   7.836  1.00  0.00    -0.203 F 
ATOM     69  F   UNL     1      -8.154   9.175  10.641  1.00  0.00    -0.200 F 
ATOM     70  C   UNL     1      -8.130  11.049   9.225  1.00  0.00     0.200 A 
ATOM     71  F   UNL     1      -8.027  12.931   7.819  1.00  0.00    -0.200 F 
ATOM     72  F   UNL     1      -9.468  11.063   9.178  1.00  0.00    -0.200 F 
ENDBRANCH  48  62
BRANCH  49  73
ATOM     73  C   UNL     1       4.059   9.129   7.516  1.00  0.00     0.064 A 
ATOM     74  C   UNL     1       4.787   8.611   6.427  1.00  0.00     0.173 A 
ATOM     75  C   UNL     1       4.188  10.497   7.786  1.00  0.00     0.173 A 
ATOM     76  F   UNL     1       4.701   7.305   6.125  1.00  0.00    -0.203 F 
ATOM     77  C   UNL     1       5.508   9.443   5.573  1.00  0.00     0.198 A 
ATOM     78  C   UNL     1       4.927  11.325   6.938  1.00  0.00     0.198 A 
ATOM     79  F   UNL     1       3.511  11.056   8.799  1.00  0.00    -0.203 F 
ATOM     80  F   UNL     1       6.092   8.934   4.479  1.00  0.00    -0.200 F 
ATOM     81  C   UNL     1       5.555  10.805   5.814  1.00  0.00     0.200 A 
ATOM     82  F   UNL     1       4.952  12.648   7.155  1.00  0.00    -0.200 F 
ATOM     83  F   UNL     1       6.169  11.620   4.946  1.00  0.00    -0.200 F 
ENDBRANCH  49  73
BRANCH  61  84
ATOM     84  C   UNL     1      -0.225   9.189  13.313  1.00  0.00     0.064 A 
ATOM     85  C   UNL     1       0.794   9.698  14.137  1.00  0.00     0.173 A 
ATOM     86  C   UNL     1      -1.500   9.089  13.924  1.00  0.00     0.173 A 
ATOM     87  F   UNL     1       2.014   9.966  13.655  1.00  0.00    -0.203 F 
ATOM     88  C   UNL     1       0.574  10.015  15.481  1.00  0.00     0.198 A 
ATOM     89  C   UNL     1      -1.730   9.466  15.247  1.00  0.00     0.198 A 
ATOM     90  F   UNL     1      -2.571   8.650  13.246  1.00  0.00    -0.203 F 
ATOM     91  F   UNL     1       1.593  10.455  16.233  1.00  0.00    -0.200 F 
ATOM     92  C   UNL     1      -0.689   9.912  16.032  1.00  0.00     0.200 A 
ATOM     93  F   UNL     1      -2.973   9.416  15.747  1.00  0.00    -0.200 F 
ATOM     94  F   UNL     1      -0.906  10.266  17.306  1.00  0.00    -0.200 F 
ENDBRANCH  61  84
ENDBRANCH  35  36
ENDBRANCH  27  30
ENDBRANCH  25  26
ENDBRANCH  24  25
ENDBRANCH  23  24
ENDBRANCH   1  23
TORSDOF 16
