REMARK SMILES C[N@H+]1CCCN(C(=O)N[C@@H]2CCCCC[C@@H]2C(=O)NCCCCCCNC(=O)c2ccc(-c3c4nc(c(-c5c(F)c(F)c(F)c(F)c5F)c5ccc([nH]5)c(-c5c(F)c(F)c(F)c(F)c5F)c5nc(c(-c6c(F)c(F)c(F)c(F)c6F)c6ccc3[nH]6)C=C5)C=C4)cc2)CC1
REMARK SMILES IDX 20 1 19 2 17 3 18 4 16 6 10 8 9 9 7 10 8 11 6 13 92 14 93 15
REMARK SMILES IDX 2 16 1 17 3 19 5 21 4 22 11 24 12 25 13 26 14 27 15 28 21 30
REMARK SMILES IDX 22 31 23 32 24 33 25 34 26 35 27 36 28 38 29 39 30 40 91 41
REMARK SMILES IDX 31 42 90 43 32 44 33 45 34 46 84 47 35 48 89 49 83 50 85 51
REMARK SMILES IDX 36 52 88 53 82 54 81 55 37 57 69 58 49 59 68 60 50 61 53 62
REMARK SMILES IDX 67 63 86 64 51 65 52 66 66 68 87 69 54 70 38 71 39 72 47 73
REMARK SMILES IDX 40 74 41 75 45 76 48 77 42 78 43 79 46 80 44 81 70 82 71 83
REMARK SMILES IDX 79 84 72 85 73 86 77 87 80 88 74 89 75 90 78 91 76 92 55 93
REMARK SMILES IDX 56 94 64 95 57 96 58 97 62 98 65 99 59 100 60 101 63 102
REMARK SMILES IDX 61 103
REMARK H PARENT 19 5 9 12 2 18 26 37 85 56 53 67
REMARK Flexibility Score: 180.00
ROOT
ATOM      1  C   UNL     1      -5.384  -2.783   3.105  1.00  0.00     0.116 C 
ENDROOT
BRANCH   1   2
ATOM      2  N   UNL     1      -5.702  -2.809   4.497  1.00  0.00    -0.356 N 
ATOM      3  C   UNL     1      -4.888  -2.462   5.537  1.00  0.00     0.225 C 
ATOM      4  O   UNL     1      -5.456  -2.292   6.624  1.00  0.00    -0.275 OA
ATOM      5  H   UNL     1      -6.609  -3.110   4.733  1.00  0.00     0.163 HD
BRANCH   3   6
ATOM      6  C   UNL     1      -3.334  -2.384   5.488  1.00  0.00     0.101 CG1
ATOM      7  G   UNL     1      -2.671  -3.778   5.533  1.00  0.00     0.000 G1
BRANCH   6   8
ATOM      8  C   UNL     1      -2.524  -1.394   4.607  1.00  0.00     0.096 C 
BRANCH   8   9
ATOM      9  N   UNL     1      -2.813   0.023   4.853  1.00  0.00    -0.334 N 
ATOM     10  C   UNL     1      -2.270   1.209   4.486  1.00  0.00     0.317 C 
ATOM     11  O   UNL     1      -2.935   2.196   4.823  1.00  0.00    -0.249 OA
ATOM     12  H   UNL     1      -3.602   0.143   5.430  1.00  0.00     0.165 HD
BRANCH  10  13
ATOM     13  N   UNL     1      -1.110   1.351   3.754  1.00  0.00    -0.319 N 
BRANCH  13  14
ATOM     14  C   UNL     1      -0.082   0.361   3.429  1.00  0.00     0.182 C 
BRANCH  14  15
ATOM     15  C   UNL     1       0.029   0.127   1.906  1.00  0.00     0.283 C 
BRANCH  15  16
ATOM     16  N   UNL     1       1.116   0.883   1.282  1.00  0.00    -0.336 N 
ATOM     17  C   UNL     1       1.328   0.395  -0.088  1.00  0.00     0.332 C 
ATOM     18  H   UNL     1       1.956   0.737   1.842  1.00  0.00     0.347 HD
BRANCH  16  19
ATOM     19  C   UNL     1       0.854   2.331   1.266  1.00  0.00     0.263 CG0
ATOM     20  G   UNL     1       0.516   2.990   2.615  1.00  0.00     0.000 G0
ENDBRANCH  16  19
ENDBRANCH  15  16
ENDBRANCH  14  15
ENDBRANCH  13  14
BRANCH  13  21
ATOM     21  C   UNL     1      -0.886   2.681   3.166  1.00  0.00     0.127 C 
BRANCH  21  22
ATOM     22  C   UNL     1       0.516   2.990   2.615  1.00  0.00     0.083 CG0
ATOM     23  G   UNL     1       0.854   2.331   1.266  1.00  0.00     0.000 G0
ENDBRANCH  21  22
ENDBRANCH  13  21
ENDBRANCH  10  13
ENDBRANCH   8   9
BRANCH   8  24
ATOM     24  C   UNL     1      -2.478  -1.695   3.115  1.00  0.00     0.026 C 
BRANCH  24  25
ATOM     25  C   UNL     1      -1.655  -2.920   2.741  1.00  0.00     0.002 C 
BRANCH  25  26
ATOM     26  C   UNL     1      -2.201  -4.320   2.998  1.00  0.00     0.000 C 
BRANCH  26  27
ATOM     27  C   UNL     1      -2.845  -4.696   4.334  1.00  0.00     0.001 C 
BRANCH  27  28
ATOM     28  C   UNL     1      -2.671  -3.778   5.533  1.00  0.00     0.015 CG1
ATOM     29  G   UNL     1      -3.334  -2.384   5.488  1.00  0.00     0.000 G1
ENDBRANCH  27  28
ENDBRANCH  26  27
ENDBRANCH  25  26
ENDBRANCH  24  25
ENDBRANCH   8  24
ENDBRANCH   6   8
ENDBRANCH   3   6
ENDBRANCH   1   2
BRANCH   1  30
ATOM     30  C   UNL     1      -6.089  -3.727   2.151  1.00  0.00     0.021 C 
BRANCH  30  31
ATOM     31  C   UNL     1      -7.389  -3.212   1.548  1.00  0.00     0.002 C 
BRANCH  31  32
ATOM     32  C   UNL     1      -7.357  -1.796   0.958  1.00  0.00     0.002 C 
BRANCH  32  33
ATOM     33  C   UNL     1      -6.266  -1.489  -0.076  1.00  0.00     0.021 C 
BRANCH  33  34
ATOM     34  C   UNL     1      -6.175  -2.442  -1.264  1.00  0.00     0.116 C 
BRANCH  34  35
ATOM     35  N   UNL     1      -7.460  -2.666  -1.904  1.00  0.00    -0.352 N 
ATOM     36  C   UNL     1      -7.840  -2.521  -3.211  1.00  0.00     0.251 C 
ATOM     37  H   UNL     1      -8.174  -2.972  -1.299  1.00  0.00     0.163 HD
ATOM     38  O   UNL     1      -9.030  -2.610  -3.515  1.00  0.00    -0.269 OA
BRANCH  36  39
ATOM     39  C   UNL     1      -6.840  -2.243  -4.259  1.00  0.00     0.039 A 
ATOM     40  C   UNL     1      -7.141  -1.288  -5.235  1.00  0.00     0.014 A 
ATOM     41  C   UNL     1      -5.627  -2.935  -4.306  1.00  0.00     0.014 A 
ATOM     42  C   UNL     1      -6.203  -0.987  -6.223  1.00  0.00     0.010 A 
ATOM     43  C   UNL     1      -4.664  -2.583  -5.249  1.00  0.00     0.010 A 
ATOM     44  C   UNL     1      -4.943  -1.607  -6.218  1.00  0.00    -0.014 A 
BRANCH  44  45
ATOM     45  C   UNL     1      -3.905  -1.240  -7.214  1.00  0.00     0.031 A 
ATOM     46  C   UNL     1      -3.413  -2.257  -8.204  1.00  0.00     0.074 A 
ATOM     47  C   UNL     1      -3.364  -0.007  -7.183  1.00  0.00     0.049 A 
ATOM     48  N   UNL     1      -2.467  -2.148  -9.103  1.00  0.00    -0.248 NA
ATOM     49  C   UNL     1      -4.051  -3.583  -8.164  1.00  0.00     0.031 C 
ATOM     50  C   UNL     1      -3.731   1.052  -6.242  1.00  0.00     0.029 A 
ATOM     51  N   UNL     1      -2.382   0.561  -7.955  1.00  0.00    -0.354 N 
ATOM     52  C   UNL     1      -2.388  -3.389  -9.722  1.00  0.00     0.074 A 
ATOM     53  C   UNL     1      -3.343  -4.252  -9.062  1.00  0.00     0.031 C 
ATOM     54  C   UNL     1      -3.001   2.147  -6.505  1.00  0.00     0.029 A 
ATOM     55  C   UNL     1      -2.083   1.855  -7.601  1.00  0.00     0.049 A 
ATOM     56  H   UNL     1      -1.934   0.087  -8.692  1.00  0.00     0.167 HD
ATOM     57  C   UNL     1      -1.605  -3.765 -10.761  1.00  0.00     0.037 A 
ATOM     58  C   UNL     1      -1.163   2.704  -8.097  1.00  0.00     0.037 A 
ATOM     59  C   UNL     1      -0.671  -2.893 -11.425  1.00  0.00     0.049 A 
ATOM     60  C   UNL     1      -0.290   2.252  -9.237  1.00  0.00     0.074 A 
ATOM     61  C   UNL     1       0.124  -3.160 -12.526  1.00  0.00     0.029 A 
ATOM     62  N   UNL     1      -0.400  -1.587 -11.044  1.00  0.00    -0.354 N 
ATOM     63  N   UNL     1      -0.275   1.100  -9.862  1.00  0.00    -0.248 NA
ATOM     64  C   UNL     1       0.693   3.220  -9.743  1.00  0.00     0.031 C 
ATOM     65  C   UNL     1       0.920  -2.037 -12.772  1.00  0.00     0.029 A 
ATOM     66  C   UNL     1       0.574  -1.046 -11.867  1.00  0.00     0.049 A 
ATOM     67  H   UNL     1      -0.836  -1.114 -10.298  1.00  0.00     0.167 HD
ATOM     68  C   UNL     1       0.691   1.215 -10.853  1.00  0.00     0.074 A 
ATOM     69  C   UNL     1       1.230   2.555 -10.755  1.00  0.00     0.031 C 
ATOM     70  C   UNL     1       1.095   0.294 -11.762  1.00  0.00     0.037 A 
BRANCH  57  71
ATOM     71  C   UNL     1      -1.719  -5.184 -11.244  1.00  0.00     0.064 A 
ATOM     72  C   UNL     1      -2.872  -5.655 -11.891  1.00  0.00     0.173 A 
ATOM     73  C   UNL     1      -0.643  -6.073 -11.095  1.00  0.00     0.173 A 
ATOM     74  F   UNL     1      -3.933  -4.850 -12.051  1.00  0.00    -0.203 F 
ATOM     75  C   UNL     1      -2.955  -6.970 -12.342  1.00  0.00     0.198 A 
ATOM     76  C   UNL     1      -0.717  -7.377 -11.579  1.00  0.00     0.198 A 
ATOM     77  F   UNL     1       0.486  -5.675 -10.490  1.00  0.00    -0.203 F 
ATOM     78  F   UNL     1      -4.086  -7.411 -12.910  1.00  0.00    -0.200 F 
ATOM     79  C   UNL     1      -1.875  -7.827 -12.194  1.00  0.00     0.200 A 
ATOM     80  F   UNL     1       0.333  -8.199 -11.448  1.00  0.00    -0.200 F 
ATOM     81  F   UNL     1      -1.954  -9.089 -12.637  1.00  0.00    -0.200 F 
ENDBRANCH  57  71
BRANCH  58  82
ATOM     82  C   UNL     1      -1.026   4.071  -7.527  1.00  0.00     0.064 A 
ATOM     83  C   UNL     1      -1.360   5.205  -8.282  1.00  0.00     0.173 A 
ATOM     84  C   UNL     1      -0.547   4.275  -6.225  1.00  0.00     0.173 A 
ATOM     85  F   UNL     1      -1.805   5.064  -9.539  1.00  0.00    -0.203 F 
ATOM     86  C   UNL     1      -1.194   6.489  -7.767  1.00  0.00     0.198 A 
ATOM     87  C   UNL     1      -0.413   5.558  -5.698  1.00  0.00     0.198 A 
ATOM     88  F   UNL     1      -0.219   3.225  -5.457  1.00  0.00    -0.203 F 
ATOM     89  F   UNL     1      -1.468   7.555  -8.530  1.00  0.00    -0.200 F 
ATOM     90  C   UNL     1      -0.726   6.664  -6.473  1.00  0.00     0.200 A 
ATOM     91  F   UNL     1       0.024   5.721  -4.442  1.00  0.00    -0.200 F 
ATOM     92  F   UNL     1      -0.567   7.899  -5.977  1.00  0.00    -0.200 F 
ENDBRANCH  58  82
BRANCH  70  93
ATOM     93  C   UNL     1       2.146   0.714 -12.750  1.00  0.00     0.064 A 
ATOM     94  C   UNL     1       3.477   0.933 -12.366  1.00  0.00     0.173 A 
ATOM     95  C   UNL     1       1.824   0.855 -14.109  1.00  0.00     0.173 A 
ATOM     96  F   UNL     1       3.834   0.826 -11.077  1.00  0.00    -0.203 F 
ATOM     97  C   UNL     1       4.440   1.305 -13.301  1.00  0.00     0.198 A 
ATOM     98  C   UNL     1       2.796   1.192 -15.046  1.00  0.00     0.198 A 
ATOM     99  F   UNL     1       0.567   0.649 -14.531  1.00  0.00    -0.203 F 
ATOM    100  F   UNL     1       5.694   1.560 -12.902  1.00  0.00    -0.200 F 
ATOM    101  C   UNL     1       4.101   1.425 -14.640  1.00  0.00     0.200 A 
ATOM    102  F   UNL     1       2.470   1.290 -16.342  1.00  0.00    -0.200 F 
ATOM    103  F   UNL     1       5.032   1.771 -15.540  1.00  0.00    -0.200 F 
ENDBRANCH  70  93
ENDBRANCH  44  45
ENDBRANCH  36  39
ENDBRANCH  34  35
ENDBRANCH  33  34
ENDBRANCH  32  33
ENDBRANCH  31  32
ENDBRANCH  30  31
ENDBRANCH   1  30
TORSDOF 15
