REMARK SMILES CCCc1n[nH]c(C(=O)NC2(CC(=O)NCCCCCCNC(=O)c3ccc(-c4c5nc(c(-c6c(F)c(F)c(F)c(F)c6F)c6ccc([nH]6)c(-c6c(F)c(F)c(F)c(F)c6F)c6nc(c(-c7c(F)c(F)c(F)c(F)c7F)c7ccc4[nH]7)C=C6)C=C5)cc3)CCC2)n1
REMARK SMILES IDX 17 1 16 2 15 3 13 4 14 5 12 7 11 8 88 9 90 10 89 11 10 12
REMARK SMILES IDX 8 13 9 14 7 16 4 17 5 18 91 19 6 20 3 22 2 23 1 24 18 25
REMARK SMILES IDX 19 26 20 27 21 28 22 29 23 30 24 32 25 33 26 34 87 35 27 36
REMARK SMILES IDX 86 37 28 38 29 39 30 40 80 41 31 42 85 43 79 44 81 45 32 46
REMARK SMILES IDX 84 47 78 48 77 49 33 51 65 52 45 53 64 54 46 55 49 56 63 57
REMARK SMILES IDX 82 58 47 59 48 60 62 62 83 63 50 64 34 65 35 66 43 67 36 68
REMARK SMILES IDX 37 69 41 70 44 71 38 72 39 73 42 74 40 75 66 76 67 77 75 78
REMARK SMILES IDX 68 79 69 80 73 81 76 82 70 83 71 84 74 85 72 86 51 87 52 88
REMARK SMILES IDX 60 89 53 90 54 91 58 92 61 93 55 94 56 95 59 96 57 97
REMARK H PARENT 15 6 10 15 6 21 22 31 81 50 49 61
REMARK Flexibility Score: inf
ROOT
ATOM      1  C   UNL     1      -6.133   0.493   6.976  1.00  0.00     0.021 C 
ENDROOT
BRANCH   1   2
ATOM      2  C   UNL     1      -5.751   0.077   5.556  1.00  0.00     0.116 C 
BRANCH   2   3
ATOM      3  N   UNL     1      -5.385   1.238   4.776  1.00  0.00    -0.356 N 
ATOM      4  C   UNL     1      -4.165   1.587   4.283  1.00  0.00     0.222 C 
ATOM      5  O   UNL     1      -4.034   2.707   3.788  1.00  0.00    -0.275 OA
ATOM      6  H   UNL     1      -6.119   1.861   4.573  1.00  0.00     0.163 HD
BRANCH   4   7
ATOM      7  C   UNL     1      -3.020   0.602   4.330  1.00  0.00     0.128 C 
BRANCH   7   8
ATOM      8  C   UNL     1      -2.050   0.750   5.512  1.00  0.00     0.049 C 
ATOM      9  C   UNL     1      -0.990  -0.404   5.604  1.00  0.00     0.029 C 
ATOM     10  C   UNL     1      -2.490   0.244   6.939  1.00  0.00     0.029 C 
ATOM     11  C   UNL     1      -1.939  -1.137   6.568  1.00  0.00     0.005 C 
BRANCH   8  12
ATOM     12  N   UNL     1      -1.546   2.143   5.624  1.00  0.00    -0.343 N 
ATOM     13  C   UNL     1      -0.674   2.858   4.833  1.00  0.00     0.289 C 
ATOM     14  O   UNL     1      -0.519   4.058   5.095  1.00  0.00    -0.266 OA
ATOM     15  H   UNL     1      -1.897   2.641   6.398  1.00  0.00     0.164 HD
BRANCH  13  16
ATOM     16  C   UNL     1       0.059   2.219   3.774  1.00  0.00     0.214 A 
ATOM     17  C   UNL     1       1.036   0.849   2.497  1.00  0.00     0.151 A 
ATOM     18  N   UNL     1       1.592   2.015   2.151  1.00  0.00    -0.158 NA
ATOM     19  N   UNL     1       0.074   0.940   3.460  1.00  0.00    -0.207 NA
ATOM     20  N   UNL     1       0.933   2.872   2.955  1.00  0.00    -0.255 N 
ATOM     21  H   UNL     1       1.066   3.847   2.952  1.00  0.00     0.192 HD
BRANCH  17  22
ATOM     22  C   UNL     1       1.455  -0.467   1.956  1.00  0.00     0.079 C 
BRANCH  22  23
ATOM     23  C   UNL     1       0.691  -0.884   0.702  1.00  0.00     0.005 C 
ATOM     24  C   UNL     1       1.050  -0.039  -0.511  1.00  0.00     0.004 C 
ENDBRANCH  22  23
ENDBRANCH  17  22
ENDBRANCH  13  16
ENDBRANCH   8  12
ENDBRANCH   7   8
ENDBRANCH   4   7
ENDBRANCH   2   3
ENDBRANCH   1   2
BRANCH   1  25
ATOM     25  C   UNL     1      -7.566   1.003   7.119  1.00  0.00     0.002 C 
BRANCH  25  26
ATOM     26  C   UNL     1      -8.650   0.009   6.694  1.00  0.00     0.002 C 
BRANCH  26  27
ATOM     27  C   UNL     1      -8.519  -1.395   7.291  1.00  0.00     0.021 C 
BRANCH  27  28
ATOM     28  C   UNL     1      -8.429  -1.443   8.813  1.00  0.00     0.116 C 
BRANCH  28  29
ATOM     29  N   UNL     1      -9.569  -0.810   9.449  1.00  0.00    -0.352 N 
ATOM     30  C   UNL     1     -10.454  -1.313  10.365  1.00  0.00     0.251 C 
ATOM     31  H   UNL     1      -9.731   0.123   9.181  1.00  0.00     0.163 HD
ATOM     32  O   UNL     1     -11.474  -0.687  10.638  1.00  0.00    -0.269 OA
BRANCH  30  33
ATOM     33  C   UNL     1     -10.195  -2.613  11.017  1.00  0.00     0.039 A 
ATOM     34  C   UNL     1     -11.264  -3.496  11.186  1.00  0.00     0.014 A 
ATOM     35  C   UNL     1      -8.925  -2.948  11.497  1.00  0.00     0.014 A 
ATOM     36  C   UNL     1     -11.052  -4.728  11.804  1.00  0.00     0.010 A 
ATOM     37  C   UNL     1      -8.698  -4.207  12.046  1.00  0.00     0.010 A 
ATOM     38  C   UNL     1      -9.763  -5.103  12.220  1.00  0.00    -0.014 A 
BRANCH  38  39
ATOM     39  C   UNL     1      -9.534  -6.429  12.842  1.00  0.00     0.031 A 
ATOM     40  C   UNL     1      -9.114  -6.537  14.280  1.00  0.00     0.074 A 
ATOM     41  C   UNL     1      -9.675  -7.540  12.096  1.00  0.00     0.049 A 
ATOM     42  N   UNL     1      -8.908  -7.609  15.004  1.00  0.00    -0.248 NA
ATOM     43  C   UNL     1      -8.866  -5.275  14.994  1.00  0.00     0.031 C 
ATOM     44  C   UNL     1     -10.005  -7.559  10.670  1.00  0.00     0.029 A 
ATOM     45  N   UNL     1      -9.558  -8.865  12.430  1.00  0.00    -0.354 N 
ATOM     46  C   UNL     1      -8.499  -7.151  16.249  1.00  0.00     0.074 A 
ATOM     47  C   UNL     1      -8.426  -5.709  16.166  1.00  0.00     0.031 C 
ATOM     48  C   UNL     1     -10.095  -8.833  10.259  1.00  0.00     0.029 A 
ATOM     49  C   UNL     1      -9.809  -9.718  11.385  1.00  0.00     0.049 A 
ATOM     50  H   UNL     1      -9.318  -9.174  13.333  1.00  0.00     0.167 HD
ATOM     51  C   UNL     1      -8.235  -7.868  17.368  1.00  0.00     0.037 A 
ATOM     52  C   UNL     1      -9.820 -11.063  11.342  1.00  0.00     0.037 A 
ATOM     53  C   UNL     1      -8.328  -9.303  17.449  1.00  0.00     0.049 A 
ATOM     54  C   UNL     1      -9.561 -11.839  12.603  1.00  0.00     0.074 A 
ATOM     55  C   UNL     1      -8.151 -10.121  18.550  1.00  0.00     0.029 A 
ATOM     56  N   UNL     1      -8.617 -10.135  16.376  1.00  0.00    -0.354 N 
ATOM     57  N   UNL     1      -9.271 -11.394  13.801  1.00  0.00    -0.248 NA
ATOM     58  C   UNL     1      -9.652 -13.302  12.510  1.00  0.00     0.031 C 
ATOM     59  C   UNL     1      -8.287 -11.450  18.135  1.00  0.00     0.029 A 
ATOM     60  C   UNL     1      -8.600 -11.459  16.785  1.00  0.00     0.049 A 
ATOM     61  H   UNL     1      -8.806  -9.829  15.459  1.00  0.00     0.167 HD
ATOM     62  C   UNL     1      -9.165 -12.517  14.610  1.00  0.00     0.074 A 
ATOM     63  C   UNL     1      -9.439 -13.664  13.768  1.00  0.00     0.031 C 
ATOM     64  C   UNL     1      -8.871 -12.590  15.932  1.00  0.00     0.037 A 
BRANCH  51  65
ATOM     65  C   UNL     1      -7.820  -7.104  18.594  1.00  0.00     0.064 A 
ATOM     66  C   UNL     1      -8.713  -6.263  19.277  1.00  0.00     0.173 A 
ATOM     67  C   UNL     1      -6.515  -7.217  19.096  1.00  0.00     0.173 A 
ATOM     68  F   UNL     1      -9.970  -6.110  18.833  1.00  0.00    -0.203 F 
ATOM     69  C   UNL     1      -8.304  -5.532  20.389  1.00  0.00     0.198 A 
ATOM     70  C   UNL     1      -6.119  -6.511  20.229  1.00  0.00     0.198 A 
ATOM     71  F   UNL     1      -5.622  -8.011  18.488  1.00  0.00    -0.203 F 
ATOM     72  F   UNL     1      -9.157  -4.688  20.985  1.00  0.00    -0.200 F 
ATOM     73  C   UNL     1      -7.009  -5.660  20.867  1.00  0.00     0.200 A 
ATOM     74  F   UNL     1      -4.870  -6.644  20.697  1.00  0.00    -0.200 F 
ATOM     75  F   UNL     1      -6.615  -4.955  21.937  1.00  0.00    -0.200 F 
ENDBRANCH  51  65
BRANCH  52  76
ATOM     76  C   UNL     1     -10.141 -11.747  10.064  1.00  0.00     0.064 A 
ATOM     77  C   UNL     1     -11.375 -12.384   9.878  1.00  0.00     0.173 A 
ATOM     78  C   UNL     1      -9.242 -11.735   8.988  1.00  0.00     0.173 A 
ATOM     79  F   UNL     1     -12.261 -12.434  10.884  1.00  0.00    -0.203 F 
ATOM     80  C   UNL     1     -11.696 -12.991   8.666  1.00  0.00     0.198 A 
ATOM     81  C   UNL     1      -9.574 -12.320   7.768  1.00  0.00     0.198 A 
ATOM     82  F   UNL     1      -8.053 -11.127   9.113  1.00  0.00    -0.203 F 
ATOM     83  F   UNL     1     -12.872 -13.617   8.523  1.00  0.00    -0.200 F 
ATOM     84  C   UNL     1     -10.798 -12.951   7.609  1.00  0.00     0.200 A 
ATOM     85  F   UNL     1      -8.712 -12.263   6.744  1.00  0.00    -0.200 F 
ATOM     86  F   UNL     1     -11.114 -13.520   6.438  1.00  0.00    -0.200 F 
ENDBRANCH  52  76
BRANCH  64  87
ATOM     87  C   UNL     1      -8.852 -13.955  16.556  1.00  0.00     0.064 A 
ATOM     88  C   UNL     1      -7.827 -14.874  16.286  1.00  0.00     0.173 A 
ATOM     89  C   UNL     1      -9.853 -14.334  17.463  1.00  0.00     0.173 A 
ATOM     90  F   UNL     1      -6.855 -14.564  15.415  1.00  0.00    -0.203 F 
ATOM     91  C   UNL     1      -7.819 -16.132  16.882  1.00  0.00     0.198 A 
ATOM     92  C   UNL     1      -9.826 -15.582  18.079  1.00  0.00     0.198 A 
ATOM     93  F   UNL     1     -10.852 -13.490  17.760  1.00  0.00    -0.203 F 
ATOM     94  F   UNL     1      -6.856 -17.012  16.573  1.00  0.00    -0.200 F 
ATOM     95  C   UNL     1      -8.814 -16.483  17.783  1.00  0.00     0.200 A 
ATOM     96  F   UNL     1     -10.781 -15.914  18.959  1.00  0.00    -0.200 F 
ATOM     97  F   UNL     1      -8.802 -17.692  18.359  1.00  0.00    -0.200 F 
ENDBRANCH  64  87
ENDBRANCH  38  39
ENDBRANCH  30  33
ENDBRANCH  28  29
ENDBRANCH  27  28
ENDBRANCH  26  27
ENDBRANCH  25  26
ENDBRANCH   1  25
TORSDOF 18
