REMARK SMILES Cc1cccc(NC(=O)[C@H]2CCCCC[C@@H]2[NH3+])c1C(=O)NCCCCCCNC(=O)c1ccc(-c2c3nc(c(-c4c(F)c(F)c(F)c(F)c4F)c4ccc([nH]4)c(-c4c(F)c(F)c(F)c(F)c4F)c4nc(c(-c5c(F)c(F)c(F)c(F)c5F)c5ccc2[nH]5)C=C4)C=C3)cc1
REMARK SMILES IDX 23 1 22 2 21 3 19 4 20 5 18 7 1 8 2 9 3 10 4 11 6 12 5 13
REMARK SMILES IDX 7 14 8 15 9 17 10 18 11 19 12 20 13 21 16 23 15 24 14 25
REMARK SMILES IDX 17 27 24 31 25 32 26 33 27 34 28 35 29 36 30 38 31 39 32 40
REMARK SMILES IDX 93 41 33 42 92 43 34 44 35 45 36 46 86 47 37 48 91 49 85 50
REMARK SMILES IDX 87 51 38 52 90 53 84 54 83 55 39 57 71 58 51 59 70 60 52 61
REMARK SMILES IDX 55 62 69 63 88 64 53 65 54 66 68 68 89 69 56 70 40 71 41 72
REMARK SMILES IDX 49 73 42 74 43 75 47 76 50 77 44 78 45 79 48 80 46 81 72 82
REMARK SMILES IDX 73 83 81 84 74 85 75 86 79 87 82 88 76 89 77 90 80 91 78 92
REMARK SMILES IDX 57 93 58 94 66 95 59 96 60 97 64 98 67 99 61 100 62 101
REMARK SMILES IDX 65 102 63 103
REMARK H PARENT 21 6 7 16 17 28 17 29 17 30 28 37 87 56 55 67
REMARK Flexibility Score: 90.00
ROOT
ATOM      1  C   UNL     1      -7.739   7.533   4.212  1.00  0.00     0.021 C 
ENDROOT
BRANCH   1   2
ATOM      2  C   UNL     1      -6.481   6.651   4.289  1.00  0.00     0.116 C 
BRANCH   2   3
ATOM      3  N   UNL     1      -6.815   5.296   3.893  1.00  0.00    -0.352 N 
ATOM      4  C   UNL     1      -6.578   4.528   2.781  1.00  0.00     0.253 C 
ATOM      5  O   UNL     1      -7.131   3.425   2.774  1.00  0.00    -0.269 OA
ATOM      6  H   UNL     1      -7.331   4.817   4.580  1.00  0.00     0.163 HD
BRANCH   4   7
ATOM      7  C   UNL     1      -5.626   4.856   1.665  1.00  0.00     0.066 A 
ATOM      8  C   UNL     1      -6.612   7.198   1.159  1.00  0.00     0.045 C 
ATOM      9  C   UNL     1      -5.610   6.098   0.981  1.00  0.00    -0.036 A 
ATOM     10  C   UNL     1      -4.643   6.327  -0.014  1.00  0.00     0.004 A 
ATOM     11  C   UNL     1      -3.772   5.324  -0.406  1.00  0.00     0.002 A 
ATOM     12  C   UNL     1      -4.786   3.789   1.187  1.00  0.00     0.054 A 
ATOM     13  C   UNL     1      -3.860   4.064   0.176  1.00  0.00     0.027 A 
BRANCH  12  14
ATOM     14  N   UNL     1      -4.914   2.493   1.757  1.00  0.00    -0.325 N 
ATOM     15  C   UNL     1      -4.511   1.221   1.467  1.00  0.00     0.233 C 
ATOM     16  H   UNL     1      -5.436   2.520   2.591  1.00  0.00     0.169 HD
ATOM     17  O   UNL     1      -4.719   0.381   2.352  1.00  0.00    -0.274 OA
BRANCH  15  18
ATOM     18  C   UNL     1      -3.884   0.803   0.129  1.00  0.00     0.137 C 
BRANCH  18  19
ATOM     19  C   UNL     1      -3.208  -0.588   0.180  1.00  0.00     0.020 C 
BRANCH  19  20
ATOM     20  C   UNL     1      -4.112  -1.804   0.373  1.00  0.00     0.001 C 
BRANCH  20  21
ATOM     21  C   UNL     1      -4.697  -2.393  -0.902  1.00  0.00     0.000 CG0
ATOM     22  G   UNL     1      -5.314  -1.415  -1.893  1.00  0.00     0.000 G0
ENDBRANCH  20  21
ENDBRANCH  19  20
ENDBRANCH  18  19
BRANCH  18  23
ATOM     23  C   UNL     1      -4.874   1.012  -1.039  1.00  0.00     0.193 C 
BRANCH  23  24
ATOM     24  C   UNL     1      -5.882  -0.129  -1.291  1.00  0.00     0.066 C 
BRANCH  24  25
ATOM     25  C   UNL     1      -5.314  -1.415  -1.893  1.00  0.00     0.006 CG0
ATOM     26  G   UNL     1      -4.697  -2.393  -0.902  1.00  0.00     0.000 G0
ENDBRANCH  24  25
ENDBRANCH  23  24
BRANCH  23  27
ATOM     27  N   UNL     1      -4.135   1.345  -2.273  1.00  0.00    -0.354 N 
ATOM     28  H   UNL     1      -3.555   0.552  -2.546  1.00  0.00     0.344 HD
ATOM     29  H   UNL     1      -3.541   2.158  -2.105  1.00  0.00     0.344 HD
ATOM     30  H   UNL     1      -4.797   1.556  -3.019  1.00  0.00     0.344 HD
ENDBRANCH  23  27
ENDBRANCH  18  23
ENDBRANCH  15  18
ENDBRANCH  12  14
ENDBRANCH   4   7
ENDBRANCH   2   3
ENDBRANCH   1   2
BRANCH   1  31
ATOM     31  C   UNL     1      -8.559   7.637   5.505  1.00  0.00     0.002 C 
BRANCH  31  32
ATOM     32  C   UNL     1      -7.875   8.319   6.699  1.00  0.00     0.002 C 
BRANCH  32  33
ATOM     33  C   UNL     1      -7.106   9.606   6.391  1.00  0.00     0.021 C 
BRANCH  33  34
ATOM     34  C   UNL     1      -7.982  10.770   5.939  1.00  0.00     0.116 C 
BRANCH  34  35
ATOM     35  N   UNL     1      -8.284  11.728   6.996  1.00  0.00    -0.352 N 
ATOM     36  C   UNL     1      -9.145  12.806   6.986  1.00  0.00     0.251 C 
ATOM     37  H   UNL     1      -7.801  11.584   7.843  1.00  0.00     0.163 HD
ATOM     38  O   UNL     1      -9.228  13.540   7.969  1.00  0.00    -0.269 OA
BRANCH  36  39
ATOM     39  C   UNL     1     -10.057  13.011   5.837  1.00  0.00     0.039 A 
ATOM     40  C   UNL     1     -11.408  13.268   6.101  1.00  0.00     0.014 A 
ATOM     41  C   UNL     1      -9.630  12.796   4.529  1.00  0.00     0.014 A 
ATOM     42  C   UNL     1     -12.353  13.082   5.093  1.00  0.00     0.010 A 
ATOM     43  C   UNL     1     -10.569  12.529   3.550  1.00  0.00     0.010 A 
ATOM     44  C   UNL     1     -11.932  12.606   3.851  1.00  0.00    -0.014 A 
BRANCH  44  45
ATOM     45  C   UNL     1     -12.843  12.067   2.847  1.00  0.00     0.031 A 
ATOM     46  C   UNL     1     -13.210  12.856   1.653  1.00  0.00     0.074 A 
ATOM     47  C   UNL     1     -13.289  10.798   2.982  1.00  0.00     0.049 A 
ATOM     48  N   UNL     1     -14.245  12.622   0.918  1.00  0.00    -0.248 NA
ATOM     49  C   UNL     1     -12.439  14.010   1.211  1.00  0.00     0.031 C 
ATOM     50  C   UNL     1     -13.986   9.988   1.987  1.00  0.00     0.029 A 
ATOM     51  N   UNL     1     -13.392  10.055   4.170  1.00  0.00    -0.354 N 
ATOM     52  C   UNL     1     -14.167  13.424  -0.196  1.00  0.00     0.074 A 
ATOM     53  C   UNL     1     -13.037  14.293   0.049  1.00  0.00     0.031 C 
ATOM     54  C   UNL     1     -14.709   9.055   2.626  1.00  0.00     0.029 A 
ATOM     55  C   UNL     1     -14.604   9.332   4.048  1.00  0.00     0.049 A 
ATOM     56  H   UNL     1     -12.759  10.040   4.924  1.00  0.00     0.167 HD
ATOM     57  C   UNL     1     -15.010  13.198  -1.245  1.00  0.00     0.037 A 
ATOM     58  C   UNL     1     -15.653   9.583   4.885  1.00  0.00     0.037 A 
ATOM     59  C   UNL     1     -15.982  12.153  -0.941  1.00  0.00     0.049 A 
ATOM     60  C   UNL     1     -16.918  10.049   4.196  1.00  0.00     0.074 A 
ATOM     61  C   UNL     1     -16.052  10.792  -1.194  1.00  0.00     0.029 A 
ATOM     62  N   UNL     1     -16.960  12.418  -0.001  1.00  0.00    -0.354 N 
ATOM     63  N   UNL     1     -16.999  10.347   2.929  1.00  0.00    -0.248 NA
ATOM     64  C   UNL     1     -18.166  10.319   4.914  1.00  0.00     0.031 C 
ATOM     65  C   UNL     1     -17.068  10.239  -0.363  1.00  0.00     0.029 A 
ATOM     66  C   UNL     1     -17.613  11.265   0.386  1.00  0.00     0.049 A 
ATOM     67  H   UNL     1     -17.165  13.316   0.348  1.00  0.00     0.167 HD
ATOM     68  C   UNL     1     -18.235  10.870   2.671  1.00  0.00     0.074 A 
ATOM     69  C   UNL     1     -18.933  10.835   3.940  1.00  0.00     0.031 C 
ATOM     70  C   UNL     1     -18.599  11.336   1.445  1.00  0.00     0.037 A 
BRANCH  57  71
ATOM     71  C   UNL     1     -14.824  13.781  -2.624  1.00  0.00     0.064 A 
ATOM     72  C   UNL     1     -15.218  13.057  -3.771  1.00  0.00     0.173 A 
ATOM     73  C   UNL     1     -14.227  15.027  -2.888  1.00  0.00     0.173 A 
ATOM     74  F   UNL     1     -15.886  11.901  -3.674  1.00  0.00    -0.203 F 
ATOM     75  C   UNL     1     -14.931  13.492  -5.067  1.00  0.00     0.198 A 
ATOM     76  C   UNL     1     -13.884  15.433  -4.181  1.00  0.00     0.198 A 
ATOM     77  F   UNL     1     -14.007  15.912  -1.907  1.00  0.00    -0.203 F 
ATOM     78  F   UNL     1     -15.329  12.760  -6.118  1.00  0.00    -0.200 F 
ATOM     79  C   UNL     1     -14.226  14.660  -5.271  1.00  0.00     0.200 A 
ATOM     80  F   UNL     1     -13.217  16.583  -4.362  1.00  0.00    -0.200 F 
ATOM     81  F   UNL     1     -13.902  15.050  -6.511  1.00  0.00    -0.200 F 
ENDBRANCH  57  71
BRANCH  58  82
ATOM     82  C   UNL     1     -15.221  10.021   6.240  1.00  0.00     0.064 A 
ATOM     83  C   UNL     1     -14.395   9.164   6.995  1.00  0.00     0.173 A 
ATOM     84  C   UNL     1     -15.299  11.360   6.637  1.00  0.00     0.173 A 
ATOM     85  F   UNL     1     -14.284   7.869   6.656  1.00  0.00    -0.203 F 
ATOM     86  C   UNL     1     -13.587   9.654   8.017  1.00  0.00     0.198 A 
ATOM     87  C   UNL     1     -14.506  11.842   7.679  1.00  0.00     0.198 A 
ATOM     88  F   UNL     1     -16.052  12.232   5.951  1.00  0.00    -0.203 F 
ATOM     89  F   UNL     1     -12.718   8.838   8.631  1.00  0.00    -0.200 F 
ATOM     90  C   UNL     1     -13.625  10.999   8.341  1.00  0.00     0.200 A 
ATOM     91  F   UNL     1     -14.526  13.148   7.978  1.00  0.00    -0.200 F 
ATOM     92  F   UNL     1     -12.785  11.492   9.261  1.00  0.00    -0.200 F 
ENDBRANCH  58  82
BRANCH  70  93
ATOM     93  C   UNL     1     -19.954  11.896   1.166  1.00  0.00     0.064 A 
ATOM     94  C   UNL     1     -21.123  11.182   1.467  1.00  0.00     0.173 A 
ATOM     95  C   UNL     1     -20.111  13.113   0.478  1.00  0.00     0.173 A 
ATOM     96  F   UNL     1     -21.055   9.998   2.095  1.00  0.00    -0.203 F 
ATOM     97  C   UNL     1     -22.381  11.670   1.117  1.00  0.00     0.198 A 
ATOM     98  C   UNL     1     -21.366  13.578   0.092  1.00  0.00     0.198 A 
ATOM     99  F   UNL     1     -19.052  13.884   0.184  1.00  0.00    -0.203 F 
ATOM    100  F   UNL     1     -23.480  10.981   1.455  1.00  0.00    -0.200 F 
ATOM    101  C   UNL     1     -22.501  12.859   0.418  1.00  0.00     0.200 A 
ATOM    102  F   UNL     1     -21.468  14.724  -0.596  1.00  0.00    -0.200 F 
ATOM    103  F   UNL     1     -23.710  13.316   0.063  1.00  0.00    -0.200 F 
ENDBRANCH  70  93
ENDBRANCH  44  45
ENDBRANCH  36  39
ENDBRANCH  34  35
ENDBRANCH  33  34
ENDBRANCH  32  33
ENDBRANCH  31  32
ENDBRANCH   1  31
TORSDOF 16
