REMARK SMILES CCCCN1C(=O)[C@@H]2[C@H](CCC(=O)NCCCCCCNC(=O)c3ccc(-c4c5nc(c(-c6c(F)c(F)c(F)c(F)c6F)c6ccc([nH]6)c(-c6c(F)c(F)c(F)c(F)c6F)c6nc(c(-c7c(F)c(F)c(F)c(F)c7F)c7ccc4[nH]7)C=C6)C=C5)cc3)[NH2+][C@]3(C(=O)Nc4c(CC)cccc43)[C@@H]2C1=O
REMARK SMILES IDX 16 1 15 2 14 3 12 4 13 5 11 7 10 8 9 9 5 10 6 11 101 12 7 13
REMARK SMILES IDX 8 14 100 15 102 16 88 17 87 18 89 19 99 20 90 23 91 24 92 25
REMARK SMILES IDX 98 26 93 28 97 29 96 30 4 31 3 32 2 33 1 34 94 35 95 36
REMARK SMILES IDX 17 37 18 38 19 39 20 40 21 41 22 42 23 44 24 45 25 46 86 47
REMARK SMILES IDX 26 48 85 49 27 50 28 51 29 52 79 53 30 54 84 55 78 56 80 57
REMARK SMILES IDX 31 58 83 59 77 60 76 61 32 63 64 64 44 65 63 66 45 67 48 68
REMARK SMILES IDX 62 69 81 70 46 71 47 72 61 74 82 75 49 76 33 77 34 78 42 79
REMARK SMILES IDX 35 80 36 81 40 82 43 83 37 84 38 85 41 86 39 87 65 88 66 89
REMARK SMILES IDX 74 90 67 91 68 92 72 93 75 94 69 95 70 96 73 97 71 98 50 99
REMARK SMILES IDX 51 100 59 101 52 102 53 103 57 104 60 105 54 106 55 107
REMARK SMILES IDX 58 108 56 109
REMARK H PARENT 14 6 87 21 87 22 91 27 21 43 80 62 48 73
REMARK Flexibility Score: inf
ROOT
ATOM      1  C   UNL     1      -5.468  -0.764  -0.600  1.00  0.00     0.021 C 
ENDROOT
BRANCH   1   2
ATOM      2  C   UNL     1      -4.031  -1.294  -0.580  1.00  0.00     0.116 C 
BRANCH   2   3
ATOM      3  N   UNL     1      -3.523  -1.384  -1.934  1.00  0.00    -0.356 N 
ATOM      4  C   UNL     1      -2.630  -0.590  -2.586  1.00  0.00     0.220 C 
ATOM      5  O   UNL     1      -2.473  -0.753  -3.796  1.00  0.00    -0.275 OA
ATOM      6  H   UNL     1      -3.879  -2.134  -2.464  1.00  0.00     0.163 HD
BRANCH   4   7
ATOM      7  C   UNL     1      -1.817   0.433  -1.823  1.00  0.00     0.106 C 
BRANCH   7   8
ATOM      8  C   UNL     1      -2.396   1.850  -1.782  1.00  0.00     0.076 C 
BRANCH   8   9
ATOM      9  C   UNL     1      -3.488   2.170  -0.742  1.00  0.00     0.197 C 
ATOM     10  N   UNL     1      -1.004   2.798   1.231  1.00  0.00    -0.282 N 
ATOM     11  C   UNL     1      -1.790   1.694   1.139  1.00  0.00     0.239 C 
ATOM     12  C   UNL     1      -1.770   3.936   1.350  1.00  0.00     0.240 C 
ATOM     13  O   UNL     1      -1.506   0.530   1.345  1.00  0.00    -0.274 OA
ATOM     14  C   UNL     1      -3.169   2.116   0.761  1.00  0.00     0.157 C 
ATOM     15  C   UNL     1      -3.228   3.548   1.277  1.00  0.00     0.174 C 
ATOM     16  O   UNL     1      -1.363   5.050   1.640  1.00  0.00    -0.274 OA
ATOM     17  C   UNL     1      -4.123   4.258   0.284  1.00  0.00     0.216 C 
ATOM     18  N   UNL     1      -3.941   3.543  -0.990  1.00  0.00    -0.326 N 
ATOM     19  C   UNL     1      -3.860   5.782   0.057  1.00  0.00     0.291 C 
ATOM     20  C   UNL     1      -5.575   4.272   0.743  1.00  0.00     0.047 A 
ATOM     21  H   UNL     1      -4.828   3.519  -1.492  1.00  0.00     0.347 HD
ATOM     22  H   UNL     1      -3.237   4.029  -1.545  1.00  0.00     0.347 HD
ATOM     23  O   UNL     1      -2.879   6.316  -0.435  1.00  0.00    -0.267 OA
ATOM     24  N   UNL     1      -5.016   6.458   0.435  1.00  0.00    -0.320 N 
ATOM     25  C   UNL     1      -6.026   5.595   0.834  1.00  0.00     0.054 A 
ATOM     26  C   UNL     1      -6.419   3.223   1.077  1.00  0.00     0.013 A 
ATOM     27  H   UNL     1      -5.107   7.439   0.421  1.00  0.00     0.170 HD
ATOM     28  C   UNL     1      -7.309   5.923   1.254  1.00  0.00    -0.024 A 
ATOM     29  C   UNL     1      -7.710   3.522   1.514  1.00  0.00     0.001 A 
ATOM     30  C   UNL     1      -8.149   4.852   1.604  1.00  0.00     0.006 A 
BRANCH  10  31
ATOM     31  C   UNL     1       0.454   2.817   1.200  1.00  0.00     0.128 C 
BRANCH  31  32
ATOM     32  C   UNL     1       1.214   1.897   2.166  1.00  0.00     0.022 C 
BRANCH  32  33
ATOM     33  C   UNL     1       1.349   0.404   1.830  1.00  0.00    -0.002 C 
ATOM     34  C   UNL     1       1.591   0.070   0.366  1.00  0.00     0.004 C 
ENDBRANCH  32  33
ENDBRANCH  31  32
ENDBRANCH  10  31
BRANCH  28  35
ATOM     35  C   UNL     1      -7.821   7.335   1.343  1.00  0.00     0.034 C 
ATOM     36  C   UNL     1      -8.883   7.631   0.292  1.00  0.00     0.009 C 
ENDBRANCH  28  35
ENDBRANCH   8   9
ENDBRANCH   7   8
ENDBRANCH   4   7
ENDBRANCH   2   3
ENDBRANCH   1   2
BRANCH   1  37
ATOM     37  C   UNL     1      -6.528  -1.858  -0.502  1.00  0.00     0.002 C 
BRANCH  37  38
ATOM     38  C   UNL     1      -6.680  -2.458   0.900  1.00  0.00     0.002 C 
BRANCH  38  39
ATOM     39  C   UNL     1      -7.042  -1.466   2.011  1.00  0.00     0.021 C 
BRANCH  39  40
ATOM     40  C   UNL     1      -8.267  -0.595   1.743  1.00  0.00     0.116 C 
BRANCH  40  41
ATOM     41  N   UNL     1      -9.475  -1.375   1.529  1.00  0.00    -0.352 N 
ATOM     42  C   UNL     1     -10.657  -1.400   2.228  1.00  0.00     0.251 C 
ATOM     43  H   UNL     1      -9.440  -1.985   0.757  1.00  0.00     0.163 HD
ATOM     44  O   UNL     1     -11.494  -2.265   1.984  1.00  0.00    -0.269 OA
BRANCH  42  45
ATOM     45  C   UNL     1     -10.924  -0.406   3.290  1.00  0.00     0.039 A 
ATOM     46  C   UNL     1     -10.622   0.944   3.104  1.00  0.00     0.014 A 
ATOM     47  C   UNL     1     -11.513  -0.827   4.486  1.00  0.00     0.014 A 
ATOM     48  C   UNL     1     -10.747   1.836   4.165  1.00  0.00     0.010 A 
ATOM     49  C   UNL     1     -11.722   0.089   5.522  1.00  0.00     0.010 A 
ATOM     50  C   UNL     1     -11.295   1.419   5.390  1.00  0.00    -0.014 A 
BRANCH  50  51
ATOM     51  C   UNL     1     -11.408   2.391   6.512  1.00  0.00     0.031 A 
ATOM     52  C   UNL     1     -10.634   2.189   7.788  1.00  0.00     0.074 A 
ATOM     53  C   UNL     1     -12.175   3.489   6.361  1.00  0.00     0.049 A 
ATOM     54  N   UNL     1     -10.586   2.951   8.853  1.00  0.00    -0.248 NA
ATOM     55  C   UNL     1      -9.812   0.973   7.890  1.00  0.00     0.031 C 
ATOM     56  C   UNL     1     -12.986   3.793   5.181  1.00  0.00     0.029 A 
ATOM     57  N   UNL     1     -12.385   4.562   7.192  1.00  0.00    -0.354 N 
ATOM     58  C   UNL     1      -9.750   2.301   9.752  1.00  0.00     0.074 A 
ATOM     59  C   UNL     1      -9.332   1.067   9.123  1.00  0.00     0.031 C 
ATOM     60  C   UNL     1     -13.564   4.993   5.341  1.00  0.00     0.029 A 
ATOM     61  C   UNL     1     -13.211   5.519   6.656  1.00  0.00     0.049 A 
ATOM     62  H   UNL     1     -11.981   4.638   8.087  1.00  0.00     0.167 HD
ATOM     63  C   UNL     1      -9.354   2.705  10.982  1.00  0.00     0.037 A 
ATOM     64  C   UNL     1     -13.648   6.687   7.168  1.00  0.00     0.037 A 
ATOM     65  C   UNL     1      -9.737   3.951  11.593  1.00  0.00     0.049 A 
ATOM     66  C   UNL     1     -13.201   7.103   8.541  1.00  0.00     0.074 A 
ATOM     67  C   UNL     1      -9.338   4.468  12.814  1.00  0.00     0.029 A 
ATOM     68  N   UNL     1     -10.602   4.877  11.031  1.00  0.00    -0.354 N 
ATOM     69  N   UNL     1     -12.379   6.494   9.360  1.00  0.00    -0.248 NA
ATOM     70  C   UNL     1     -13.746   8.363   9.065  1.00  0.00     0.031 C 
ATOM     71  C   UNL     1      -9.995   5.685  13.010  1.00  0.00     0.029 A 
ATOM     72  C   UNL     1     -10.768   5.949  11.892  1.00  0.00     0.049 A 
ATOM     73  H   UNL     1     -11.034   4.785  10.151  1.00  0.00     0.167 HD
ATOM     74  C   UNL     1     -12.302   7.298  10.489  1.00  0.00     0.074 A 
ATOM     75  C   UNL     1     -13.140   8.452  10.241  1.00  0.00     0.031 C 
ATOM     76  C   UNL     1     -11.604   7.092  11.632  1.00  0.00     0.037 A 
BRANCH  63  77
ATOM     77  C   UNL     1      -8.447   1.803  11.766  1.00  0.00     0.064 A 
ATOM     78  C   UNL     1      -7.089   1.670  11.444  1.00  0.00     0.173 A 
ATOM     79  C   UNL     1      -8.919   1.147  12.914  1.00  0.00     0.173 A 
ATOM     80  F   UNL     1      -6.593   2.270  10.351  1.00  0.00    -0.203 F 
ATOM     81  C   UNL     1      -6.237   0.908  12.239  1.00  0.00     0.198 A 
ATOM     82  C   UNL     1      -8.059   0.406  13.720  1.00  0.00     0.198 A 
ATOM     83  F   UNL     1     -10.208   1.250  13.270  1.00  0.00    -0.203 F 
ATOM     84  F   UNL     1      -4.947   0.778  11.901  1.00  0.00    -0.200 F 
ATOM     85  C   UNL     1      -6.719   0.286  13.382  1.00  0.00     0.200 A 
ATOM     86  F   UNL     1      -8.523  -0.182  14.831  1.00  0.00    -0.200 F 
ATOM     87  F   UNL     1      -5.892  -0.427  14.158  1.00  0.00    -0.200 F 
ENDBRANCH  63  77
BRANCH  64  88
ATOM     88  C   UNL     1     -14.560   7.545   6.369  1.00  0.00     0.064 A 
ATOM     89  C   UNL     1     -14.127   8.773   5.852  1.00  0.00     0.173 A 
ATOM     90  C   UNL     1     -15.877   7.147   6.093  1.00  0.00     0.173 A 
ATOM     91  F   UNL     1     -12.883   9.205   6.105  1.00  0.00    -0.203 F 
ATOM     92  C   UNL     1     -14.981   9.577   5.098  1.00  0.00     0.198 A 
ATOM     93  C   UNL     1     -16.720   7.937   5.315  1.00  0.00     0.198 A 
ATOM     94  F   UNL     1     -16.337   5.978   6.562  1.00  0.00    -0.203 F 
ATOM     95  F   UNL     1     -14.553  10.763   4.645  1.00  0.00    -0.200 F 
ATOM     96  C   UNL     1     -16.273   9.154   4.823  1.00  0.00     0.200 A 
ATOM     97  F   UNL     1     -17.961   7.517   5.037  1.00  0.00    -0.200 F 
ATOM     98  F   UNL     1     -17.088   9.921   4.088  1.00  0.00    -0.200 F 
ENDBRANCH  64  88
BRANCH  76  99
ATOM     99  C   UNL     1     -11.707   8.133  12.706  1.00  0.00     0.064 A 
ATOM    100  C   UNL     1     -12.861   8.256  13.492  1.00  0.00     0.173 A 
ATOM    101  C   UNL     1     -10.614   8.960  13.004  1.00  0.00     0.173 A 
ATOM    102  F   UNL     1     -13.936   7.496  13.236  1.00  0.00    -0.203 F 
ATOM    103  C   UNL     1     -12.921   9.178  14.534  1.00  0.00     0.198 A 
ATOM    104  C   UNL     1     -10.668   9.863  14.063  1.00  0.00     0.198 A 
ATOM    105  F   UNL     1      -9.485   8.875  12.285  1.00  0.00    -0.203 F 
ATOM    106  F   UNL     1     -14.044   9.299  15.255  1.00  0.00    -0.200 F 
ATOM    107  C   UNL     1     -11.821   9.973  14.824  1.00  0.00     0.200 A 
ATOM    108  F   UNL     1      -9.600  10.620  14.351  1.00  0.00    -0.200 F 
ATOM    109  F   UNL     1     -11.875  10.847  15.839  1.00  0.00    -0.200 F 
ENDBRANCH  76  99
ENDBRANCH  50  51
ENDBRANCH  42  45
ENDBRANCH  40  41
ENDBRANCH  39  40
ENDBRANCH  38  39
ENDBRANCH  37  38
ENDBRANCH   1  37
TORSDOF 19
