REMARK SMILES C[NH+]1CCC2(CC1)OC[C@@H](C(=O)NCCCCCCNC(=O)c1ccc(-c3c4nc(c(-c5c(F)c(F)c(F)c(F)c5F)c5ccc([nH]5)c(-c5c(F)c(F)c(F)c(F)c5F)c5nc(c(-c6c(F)c(F)c(F)c(F)c6F)c6ccc3[nH]6)C=C5)C=C4)cc1)N2C(=O)c1ccc2ccccc2c1
REMARK SMILES IDX 16 1 15 2 14 3 13 4 11 5 12 6 10 8 1 9 2 10 3 11 7 12 4 14
REMARK SMILES IDX 6 15 5 16 8 17 86 18 9 19 87 20 88 21 89 22 90 23 98 24
REMARK SMILES IDX 91 25 97 26 92 27 96 28 93 29 95 30 94 31 17 32 18 33 19 34
REMARK SMILES IDX 20 35 21 36 22 38 23 39 24 40 85 41 25 42 84 43 26 44 27 45
REMARK SMILES IDX 28 46 78 47 29 48 83 49 77 50 79 51 30 52 82 53 76 54 75 55
REMARK SMILES IDX 31 57 63 58 43 59 62 60 44 61 47 62 61 63 80 64 45 65 46 66
REMARK SMILES IDX 60 68 81 69 48 70 32 71 33 72 41 73 34 74 35 75 39 76 42 77
REMARK SMILES IDX 36 78 37 79 40 80 38 81 64 82 65 83 73 84 66 85 67 86 71 87
REMARK SMILES IDX 74 88 68 89 69 90 72 91 70 92 49 93 50 94 58 95 51 96 52 97
REMARK SMILES IDX 56 98 59 99 53 100 54 101 57 102 55 103
REMARK H PARENT 13 7 2 13 20 37 79 56 47 67
REMARK Flexibility Score: inf
ROOT
ATOM      1  C   UNL     1      -6.583  -1.661  -4.057  1.00  0.00     0.002 C 
ENDROOT
BRANCH   1   2
ATOM      2  C   UNL     1      -5.293  -1.381  -3.289  1.00  0.00     0.021 C 
BRANCH   2   3
ATOM      3  C   UNL     1      -5.462  -1.163  -1.792  1.00  0.00     0.116 C 
BRANCH   3   4
ATOM      4  N   UNL     1      -5.833  -2.400  -1.149  1.00  0.00    -0.354 N 
ATOM      5  C   UNL     1      -5.123  -3.196  -0.304  1.00  0.00     0.245 C 
ATOM      6  O   UNL     1      -5.725  -4.172   0.161  1.00  0.00    -0.273 OA
ATOM      7  H   UNL     1      -6.742  -2.718  -1.354  1.00  0.00     0.163 HD
BRANCH   5   8
ATOM      8  C   UNL     1      -3.767  -2.771   0.291  1.00  0.00     0.203 C 
ATOM      9  C   UNL     1       1.640   0.401   0.627  1.00  0.00     0.332 C 
ATOM     10  N   UNL     1       0.825  -0.485  -0.187  1.00  0.00    -0.337 N 
ATOM     11  C   UNL     1       0.412  -1.695   0.514  1.00  0.00     0.267 C 
ATOM     12  C   UNL     1      -0.208   0.214  -0.942  1.00  0.00     0.267 C 
ATOM     13  H   UNL     1       1.429  -0.850  -0.923  1.00  0.00     0.347 HD
ATOM     14  C   UNL     1      -0.932  -1.603   1.207  1.00  0.00     0.120 C 
ATOM     15  C   UNL     1      -1.628   0.187  -0.404  1.00  0.00     0.120 C 
ATOM     16  C   UNL     1      -2.053  -1.111   0.277  1.00  0.00     0.155 C 
ATOM     17  O   UNL     1      -3.107  -0.674   1.183  1.00  0.00    -0.352 OA
ATOM     18  N   UNL     1      -2.698  -2.177  -0.516  1.00  0.00    -0.295 N 
ATOM     19  C   UNL     1      -4.082  -1.706   1.326  1.00  0.00     0.198 C 
BRANCH  18  20
ATOM     20  C   UNL     1      -2.188  -2.977  -1.546  1.00  0.00     0.256 C 
ATOM     21  O   UNL     1      -2.570  -4.133  -1.721  1.00  0.00    -0.269 OA
BRANCH  20  22
ATOM     22  C   UNL     1      -1.262  -2.442  -2.570  1.00  0.00     0.040 A 
ATOM     23  C   UNL     1      -1.736  -1.520  -3.503  1.00  0.00     0.014 A 
ATOM     24  C   UNL     1       0.055  -2.903  -2.682  1.00  0.00     0.022 A 
ATOM     25  C   UNL     1      -0.877  -0.942  -4.439  1.00  0.00     0.009 A 
ATOM     26  C   UNL     1       0.959  -2.270  -3.563  1.00  0.00    -0.018 A 
ATOM     27  C   UNL     1       0.486  -1.253  -4.428  1.00  0.00    -0.018 A 
ATOM     28  C   UNL     1       2.332  -2.571  -3.569  1.00  0.00     0.009 A 
ATOM     29  C   UNL     1       1.389  -0.537  -5.227  1.00  0.00     0.009 A 
ATOM     30  C   UNL     1       3.221  -1.847  -4.371  1.00  0.00     0.001 A 
ATOM     31  C   UNL     1       2.752  -0.822  -5.187  1.00  0.00     0.001 A 
ENDBRANCH  20  22
ENDBRANCH  18  20
ENDBRANCH   5   8
ENDBRANCH   3   4
ENDBRANCH   2   3
ENDBRANCH   1   2
BRANCH   1  32
ATOM     32  C   UNL     1      -7.655  -0.580  -3.930  1.00  0.00     0.002 C 
BRANCH  32  33
ATOM     33  C   UNL     1      -7.186   0.839  -4.260  1.00  0.00     0.021 C 
BRANCH  33  34
ATOM     34  C   UNL     1      -6.550   0.997  -5.637  1.00  0.00     0.116 C 
BRANCH  34  35
ATOM     35  N   UNL     1      -7.468   0.645  -6.708  1.00  0.00    -0.352 N 
ATOM     36  C   UNL     1      -7.888   1.398  -7.773  1.00  0.00     0.251 C 
ATOM     37  H   UNL     1      -7.840  -0.265  -6.662  1.00  0.00     0.163 HD
ATOM     38  O   UNL     1      -8.825   1.017  -8.472  1.00  0.00    -0.269 OA
BRANCH  36  39
ATOM     39  C   UNL     1      -7.223   2.682  -8.071  1.00  0.00     0.039 A 
ATOM     40  C   UNL     1      -8.009   3.797  -8.372  1.00  0.00     0.014 A 
ATOM     41  C   UNL     1      -5.829   2.786  -8.056  1.00  0.00     0.014 A 
ATOM     42  C   UNL     1      -7.398   5.030  -8.603  1.00  0.00     0.010 A 
ATOM     43  C   UNL     1      -5.227   4.031  -8.207  1.00  0.00     0.010 A 
ATOM     44  C   UNL     1      -6.004   5.165  -8.489  1.00  0.00    -0.014 A 
BRANCH  44  45
ATOM     45  C   UNL     1      -5.340   6.481  -8.673  1.00  0.00     0.031 A 
ATOM     46  C   UNL     1      -4.367   6.681  -9.802  1.00  0.00     0.074 A 
ATOM     47  C   UNL     1      -5.574   7.476  -7.796  1.00  0.00     0.049 A 
ATOM     48  N   UNL     1      -3.629   7.725 -10.085  1.00  0.00    -0.248 NA
ATOM     49  C   UNL     1      -4.178   5.548 -10.723  1.00  0.00     0.031 C 
ATOM     50  C   UNL     1      -6.470   7.394  -6.641  1.00  0.00     0.029 A 
ATOM     51  N   UNL     1      -5.070   8.752  -7.733  1.00  0.00    -0.354 N 
ATOM     52  C   UNL     1      -2.890   7.373 -11.207  1.00  0.00     0.074 A 
ATOM     53  C   UNL     1      -3.218   5.999 -11.517  1.00  0.00     0.031 C 
ATOM     54  C   UNL     1      -6.470   8.573  -5.999  1.00  0.00     0.029 A 
ATOM     55  C   UNL     1      -5.541   9.479  -6.667  1.00  0.00     0.049 A 
ATOM     56  H   UNL     1      -4.430   9.111  -8.389  1.00  0.00     0.167 HD
ATOM     57  C   UNL     1      -2.037   8.136 -11.930  1.00  0.00     0.037 A 
ATOM     58  C   UNL     1      -5.247  10.731  -6.267  1.00  0.00     0.037 A 
ATOM     59  C   UNL     1      -1.726   9.509 -11.629  1.00  0.00     0.049 A 
ATOM     60  C   UNL     1      -4.263  11.543  -7.070  1.00  0.00     0.074 A 
ATOM     61  C   UNL     1      -0.900  10.378 -12.320  1.00  0.00     0.029 A 
ATOM     62  N   UNL     1      -2.229  10.213 -10.545  1.00  0.00    -0.354 N 
ATOM     63  N   UNL     1      -3.615  11.218  -8.162  1.00  0.00    -0.248 NA
ATOM     64  C   UNL     1      -3.974  12.900  -6.586  1.00  0.00     0.031 C 
ATOM     65  C   UNL     1      -0.862  11.591 -11.627  1.00  0.00     0.029 A 
ATOM     66  C   UNL     1      -1.714  11.499 -10.538  1.00  0.00     0.049 A 
ATOM     67  H   UNL     1      -2.858   9.852  -9.879  1.00  0.00     0.167 HD
ATOM     68  C   UNL     1      -2.877  12.340  -8.517  1.00  0.00     0.074 A 
ATOM     69  C   UNL     1      -3.169  13.360  -7.532  1.00  0.00     0.031 C 
ATOM     70  C   UNL     1      -2.033  12.511  -9.563  1.00  0.00     0.037 A 
BRANCH  57  71
ATOM     71  C   UNL     1      -1.382   7.510 -13.128  1.00  0.00     0.064 A 
ATOM     72  C   UNL     1      -2.116   7.190 -14.281  1.00  0.00     0.173 A 
ATOM     73  C   UNL     1       0.002   7.283 -13.149  1.00  0.00     0.173 A 
ATOM     74  F   UNL     1      -3.444   7.377 -14.310  1.00  0.00    -0.203 F 
ATOM     75  C   UNL     1      -1.491   6.646 -15.401  1.00  0.00     0.198 A 
ATOM     76  C   UNL     1       0.628   6.770 -14.282  1.00  0.00     0.198 A 
ATOM     77  F   UNL     1       0.752   7.575 -12.075  1.00  0.00    -0.203 F 
ATOM     78  F   UNL     1      -2.219   6.309 -16.474  1.00  0.00    -0.200 F 
ATOM     79  C   UNL     1      -0.119   6.446 -15.404  1.00  0.00     0.200 A 
ATOM     80  F   UNL     1       1.957   6.592 -14.288  1.00  0.00    -0.200 F 
ATOM     81  F   UNL     1       0.483   5.938 -16.488  1.00  0.00    -0.200 F 
ENDBRANCH  57  71
BRANCH  58  82
ATOM     82  C   UNL     1      -5.888  11.307  -5.054  1.00  0.00     0.064 A 
ATOM     83  C   UNL     1      -6.761  12.401  -5.150  1.00  0.00     0.173 A 
ATOM     84  C   UNL     1      -5.609  10.810  -3.773  1.00  0.00     0.173 A 
ATOM     85  F   UNL     1      -7.046  12.927  -6.351  1.00  0.00    -0.203 F 
ATOM     86  C   UNL     1      -7.298  12.999  -4.011  1.00  0.00     0.198 A 
ATOM     87  C   UNL     1      -6.175  11.385  -2.637  1.00  0.00     0.198 A 
ATOM     88  F   UNL     1      -4.786   9.762  -3.623  1.00  0.00    -0.203 F 
ATOM     89  F   UNL     1      -8.072  14.085  -4.130  1.00  0.00    -0.200 F 
ATOM     90  C   UNL     1      -7.006  12.488  -2.756  1.00  0.00     0.200 A 
ATOM     91  F   UNL     1      -5.904  10.878  -1.426  1.00  0.00    -0.200 F 
ATOM     92  F   UNL     1      -7.516  13.067  -1.660  1.00  0.00    -0.200 F 
ENDBRANCH  58  82
BRANCH  70  93
ATOM     93  C   UNL     1      -1.408  13.867  -9.735  1.00  0.00     0.064 A 
ATOM     94  C   UNL     1      -0.431  14.349  -8.852  1.00  0.00     0.173 A 
ATOM     95  C   UNL     1      -1.767  14.676 -10.824  1.00  0.00     0.173 A 
ATOM     96  F   UNL     1      -0.063  13.621  -7.788  1.00  0.00    -0.203 F 
ATOM     97  C   UNL     1       0.142  15.605  -9.037  1.00  0.00     0.198 A 
ATOM     98  C   UNL     1      -1.166  15.915 -11.025  1.00  0.00     0.198 A 
ATOM     99  F   UNL     1      -2.690  14.259 -11.703  1.00  0.00    -0.203 F 
ATOM    100  F   UNL     1       1.033  16.069  -8.150  1.00  0.00    -0.200 F 
ATOM    101  C   UNL     1      -0.219  16.383 -10.127  1.00  0.00     0.200 A 
ATOM    102  F   UNL     1      -1.503  16.657 -12.090  1.00  0.00    -0.200 F 
ATOM    103  F   UNL     1       0.341  17.587 -10.308  1.00  0.00    -0.200 F 
ENDBRANCH  70  93
ENDBRANCH  44  45
ENDBRANCH  36  39
ENDBRANCH  34  35
ENDBRANCH  33  34
ENDBRANCH  32  33
ENDBRANCH   1  32
TORSDOF 15
