REMARK SMILES CC(=O)c1ccc(N2/C(=[NH+]/C(=O)CCC(=O)NCCCCCCNC(=O)c3ccc(-c4c5nc(c(-c6c(F)c(F)c(F)c(F)c6F)c6ccc([nH]6)c(-c6c(F)c(F)c(F)c(F)c6F)c6nc(c(-c7c(F)c(F)c(F)c(F)c7F)c7ccc4[nH]7)C=C6)C=C5)cc3)S[C@H]3CS(=O)(=O)C[C@@H]32)cc1
REMARK SMILES IDX 19 1 18 2 17 3 15 4 16 5 14 7 13 8 11 9 8 10 9 11 97 12
REMARK SMILES IDX 10 13 90 14 91 15 96 16 92 18 93 19 12 20 94 21 95 22 7 23
REMARK SMILES IDX 4 24 5 25 99 26 6 27 98 28 2 29 1 30 3 31 20 32 21 33 22 34
REMARK SMILES IDX 23 35 24 36 25 37 26 39 27 40 28 41 89 42 29 43 88 44 30 45
REMARK SMILES IDX 31 46 32 47 82 48 33 49 87 50 81 51 83 52 34 53 86 54 80 55
REMARK SMILES IDX 79 56 35 58 67 59 47 60 66 61 48 62 51 63 65 64 84 65 49 66
REMARK SMILES IDX 50 67 64 69 85 70 52 71 36 72 37 73 45 74 38 75 39 76 43 77
REMARK SMILES IDX 46 78 40 79 41 80 44 81 42 82 68 83 69 84 77 85 70 86 71 87
REMARK SMILES IDX 75 88 78 89 72 90 73 91 76 92 74 93 53 94 54 95 62 96 55 97
REMARK SMILES IDX 56 98 60 99 63 100 57 101 58 102 61 103 59 104
REMARK H PARENT 17 6 10 17 24 38 83 57 51 68
REMARK Flexibility Score: inf
ROOT
ATOM      1  C   UNL     1       5.652  -0.513  -7.178  1.00  0.00     0.021 C 
ENDROOT
BRANCH   1   2
ATOM      2  C   UNL     1       6.887  -1.155  -6.526  1.00  0.00     0.116 C 
BRANCH   2   3
ATOM      3  N   UNL     1       6.563  -2.295  -5.674  1.00  0.00    -0.356 N 
ATOM      4  C   UNL     1       6.117  -3.538  -6.003  1.00  0.00     0.220 C 
ATOM      5  O   UNL     1       5.798  -4.310  -5.099  1.00  0.00    -0.275 OA
ATOM      6  H   UNL     1       6.686  -2.140  -4.710  1.00  0.00     0.163 HD
BRANCH   4   7
ATOM      7  C   UNL     1       6.072  -3.952  -7.454  1.00  0.00     0.112 C 
BRANCH   7   8
ATOM      8  C   UNL     1       4.708  -4.527  -7.840  1.00  0.00     0.138 C 
BRANCH   8   9
ATOM      9  C   UNL     1       3.726  -3.436  -8.232  1.00  0.00     0.308 C 
ATOM     10  N   UNL     1       1.700  -1.036  -6.374  1.00  0.00    -0.217 N 
ATOM     11  C   UNL     1       2.080  -1.983  -7.385  1.00  0.00     0.319 C 
ATOM     12  C   UNL     1       1.317   0.277  -6.925  1.00  0.00     0.212 C 
ATOM     13  N   UNL     1       2.928  -2.956  -7.205  1.00  0.00    -0.204 N 
ATOM     14  S   UNL     1       1.515  -1.427  -9.080  1.00  0.00    -0.029 SA
ATOM     15  C   UNL     1       2.188   0.199  -8.694  1.00  0.00     0.120 C 
ATOM     16  C   UNL     1       1.337   2.157  -6.169  1.00  0.00     0.188 C 
ATOM     17  H   UNL     1       3.005  -3.364  -6.312  1.00  0.00     0.316 HD
ATOM     18  C   UNL     1       2.402   1.980  -9.529  1.00  0.00     0.156 C 
ATOM     19  S   UNL     1       1.985   3.608  -7.915  1.00  0.00     0.155 S 
ATOM     20  O   UNL     1       3.863  -2.932  -9.348  1.00  0.00    -0.247 OA
ATOM     21  O   UNL     1       3.236   4.302  -7.635  1.00  0.00    -0.229 OA
ATOM     22  O   UNL     1       0.911   4.492  -8.300  1.00  0.00    -0.229 OA
BRANCH  10  23
ATOM     23  C   UNL     1       1.221  -1.306  -5.079  1.00  0.00     0.128 A 
ATOM     24  C   UNL     1       0.261  -1.136  -2.418  1.00  0.00     0.018 A 
ATOM     25  C   UNL     1      -0.622  -1.385  -3.478  1.00  0.00     0.016 A 
ATOM     26  C   UNL     1       1.622  -1.054  -2.681  1.00  0.00     0.016 A 
ATOM     27  C   UNL     1      -0.146  -1.452  -4.800  1.00  0.00     0.052 A 
ATOM     28  C   UNL     1       2.087  -1.185  -3.987  1.00  0.00     0.052 A 
BRANCH  24  29
ATOM     29  C   UNL     1      -0.257  -0.961  -1.034  1.00  0.00     0.159 C 
ATOM     30  C   UNL     1       0.516  -0.079  -0.080  1.00  0.00     0.093 C 
ATOM     31  O   UNL     1      -1.323  -1.482  -0.716  1.00  0.00    -0.295 OA
ENDBRANCH  24  29
ENDBRANCH  10  23
ENDBRANCH   8   9
ENDBRANCH   7   8
ENDBRANCH   4   7
ENDBRANCH   2   3
ENDBRANCH   1   2
BRANCH   1  32
ATOM     32  C   UNL     1       4.582  -0.339  -6.124  1.00  0.00     0.002 C 
BRANCH  32  33
ATOM     33  C   UNL     1       3.672   0.873  -6.127  1.00  0.00     0.002 C 
BRANCH  33  34
ATOM     34  C   UNL     1       2.826   1.604  -7.405  1.00  0.00     0.021 C 
BRANCH  34  35
ATOM     35  C   UNL     1       0.803   1.744  -8.168  1.00  0.00     0.116 C 
BRANCH  35  36
ATOM     36  N   UNL     1      -0.595   1.960  -7.431  1.00  0.00    -0.352 N 
ATOM     37  C   UNL     1      -1.682   2.776  -7.691  1.00  0.00     0.251 C 
ATOM     38  H   UNL     1      -0.707   1.400  -6.630  1.00  0.00     0.163 HD
ATOM     39  O   UNL     1      -2.600   2.845  -6.884  1.00  0.00    -0.269 OA
BRANCH  37  40
ATOM     40  C   UNL     1      -1.722   3.525  -8.944  1.00  0.00     0.039 A 
ATOM     41  C   UNL     1      -1.768   4.924  -8.924  1.00  0.00     0.014 A 
ATOM     42  C   UNL     1      -1.496   2.808 -10.115  1.00  0.00     0.014 A 
ATOM     43  C   UNL     1      -1.440   5.620 -10.084  1.00  0.00     0.010 A 
ATOM     44  C   UNL     1      -1.087   3.497 -11.236  1.00  0.00     0.010 A 
ATOM     45  C   UNL     1      -1.063   4.905 -11.229  1.00  0.00    -0.014 A 
BRANCH  45  46
ATOM     46  C   UNL     1      -0.796   5.570 -12.516  1.00  0.00     0.031 A 
ATOM     47  C   UNL     1      -1.782   5.317 -13.617  1.00  0.00     0.074 A 
ATOM     48  C   UNL     1       0.340   6.256 -12.730  1.00  0.00     0.049 A 
ATOM     49  N   UNL     1      -1.696   5.589 -14.889  1.00  0.00    -0.248 NA
ATOM     50  C   UNL     1      -3.002   4.579 -13.236  1.00  0.00     0.031 C 
ATOM     51  C   UNL     1       1.385   6.514 -11.739  1.00  0.00     0.029 A 
ATOM     52  N   UNL     1       0.812   6.842 -13.876  1.00  0.00    -0.354 N 
ATOM     53  C   UNL     1      -2.829   5.024 -15.456  1.00  0.00     0.074 A 
ATOM     54  C   UNL     1      -3.526   4.305 -14.417  1.00  0.00     0.031 C 
ATOM     55  C   UNL     1       2.373   7.219 -12.321  1.00  0.00     0.029 A 
ATOM     56  C   UNL     1       2.042   7.435 -13.728  1.00  0.00     0.049 A 
ATOM     57  H   UNL     1       0.316   6.838 -14.726  1.00  0.00     0.167 HD
ATOM     58  C   UNL     1      -3.275   5.139 -16.725  1.00  0.00     0.037 A 
ATOM     59  C   UNL     1       2.799   8.075 -14.640  1.00  0.00     0.037 A 
ATOM     60  C   UNL     1      -2.595   5.906 -17.728  1.00  0.00     0.049 A 
ATOM     61  C   UNL     1       2.278   8.200 -16.054  1.00  0.00     0.074 A 
ATOM     62  C   UNL     1      -2.984   6.161 -19.027  1.00  0.00     0.029 A 
ATOM     63  N   UNL     1      -1.381   6.547 -17.530  1.00  0.00    -0.354 N 
ATOM     64  N   UNL     1       1.164   7.739 -16.572  1.00  0.00    -0.248 NA
ATOM     65  C   UNL     1       3.114   8.944 -17.007  1.00  0.00     0.031 C 
ATOM     66  C   UNL     1      -1.975   6.911 -19.636  1.00  0.00     0.029 A 
ATOM     67  C   UNL     1      -0.993   7.183 -18.695  1.00  0.00     0.049 A 
ATOM     68  H   UNL     1      -0.872   6.549 -16.687  1.00  0.00     0.167 HD
ATOM     69  C   UNL     1       1.143   8.174 -17.892  1.00  0.00     0.074 A 
ATOM     70  C   UNL     1       2.355   8.940 -18.094  1.00  0.00     0.031 C 
ATOM     71  C   UNL     1       0.207   7.965 -18.851  1.00  0.00     0.037 A 
BRANCH  58  72
ATOM     72  C   UNL     1      -4.553   4.437 -17.072  1.00  0.00     0.064 A 
ATOM     73  C   UNL     1      -5.780   4.807 -16.496  1.00  0.00     0.173 A 
ATOM     74  C   UNL     1      -4.551   3.371 -17.982  1.00  0.00     0.173 A 
ATOM     75  F   UNL     1      -5.834   5.806 -15.602  1.00  0.00    -0.203 F 
ATOM     76  C   UNL     1      -6.947   4.106 -16.784  1.00  0.00     0.198 A 
ATOM     77  C   UNL     1      -5.729   2.701 -18.301  1.00  0.00     0.198 A 
ATOM     78  F   UNL     1      -3.407   2.974 -18.559  1.00  0.00    -0.203 F 
ATOM     79  F   UNL     1      -8.089   4.428 -16.161  1.00  0.00    -0.200 F 
ATOM     80  C   UNL     1      -6.922   3.060 -17.693  1.00  0.00     0.200 A 
ATOM     81  F   UNL     1      -5.706   1.698 -19.189  1.00  0.00    -0.200 F 
ATOM     82  F   UNL     1      -8.047   2.390 -17.974  1.00  0.00    -0.200 F 
ENDBRANCH  58  72
BRANCH  59  83
ATOM     83  C   UNL     1       4.104   8.678 -14.254  1.00  0.00     0.064 A 
ATOM     84  C   UNL     1       4.281  10.070 -14.259  1.00  0.00     0.173 A 
ATOM     85  C   UNL     1       5.208   7.886 -13.906  1.00  0.00     0.173 A 
ATOM     86  F   UNL     1       3.262  10.873 -14.603  1.00  0.00    -0.203 F 
ATOM     87  C   UNL     1       5.518  10.644 -13.971  1.00  0.00     0.198 A 
ATOM     88  C   UNL     1       6.437   8.463 -13.587  1.00  0.00     0.198 A 
ATOM     89  F   UNL     1       5.096   6.550 -13.880  1.00  0.00    -0.203 F 
ATOM     90  F   UNL     1       5.672  11.973 -14.049  1.00  0.00    -0.200 F 
ATOM     91  C   UNL     1       6.595   9.839 -13.632  1.00  0.00     0.200 A 
ATOM     92  F   UNL     1       7.473   7.682 -13.249  1.00  0.00    -0.200 F 
ATOM     93  F   UNL     1       7.786  10.390 -13.362  1.00  0.00    -0.200 F 
ENDBRANCH  59  83
BRANCH  71  94
ATOM     94  C   UNL     1       0.412   8.620 -20.186  1.00  0.00     0.064 A 
ATOM     95  C   UNL     1       1.391   8.177 -21.085  1.00  0.00     0.173 A 
ATOM     96  C   UNL     1      -0.457   9.641 -20.606  1.00  0.00     0.173 A 
ATOM     97  F   UNL     1       2.250   7.211 -20.728  1.00  0.00    -0.203 F 
ATOM     98  C   UNL     1       1.502   8.742 -22.353  1.00  0.00     0.198 A 
ATOM     99  C   UNL     1      -0.367  10.176 -21.886  1.00  0.00     0.198 A 
ATOM    100  F   UNL     1      -1.419  10.090 -19.786  1.00  0.00    -0.203 F 
ATOM    101  F   UNL     1       2.466   8.328 -23.186  1.00  0.00    -0.200 F 
ATOM    102  C   UNL     1       0.615   9.730 -22.757  1.00  0.00     0.200 A 
ATOM    103  F   UNL     1      -1.240  11.112 -22.282  1.00  0.00    -0.200 F 
ATOM    104  F   UNL     1       0.707  10.252 -23.987  1.00  0.00    -0.200 F 
ENDBRANCH  71  94
ENDBRANCH  45  46
ENDBRANCH  37  40
ENDBRANCH  35  36
ENDBRANCH  34  35
ENDBRANCH  33  34
ENDBRANCH  32  33
ENDBRANCH   1  32
TORSDOF 17
