REMARK SMILES Cc1ccc(S(=O)(=O)Nc2cccc(F)c2C(=O)NCCCCCCNC(=O)c2ccc(-c3c4nc(c(-c5c(F)c(F)c(F)c(F)c5F)c5ccc([nH]5)c(-c5c(F)c(F)c(F)c(F)c5F)c5nc(c(-c6c(F)c(F)c(F)c(F)c6F)c6ccc3[nH]6)C=C5)C=C4)cc2)cc1Cl
REMARK SMILES IDX 22 1 21 2 20 3 19 4 17 5 18 6 16 8 10 9 11 10 12 11 14 12
REMARK SMILES IDX 13 13 15 14 9 15 6 17 7 18 8 19 5 20 1 21 2 22 3 23 93 24
REMARK SMILES IDX 4 25 92 26 94 27 23 28 24 29 25 30 26 31 27 32 28 34 29 35
REMARK SMILES IDX 30 36 91 37 31 38 90 39 32 40 33 41 34 42 84 43 35 44 89 45
REMARK SMILES IDX 83 46 85 47 36 48 88 49 82 50 81 51 37 53 69 54 49 55 68 56
REMARK SMILES IDX 50 57 53 58 67 59 86 60 51 61 52 62 66 64 87 65 54 66 38 67
REMARK SMILES IDX 39 68 47 69 40 70 41 71 45 72 48 73 42 74 43 75 46 76 44 77
REMARK SMILES IDX 70 78 71 79 79 80 72 81 73 82 77 83 80 84 74 85 75 86 78 87
REMARK SMILES IDX 76 88 55 89 56 90 64 91 57 92 58 93 62 94 65 95 59 96 60 97
REMARK SMILES IDX 63 98 61 99
REMARK H PARENT 19 7 9 16 26 33 85 52 53 63
REMARK Flexibility Score: inf
ROOT
ATOM      1  C   UNL     1     -10.532  -0.554   3.477  1.00  0.00     0.002 C 
ENDROOT
BRANCH   1   2
ATOM      2  C   UNL     1      -9.970   0.092   2.209  1.00  0.00     0.021 C 
BRANCH   2   3
ATOM      3  C   UNL     1      -8.487   0.450   2.198  1.00  0.00     0.116 C 
BRANCH   3   4
ATOM      4  N   UNL     1      -7.596  -0.676   2.393  1.00  0.00    -0.352 N 
ATOM      5  C   UNL     1      -6.384  -0.985   1.825  1.00  0.00     0.256 C 
ATOM      6  O   UNL     1      -5.805  -1.989   2.248  1.00  0.00    -0.269 OA
ATOM      7  H   UNL     1      -7.916  -1.337   3.049  1.00  0.00     0.163 HD
BRANCH   5   8
ATOM      8  C   UNL     1      -5.779  -0.245   0.681  1.00  0.00     0.099 A 
ATOM      9  C   UNL     1      -4.987  -0.948  -0.264  1.00  0.00     0.065 A 
ATOM     10  C   UNL     1      -4.562  -0.312  -1.439  1.00  0.00     0.028 A 
ATOM     11  C   UNL     1      -4.766   1.057  -1.602  1.00  0.00     0.005 A 
ATOM     12  C   UNL     1      -5.863   1.139   0.547  1.00  0.00     0.138 A 
ATOM     13  C   UNL     1      -5.373   1.789  -0.585  1.00  0.00     0.040 A 
ATOM     14  F   UNL     1      -6.335   1.905   1.540  1.00  0.00    -0.206 F 
BRANCH   9  15
ATOM     15  N   UNL     1      -4.536  -2.275   0.036  1.00  0.00    -0.279 N 
ATOM     16  H   UNL     1      -5.202  -2.948   0.306  1.00  0.00     0.180 HD
BRANCH  15  17
ATOM     17  S   UNL     1      -2.915  -2.736  -0.054  1.00  0.00     0.261 S 
ATOM     18  O   UNL     1      -2.680  -3.144  -1.432  1.00  0.00    -0.201 OA
ATOM     19  O   UNL     1      -2.692  -3.654   1.039  1.00  0.00    -0.201 OA
BRANCH  17  20
ATOM     20  C   UNL     1      -1.829  -1.347   0.231  1.00  0.00     0.089 A 
ATOM     21  C   UNL     1       0.730   2.130   0.172  1.00  0.00     0.046 C 
ATOM     22  C   UNL     1      -0.123   0.892   0.219  1.00  0.00    -0.032 A 
ATOM     23  C   UNL     1      -1.375   0.942   0.851  1.00  0.00     0.006 A 
ATOM     24  C   UNL     1       0.308  -0.333  -0.310  1.00  0.00     0.045 A 
ATOM     25  C   UNL     1      -2.208  -0.183   0.892  1.00  0.00     0.022 A 
ATOM     26  C   UNL     1      -0.549  -1.435  -0.330  1.00  0.00     0.043 A 
ATOM     27  Cl  UNL     1       1.893  -0.534  -0.964  1.00  0.00    -0.084 Cl
ENDBRANCH  17  20
ENDBRANCH  15  17
ENDBRANCH   9  15
ENDBRANCH   5   8
ENDBRANCH   3   4
ENDBRANCH   2   3
ENDBRANCH   1   2
BRANCH   1  28
ATOM     28  C   UNL     1     -10.271   0.158   4.806  1.00  0.00     0.002 C 
BRANCH  28  29
ATOM     29  C   UNL     1     -10.601   1.650   4.872  1.00  0.00     0.021 C 
BRANCH  29  30
ATOM     30  C   UNL     1     -12.003   2.061   4.432  1.00  0.00     0.116 C 
BRANCH  30  31
ATOM     31  N   UNL     1     -13.057   1.492   5.253  1.00  0.00    -0.352 N 
ATOM     32  C   UNL     1     -14.125   2.104   5.863  1.00  0.00     0.251 C 
ATOM     33  H   UNL     1     -12.997   0.519   5.394  1.00  0.00     0.163 HD
ATOM     34  O   UNL     1     -14.858   1.456   6.605  1.00  0.00    -0.269 OA
BRANCH  32  35
ATOM     35  C   UNL     1     -14.386   3.549   5.665  1.00  0.00     0.039 A 
ATOM     36  C   UNL     1     -14.706   4.327   6.783  1.00  0.00     0.014 A 
ATOM     37  C   UNL     1     -14.339   4.140   4.399  1.00  0.00     0.014 A 
ATOM     38  C   UNL     1     -14.904   5.704   6.644  1.00  0.00     0.010 A 
ATOM     39  C   UNL     1     -14.477   5.522   4.269  1.00  0.00     0.010 A 
ATOM     40  C   UNL     1     -14.753   6.319   5.391  1.00  0.00    -0.014 A 
BRANCH  40  41
ATOM     41  C   UNL     1     -14.854   7.795   5.243  1.00  0.00     0.031 A 
ATOM     42  C   UNL     1     -15.969   8.407   4.444  1.00  0.00     0.074 A 
ATOM     43  C   UNL     1     -13.903   8.582   5.782  1.00  0.00     0.049 A 
ATOM     44  N   UNL     1     -16.173   9.664   4.138  1.00  0.00    -0.248 NA
ATOM     45  C   UNL     1     -16.978   7.485   3.900  1.00  0.00     0.031 C 
ATOM     46  C   UNL     1     -12.754   8.109   6.554  1.00  0.00     0.029 A 
ATOM     47  N   UNL     1     -13.745   9.947   5.755  1.00  0.00    -0.354 N 
ATOM     48  C   UNL     1     -17.323   9.682   3.360  1.00  0.00     0.074 A 
ATOM     49  C   UNL     1     -17.750   8.309   3.204  1.00  0.00     0.031 C 
ATOM     50  C   UNL     1     -12.023   9.164   6.946  1.00  0.00     0.029 A 
ATOM     51  C   UNL     1     -12.627  10.385   6.420  1.00  0.00     0.049 A 
ATOM     52  H   UNL     1     -14.375  10.553   5.302  1.00  0.00     0.167 HD
ATOM     53  C   UNL     1     -17.972  10.751   2.841  1.00  0.00     0.037 A 
ATOM     54  C   UNL     1     -12.135  11.629   6.583  1.00  0.00     0.037 A 
ATOM     55  C   UNL     1     -17.563  12.119   3.022  1.00  0.00     0.049 A 
ATOM     56  C   UNL     1     -12.866  12.797   5.980  1.00  0.00     0.074 A 
ATOM     57  C   UNL     1     -18.193  13.271   2.583  1.00  0.00     0.029 A 
ATOM     58  N   UNL     1     -16.421  12.521   3.698  1.00  0.00    -0.354 N 
ATOM     59  N   UNL     1     -13.975  12.805   5.282  1.00  0.00    -0.248 NA
ATOM     60  C   UNL     1     -12.276  14.129   6.183  1.00  0.00     0.031 C 
ATOM     61  C   UNL     1     -17.411  14.367   2.956  1.00  0.00     0.029 A 
ATOM     62  C   UNL     1     -16.317  13.902   3.667  1.00  0.00     0.049 A 
ATOM     63  H   UNL     1     -15.780  11.915   4.135  1.00  0.00     0.167 HD
ATOM     64  C   UNL     1     -14.227  14.135   4.981  1.00  0.00     0.074 A 
ATOM     65  C   UNL     1     -13.162  14.911   5.579  1.00  0.00     0.031 C 
ATOM     66  C   UNL     1     -15.252  14.663   4.269  1.00  0.00     0.037 A 
BRANCH  53  67
ATOM     67  C   UNL     1     -19.210  10.495   2.033  1.00  0.00     0.064 A 
ATOM     68  C   UNL     1     -19.219  10.727   0.650  1.00  0.00     0.173 A 
ATOM     69  C   UNL     1     -20.410  10.096   2.640  1.00  0.00     0.173 A 
ATOM     70  F   UNL     1     -18.099  11.118   0.022  1.00  0.00    -0.203 F 
ATOM     71  C   UNL     1     -20.387  10.580  -0.094  1.00  0.00     0.198 A 
ATOM     72  C   UNL     1     -21.570   9.925   1.889  1.00  0.00     0.198 A 
ATOM     73  F   UNL     1     -20.450   9.853   3.959  1.00  0.00    -0.203 F 
ATOM     74  F   UNL     1     -20.379  10.837  -1.409  1.00  0.00    -0.200 F 
ATOM     75  C   UNL     1     -21.560  10.177   0.526  1.00  0.00     0.200 A 
ATOM     76  F   UNL     1     -22.697   9.514   2.486  1.00  0.00    -0.200 F 
ATOM     77  F   UNL     1     -22.681  10.028  -0.193  1.00  0.00    -0.200 F 
ENDBRANCH  53  67
BRANCH  54  78
ATOM     78  C   UNL     1     -10.895  11.829   7.375  1.00  0.00     0.064 A 
ATOM     79  C   UNL     1      -9.645  11.414   6.894  1.00  0.00     0.173 A 
ATOM     80  C   UNL     1     -10.945  12.412   8.648  1.00  0.00     0.173 A 
ATOM     81  F   UNL     1      -9.546  10.848   5.682  1.00  0.00    -0.203 F 
ATOM     82  C   UNL     1      -8.494  11.557   7.666  1.00  0.00     0.198 A 
ATOM     83  C   UNL     1      -9.790  12.576   9.410  1.00  0.00     0.198 A 
ATOM     84  F   UNL     1     -12.115  12.844   9.141  1.00  0.00    -0.203 F 
ATOM     85  F   UNL     1      -7.317  11.122   7.196  1.00  0.00    -0.200 F 
ATOM     86  C   UNL     1      -8.567  12.140   8.922  1.00  0.00     0.200 A 
ATOM     87  F   UNL     1      -9.861  13.161  10.613  1.00  0.00    -0.200 F 
ATOM     88  F   UNL     1      -7.458  12.285   9.660  1.00  0.00    -0.200 F 
ENDBRANCH  54  78
BRANCH  66  89
ATOM     89  C   UNL     1     -15.291  16.153   4.102  1.00  0.00     0.064 A 
ATOM     90  C   UNL     1     -16.258  16.919   4.771  1.00  0.00     0.173 A 
ATOM     91  C   UNL     1     -14.430  16.810   3.213  1.00  0.00     0.173 A 
ATOM     92  F   UNL     1     -17.110  16.334   5.627  1.00  0.00    -0.203 F 
ATOM     93  C   UNL     1     -16.374  18.286   4.540  1.00  0.00     0.198 A 
ATOM     94  C   UNL     1     -14.533  18.182   3.002  1.00  0.00     0.198 A 
ATOM     95  F   UNL     1     -13.481  16.122   2.560  1.00  0.00    -0.203 F 
ATOM     96  F   UNL     1     -17.328  18.992   5.162  1.00  0.00    -0.200 F 
ATOM     97  C   UNL     1     -15.511  18.917   3.656  1.00  0.00     0.200 A 
ATOM     98  F   UNL     1     -13.685  18.794   2.163  1.00  0.00    -0.200 F 
ATOM     99  F   UNL     1     -15.621  20.234   3.436  1.00  0.00    -0.200 F 
ENDBRANCH  66  89
ENDBRANCH  40  41
ENDBRANCH  32  35
ENDBRANCH  30  31
ENDBRANCH  29  30
ENDBRANCH  28  29
ENDBRANCH   1  28
TORSDOF 16
