REMARK SMILES O=C(C[C@H]([NH2+]Cc1ccco1)C(=O)Nc1cccc(O)c1)NCCCCCCNC(=O)c1ccc(-c2c3nc(c(-c4c(F)c(F)c(F)c(F)c4F)c4ccc([nH]4)c(-c4c(F)c(F)c(F)c(F)c4F)c4nc(c(-c5c(F)c(F)c(F)c(F)c5F)c5ccc2[nH]5)C=C4)C=C3)cc1
REMARK SMILES IDX 24 1 23 2 22 3 1 4 2 5 3 7 4 8 12 9 13 10 14 11 15 13 16 14
REMARK SMILES IDX 21 15 17 16 19 17 18 18 20 19 5 21 6 24 7 25 8 26 11 27 9 28
REMARK SMILES IDX 10 29 25 30 26 31 27 32 28 33 29 34 30 35 31 37 32 38 33 39
REMARK SMILES IDX 94 40 34 41 93 42 35 43 36 44 37 45 87 46 38 47 92 48 86 49
REMARK SMILES IDX 88 50 39 51 91 52 85 53 84 54 40 56 72 57 52 58 71 59 53 60
REMARK SMILES IDX 56 61 70 62 89 63 54 64 55 65 69 67 90 68 57 69 41 70 42 71
REMARK SMILES IDX 50 72 43 73 44 74 48 75 51 76 45 77 46 78 49 79 47 80 73 81
REMARK SMILES IDX 74 82 82 83 75 84 76 85 80 86 83 87 77 88 78 89 81 90 79 91
REMARK SMILES IDX 58 92 59 93 67 94 60 95 61 96 65 97 68 98 62 99 63 100
REMARK SMILES IDX 66 101 64 102
REMARK H PARENT 22 6 14 12 20 20 5 22 5 23 29 36 88 55 56 66
REMARK Flexibility Score: inf
ROOT
ATOM      1  C   UNL     1       2.923  -2.194  -4.392  1.00  0.00     0.021 C 
ENDROOT
BRANCH   1   2
ATOM      2  C   UNL     1       2.561  -1.199  -3.290  1.00  0.00     0.116 C 
BRANCH   2   3
ATOM      3  N   UNL     1       3.221  -1.537  -2.047  1.00  0.00    -0.356 N 
ATOM      4  O   UNL     1       4.580   0.304  -2.011  1.00  0.00    -0.275 OA
ATOM      5  C   UNL     1       4.208  -0.751  -1.505  1.00  0.00     0.226 C 
ATOM      6  H   UNL     1       2.953  -2.358  -1.573  1.00  0.00     0.163 HD
BRANCH   5   7
ATOM      7  C   UNL     1       4.871  -1.324  -0.276  1.00  0.00     0.175 C 
BRANCH   7   8
ATOM      8  C   UNL     1       3.930  -1.726   0.873  1.00  0.00     0.282 C 
BRANCH   8   9
ATOM      9  C   UNL     1       4.764  -2.024   2.146  1.00  0.00     0.283 C 
ATOM     10  O   UNL     1       4.689  -3.151   2.658  1.00  0.00    -0.268 OA
ATOM     11  N   UNL     1       5.665  -1.145   2.685  1.00  0.00    -0.321 N 
ATOM     12  H   UNL     1       6.253  -1.540   3.369  1.00  0.00     0.170 HD
BRANCH  11  13
ATOM     13  C   UNL     1       5.902   0.218   2.440  1.00  0.00     0.045 A 
ATOM     14  C   UNL     1       4.892   1.145   2.187  1.00  0.00     0.026 A 
ATOM     15  C   UNL     1       7.227   0.658   2.459  1.00  0.00     0.072 A 
ATOM     16  C   UNL     1       5.196   2.463   1.839  1.00  0.00     0.006 A 
ATOM     17  C   UNL     1       7.526   1.972   2.104  1.00  0.00     0.117 A 
ATOM     18  C   UNL     1       6.522   2.876   1.775  1.00  0.00     0.046 A 
BRANCH  17  19
ATOM     19  O   UNL     1       8.840   2.336   2.067  1.00  0.00    -0.508 OA
ATOM     20  H   UNL     1       9.077   3.212   1.833  1.00  0.00     0.293 HD
ENDBRANCH  17  19
ENDBRANCH  11  13
ENDBRANCH   8   9
BRANCH   8  21
ATOM     21  N   UNL     1       2.828  -0.803   1.159  1.00  0.00    -0.329 N 
ATOM     22  H   UNL     1       2.371  -0.570   0.278  1.00  0.00     0.347 HD
ATOM     23  H   UNL     1       3.241   0.007   1.621  1.00  0.00     0.347 HD
BRANCH  21  24
ATOM     24  C   UNL     1       1.816  -1.333   2.073  1.00  0.00     0.337 C 
BRANCH  24  25
ATOM     25  C   UNL     1       0.950  -0.229   2.580  1.00  0.00     0.157 A 
ATOM     26  C   UNL     1       0.416   0.049   3.822  1.00  0.00     0.052 A 
ATOM     27  O   UNL     1       0.591   0.750   1.694  1.00  0.00    -0.463 OA
ATOM     28  C   UNL     1      -0.280   1.275   3.696  1.00  0.00     0.042 A 
ATOM     29  C   UNL     1      -0.134   1.665   2.386  1.00  0.00     0.195 A 
ENDBRANCH  24  25
ENDBRANCH  21  24
ENDBRANCH   8  21
ENDBRANCH   7   8
ENDBRANCH   5   7
ENDBRANCH   2   3
ENDBRANCH   1   2
BRANCH   1  30
ATOM     30  C   UNL     1       2.543  -3.648  -4.077  1.00  0.00     0.002 C 
BRANCH  30  31
ATOM     31  C   UNL     1       1.063  -3.881  -3.759  1.00  0.00     0.002 C 
BRANCH  31  32
ATOM     32  C   UNL     1       0.090  -3.429  -4.848  1.00  0.00     0.021 C 
BRANCH  32  33
ATOM     33  C   UNL     1       0.317  -4.073  -6.211  1.00  0.00     0.116 C 
BRANCH  33  34
ATOM     34  N   UNL     1       0.106  -5.512  -6.186  1.00  0.00    -0.352 N 
ATOM     35  C   UNL     1      -0.700  -6.287  -6.983  1.00  0.00     0.251 C 
ATOM     36  H   UNL     1       0.614  -6.001  -5.499  1.00  0.00     0.163 HD
ATOM     37  O   UNL     1      -0.891  -7.468  -6.710  1.00  0.00    -0.269 OA
BRANCH  35  38
ATOM     38  C   UNL     1      -1.362  -5.687  -8.160  1.00  0.00     0.039 A 
ATOM     39  C   UNL     1      -2.716  -5.953  -8.382  1.00  0.00     0.014 A 
ATOM     40  C   UNL     1      -0.656  -4.857  -9.035  1.00  0.00     0.014 A 
ATOM     41  C   UNL     1      -3.379  -5.326  -9.439  1.00  0.00     0.010 A 
ATOM     42  C   UNL     1      -1.335  -4.174 -10.040  1.00  0.00     0.010 A 
ATOM     43  C   UNL     1      -2.704  -4.399 -10.250  1.00  0.00    -0.014 A 
BRANCH  43  44
ATOM     44  C   UNL     1      -3.418  -3.640 -11.310  1.00  0.00     0.031 A 
ATOM     45  C   UNL     1      -3.033  -3.807 -12.753  1.00  0.00     0.074 A 
ATOM     46  C   UNL     1      -4.365  -2.746 -10.964  1.00  0.00     0.049 A 
ATOM     47  N   UNL     1      -3.486  -3.179 -13.809  1.00  0.00    -0.248 NA
ATOM     48  C   UNL     1      -1.981  -4.792 -13.046  1.00  0.00     0.031 C 
ATOM     49  C   UNL     1      -4.794  -2.458  -9.594  1.00  0.00     0.029 A 
ATOM     50  N   UNL     1      -5.127  -1.903 -11.734  1.00  0.00    -0.354 N 
ATOM     51  C   UNL     1      -2.768  -3.683 -14.885  1.00  0.00     0.074 A 
ATOM     52  C   UNL     1      -1.811  -4.627 -14.349  1.00  0.00     0.031 C 
ATOM     53  C   UNL     1      -5.753  -1.520  -9.622  1.00  0.00     0.029 A 
ATOM     54  C   UNL     1      -5.976  -1.107 -11.004  1.00  0.00     0.049 A 
ATOM     55  H   UNL     1      -5.071  -1.873 -12.716  1.00  0.00     0.167 HD
ATOM     56  C   UNL     1      -2.910  -3.401 -16.203  1.00  0.00     0.037 A 
ATOM     57  C   UNL     1      -6.826  -0.141 -11.401  1.00  0.00     0.037 A 
ATOM     58  C   UNL     1      -3.873  -2.470 -16.731  1.00  0.00     0.049 A 
ATOM     59  C   UNL     1      -6.948   0.171 -12.869  1.00  0.00     0.074 A 
ATOM     60  C   UNL     1      -4.137  -2.159 -18.054  1.00  0.00     0.029 A 
ATOM     61  N   UNL     1      -4.724  -1.689 -15.961  1.00  0.00    -0.354 N 
ATOM     62  N   UNL     1      -6.319  -0.368 -13.885  1.00  0.00    -0.248 NA
ATOM     63  C   UNL     1      -7.903   1.222 -13.245  1.00  0.00     0.031 C 
ATOM     64  C   UNL     1      -5.102  -1.148 -18.082  1.00  0.00     0.029 A 
ATOM     65  C   UNL     1      -5.489  -0.874 -16.781  1.00  0.00     0.049 A 
ATOM     66  H   UNL     1      -4.776  -1.711 -14.979  1.00  0.00     0.167 HD
ATOM     67  C   UNL     1      -6.820   0.257 -15.020  1.00  0.00     0.074 A 
ATOM     68  C   UNL     1      -7.818   1.203 -14.568  1.00  0.00     0.031 C 
ATOM     69  C   UNL     1      -6.483   0.063 -16.318  1.00  0.00     0.037 A 
BRANCH  56  70
ATOM     70  C   UNL     1      -1.996  -4.104 -17.167  1.00  0.00     0.064 A 
ATOM     71  C   UNL     1      -2.091  -5.485 -17.401  1.00  0.00     0.173 A 
ATOM     72  C   UNL     1      -1.036  -3.383 -17.892  1.00  0.00     0.173 A 
ATOM     73  F   UNL     1      -2.987  -6.224 -16.729  1.00  0.00    -0.203 F 
ATOM     74  C   UNL     1      -1.236  -6.121 -18.298  1.00  0.00     0.198 A 
ATOM     75  C   UNL     1      -0.206  -4.017 -18.814  1.00  0.00     0.198 A 
ATOM     76  F   UNL     1      -0.905  -2.059 -17.714  1.00  0.00    -0.203 F 
ATOM     77  F   UNL     1      -1.309  -7.450 -18.462  1.00  0.00    -0.200 F 
ATOM     78  C   UNL     1      -0.300  -5.386 -19.008  1.00  0.00     0.200 A 
ATOM     79  F   UNL     1       0.687  -3.302 -19.512  1.00  0.00    -0.200 F 
ATOM     80  F   UNL     1       0.517  -5.999 -19.876  1.00  0.00    -0.200 F 
ENDBRANCH  56  70
BRANCH  57  81
ATOM     81  C   UNL     1      -7.633   0.597 -10.394  1.00  0.00     0.064 A 
ATOM     82  C   UNL     1      -9.025   0.444 -10.331  1.00  0.00     0.173 A 
ATOM     83  C   UNL     1      -7.032   1.472  -9.477  1.00  0.00     0.173 A 
ATOM     84  F   UNL     1      -9.650  -0.365 -11.199  1.00  0.00    -0.203 F 
ATOM     85  C   UNL     1      -9.787   1.154  -9.405  1.00  0.00     0.198 A 
ATOM     86  C   UNL     1      -7.791   2.157  -8.530  1.00  0.00     0.198 A 
ATOM     87  F   UNL     1      -5.703   1.651  -9.490  1.00  0.00    -0.203 F 
ATOM     88  F   UNL     1     -11.121   1.027  -9.400  1.00  0.00    -0.200 F 
ATOM     89  C   UNL     1      -9.169   2.005  -8.501  1.00  0.00     0.200 A 
ATOM     90  F   UNL     1      -7.188   2.964  -7.647  1.00  0.00    -0.200 F 
ATOM     91  F   UNL     1      -9.901   2.683  -7.607  1.00  0.00    -0.200 F 
ENDBRANCH  57  81
BRANCH  69  92
ATOM     92  C   UNL     1      -7.221   0.866 -17.352  1.00  0.00     0.064 A 
ATOM     93  C   UNL     1      -7.021   2.247 -17.497  1.00  0.00     0.173 A 
ATOM     94  C   UNL     1      -8.108   0.235 -18.238  1.00  0.00     0.173 A 
ATOM     95  F   UNL     1      -6.195   2.900 -16.666  1.00  0.00    -0.203 F 
ATOM     96  C   UNL     1      -7.700   2.970 -18.474  1.00  0.00     0.198 A 
ATOM     97  C   UNL     1      -8.759   0.955 -19.236  1.00  0.00     0.198 A 
ATOM     98  F   UNL     1      -8.332  -1.084 -18.148  1.00  0.00    -0.203 F 
ATOM     99  F   UNL     1      -7.531   4.297 -18.561  1.00  0.00    -0.200 F 
ATOM    100  C   UNL     1      -8.561   2.323 -19.348  1.00  0.00     0.200 A 
ATOM    101  F   UNL     1      -9.578   0.325 -20.090  1.00  0.00    -0.200 F 
ATOM    102  F   UNL     1      -9.205   3.019 -20.294  1.00  0.00    -0.200 F 
ENDBRANCH  69  92
ENDBRANCH  43  44
ENDBRANCH  35  38
ENDBRANCH  33  34
ENDBRANCH  32  33
ENDBRANCH  31  32
ENDBRANCH  30  31
ENDBRANCH   1  30
TORSDOF 20
