REMARK SMILES Cc1ccc(NC(=O)C[C@H]([NH2+]Cc2cccnc2)C(=O)NCCCCCCNC(=O)c2ccc(-c3c4nc(c(-c5c(F)c(F)c(F)c(F)c5F)c5ccc([nH]5)c(-c5c(F)c(F)c(F)c(F)c5F)c5nc(c(-c6c(F)c(F)c(F)c(F)c6F)c6ccc3[nH]6)C=C5)C=C4)cc2)cc1Cl
REMARK SMILES IDX 24 1 23 2 22 3 21 4 19 5 20 6 10 8 9 9 7 10 6 11 8 13 5 14
REMARK SMILES IDX 1 15 2 16 3 17 95 18 4 19 94 20 96 21 11 22 12 25 13 26
REMARK SMILES IDX 14 27 18 28 15 29 17 30 16 31 25 32 26 33 27 34 28 35 29 36
REMARK SMILES IDX 30 38 31 39 32 40 93 41 33 42 92 43 34 44 35 45 36 46 86 47
REMARK SMILES IDX 37 48 91 49 85 50 87 51 38 52 90 53 84 54 83 55 39 57 71 58
REMARK SMILES IDX 51 59 70 60 52 61 55 62 69 63 88 64 53 65 54 66 68 68 89 69
REMARK SMILES IDX 56 70 40 71 41 72 49 73 42 74 43 75 47 76 50 77 44 78 45 79
REMARK SMILES IDX 48 80 46 81 72 82 73 83 81 84 74 85 75 86 79 87 82 88 76 89
REMARK SMILES IDX 77 90 80 91 78 92 57 93 58 94 66 95 59 96 60 97 64 98 67 99
REMARK SMILES IDX 61 100 62 101 65 102 63 103
REMARK H PARENT 21 7 6 12 11 23 11 24 28 37 87 56 55 67
REMARK Flexibility Score: inf
ROOT
ATOM      1  C   UNL     1       4.457  -2.447   1.961  1.00  0.00     0.002 C 
ENDROOT
BRANCH   1   2
ATOM      2  C   UNL     1       3.093  -2.837   1.391  1.00  0.00     0.021 C 
BRANCH   2   3
ATOM      3  C   UNL     1       2.672  -2.132   0.091  1.00  0.00     0.116 C 
BRANCH   3   4
ATOM      4  N   UNL     1       2.211  -3.077  -0.932  1.00  0.00    -0.351 N 
ATOM      5  C   UNL     1       1.050  -3.382  -1.569  1.00  0.00     0.278 C 
ATOM      6  O   UNL     1       1.143  -4.291  -2.412  1.00  0.00    -0.268 OA
ATOM      7  H   UNL     1       2.949  -3.650  -1.244  1.00  0.00     0.163 HD
BRANCH   5   8
ATOM      8  C   UNL     1      -0.370  -2.787  -1.296  1.00  0.00     0.282 C 
BRANCH   8   9
ATOM      9  C   UNL     1      -0.412  -1.390  -0.718  1.00  0.00     0.175 C 
BRANCH   9  10
ATOM     10  C   UNL     1      -0.640  -0.933   0.713  1.00  0.00     0.230 C 
ATOM     11  N   UNL     1      -0.583  -1.550   1.906  1.00  0.00    -0.326 N 
ATOM     12  H   UNL     1      -0.799  -0.907   2.619  1.00  0.00     0.169 HD
ATOM     13  O   UNL     1      -0.915   0.281   0.829  1.00  0.00    -0.274 OA
BRANCH  11  14
ATOM     14  C   UNL     1      -0.318  -2.806   2.475  1.00  0.00     0.042 A 
ATOM     15  C   UNL     1       0.234  -6.601   4.516  1.00  0.00     0.046 C 
ATOM     16  C   UNL     1       0.086  -5.285   3.815  1.00  0.00    -0.032 A 
ATOM     17  C   UNL     1      -0.346  -4.152   4.514  1.00  0.00     0.007 A 
ATOM     18  C   UNL     1       0.333  -5.153   2.450  1.00  0.00     0.046 A 
ATOM     19  C   UNL     1      -0.545  -2.933   3.851  1.00  0.00     0.026 A 
ATOM     20  C   UNL     1       0.158  -3.921   1.815  1.00  0.00     0.047 A 
ATOM     21  Cl  UNL     1       0.865  -6.485   1.484  1.00  0.00    -0.084 Cl
ENDBRANCH  11  14
ENDBRANCH   9  10
ENDBRANCH   8   9
BRANCH   8  22
ATOM     22  N   UNL     1      -1.234  -3.838  -0.734  1.00  0.00    -0.332 N 
ATOM     23  H   UNL     1      -0.854  -4.081   0.181  1.00  0.00     0.347 HD
ATOM     24  H   UNL     1      -1.219  -4.576  -1.438  1.00  0.00     0.347 HD
BRANCH  22  25
ATOM     25  C   UNL     1      -2.649  -3.550  -0.549  1.00  0.00     0.299 C 
BRANCH  25  26
ATOM     26  C   UNL     1      -3.144  -4.200   0.722  1.00  0.00     0.024 A 
ATOM     27  C   UNL     1      -3.094  -5.584   0.921  1.00  0.00     0.013 A 
ATOM     28  C   UNL     1      -3.608  -3.429   1.787  1.00  0.00     0.120 A 
ATOM     29  C   UNL     1      -3.466  -6.124   2.151  1.00  0.00     0.021 A 
ATOM     30  N   UNL     1      -3.985  -3.925   2.991  1.00  0.00    -0.264 NA
ATOM     31  C   UNL     1      -3.893  -5.262   3.146  1.00  0.00     0.111 A 
ENDBRANCH  25  26
ENDBRANCH  22  25
ENDBRANCH   8  22
ENDBRANCH   5   8
ENDBRANCH   3   4
ENDBRANCH   2   3
ENDBRANCH   1   2
BRANCH   1  32
ATOM     32  C   UNL     1       4.608  -0.989   2.402  1.00  0.00     0.002 C 
BRANCH  32  33
ATOM     33  C   UNL     1       3.645  -0.488   3.487  1.00  0.00     0.021 C 
BRANCH  33  34
ATOM     34  C   UNL     1       3.619  -1.270   4.803  1.00  0.00     0.116 C 
BRANCH  34  35
ATOM     35  N   UNL     1       4.930  -1.373   5.430  1.00  0.00    -0.352 N 
ATOM     36  C   UNL     1       5.423  -0.882   6.606  1.00  0.00     0.251 C 
ATOM     37  H   UNL     1       5.583  -1.894   4.908  1.00  0.00     0.163 HD
ATOM     38  O   UNL     1       6.638  -0.981   6.827  1.00  0.00    -0.269 OA
BRANCH  36  39
ATOM     39  C   UNL     1       4.571  -0.226   7.624  1.00  0.00     0.039 A 
ATOM     40  C   UNL     1       5.098   0.870   8.322  1.00  0.00     0.014 A 
ATOM     41  C   UNL     1       3.309  -0.717   7.977  1.00  0.00     0.014 A 
ATOM     42  C   UNL     1       4.351   1.498   9.323  1.00  0.00     0.010 A 
ATOM     43  C   UNL     1       2.540  -0.052   8.940  1.00  0.00     0.010 A 
ATOM     44  C   UNL     1       3.052   1.060   9.624  1.00  0.00    -0.014 A 
BRANCH  44  45
ATOM     45  C   UNL     1       2.228   1.776  10.637  1.00  0.00     0.031 A 
ATOM     46  C   UNL     1       1.843   1.116  11.933  1.00  0.00     0.074 A 
ATOM     47  C   UNL     1       1.793   3.024  10.373  1.00  0.00     0.049 A 
ATOM     48  N   UNL     1       1.129   1.590  12.925  1.00  0.00    -0.248 NA
ATOM     49  C   UNL     1       2.303  -0.265  12.135  1.00  0.00     0.031 C 
ATOM     50  C   UNL     1       2.054   3.763   9.137  1.00  0.00     0.029 A 
ATOM     51  N   UNL     1       1.038   3.891  11.124  1.00  0.00    -0.354 N 
ATOM     52  C   UNL     1       1.042   0.565  13.858  1.00  0.00     0.074 A 
ATOM     53  C   UNL     1       1.742  -0.572  13.296  1.00  0.00     0.031 C 
ATOM     54  C   UNL     1       1.494   4.979   9.225  1.00  0.00     0.029 A 
ATOM     55  C   UNL     1       0.810   5.098  10.509  1.00  0.00     0.049 A 
ATOM     56  H   UNL     1       0.693   3.668  12.019  1.00  0.00     0.167 HD
ATOM     57  C   UNL     1       0.449   0.575  15.077  1.00  0.00     0.037 A 
ATOM     58  C   UNL     1       0.130   6.180  10.932  1.00  0.00     0.037 A 
ATOM     59  C   UNL     1      -0.225   1.713  15.650  1.00  0.00     0.049 A 
ATOM     60  C   UNL     1      -0.507   6.168  12.295  1.00  0.00     0.074 A 
ATOM     61  C   UNL     1      -0.790   1.840  16.907  1.00  0.00     0.029 A 
ATOM     62  N   UNL     1      -0.427   2.921  15.000  1.00  0.00    -0.354 N 
ATOM     63  N   UNL     1      -0.515   5.219  13.197  1.00  0.00    -0.248 NA
ATOM     64  C   UNL     1      -1.223   7.387  12.699  1.00  0.00     0.031 C 
ATOM     65  C   UNL     1      -1.373   3.109  17.002  1.00  0.00     0.029 A 
ATOM     66  C   UNL     1      -1.130   3.790  15.821  1.00  0.00     0.049 A 
ATOM     67  H   UNL     1      -0.117   3.131  14.089  1.00  0.00     0.167 HD
ATOM     68  C   UNL     1      -1.211   5.731  14.283  1.00  0.00     0.074 A 
ATOM     69  C   UNL     1      -1.594   7.083  13.934  1.00  0.00     0.031 C 
ATOM     70  C   UNL     1      -1.508   5.133  15.463  1.00  0.00     0.037 A 
BRANCH  57  71
ATOM     71  C   UNL     1       0.499  -0.692  15.884  1.00  0.00     0.064 A 
ATOM     72  C   UNL     1       1.691  -1.147  16.468  1.00  0.00     0.173 A 
ATOM     73  C   UNL     1      -0.669  -1.435  16.115  1.00  0.00     0.173 A 
ATOM     74  F   UNL     1       2.837  -0.477  16.272  1.00  0.00    -0.203 F 
ATOM     75  C   UNL     1       1.718  -2.314  17.227  1.00  0.00     0.198 A 
ATOM     76  C   UNL     1      -0.644  -2.586  16.898  1.00  0.00     0.198 A 
ATOM     77  F   UNL     1      -1.838  -1.040  15.588  1.00  0.00    -0.203 F 
ATOM     78  F   UNL     1       2.877  -2.753  17.736  1.00  0.00    -0.200 F 
ATOM     79  C   UNL     1       0.550  -3.029  17.447  1.00  0.00     0.200 A 
ATOM     80  F   UNL     1      -1.776  -3.269  17.120  1.00  0.00    -0.200 F 
ATOM     81  F   UNL     1       0.576  -4.149  18.183  1.00  0.00    -0.200 F 
ENDBRANCH  57  71
BRANCH  58  82
ATOM     82  C   UNL     1       0.048   7.386  10.069  1.00  0.00     0.064 A 
ATOM     83  C   UNL     1       0.738   8.558  10.408  1.00  0.00     0.173 A 
ATOM     84  C   UNL     1      -0.723   7.396   8.898  1.00  0.00     0.173 A 
ATOM     85  F   UNL     1       1.469   8.603  11.532  1.00  0.00    -0.203 F 
ATOM     86  C   UNL     1       0.647   9.701   9.617  1.00  0.00     0.198 A 
ATOM     87  C   UNL     1      -0.791   8.531   8.093  1.00  0.00     0.198 A 
ATOM     88  F   UNL     1      -1.400   6.299   8.530  1.00  0.00    -0.203 F 
ATOM     89  F   UNL     1       1.283  10.821   9.987  1.00  0.00    -0.200 F 
ATOM     90  C   UNL     1      -0.112   9.685   8.457  1.00  0.00     0.200 A 
ATOM     91  F   UNL     1      -1.517   8.509   6.967  1.00  0.00    -0.200 F 
ATOM     92  F   UNL     1      -0.197  10.783   7.694  1.00  0.00    -0.200 F 
ENDBRANCH  58  82
BRANCH  70  93
ATOM     93  C   UNL     1      -2.264   5.950  16.471  1.00  0.00     0.064 A 
ATOM     94  C   UNL     1      -3.618   6.273  16.290  1.00  0.00     0.173 A 
ATOM     95  C   UNL     1      -1.630   6.410  17.635  1.00  0.00     0.173 A 
ATOM     96  F   UNL     1      -4.265   5.872  15.185  1.00  0.00    -0.203 F 
ATOM     97  C   UNL     1      -4.298   7.053  17.221  1.00  0.00     0.198 A 
ATOM     98  C   UNL     1      -2.321   7.165  18.578  1.00  0.00     0.198 A 
ATOM     99  F   UNL     1      -0.338   6.125  17.859  1.00  0.00    -0.203 F 
ATOM    100  F   UNL     1      -5.574   7.397  16.999  1.00  0.00    -0.200 F 
ATOM    101  C   UNL     1      -3.651   7.495  18.365  1.00  0.00     0.200 A 
ATOM    102  F   UNL     1      -1.698   7.582  19.689  1.00  0.00    -0.200 F 
ATOM    103  F   UNL     1      -4.307   8.248  19.259  1.00  0.00    -0.200 F 
ENDBRANCH  70  93
ENDBRANCH  44  45
ENDBRANCH  36  39
ENDBRANCH  34  35
ENDBRANCH  33  34
ENDBRANCH  32  33
ENDBRANCH   1  32
TORSDOF 19
