REMARK SMILES O=C(NCCCCCCNC(=O)[C@H]1[NH2+][C@@H]2CC[C@H]1CC2(F)F)c1ccc(-c2c3nc(c(-c4c(F)c(F)c(F)c(F)c4F)c4ccc([nH]4)c(-c4c(F)c(F)c(F)c(F)c4F)c4nc(c(-c5c(F)c(F)c(F)c(F)c5F)c5ccc2[nH]5)C=C4)C=C3)cc1
REMARK SMILES IDX 5 1 4 2 3 3 1 4 2 5 23 7 24 8 85 9 25 10 84 11 26 12 27 13
REMARK SMILES IDX 28 14 78 15 29 16 83 17 77 18 79 19 30 20 82 21 76 22 75 23
REMARK SMILES IDX 31 25 63 26 43 27 62 28 44 29 47 30 61 31 80 32 45 33 46 34
REMARK SMILES IDX 60 36 81 37 48 38 32 39 33 40 41 41 34 42 35 43 39 44 42 45
REMARK SMILES IDX 36 46 37 47 40 48 38 49 64 50 65 51 73 52 66 53 67 54 71 55
REMARK SMILES IDX 74 56 68 57 69 58 72 59 70 60 49 61 50 62 58 63 51 64 52 65
REMARK SMILES IDX 56 66 59 67 53 68 54 69 57 70 55 71 6 72 7 73 8 74 9 75
REMARK SMILES IDX 10 76 11 77 12 79 13 80 14 81 18 82 15 83 17 86 19 87 16 88
REMARK SMILES IDX 20 89 21 90 22 91
REMARK H PARENT 3 6 79 24 47 35 10 78 14 84 14 85
REMARK Flexibility Score: inf
ROOT
ATOM      1  C   UNL     1      14.261  -9.585  -5.763  1.00  0.00     0.021 C 
ENDROOT
BRANCH   1   2
ATOM      2  C   UNL     1      14.091 -11.098  -5.711  1.00  0.00     0.116 C 
BRANCH   2   3
ATOM      3  N   UNL     1      14.741 -11.769  -6.824  1.00  0.00    -0.352 N 
ATOM      4  O   UNL     1      16.247 -13.107  -7.839  1.00  0.00    -0.269 OA
ATOM      5  C   UNL     1      15.679 -12.773  -6.809  1.00  0.00     0.251 C 
ATOM      6  H   UNL     1      14.469 -11.459  -7.719  1.00  0.00     0.163 HD
BRANCH   5   7
ATOM      7  C   UNL     1      16.020 -13.434  -5.530  1.00  0.00     0.039 A 
ATOM      8  C   UNL     1      15.017 -13.828  -4.642  1.00  0.00     0.014 A 
ATOM      9  C   UNL     1      17.363 -13.662  -5.218  1.00  0.00     0.014 A 
ATOM     10  C   UNL     1      15.360 -14.307  -3.383  1.00  0.00     0.010 A 
ATOM     11  C   UNL     1      17.704 -14.225  -3.984  1.00  0.00     0.010 A 
ATOM     12  C   UNL     1      16.706 -14.517  -3.041  1.00  0.00    -0.014 A 
BRANCH  12  13
ATOM     13  C   UNL     1      17.034 -15.074  -1.704  1.00  0.00     0.031 A 
ATOM     14  C   UNL     1      17.796 -14.266  -0.691  1.00  0.00     0.074 A 
ATOM     15  C   UNL     1      16.596 -16.308  -1.392  1.00  0.00     0.049 A 
ATOM     16  N   UNL     1      18.119 -14.579   0.540  1.00  0.00    -0.248 NA
ATOM     17  C   UNL     1      18.268 -12.938  -1.112  1.00  0.00     0.031 C 
ATOM     18  C   UNL     1      15.862 -17.193  -2.299  1.00  0.00     0.029 A 
ATOM     19  N   UNL     1      16.678 -17.024  -0.225  1.00  0.00    -0.354 N 
ATOM     20  C   UNL     1      18.849 -13.503   1.029  1.00  0.00     0.074 A 
ATOM     21  C   UNL     1      18.943 -12.536  -0.044  1.00  0.00     0.031 C 
ATOM     22  C   UNL     1      15.509 -18.305  -1.639  1.00  0.00     0.029 A 
ATOM     23  C   UNL     1      16.040 -18.238  -0.282  1.00  0.00     0.049 A 
ATOM     24  H   UNL     1      17.148 -16.698   0.576  1.00  0.00     0.167 HD
ATOM     25  C   UNL     1      19.384 -13.337   2.263  1.00  0.00     0.037 A 
ATOM     26  C   UNL     1      15.899 -19.194   0.654  1.00  0.00     0.037 A 
ATOM     27  C   UNL     1      19.263 -14.290   3.337  1.00  0.00     0.049 A 
ATOM     28  C   UNL     1      16.497 -18.978   2.014  1.00  0.00     0.074 A 
ATOM     29  C   UNL     1      19.732 -14.192   4.636  1.00  0.00     0.029 A 
ATOM     30  N   UNL     1      18.627 -15.519   3.235  1.00  0.00    -0.354 N 
ATOM     31  N   UNL     1      17.149 -17.939   2.475  1.00  0.00    -0.248 NA
ATOM     32  C   UNL     1      16.338 -20.069   2.984  1.00  0.00     0.031 C 
ATOM     33  C   UNL     1      19.416 -15.379   5.308  1.00  0.00     0.029 A 
ATOM     34  C   UNL     1      18.707 -16.196   4.442  1.00  0.00     0.049 A 
ATOM     35  H   UNL     1      18.183 -15.859   2.425  1.00  0.00     0.167 HD
ATOM     36  C   UNL     1      17.461 -18.240   3.793  1.00  0.00     0.074 A 
ATOM     37  C   UNL     1      16.908 -19.552   4.063  1.00  0.00     0.031 C 
ATOM     38  C   UNL     1      18.146 -17.498   4.696  1.00  0.00     0.037 A 
BRANCH  25  39
ATOM     39  C   UNL     1      20.170 -12.083   2.520  1.00  0.00     0.064 A 
ATOM     40  C   UNL     1      19.547 -10.832   2.646  1.00  0.00     0.173 A 
ATOM     41  C   UNL     1      21.562 -12.141   2.688  1.00  0.00     0.173 A 
ATOM     42  F   UNL     1      18.220 -10.720   2.484  1.00  0.00    -0.203 F 
ATOM     43  C   UNL     1      20.291  -9.684   2.908  1.00  0.00     0.198 A 
ATOM     44  C   UNL     1      22.300 -10.995   2.976  1.00  0.00     0.198 A 
ATOM     45  F   UNL     1      22.207 -13.312   2.584  1.00  0.00    -0.203 F 
ATOM     46  F   UNL     1      19.679  -8.494   2.984  1.00  0.00    -0.200 F 
ATOM     47  C   UNL     1      21.665  -9.767   3.079  1.00  0.00     0.200 A 
ATOM     48  F   UNL     1      23.625 -11.080   3.153  1.00  0.00    -0.200 F 
ATOM     49  F   UNL     1      22.378  -8.662   3.338  1.00  0.00    -0.200 F 
ENDBRANCH  25  39
BRANCH  26  50
ATOM     50  C   UNL     1      15.142 -20.431   0.336  1.00  0.00     0.064 A 
ATOM     51  C   UNL     1      13.898 -20.686   0.928  1.00  0.00     0.173 A 
ATOM     52  C   UNL     1      15.638 -21.375  -0.575  1.00  0.00     0.173 A 
ATOM     53  F   UNL     1      13.391 -19.821   1.819  1.00  0.00    -0.203 F 
ATOM     54  C   UNL     1      13.184 -21.845   0.632  1.00  0.00     0.198 A 
ATOM     55  C   UNL     1      14.911 -22.520  -0.893  1.00  0.00     0.198 A 
ATOM     56  F   UNL     1      16.821 -21.174  -1.173  1.00  0.00    -0.203 F 
ATOM     57  F   UNL     1      12.015 -22.084   1.242  1.00  0.00    -0.200 F 
ATOM     58  C   UNL     1      13.688 -22.758  -0.283  1.00  0.00     0.200 A 
ATOM     59  F   UNL     1      15.393 -23.390  -1.790  1.00  0.00    -0.200 F 
ATOM     60  F   UNL     1      12.998 -23.868  -0.574  1.00  0.00    -0.200 F 
ENDBRANCH  26  50
BRANCH  38  61
ATOM     61  C   UNL     1      18.301 -18.075   6.072  1.00  0.00     0.064 A 
ATOM     62  C   UNL     1      19.160 -19.155   6.325  1.00  0.00     0.173 A 
ATOM     63  C   UNL     1      17.592 -17.531   7.153  1.00  0.00     0.173 A 
ATOM     64  F   UNL     1      19.846 -19.721   5.320  1.00  0.00    -0.203 F 
ATOM     65  C   UNL     1      19.280 -19.688   7.605  1.00  0.00     0.198 A 
ATOM     66  C   UNL     1      17.736 -18.049   8.437  1.00  0.00     0.198 A 
ATOM     67  F   UNL     1      16.761 -16.495   6.964  1.00  0.00    -0.203 F 
ATOM     68  F   UNL     1      20.065 -20.754   7.814  1.00  0.00    -0.200 F 
ATOM     69  C   UNL     1      18.572 -19.132   8.660  1.00  0.00     0.200 A 
ATOM     70  F   UNL     1      17.059 -17.503   9.457  1.00  0.00    -0.200 F 
ATOM     71  F   UNL     1      18.689 -19.647   9.892  1.00  0.00    -0.200 F 
ENDBRANCH  38  61
ENDBRANCH  12  13
ENDBRANCH   5   7
ENDBRANCH   2   3
ENDBRANCH   1   2
BRANCH   1  72
ATOM     72  C   UNL     1      13.571  -8.904  -6.947  1.00  0.00     0.002 C 
BRANCH  72  73
ATOM     73  C   UNL     1      12.061  -9.151  -7.061  1.00  0.00     0.002 C 
BRANCH  73  74
ATOM     74  C   UNL     1      11.258  -8.928  -5.775  1.00  0.00     0.021 C 
BRANCH  74  75
ATOM     75  C   UNL     1      11.392  -7.521  -5.196  1.00  0.00     0.116 C 
BRANCH  75  76
ATOM     76  N   UNL     1      10.556  -6.580  -5.914  1.00  0.00    -0.351 N 
ATOM     77  C   UNL     1       9.490  -5.802  -5.608  1.00  0.00     0.278 C 
ATOM     78  H   UNL     1      10.829  -6.482  -6.855  1.00  0.00     0.163 HD
ATOM     79  O   UNL     1       9.050  -5.128  -6.551  1.00  0.00    -0.268 OA
BRANCH  77  80
ATOM     80  C   UNL     1       8.853  -5.617  -4.214  1.00  0.00     0.276 C 
ATOM     81  N   UNL     1       9.096  -6.660  -3.201  1.00  0.00    -0.328 N 
ATOM     82  C   UNL     1       9.202  -4.221  -3.628  1.00  0.00     0.064 C 
ATOM     83  C   UNL     1       9.826  -6.127  -2.027  1.00  0.00     0.253 C 
ATOM     84  H   UNL     1       9.648  -7.407  -3.622  1.00  0.00     0.347 HD
ATOM     85  H   UNL     1       8.192  -7.008  -2.881  1.00  0.00     0.347 HD
ATOM     86  C   UNL     1       8.430  -4.055  -2.299  1.00  0.00     0.017 C 
ATOM     87  C   UNL     1      10.713  -4.143  -3.320  1.00  0.00     0.094 C 
ATOM     88  C   UNL     1       8.817  -5.190  -1.333  1.00  0.00     0.072 C 
ATOM     89  C   UNL     1      11.081  -5.269  -2.357  1.00  0.00     0.298 C 
ATOM     90  F   UNL     1      11.596  -4.741  -1.217  1.00  0.00    -0.200 F 
ATOM     91  F   UNL     1      12.068  -6.031  -2.887  1.00  0.00    -0.200 F 
ENDBRANCH  77  80
ENDBRANCH  75  76
ENDBRANCH  74  75
ENDBRANCH  73  74
ENDBRANCH  72  73
ENDBRANCH   1  72
TORSDOF 13
