REMARK SMILES O=C(Cn1nc(C(=O)NCCCCCCNC(=O)c2ccc(-c3c4nc(c(-c5c(F)c(F)c(F)c(F)c5F)c5ccc([nH]5)c(-c5c(F)c(F)c(F)c(F)c5F)c5nc(c(-c6c(F)c(F)c(F)c(F)c6F)c6ccc3[nH]6)C=C5)C=C4)cc2)c2ccccc2c1=O)NCc1ccc(F)cc1
REMARK SMILES IDX 11 1 10 2 9 3 7 4 8 5 6 7 4 8 5 9 88 10 87 11 89 12 82 13
REMARK SMILES IDX 86 14 83 15 85 16 84 17 3 18 2 19 1 20 90 21 91 23 92 24
REMARK SMILES IDX 93 25 98 26 94 27 97 28 95 29 96 30 12 31 13 32 14 33 15 34
REMARK SMILES IDX 16 35 17 36 18 38 19 39 20 40 81 41 21 42 80 43 22 44 23 45
REMARK SMILES IDX 24 46 74 47 25 48 79 49 73 50 75 51 26 52 78 53 72 54 71 55
REMARK SMILES IDX 27 57 59 58 39 59 58 60 40 61 43 62 57 63 76 64 41 65 42 66
REMARK SMILES IDX 56 68 77 69 44 70 28 71 29 72 37 73 30 74 31 75 35 76 38 77
REMARK SMILES IDX 32 78 33 79 36 80 34 81 60 82 61 83 69 84 62 85 63 86 67 87
REMARK SMILES IDX 70 88 64 89 65 90 68 91 66 92 45 93 46 94 54 95 47 96 48 97
REMARK SMILES IDX 52 98 55 99 49 100 50 101 53 102 51 103
REMARK H PARENT 9 6 90 22 16 37 75 56 43 67
REMARK Flexibility Score: inf
ROOT
ATOM      1  C   UNL     1       5.044  -3.375  -4.709  1.00  0.00     0.021 C 
ENDROOT
BRANCH   1   2
ATOM      2  C   UNL     1       5.674  -2.469  -3.654  1.00  0.00     0.116 C 
BRANCH   2   3
ATOM      3  N   UNL     1       6.492  -1.422  -4.240  1.00  0.00    -0.351 N 
ATOM      4  C   UNL     1       6.519  -0.059  -4.052  1.00  0.00     0.272 C 
ATOM      5  O   UNL     1       7.431   0.571  -4.576  1.00  0.00    -0.267 OA
ATOM      6  H   UNL     1       7.151  -1.748  -4.894  1.00  0.00     0.163 HD
BRANCH   4   7
ATOM      7  C   UNL     1       5.452   0.671  -3.213  1.00  0.00     0.156 A 
ATOM      8  N   UNL     1       3.797   0.511  -1.582  1.00  0.00    -0.219 N 
ATOM      9  N   UNL     1       4.837  -0.027  -2.303  1.00  0.00    -0.163 NA
ATOM     10  C   UNL     1       3.340   1.809  -1.780  1.00  0.00     0.275 A 
ATOM     11  C   UNL     1       4.173   2.676  -2.624  1.00  0.00     0.051 A 
ATOM     12  O   UNL     1       2.309   2.264  -1.294  1.00  0.00    -0.267 OA
ATOM     13  C   UNL     1       5.168   2.116  -3.422  1.00  0.00     0.020 A 
ATOM     14  C   UNL     1       3.918   4.056  -2.643  1.00  0.00     0.014 A 
ATOM     15  C   UNL     1       5.854   2.954  -4.312  1.00  0.00     0.011 A 
ATOM     16  C   UNL     1       4.641   4.885  -3.493  1.00  0.00     0.001 A 
ATOM     17  C   UNL     1       5.593   4.330  -4.343  1.00  0.00     0.001 A 
BRANCH   8  18
ATOM     18  C   UNL     1       2.909  -0.481  -0.960  1.00  0.00     0.248 C 
BRANCH  18  19
ATOM     19  C   UNL     1       2.197  -0.078   0.330  1.00  0.00     0.242 C 
ATOM     20  O   UNL     1       1.131  -0.604   0.655  1.00  0.00    -0.273 OA
ATOM     21  N   UNL     1       2.880   0.781   1.158  1.00  0.00    -0.350 N 
ATOM     22  H   UNL     1       3.847   0.915   1.028  1.00  0.00     0.163 HD
BRANCH  21  23
ATOM     23  C   UNL     1       2.200   1.488   2.216  1.00  0.00     0.151 C 
BRANCH  23  24
ATOM     24  C   UNL     1       2.617   1.021   3.583  1.00  0.00    -0.029 A 
ATOM     25  C   UNL     1       3.218   1.912   4.487  1.00  0.00     0.008 A 
ATOM     26  C   UNL     1       2.360  -0.298   3.991  1.00  0.00     0.008 A 
ATOM     27  C   UNL     1       3.563   1.487   5.770  1.00  0.00     0.039 A 
ATOM     28  C   UNL     1       2.710  -0.722   5.273  1.00  0.00     0.039 A 
ATOM     29  C   UNL     1       3.308   0.174   6.150  1.00  0.00     0.123 A 
ATOM     30  F   UNL     1       3.640  -0.230   7.383  1.00  0.00    -0.207 F 
ENDBRANCH  23  24
ENDBRANCH  21  23
ENDBRANCH  18  19
ENDBRANCH   8  18
ENDBRANCH   4   7
ENDBRANCH   2   3
ENDBRANCH   1   2
BRANCH   1  31
ATOM     31  C   UNL     1       6.034  -4.162  -5.573  1.00  0.00     0.002 C 
BRANCH  31  32
ATOM     32  C   UNL     1       7.049  -5.021  -4.812  1.00  0.00     0.002 C 
BRANCH  32  33
ATOM     33  C   UNL     1       6.459  -5.986  -3.784  1.00  0.00     0.021 C 
BRANCH  33  34
ATOM     34  C   UNL     1       5.435  -6.967  -4.337  1.00  0.00     0.116 C 
BRANCH  34  35
ATOM     35  N   UNL     1       6.006  -7.914  -5.284  1.00  0.00    -0.352 N 
ATOM     36  C   UNL     1       5.862  -9.281  -5.333  1.00  0.00     0.251 C 
ATOM     37  H   UNL     1       6.573  -7.522  -5.986  1.00  0.00     0.163 HD
ATOM     38  O   UNL     1       6.528  -9.951  -6.116  1.00  0.00    -0.269 OA
BRANCH  36  39
ATOM     39  C   UNL     1       4.924  -9.947  -4.401  1.00  0.00     0.039 A 
ATOM     40  C   UNL     1       3.652  -9.418  -4.180  1.00  0.00     0.014 A 
ATOM     41  C   UNL     1       5.343 -11.083  -3.703  1.00  0.00     0.014 A 
ATOM     42  C   UNL     1       2.882  -9.900  -3.130  1.00  0.00     0.010 A 
ATOM     43  C   UNL     1       4.520 -11.631  -2.714  1.00  0.00     0.010 A 
ATOM     44  C   UNL     1       3.307 -11.008  -2.378  1.00  0.00    -0.014 A 
BRANCH  44  45
ATOM     45  C   UNL     1       2.474 -11.473  -1.236  1.00  0.00     0.031 A 
ATOM     46  C   UNL     1       2.998 -11.421   0.175  1.00  0.00     0.074 A 
ATOM     47  C   UNL     1       1.208 -11.873  -1.468  1.00  0.00     0.049 A 
ATOM     48  N   UNL     1       2.393 -11.742   1.292  1.00  0.00    -0.248 NA
ATOM     49  C   UNL     1       4.380 -10.950   0.361  1.00  0.00     0.031 C 
ATOM     50  C   UNL     1       0.582 -11.955  -2.788  1.00  0.00     0.029 A 
ATOM     51  N   UNL     1       0.210 -12.251  -0.604  1.00  0.00    -0.354 N 
ATOM     52  C   UNL     1       3.320 -11.525   2.305  1.00  0.00     0.074 A 
ATOM     53  C   UNL     1       4.542 -11.084   1.671  1.00  0.00     0.031 C 
ATOM     54  C   UNL     1      -0.707 -12.294  -2.644  1.00  0.00     0.029 A 
ATOM     55  C   UNL     1      -0.983 -12.523  -1.230  1.00  0.00     0.049 A 
ATOM     56  H   UNL     1       0.337 -12.321   0.369  1.00  0.00     0.167 HD
ATOM     57  C   UNL     1       3.157 -11.661   3.643  1.00  0.00     0.037 A 
ATOM     58  C   UNL     1      -2.165 -12.922  -0.725  1.00  0.00     0.037 A 
ATOM     59  C   UNL     1       1.931 -12.075   4.274  1.00  0.00     0.049 A 
ATOM     60  C   UNL     1      -2.298 -13.122   0.759  1.00  0.00     0.074 A 
ATOM     61  C   UNL     1       1.664 -12.220   5.624  1.00  0.00     0.029 A 
ATOM     62  N   UNL     1       0.766 -12.409   3.599  1.00  0.00    -0.354 N 
ATOM     63  N   UNL     1      -1.419 -12.896   1.704  1.00  0.00    -0.248 NA
ATOM     64  C   UNL     1      -3.583 -13.643   1.245  1.00  0.00     0.031 C 
ATOM     65  C   UNL     1       0.356 -12.690   5.764  1.00  0.00     0.029 A 
ATOM     66  C   UNL     1      -0.212 -12.787   4.505  1.00  0.00     0.049 A 
ATOM     67  H   UNL     1       0.651 -12.381   2.621  1.00  0.00     0.167 HD
ATOM     68  C   UNL     1      -2.045 -13.233   2.895  1.00  0.00     0.074 A 
ATOM     69  C   UNL     1      -3.388 -13.657   2.557  1.00  0.00     0.031 C 
ATOM     70  C   UNL     1      -1.547 -13.202   4.155  1.00  0.00     0.037 A 
BRANCH  57  71
ATOM     71  C   UNL     1       4.330 -11.358   4.531  1.00  0.00     0.064 A 
ATOM     72  C   UNL     1       4.776 -10.044   4.737  1.00  0.00     0.173 A 
ATOM     73  C   UNL     1       4.962 -12.384   5.252  1.00  0.00     0.173 A 
ATOM     74  F   UNL     1       4.214  -9.027   4.065  1.00  0.00    -0.203 F 
ATOM     75  C   UNL     1       5.819  -9.770   5.619  1.00  0.00     0.198 A 
ATOM     76  C   UNL     1       5.984 -12.103   6.155  1.00  0.00     0.198 A 
ATOM     77  F   UNL     1       4.569 -13.658   5.100  1.00  0.00    -0.203 F 
ATOM     78  F   UNL     1       6.249  -8.510   5.774  1.00  0.00    -0.200 F 
ATOM     79  C   UNL     1       6.414 -10.798   6.335  1.00  0.00     0.200 A 
ATOM     80  F   UNL     1       6.547 -13.096   6.858  1.00  0.00    -0.200 F 
ATOM     81  F   UNL     1       7.403 -10.529   7.199  1.00  0.00    -0.200 F 
ENDBRANCH  57  71
BRANCH  58  82
ATOM     82  C   UNL     1      -3.314 -13.155  -1.639  1.00  0.00     0.064 A 
ATOM     83  C   UNL     1      -4.441 -12.323  -1.605  1.00  0.00     0.173 A 
ATOM     84  C   UNL     1      -3.300 -14.197  -2.579  1.00  0.00     0.173 A 
ATOM     85  F   UNL     1      -4.512 -11.327  -0.711  1.00  0.00    -0.203 F 
ATOM     86  C   UNL     1      -5.512 -12.528  -2.473  1.00  0.00     0.198 A 
ATOM     87  C   UNL     1      -4.356 -14.380  -3.467  1.00  0.00     0.198 A 
ATOM     88  F   UNL     1      -2.244 -15.020  -2.654  1.00  0.00    -0.203 F 
ATOM     89  F   UNL     1      -6.593 -11.740  -2.397  1.00  0.00    -0.200 F 
ATOM     90  C   UNL     1      -5.465 -13.550  -3.410  1.00  0.00     0.200 A 
ATOM     91  F   UNL     1      -4.297 -15.357  -4.383  1.00  0.00    -0.200 F 
ATOM     92  F   UNL     1      -6.488 -13.736  -4.255  1.00  0.00    -0.200 F 
ENDBRANCH  58  82
BRANCH  70  93
ATOM     93  C   UNL     1      -2.453 -13.629   5.273  1.00  0.00     0.064 A 
ATOM     94  C   UNL     1      -2.787 -14.976   5.467  1.00  0.00     0.173 A 
ATOM     95  C   UNL     1      -2.920 -12.693   6.209  1.00  0.00     0.173 A 
ATOM     96  F   UNL     1      -2.377 -15.907   4.592  1.00  0.00    -0.203 F 
ATOM     97  C   UNL     1      -3.564 -15.371   6.552  1.00  0.00     0.198 A 
ATOM     98  C   UNL     1      -3.671 -13.095   7.309  1.00  0.00     0.198 A 
ATOM     99  F   UNL     1      -2.620 -11.393   6.072  1.00  0.00    -0.203 F 
ATOM    100  F   UNL     1      -3.898 -16.660   6.701  1.00  0.00    -0.200 F 
ATOM    101  C   UNL     1      -3.995 -14.433   7.479  1.00  0.00     0.200 A 
ATOM    102  F   UNL     1      -4.071 -12.190   8.213  1.00  0.00    -0.200 F 
ATOM    103  F   UNL     1      -4.724 -14.818   8.535  1.00  0.00    -0.200 F 
ENDBRANCH  70  93
ENDBRANCH  44  45
ENDBRANCH  36  39
ENDBRANCH  34  35
ENDBRANCH  33  34
ENDBRANCH  32  33
ENDBRANCH  31  32
ENDBRANCH   1  31
TORSDOF 17
