REMARK SMILES O=C(NCCCCCCNC(=O)c1cccc2c1ccn2Cc1ccncc1)c1ccc(-c2c3nc(c(-c4c(F)c(F)c(F)c(F)c4F)c4ccc([nH]4)c(-c4c(F)c(F)c(F)c(F)c4F)c4nc(c(-c5c(F)c(F)c(F)c(F)c5F)c5ccc2[nH]5)C=C4)C=C3)cc1
REMARK SMILES IDX 6 1 5 2 4 3 3 4 1 5 2 6 29 8 30 9 91 10 31 11 90 12 32 13
REMARK SMILES IDX 33 14 34 15 84 16 35 17 89 18 83 19 85 20 36 21 88 22 82 23
REMARK SMILES IDX 81 24 37 26 69 27 49 28 68 29 50 30 53 31 67 32 86 33 51 34
REMARK SMILES IDX 52 35 66 37 87 38 54 39 38 40 39 41 47 42 40 43 41 44 45 45
REMARK SMILES IDX 48 46 42 47 43 48 46 49 44 50 70 51 71 52 79 53 72 54 73 55
REMARK SMILES IDX 77 56 80 57 74 58 75 59 78 60 76 61 55 62 56 63 64 64 57 65
REMARK SMILES IDX 58 66 62 67 65 68 59 69 60 70 63 71 61 72 7 73 8 74 9 75
REMARK SMILES IDX 10 76 11 77 12 79 13 80 14 81 18 82 15 83 17 84 19 85 16 86
REMARK SMILES IDX 21 87 20 88 22 89 23 90 24 91 28 92 25 93 27 94 26 95
REMARK H PARENT 3 7 85 25 53 36 10 78
REMARK Flexibility Score: inf
ROOT
ATOM      1  C   UNL     1       4.240  -1.521   3.979  1.00  0.00     0.002 C 
ENDROOT
BRANCH   1   2
ATOM      2  C   UNL     1       4.670  -0.191   3.344  1.00  0.00     0.021 C 
BRANCH   2   3
ATOM      3  C   UNL     1       4.334  -0.032   1.871  1.00  0.00     0.116 C 
BRANCH   3   4
ATOM      4  N   UNL     1       2.897  -0.068   1.587  1.00  0.00    -0.352 N 
ATOM      5  O   UNL     1       1.090   0.208   0.237  1.00  0.00    -0.269 OA
ATOM      6  C   UNL     1       2.257  -0.140   0.361  1.00  0.00     0.251 C 
ATOM      7  H   UNL     1       2.307  -0.036   2.375  1.00  0.00     0.163 HD
BRANCH   6   8
ATOM      8  C   UNL     1       3.007  -0.642  -0.804  1.00  0.00     0.039 A 
ATOM      9  C   UNL     1       2.821  -0.139  -2.092  1.00  0.00     0.014 A 
ATOM     10  C   UNL     1       3.943  -1.640  -0.576  1.00  0.00     0.014 A 
ATOM     11  C   UNL     1       3.632  -0.620  -3.120  1.00  0.00     0.010 A 
ATOM     12  C   UNL     1       4.900  -1.906  -1.514  1.00  0.00     0.010 A 
ATOM     13  C   UNL     1       4.681  -1.506  -2.820  1.00  0.00    -0.014 A 
BRANCH  13  14
ATOM     14  C   UNL     1       5.537  -2.063  -3.862  1.00  0.00     0.031 A 
ATOM     15  C   UNL     1       6.061  -1.098  -4.857  1.00  0.00     0.074 A 
ATOM     16  C   UNL     1       5.925  -3.358  -3.895  1.00  0.00     0.049 A 
ATOM     17  N   UNL     1       5.738  -1.012  -6.104  1.00  0.00    -0.248 NA
ATOM     18  C   UNL     1       6.976  -0.046  -4.397  1.00  0.00     0.031 C 
ATOM     19  C   UNL     1       5.748  -4.415  -2.887  1.00  0.00     0.029 A 
ATOM     20  N   UNL     1       6.648  -3.992  -4.859  1.00  0.00    -0.354 N 
ATOM     21  C   UNL     1       6.522   0.003  -6.638  1.00  0.00     0.074 A 
ATOM     22  C   UNL     1       7.168   0.647  -5.522  1.00  0.00     0.031 C 
ATOM     23  C   UNL     1       6.530  -5.473  -3.187  1.00  0.00     0.029 A 
ATOM     24  C   UNL     1       7.091  -5.256  -4.503  1.00  0.00     0.049 A 
ATOM     25  H   UNL     1       6.840  -3.587  -5.736  1.00  0.00     0.167 HD
ATOM     26  C   UNL     1       6.729   0.098  -7.980  1.00  0.00     0.037 A 
ATOM     27  C   UNL     1       7.857  -6.086  -5.244  1.00  0.00     0.037 A 
ATOM     28  C   UNL     1       5.760  -0.670  -8.718  1.00  0.00     0.049 A 
ATOM     29  C   UNL     1       7.683  -5.683  -6.658  1.00  0.00     0.074 A 
ATOM     30  C   UNL     1       4.387  -0.623  -8.861  1.00  0.00     0.029 A 
ATOM     31  N   UNL     1       6.138  -1.908  -9.174  1.00  0.00    -0.354 N 
ATOM     32  N   UNL     1       6.570  -5.815  -7.324  1.00  0.00    -0.248 NA
ATOM     33  C   UNL     1       8.648  -4.758  -7.229  1.00  0.00     0.031 C 
ATOM     34  C   UNL     1       3.973  -1.985  -8.953  1.00  0.00     0.029 A 
ATOM     35  C   UNL     1       5.117  -2.784  -8.905  1.00  0.00     0.049 A 
ATOM     36  H   UNL     1       6.989  -2.128  -9.616  1.00  0.00     0.167 HD
ATOM     37  C   UNL     1       6.516  -4.698  -8.142  1.00  0.00     0.074 A 
ATOM     38  C   UNL     1       7.871  -4.159  -8.134  1.00  0.00     0.031 C 
ATOM     39  C   UNL     1       5.319  -4.165  -8.525  1.00  0.00     0.037 A 
BRANCH  26  40
ATOM     40  C   UNL     1       8.002   0.602  -8.608  1.00  0.00     0.064 A 
ATOM     41  C   UNL     1       8.047   0.838  -9.997  1.00  0.00     0.173 A 
ATOM     42  C   UNL     1       9.252   0.584  -7.953  1.00  0.00     0.173 A 
ATOM     43  F   UNL     1       6.920   0.846 -10.725  1.00  0.00    -0.203 F 
ATOM     44  C   UNL     1       9.256   0.982 -10.682  1.00  0.00     0.198 A 
ATOM     45  C   UNL     1      10.453   0.783  -8.631  1.00  0.00     0.198 A 
ATOM     46  F   UNL     1       9.370   0.260  -6.659  1.00  0.00    -0.203 F 
ATOM     47  F   UNL     1       9.256   1.084 -12.018  1.00  0.00    -0.200 F 
ATOM     48  C   UNL     1      10.459   0.952  -9.999  1.00  0.00     0.200 A 
ATOM     49  F   UNL     1      11.609   0.726  -7.954  1.00  0.00    -0.200 F 
ATOM     50  F   UNL     1      11.620   1.032 -10.660  1.00  0.00    -0.200 F 
ENDBRANCH  26  40
BRANCH  27  51
ATOM     51  C   UNL     1       8.941  -6.977  -4.780  1.00  0.00     0.064 A 
ATOM     52  C   UNL     1       9.473  -7.955  -5.634  1.00  0.00     0.173 A 
ATOM     53  C   UNL     1       9.677  -6.689  -3.613  1.00  0.00     0.173 A 
ATOM     54  F   UNL     1       8.846  -8.264  -6.778  1.00  0.00    -0.203 F 
ATOM     55  C   UNL     1      10.700  -8.568  -5.366  1.00  0.00     0.198 A 
ATOM     56  C   UNL     1      10.897  -7.309  -3.343  1.00  0.00     0.198 A 
ATOM     57  F   UNL     1       9.278  -5.730  -2.765  1.00  0.00    -0.203 F 
ATOM     58  F   UNL     1      11.216  -9.437  -6.245  1.00  0.00    -0.200 F 
ATOM     59  C   UNL     1      11.418  -8.232  -4.230  1.00  0.00     0.200 A 
ATOM     60  F   UNL     1      11.597  -6.952  -2.257  1.00  0.00    -0.200 F 
ATOM     61  F   UNL     1      12.629  -8.763  -4.012  1.00  0.00    -0.200 F 
ENDBRANCH  27  51
BRANCH  39  62
ATOM     62  C   UNL     1       4.084  -4.998  -8.310  1.00  0.00     0.064 A 
ATOM     63  C   UNL     1       3.595  -5.376  -7.048  1.00  0.00     0.173 A 
ATOM     64  C   UNL     1       3.293  -5.310  -9.425  1.00  0.00     0.173 A 
ATOM     65  F   UNL     1       4.243  -5.037  -5.927  1.00  0.00    -0.203 F 
ATOM     66  C   UNL     1       2.392  -6.069  -6.915  1.00  0.00     0.198 A 
ATOM     67  C   UNL     1       2.074  -5.969  -9.286  1.00  0.00     0.198 A 
ATOM     68  F   UNL     1       3.682  -4.929 -10.652  1.00  0.00    -0.203 F 
ATOM     69  F   UNL     1       1.954  -6.431  -5.699  1.00  0.00    -0.200 F 
ATOM     70  C   UNL     1       1.629  -6.358  -8.034  1.00  0.00     0.200 A 
ATOM     71  F   UNL     1       1.318  -6.205 -10.368  1.00  0.00    -0.200 F 
ATOM     72  F   UNL     1       0.452  -6.987  -7.903  1.00  0.00    -0.200 F 
ENDBRANCH  39  62
ENDBRANCH  13  14
ENDBRANCH   6   8
ENDBRANCH   3   4
ENDBRANCH   2   3
ENDBRANCH   1   2
BRANCH   1  73
ATOM     73  C   UNL     1       4.790  -2.821   3.376  1.00  0.00     0.002 C 
BRANCH  73  74
ATOM     74  C   UNL     1       6.307  -2.933   3.204  1.00  0.00     0.021 C 
BRANCH  74  75
ATOM     75  C   UNL     1       7.150  -2.577   4.426  1.00  0.00     0.116 C 
BRANCH  75  76
ATOM     76  N   UNL     1       6.825  -3.384   5.585  1.00  0.00    -0.352 N 
ATOM     77  C   UNL     1       7.663  -4.075   6.425  1.00  0.00     0.251 C 
ATOM     78  H   UNL     1       5.866  -3.445   5.802  1.00  0.00     0.163 HD
ATOM     79  O   UNL     1       7.193  -4.775   7.316  1.00  0.00    -0.269 OA
BRANCH  77  80
ATOM     80  C   UNL     1       9.124  -3.981   6.245  1.00  0.00     0.049 A 
ATOM     81  C   UNL     1       9.773  -2.739   6.298  1.00  0.00     0.014 A 
ATOM     82  C   UNL     1       9.873  -5.160   6.037  1.00  0.00     0.012 A 
ATOM     83  C   UNL     1      11.148  -2.659   6.103  1.00  0.00     0.003 A 
ATOM     84  C   UNL     1      11.263  -5.059   5.874  1.00  0.00     0.049 A 
ATOM     85  C   UNL     1       9.533  -6.534   5.910  1.00  0.00     0.029 A 
ATOM     86  C   UNL     1      11.915  -3.813   5.893  1.00  0.00     0.027 A 
ATOM     87  N   UNL     1      11.742  -6.349   5.712  1.00  0.00    -0.343 N 
ATOM     88  C   UNL     1      10.687  -7.228   5.642  1.00  0.00     0.087 A 
BRANCH  87  89
ATOM     89  C   UNL     1      13.139  -6.741   5.526  1.00  0.00     0.157 C 
BRANCH  89  90
ATOM     90  C   UNL     1      13.747  -7.391   6.748  1.00  0.00    -0.025 A 
ATOM     91  C   UNL     1      13.285  -8.622   7.233  1.00  0.00     0.025 A 
ATOM     92  C   UNL     1      14.839  -6.808   7.399  1.00  0.00     0.025 A 
ATOM     93  C   UNL     1      13.907  -9.195   8.332  1.00  0.00     0.111 A 
ATOM     94  C   UNL     1      15.404  -7.465   8.485  1.00  0.00     0.111 A 
ATOM     95  N   UNL     1      14.962  -8.646   8.964  1.00  0.00    -0.265 NA
ENDBRANCH  89  90
ENDBRANCH  87  89
ENDBRANCH  77  80
ENDBRANCH  75  76
ENDBRANCH  74  75
ENDBRANCH  73  74
ENDBRANCH   1  73
TORSDOF 15
