REMARK SMILES O=C(NCCCCCCNC(=O)c1ccc(-c2c3nc(c(-c4c(F)c(F)c(F)c(F)c4F)c4ccc([nH]4)c(-c4c(F)c(F)c(F)c(F)c4F)c4nc(c(-c5c(F)c(F)c(F)c(F)c5F)c5ccc2[nH]5)C=C4)C=C3)cc1)c1ccc(C[C@H]2CCCN(C(=O)C3CCS(=O)(=O)CC3)C2)cc1
REMARK SMILES IDX 5 1 4 2 3 3 1 4 2 5 76 7 77 8 98 9 78 10 97 11 79 12 80 13
REMARK SMILES IDX 81 14 82 15 96 16 83 17 85 18 84 19 86 20 87 21 88 22 89 23
REMARK SMILES IDX 95 24 90 25 94 26 91 27 92 28 93 29 6 30 7 31 8 32 9 33
REMARK SMILES IDX 10 34 11 35 12 37 13 38 14 39 75 40 15 41 74 42 16 43 17 44
REMARK SMILES IDX 18 45 68 46 19 47 73 48 67 49 69 50 20 51 72 52 66 53 65 54
REMARK SMILES IDX 21 56 53 57 33 58 52 59 34 60 37 61 51 62 70 63 35 64 36 65
REMARK SMILES IDX 50 67 71 68 38 69 22 70 23 71 31 72 24 73 25 74 29 75 32 76
REMARK SMILES IDX 26 77 27 78 30 79 28 80 54 81 55 82 63 83 56 84 57 85 61 86
REMARK SMILES IDX 64 87 58 88 59 89 62 90 60 91 39 92 40 93 48 94 41 95 42 96
REMARK SMILES IDX 46 97 49 98 43 99 44 100 47 101 45 102
REMARK H PARENT 3 6 10 36 69 55 37 66
REMARK Flexibility Score: inf
ROOT
ATOM      1  C   UNL     1       6.406   7.284  -1.548  1.00  0.00     0.021 C 
ENDROOT
BRANCH   1   2
ATOM      2  C   UNL     1       7.635   7.292  -0.637  1.00  0.00     0.116 C 
BRANCH   2   3
ATOM      3  N   UNL     1       7.824   8.581   0.010  1.00  0.00    -0.352 N 
ATOM      4  O   UNL     1       7.818  10.059   1.721  1.00  0.00    -0.269 OA
ATOM      5  C   UNL     1       7.816   8.892   1.347  1.00  0.00     0.251 C 
ATOM      6  H   UNL     1       7.981   9.339  -0.598  1.00  0.00     0.163 HD
BRANCH   5   7
ATOM      7  C   UNL     1       7.791   7.802   2.338  1.00  0.00     0.039 A 
ATOM      8  C   UNL     1       8.831   6.873   2.383  1.00  0.00     0.014 A 
ATOM      9  C   UNL     1       6.709   7.702   3.215  1.00  0.00     0.014 A 
ATOM     10  C   UNL     1       8.739   5.787   3.251  1.00  0.00     0.004 A 
ATOM     11  C   UNL     1       6.604   6.592   4.057  1.00  0.00     0.004 A 
ATOM     12  C   UNL     1       7.594   5.601   4.045  1.00  0.00    -0.048 A 
BRANCH  12  13
ATOM     13  C   UNL     1       7.384   4.297   4.788  1.00  0.00     0.041 C 
BRANCH  13  14
ATOM     14  C   UNL     1       6.763   3.189   3.894  1.00  0.00     0.013 C 
ATOM     15  C   UNL     1       7.645   2.929   2.653  1.00  0.00     0.007 C 
ATOM     16  C   UNL     1       6.517   1.903   4.727  1.00  0.00     0.123 C 
ATOM     17  C   UNL     1       7.260   1.669   1.910  1.00  0.00     0.022 C 
ATOM     18  N   UNL     1       6.279   0.706   3.899  1.00  0.00    -0.342 N 
ATOM     19  C   UNL     1       7.282   0.512   2.881  1.00  0.00     0.119 C 
BRANCH  18  20
ATOM     20  C   UNL     1       5.204  -0.121   4.170  1.00  0.00     0.225 C 
ATOM     21  O   UNL     1       4.414   0.177   5.076  1.00  0.00    -0.275 OA
BRANCH  20  22
ATOM     22  C   UNL     1       4.920  -1.441   3.394  1.00  0.00     0.080 C 
ATOM     23  C   UNL     1       5.856  -2.629   3.640  1.00  0.00     0.029 C 
ATOM     24  C   UNL     1       4.396  -1.335   1.959  1.00  0.00     0.029 C 
ATOM     25  C   UNL     1       7.028  -2.820   2.700  1.00  0.00     0.138 C 
ATOM     26  C   UNL     1       5.400  -1.391   0.826  1.00  0.00     0.138 C 
ATOM     27  S   UNL     1       6.626  -2.677   0.968  1.00  0.00     0.150 S 
ATOM     28  O   UNL     1       7.819  -2.187   0.302  1.00  0.00    -0.229 OA
ATOM     29  O   UNL     1       6.005  -3.921   0.558  1.00  0.00    -0.229 OA
ENDBRANCH  20  22
ENDBRANCH  18  20
ENDBRANCH  13  14
ENDBRANCH  12  13
ENDBRANCH   5   7
ENDBRANCH   2   3
ENDBRANCH   1   2
BRANCH   1  30
ATOM     30  C   UNL     1       6.446   8.291  -2.703  1.00  0.00     0.002 C 
BRANCH  30  31
ATOM     31  C   UNL     1       7.656   8.180  -3.635  1.00  0.00     0.002 C 
BRANCH  31  32
ATOM     32  C   UNL     1       7.859   6.811  -4.287  1.00  0.00     0.021 C 
BRANCH  32  33
ATOM     33  C   UNL     1       6.676   6.303  -5.106  1.00  0.00     0.116 C 
BRANCH  33  34
ATOM     34  N   UNL     1       6.375   7.157  -6.243  1.00  0.00    -0.352 N 
ATOM     35  C   UNL     1       6.223   6.829  -7.568  1.00  0.00     0.251 C 
ATOM     36  H   UNL     1       6.263   8.112  -6.032  1.00  0.00     0.163 HD
ATOM     37  O   UNL     1       6.130   7.711  -8.416  1.00  0.00    -0.269 OA
BRANCH  35  38
ATOM     38  C   UNL     1       6.196   5.409  -7.982  1.00  0.00     0.039 A 
ATOM     39  C   UNL     1       6.930   5.021  -9.107  1.00  0.00     0.014 A 
ATOM     40  C   UNL     1       5.447   4.465  -7.274  1.00  0.00     0.014 A 
ATOM     41  C   UNL     1       6.965   3.676  -9.482  1.00  0.00     0.010 A 
ATOM     42  C   UNL     1       5.543   3.115  -7.604  1.00  0.00     0.010 A 
ATOM     43  C   UNL     1       6.301   2.706  -8.712  1.00  0.00    -0.014 A 
BRANCH  43  44
ATOM     44  C   UNL     1       6.394   1.262  -9.047  1.00  0.00     0.031 A 
ATOM     45  C   UNL     1       5.164   0.494  -9.445  1.00  0.00     0.074 A 
ATOM     46  C   UNL     1       7.576   0.626  -8.930  1.00  0.00     0.049 A 
ATOM     47  N   UNL     1       5.033  -0.780  -9.717  1.00  0.00    -0.248 NA
ATOM     48  C   UNL     1       3.907   1.255  -9.523  1.00  0.00     0.031 C 
ATOM     49  C   UNL     1       8.833   1.248  -8.512  1.00  0.00     0.029 A 
ATOM     50  N   UNL     1       7.912  -0.688  -9.143  1.00  0.00    -0.354 N 
ATOM     51  C   UNL     1       3.683  -0.976  -9.977  1.00  0.00     0.074 A 
ATOM     52  C   UNL     1       3.027   0.299  -9.781  1.00  0.00     0.031 C 
ATOM     53  C   UNL     1       9.808   0.326  -8.529  1.00  0.00     0.029 A 
ATOM     54  C   UNL     1       9.239  -0.962  -8.915  1.00  0.00     0.049 A 
ATOM     55  H   UNL     1       7.263  -1.370  -9.432  1.00  0.00     0.167 HD
ATOM     56  C   UNL     1       3.052  -2.111 -10.363  1.00  0.00     0.037 A 
ATOM     57  C   UNL     1       9.918  -2.121  -9.003  1.00  0.00     0.037 A 
ATOM     58  C   UNL     1       3.714  -3.370 -10.582  1.00  0.00     0.049 A 
ATOM     59  C   UNL     1       9.188  -3.371  -9.417  1.00  0.00     0.074 A 
ATOM     60  C   UNL     1       3.177  -4.557 -11.049  1.00  0.00     0.029 A 
ATOM     61  N   UNL     1       5.060  -3.608 -10.341  1.00  0.00    -0.354 N 
ATOM     62  N   UNL     1       7.928  -3.526  -9.742  1.00  0.00    -0.248 NA
ATOM     63  C   UNL     1       9.980  -4.607  -9.481  1.00  0.00     0.031 C 
ATOM     64  C   UNL     1       4.183  -5.529 -11.032  1.00  0.00     0.029 A 
ATOM     65  C   UNL     1       5.362  -4.933 -10.617  1.00  0.00     0.049 A 
ATOM     66  H   UNL     1       5.704  -2.936 -10.022  1.00  0.00     0.167 HD
ATOM     67  C   UNL     1       7.782  -4.865 -10.080  1.00  0.00     0.074 A 
ATOM     68  C   UNL     1       9.087  -5.475  -9.934  1.00  0.00     0.031 C 
ATOM     69  C   UNL     1       6.668  -5.527 -10.477  1.00  0.00     0.037 A 
BRANCH  56  70
ATOM     70  C   UNL     1       1.564  -2.047 -10.564  1.00  0.00     0.064 A 
ATOM     71  C   UNL     1       0.989  -1.323 -11.620  1.00  0.00     0.173 A 
ATOM     72  C   UNL     1       0.702  -2.749  -9.707  1.00  0.00     0.173 A 
ATOM     73  F   UNL     1       1.766  -0.626 -12.463  1.00  0.00    -0.203 F 
ATOM     74  C   UNL     1      -0.393  -1.276 -11.789  1.00  0.00     0.198 A 
ATOM     75  C   UNL     1      -0.677  -2.727  -9.899  1.00  0.00     0.198 A 
ATOM     76  F   UNL     1       1.197  -3.463  -8.685  1.00  0.00    -0.203 F 
ATOM     77  F   UNL     1      -0.921  -0.531 -12.771  1.00  0.00    -0.200 F 
ATOM     78  C   UNL     1      -1.224  -1.983 -10.934  1.00  0.00     0.200 A 
ATOM     79  F   UNL     1      -1.477  -3.424  -9.081  1.00  0.00    -0.200 F 
ATOM     80  F   UNL     1      -2.553  -1.942 -11.101  1.00  0.00    -0.200 F 
ENDBRANCH  56  70
BRANCH  57  81
ATOM     81  C   UNL     1      11.378  -2.152  -8.724  1.00  0.00     0.064 A 
ATOM     82  C   UNL     1      12.299  -2.391  -9.754  1.00  0.00     0.173 A 
ATOM     83  C   UNL     1      11.884  -1.952  -7.432  1.00  0.00     0.173 A 
ATOM     84  F   UNL     1      11.864  -2.608 -11.004  1.00  0.00    -0.203 F 
ATOM     85  C   UNL     1      13.668  -2.451  -9.499  1.00  0.00     0.198 A 
ATOM     86  C   UNL     1      13.255  -1.982  -7.182  1.00  0.00     0.198 A 
ATOM     87  F   UNL     1      11.047  -1.713  -6.412  1.00  0.00    -0.203 F 
ATOM     88  F   UNL     1      14.521  -2.729 -10.493  1.00  0.00    -0.200 F 
ATOM     89  C   UNL     1      14.145  -2.240  -8.214  1.00  0.00     0.200 A 
ATOM     90  F   UNL     1      13.713  -1.761  -5.943  1.00  0.00    -0.200 F 
ATOM     91  F   UNL     1      15.461  -2.293  -7.969  1.00  0.00    -0.200 F 
ENDBRANCH  57  81
BRANCH  69  92
ATOM     92  C   UNL     1       6.817  -6.981 -10.827  1.00  0.00     0.064 A 
ATOM     93  C   UNL     1       7.057  -7.957  -9.849  1.00  0.00     0.173 A 
ATOM     94  C   UNL     1       6.679  -7.406 -12.158  1.00  0.00     0.173 A 
ATOM     95  F   UNL     1       7.212  -7.602  -8.564  1.00  0.00    -0.203 F 
ATOM     96  C   UNL     1       7.181  -9.300 -10.194  1.00  0.00     0.198 A 
ATOM     97  C   UNL     1       6.770  -8.754 -12.494  1.00  0.00     0.198 A 
ATOM     98  F   UNL     1       6.442  -6.515 -13.132  1.00  0.00    -0.203 F 
ATOM     99  F   UNL     1       7.463 -10.209  -9.249  1.00  0.00    -0.200 F 
ATOM    100  C   UNL     1       7.029  -9.698 -11.513  1.00  0.00     0.200 A 
ATOM    101  F   UNL     1       6.606  -9.137 -13.767  1.00  0.00    -0.200 F 
ATOM    102  F   UNL     1       7.140 -10.993 -11.841  1.00  0.00    -0.200 F 
ENDBRANCH  69  92
ENDBRANCH  43  44
ENDBRANCH  35  38
ENDBRANCH  33  34
ENDBRANCH  32  33
ENDBRANCH  31  32
ENDBRANCH  30  31
ENDBRANCH   1  30
TORSDOF 17
