REMARK SMILES Cc1nn(-c2nc3ccccc3o2)c2c1[C@H](c1ccc(C(=O)NCCCCCCNC(=O)c3ccc(-c4c5nc(c(-c6c(F)c(F)c(F)c(F)c6F)c6ccc([nH]6)c(-c6c(F)c(F)c(F)c(F)c6F)c6nc(c(-c7c(F)c(F)c(F)c(F)c7F)c7ccc4[nH]7)C=C6)C=C5)cc3)cc1)CC(=O)N2
REMARK SMILES IDX 26 1 25 2 24 3 23 4 21 5 22 6 20 8 17 9 18 10 97 11 19 12
REMARK SMILES IDX 96 13 16 14 1 15 2 16 3 17 15 18 4 19 14 20 101 21 98 22
REMARK SMILES IDX 99 23 100 25 5 26 6 27 13 28 7 29 12 30 8 31 11 32 9 33
REMARK SMILES IDX 10 34 27 35 28 36 29 37 30 38 31 39 32 41 33 42 34 43 95 44
REMARK SMILES IDX 35 45 94 46 36 47 37 48 38 49 88 50 39 51 93 52 87 53 89 54
REMARK SMILES IDX 40 55 92 56 86 57 85 58 41 60 73 61 53 62 72 63 54 64 57 65
REMARK SMILES IDX 71 66 90 67 55 68 56 69 70 71 91 72 58 73 42 74 43 75 51 76
REMARK SMILES IDX 44 77 45 78 49 79 52 80 46 81 47 82 50 83 48 84 74 85 75 86
REMARK SMILES IDX 83 87 76 88 77 89 81 90 84 91 78 92 79 93 82 94 80 95 59 96
REMARK SMILES IDX 60 97 68 98 61 99 62 100 66 101 69 102 63 103 64 104 67 105
REMARK SMILES IDX 65 106
REMARK H PARENT 23 7 101 24 30 40 89 59 57 70
REMARK Flexibility Score: inf
ROOT
ATOM      1  C   UNL     1       4.040   4.603   7.348  1.00  0.00     0.002 C 
ENDROOT
BRANCH   1   2
ATOM      2  C   UNL     1       3.037   3.530   6.906  1.00  0.00     0.021 C 
BRANCH   2   3
ATOM      3  C   UNL     1       1.915   4.064   6.013  1.00  0.00     0.116 C 
BRANCH   3   4
ATOM      4  N   UNL     1       2.414   4.348   4.683  1.00  0.00    -0.352 N 
ATOM      5  C   UNL     1       2.137   3.773   3.471  1.00  0.00     0.251 C 
ATOM      6  O   UNL     1       2.639   4.256   2.458  1.00  0.00    -0.269 OA
ATOM      7  H   UNL     1       3.067   5.083   4.643  1.00  0.00     0.163 HD
BRANCH   5   8
ATOM      8  C   UNL     1       1.217   2.617   3.338  1.00  0.00     0.039 A 
ATOM      9  C   UNL     1      -0.495   0.411   2.893  1.00  0.00    -0.040 A 
ATOM     10  C   UNL     1      -0.485   1.504   2.012  1.00  0.00     0.005 A 
ATOM     11  C   UNL     1       0.358   0.456   4.011  1.00  0.00     0.005 A 
ATOM     12  C   UNL     1       0.381   2.582   2.218  1.00  0.00     0.014 A 
ATOM     13  C   UNL     1       1.212   1.540   4.225  1.00  0.00     0.014 A 
BRANCH   9  14
ATOM     14  C   UNL     1      -1.354  -0.801   2.574  1.00  0.00     0.064 C 
ATOM     15  C   UNL     1       1.129  -0.807   0.101  1.00  0.00     0.069 C 
ATOM     16  C   UNL     1       0.578  -1.865   0.989  1.00  0.00     0.066 A 
ATOM     17  N   UNL     1       1.060  -3.105   0.813  1.00  0.00    -0.167 NA
ATOM     18  C   UNL     1      -0.441  -1.836   1.993  1.00  0.00     0.026 A 
ATOM     19  N   UNL     1       0.367  -3.871   1.681  1.00  0.00    -0.166 N 
ATOM     20  C   UNL     1      -0.605  -3.160   2.330  1.00  0.00     0.145 A 
ATOM     21  N   UNL     1      -1.599  -3.669   3.132  1.00  0.00    -0.310 N 
ATOM     22  C   UNL     1      -2.108  -1.345   3.810  1.00  0.00     0.113 C 
ATOM     23  C   UNL     1      -2.484  -2.819   3.744  1.00  0.00     0.226 C 
ATOM     24  H   UNL     1      -1.676  -4.641   3.266  1.00  0.00     0.171 HD
ATOM     25  O   UNL     1      -3.469  -3.263   4.332  1.00  0.00    -0.275 OA
BRANCH  19  26
ATOM     26  C   UNL     1       0.745  -5.195   1.848  1.00  0.00     0.325 A 
ATOM     27  N   UNL     1       1.633  -5.545   2.769  1.00  0.00    -0.191 NA
ATOM     28  O   UNL     1       0.225  -6.249   1.132  1.00  0.00    -0.422 OA
ATOM     29  C   UNL     1       1.798  -6.887   2.567  1.00  0.00     0.111 A 
ATOM     30  C   UNL     1       0.930  -7.325   1.581  1.00  0.00     0.156 A 
ATOM     31  C   UNL     1       2.670  -7.801   3.166  1.00  0.00     0.032 A 
ATOM     32  C   UNL     1       0.840  -8.635   1.133  1.00  0.00     0.049 A 
ATOM     33  C   UNL     1       2.640  -9.127   2.713  1.00  0.00     0.003 A 
ATOM     34  C   UNL     1       1.740  -9.534   1.718  1.00  0.00     0.004 A 
ENDBRANCH  19  26
ENDBRANCH   9  14
ENDBRANCH   5   8
ENDBRANCH   3   4
ENDBRANCH   2   3
ENDBRANCH   1   2
BRANCH   1  35
ATOM     35  C   UNL     1       3.440   5.839   8.041  1.00  0.00     0.002 C 
BRANCH  35  36
ATOM     36  C   UNL     1       2.470   5.576   9.204  1.00  0.00     0.021 C 
BRANCH  36  37
ATOM     37  C   UNL     1       3.137   4.994  10.437  1.00  0.00     0.116 C 
BRANCH  37  38
ATOM     38  N   UNL     1       4.075   5.932  11.073  1.00  0.00    -0.352 N 
ATOM     39  C   UNL     1       4.966   5.711  12.114  1.00  0.00     0.251 C 
ATOM     40  H   UNL     1       4.069   6.847  10.709  1.00  0.00     0.163 HD
ATOM     41  O   UNL     1       5.426   6.632  12.771  1.00  0.00    -0.269 OA
BRANCH  39  42
ATOM     42  C   UNL     1       5.363   4.323  12.397  1.00  0.00     0.039 A 
ATOM     43  C   UNL     1       5.574   3.819  13.684  1.00  0.00     0.014 A 
ATOM     44  C   UNL     1       5.469   3.499  11.291  1.00  0.00     0.014 A 
ATOM     45  C   UNL     1       5.845   2.458  13.823  1.00  0.00     0.010 A 
ATOM     46  C   UNL     1       5.381   2.156  11.461  1.00  0.00     0.010 A 
ATOM     47  C   UNL     1       5.749   1.640  12.690  1.00  0.00    -0.014 A 
BRANCH  47  48
ATOM     48  C   UNL     1       6.054   0.221  12.687  1.00  0.00     0.031 A 
ATOM     49  C   UNL     1       5.202  -0.625  13.551  1.00  0.00     0.074 A 
ATOM     50  C   UNL     1       6.855  -0.305  11.731  1.00  0.00     0.049 A 
ATOM     51  N   UNL     1       5.565  -1.341  14.562  1.00  0.00    -0.248 NA
ATOM     52  C   UNL     1       3.749  -0.601  13.323  1.00  0.00     0.031 C 
ATOM     53  C   UNL     1       7.496   0.355  10.580  1.00  0.00     0.029 A 
ATOM     54  N   UNL     1       7.169  -1.607  11.527  1.00  0.00    -0.354 N 
ATOM     55  C   UNL     1       4.418  -1.997  14.999  1.00  0.00     0.074 A 
ATOM     56  C   UNL     1       3.311  -1.381  14.313  1.00  0.00     0.031 C 
ATOM     57  C   UNL     1       7.907  -0.574   9.691  1.00  0.00     0.029 A 
ATOM     58  C   UNL     1       7.734  -1.880  10.290  1.00  0.00     0.049 A 
ATOM     59  H   UNL     1       7.010  -2.305  12.203  1.00  0.00     0.167 HD
ATOM     60  C   UNL     1       4.494  -3.146  15.727  1.00  0.00     0.037 A 
ATOM     61  C   UNL     1       7.993  -3.111   9.789  1.00  0.00     0.037 A 
ATOM     62  C   UNL     1       5.818  -3.344  16.261  1.00  0.00     0.049 A 
ATOM     63  C   UNL     1       8.041  -4.041  10.949  1.00  0.00     0.074 A 
ATOM     64  C   UNL     1       6.630  -2.620  17.114  1.00  0.00     0.029 A 
ATOM     65  N   UNL     1       6.661  -4.215  15.613  1.00  0.00    -0.354 N 
ATOM     66  N   UNL     1       8.948  -3.975  11.889  1.00  0.00    -0.248 NA
ATOM     67  C   UNL     1       6.803  -4.708  11.325  1.00  0.00     0.031 C 
ATOM     68  C   UNL     1       7.938  -2.725  16.552  1.00  0.00     0.029 A 
ATOM     69  C   UNL     1       7.854  -3.558  15.435  1.00  0.00     0.049 A 
ATOM     70  H   UNL     1       6.450  -5.135  15.330  1.00  0.00     0.167 HD
ATOM     71  C   UNL     1       8.261  -4.219  13.071  1.00  0.00     0.074 A 
ATOM     72  C   UNL     1       6.956  -4.729  12.652  1.00  0.00     0.031 C 
ATOM     73  C   UNL     1       8.691  -3.713  14.266  1.00  0.00     0.037 A 
BRANCH  60  74
ATOM     74  C   UNL     1       3.472  -4.250  15.681  1.00  0.00     0.064 A 
ATOM     75  C   UNL     1       3.534  -5.287  16.632  1.00  0.00     0.173 A 
ATOM     76  C   UNL     1       2.616  -4.480  14.583  1.00  0.00     0.173 A 
ATOM     77  F   UNL     1       4.332  -5.183  17.705  1.00  0.00    -0.203 F 
ATOM     78  C   UNL     1       2.844  -6.489  16.457  1.00  0.00     0.198 A 
ATOM     79  C   UNL     1       1.884  -5.657  14.441  1.00  0.00     0.198 A 
ATOM     80  F   UNL     1       2.540  -3.631  13.550  1.00  0.00    -0.203 F 
ATOM     81  F   UNL     1       3.029  -7.494  17.324  1.00  0.00    -0.200 F 
ATOM     82  C   UNL     1       2.022  -6.675  15.360  1.00  0.00     0.200 A 
ATOM     83  F   UNL     1       1.108  -5.823  13.361  1.00  0.00    -0.200 F 
ATOM     84  F   UNL     1       1.407  -7.847  15.159  1.00  0.00    -0.200 F 
ENDBRANCH  60  74
BRANCH  61  85
ATOM     85  C   UNL     1       7.813  -3.546   8.383  1.00  0.00     0.064 A 
ATOM     86  C   UNL     1       8.394  -4.730   7.906  1.00  0.00     0.173 A 
ATOM     87  C   UNL     1       6.855  -2.938   7.545  1.00  0.00     0.173 A 
ATOM     88  F   UNL     1       9.277  -5.398   8.663  1.00  0.00    -0.203 F 
ATOM     89  C   UNL     1       8.029  -5.279   6.671  1.00  0.00     0.198 A 
ATOM     90  C   UNL     1       6.497  -3.482   6.311  1.00  0.00     0.198 A 
ATOM     91  F   UNL     1       6.178  -1.852   7.946  1.00  0.00    -0.203 F 
ATOM     92  F   UNL     1       8.564  -6.442   6.272  1.00  0.00    -0.200 F 
ATOM     93  C   UNL     1       7.075  -4.660   5.879  1.00  0.00     0.200 A 
ATOM     94  F   UNL     1       5.544  -2.890   5.576  1.00  0.00    -0.200 F 
ATOM     95  F   UNL     1       6.684  -5.218   4.725  1.00  0.00    -0.200 F 
ENDBRANCH  61  85
BRANCH  73  96
ATOM     96  C   UNL     1      10.037  -3.034  14.307  1.00  0.00     0.064 A 
ATOM     97  C   UNL     1      10.330  -1.845  13.615  1.00  0.00     0.173 A 
ATOM     98  C   UNL     1      11.002  -3.497  15.208  1.00  0.00     0.173 A 
ATOM     99  F   UNL     1       9.425  -1.273  12.818  1.00  0.00    -0.203 F 
ATOM    100  C   UNL     1      11.542  -1.177  13.785  1.00  0.00     0.198 A 
ATOM    101  C   UNL     1      12.200  -2.811  15.404  1.00  0.00     0.198 A 
ATOM    102  F   UNL     1      10.758  -4.591  15.948  1.00  0.00    -0.203 F 
ATOM    103  F   UNL     1      11.788  -0.046  13.107  1.00  0.00    -0.200 F 
ATOM    104  C   UNL     1      12.474  -1.658  14.687  1.00  0.00     0.200 A 
ATOM    105  F   UNL     1      13.077  -3.252  16.316  1.00  0.00    -0.200 F 
ATOM    106  F   UNL     1      13.621  -0.994  14.887  1.00  0.00    -0.200 F 
ENDBRANCH  73  96
ENDBRANCH  47  48
ENDBRANCH  39  42
ENDBRANCH  37  38
ENDBRANCH  36  37
ENDBRANCH  35  36
ENDBRANCH   1  35
TORSDOF 15
