REMARK SMILES C[C@@H]1CN(C(=O)N2c3ccccc3C[C@@H]2C(=O)NCCCCCCNC(=O)c2ccc(-c3c4nc(c(-c5c(F)c(F)c(F)c(F)c5F)c5ccc([nH]5)c(-c5c(F)c(F)c(F)c(F)c5F)c5nc(c(-c6c(F)c(F)c(F)c(F)c6F)c6ccc3[nH]6)C=C5)C=C4)cc2)C[C@@H]1C
REMARK SMILES IDX 21 1 20 2 19 3 18 4 16 5 17 6 15 8 7 9 8 10 9 11 13 12 14 13
REMARK SMILES IDX 10 14 12 15 11 16 5 17 6 18 4 19 1 20 2 21 3 22 92 23 91 24
REMARK SMILES IDX 93 25 22 26 23 27 24 28 25 29 26 30 27 32 28 33 29 34 90 35
REMARK SMILES IDX 30 36 89 37 31 38 32 39 33 40 83 41 34 42 88 43 82 44 84 45
REMARK SMILES IDX 35 46 87 47 81 48 80 49 36 51 68 52 48 53 67 54 49 55 52 56
REMARK SMILES IDX 66 57 85 58 50 59 51 60 65 62 86 63 53 64 37 65 38 66 46 67
REMARK SMILES IDX 39 68 40 69 44 70 47 71 41 72 42 73 45 74 43 75 69 76 70 77
REMARK SMILES IDX 78 78 71 79 72 80 76 81 79 82 73 83 74 84 77 85 75 86 54 87
REMARK SMILES IDX 55 88 63 89 56 90 57 91 61 92 64 93 58 94 59 95 62 96 60 97
REMARK H PARENT 18 7 25 31 84 50 52 61
REMARK Flexibility Score: inf
ROOT
ATOM      1  C   UNL     1       8.391  -2.410   3.363  1.00  0.00     0.002 C 
ENDROOT
BRANCH   1   2
ATOM      2  C   UNL     1       7.480  -2.310   4.596  1.00  0.00     0.021 C 
BRANCH   2   3
ATOM      3  C   UNL     1       7.153  -0.879   5.022  1.00  0.00     0.116 C 
BRANCH   3   4
ATOM      4  N   UNL     1       6.446  -0.176   3.973  1.00  0.00    -0.354 N 
ATOM      5  C   UNL     1       5.145   0.232   3.919  1.00  0.00     0.243 C 
ATOM      6  O   UNL     1       4.753   0.709   2.851  1.00  0.00    -0.273 OA
ATOM      7  H   UNL     1       6.985   0.040   3.178  1.00  0.00     0.163 HD
BRANCH   5   8
ATOM      8  C   UNL     1       4.293   0.213   5.199  1.00  0.00     0.186 C 
ATOM      9  N   UNL     1       2.870   0.109   4.846  1.00  0.00    -0.281 N 
ATOM     10  C   UNL     1       2.218   1.294   5.214  1.00  0.00     0.050 A 
ATOM     11  C   UNL     1       0.872   1.609   5.179  1.00  0.00     0.027 A 
ATOM     12  C   UNL     1       3.140   2.193   5.757  1.00  0.00    -0.021 A 
ATOM     13  C   UNL     1       4.489   1.561   5.912  1.00  0.00     0.073 C 
ATOM     14  C   UNL     1       0.476   2.890   5.581  1.00  0.00     0.002 A 
ATOM     15  C   UNL     1       2.762   3.463   6.165  1.00  0.00     0.006 A 
ATOM     16  C   UNL     1       1.419   3.817   6.052  1.00  0.00     0.000 A 
BRANCH   9  17
ATOM     17  C   UNL     1       2.355  -1.088   4.425  1.00  0.00     0.325 C 
ATOM     18  O   UNL     1       2.782  -2.145   4.902  1.00  0.00    -0.248 OA
BRANCH  17  19
ATOM     19  N   UNL     1       1.469  -1.087   3.371  1.00  0.00    -0.324 N 
ATOM     20  C   UNL     1       0.896  -0.049  -0.141  1.00  0.00     0.010 C 
ATOM     21  C   UNL     1       0.584  -0.677   1.206  1.00  0.00     0.010 C 
ATOM     22  C   UNL     1       1.378  -0.044   2.352  1.00  0.00     0.125 C 
ATOM     23  C   UNL     1       0.899  -2.177   1.344  1.00  0.00     0.010 C 
ATOM     24  C   UNL     1       0.929  -2.343   2.868  1.00  0.00     0.125 C 
ATOM     25  C   UNL     1       2.225  -2.609   0.714  1.00  0.00     0.010 C 
ENDBRANCH  17  19
ENDBRANCH   9  17
ENDBRANCH   5   8
ENDBRANCH   3   4
ENDBRANCH   2   3
ENDBRANCH   1   2
BRANCH   1  26
ATOM     26  C   UNL     1       9.725  -1.663   3.470  1.00  0.00     0.002 C 
BRANCH  26  27
ATOM     27  C   UNL     1      10.592  -2.050   4.670  1.00  0.00     0.021 C 
BRANCH  27  28
ATOM     28  C   UNL     1      10.967  -3.527   4.739  1.00  0.00     0.116 C 
BRANCH  28  29
ATOM     29  N   UNL     1      11.789  -3.946   3.615  1.00  0.00    -0.352 N 
ATOM     30  C   UNL     1      12.975  -4.631   3.610  1.00  0.00     0.251 C 
ATOM     31  H   UNL     1      11.442  -3.700   2.727  1.00  0.00     0.163 HD
ATOM     32  O   UNL     1      13.612  -4.754   2.563  1.00  0.00    -0.269 OA
BRANCH  30  33
ATOM     33  C   UNL     1      13.513  -5.204   4.862  1.00  0.00     0.039 A 
ATOM     34  C   UNL     1      14.873  -5.048   5.143  1.00  0.00     0.014 A 
ATOM     35  C   UNL     1      12.690  -5.899   5.753  1.00  0.00     0.014 A 
ATOM     36  C   UNL     1      15.395  -5.532   6.344  1.00  0.00     0.010 A 
ATOM     37  C   UNL     1      13.196  -6.321   6.981  1.00  0.00     0.010 A 
ATOM     38  C   UNL     1      14.553  -6.140   7.290  1.00  0.00    -0.014 A 
BRANCH  38  39
ATOM     39  C   UNL     1      15.076  -6.574   8.611  1.00  0.00     0.031 A 
ATOM     40  C   UNL     1      15.090  -8.029   8.986  1.00  0.00     0.074 A 
ATOM     41  C   UNL     1      15.484  -5.646   9.497  1.00  0.00     0.049 A 
ATOM     42  N   UNL     1      15.464  -8.591  10.108  1.00  0.00    -0.248 NA
ATOM     43  C   UNL     1      14.594  -8.977   7.977  1.00  0.00     0.031 C 
ATOM     44  C   UNL     1      15.470  -4.199   9.273  1.00  0.00     0.029 A 
ATOM     45  N   UNL     1      15.982  -5.779  10.770  1.00  0.00    -0.354 N 
ATOM     46  C   UNL     1      15.240  -9.951   9.944  1.00  0.00     0.074 A 
ATOM     47  C   UNL     1      14.649 -10.126   8.634  1.00  0.00     0.031 C 
ATOM     48  C   UNL     1      15.956  -3.581  10.360  1.00  0.00     0.029 A 
ATOM     49  C   UNL     1      16.284  -4.582  11.371  1.00  0.00     0.049 A 
ATOM     50  H   UNL     1      16.110  -6.650  11.210  1.00  0.00     0.167 HD
ATOM     51  C   UNL     1      15.522 -10.963  10.799  1.00  0.00     0.037 A 
ATOM     52  C   UNL     1      16.766  -4.319  12.601  1.00  0.00     0.037 A 
ATOM     53  C   UNL     1      16.130 -10.789  12.092  1.00  0.00     0.049 A 
ATOM     54  C   UNL     1      17.071  -5.463  13.530  1.00  0.00     0.074 A 
ATOM     55  C   UNL     1      16.517 -11.757  13.003  1.00  0.00     0.029 A 
ATOM     56  N   UNL     1      16.437  -9.561  12.661  1.00  0.00    -0.354 N 
ATOM     57  N   UNL     1      16.926  -6.750  13.334  1.00  0.00    -0.248 NA
ATOM     58  C   UNL     1      17.614  -5.114  14.850  1.00  0.00     0.031 C 
ATOM     59  C   UNL     1      17.014 -11.114  14.142  1.00  0.00     0.029 A 
ATOM     60  C   UNL     1      16.985  -9.747  13.921  1.00  0.00     0.049 A 
ATOM     61  H   UNL     1      16.288  -8.687  12.234  1.00  0.00     0.167 HD
ATOM     62  C   UNL     1      17.380  -7.366  14.492  1.00  0.00     0.074 A 
ATOM     63  C   UNL     1      17.824  -6.311  15.379  1.00  0.00     0.031 C 
ATOM     64  C   UNL     1      17.422  -8.687  14.794  1.00  0.00     0.037 A 
BRANCH  51  65
ATOM     65  C   UNL     1      15.178 -12.358  10.362  1.00  0.00     0.064 A 
ATOM     66  C   UNL     1      15.886 -13.003   9.336  1.00  0.00     0.173 A 
ATOM     67  C   UNL     1      14.156 -13.074  11.003  1.00  0.00     0.173 A 
ATOM     68  F   UNL     1      16.865 -12.359   8.684  1.00  0.00    -0.203 F 
ATOM     69  C   UNL     1      15.565 -14.302   8.950  1.00  0.00     0.198 A 
ATOM     70  C   UNL     1      13.858 -14.384  10.635  1.00  0.00     0.198 A 
ATOM     71  F   UNL     1      13.452 -12.508  11.995  1.00  0.00    -0.203 F 
ATOM     72  F   UNL     1      16.224 -14.880   7.936  1.00  0.00    -0.200 F 
ATOM     73  C   UNL     1      14.557 -14.994   9.604  1.00  0.00     0.200 A 
ATOM     74  F   UNL     1      12.892 -15.056  11.277  1.00  0.00    -0.200 F 
ATOM     75  F   UNL     1      14.255 -16.247   9.237  1.00  0.00    -0.200 F 
ENDBRANCH  51  65
BRANCH  52  76
ATOM     76  C   UNL     1      17.013  -2.914  13.016  1.00  0.00     0.064 A 
ATOM     77  C   UNL     1      18.319  -2.434  13.189  1.00  0.00     0.173 A 
ATOM     78  C   UNL     1      15.954  -2.026  13.252  1.00  0.00     0.173 A 
ATOM     79  F   UNL     1      19.363  -3.252  12.996  1.00  0.00    -0.203 F 
ATOM     80  C   UNL     1      18.555  -1.125  13.602  1.00  0.00     0.198 A 
ATOM     81  C   UNL     1      16.192  -0.709  13.637  1.00  0.00     0.198 A 
ATOM     82  F   UNL     1      14.686  -2.435  13.095  1.00  0.00    -0.203 F 
ATOM     83  F   UNL     1      19.811  -0.705  13.804  1.00  0.00    -0.200 F 
ATOM     84  C   UNL     1      17.492  -0.261  13.820  1.00  0.00     0.200 A 
ATOM     85  F   UNL     1      15.163   0.127  13.832  1.00  0.00    -0.200 F 
ATOM     86  F   UNL     1      17.720   0.999  14.213  1.00  0.00    -0.200 F 
ENDBRANCH  52  76
BRANCH  64  87
ATOM     87  C   UNL     1      17.991  -9.066  16.130  1.00  0.00     0.064 A 
ATOM     88  C   UNL     1      17.296  -8.816  17.323  1.00  0.00     0.173 A 
ATOM     89  C   UNL     1      19.234  -9.711  16.217  1.00  0.00     0.173 A 
ATOM     90  F   UNL     1      16.111  -8.188  17.295  1.00  0.00    -0.203 F 
ATOM     91  C   UNL     1      17.838  -9.173  18.555  1.00  0.00     0.198 A 
ATOM     92  C   UNL     1      19.759 -10.094  17.448  1.00  0.00     0.198 A 
ATOM     93  F   UNL     1      19.937  -9.979  15.106  1.00  0.00    -0.203 F 
ATOM     94  F   UNL     1      17.180  -8.878  19.685  1.00  0.00    -0.200 F 
ATOM     95  C   UNL     1      19.065  -9.817  18.616  1.00  0.00     0.200 A 
ATOM     96  F   UNL     1      20.938 -10.728  17.505  1.00  0.00    -0.200 F 
ATOM     97  F   UNL     1      19.583 -10.163  19.803  1.00  0.00    -0.200 F 
ENDBRANCH  64  87
ENDBRANCH  38  39
ENDBRANCH  30  33
ENDBRANCH  28  29
ENDBRANCH  27  28
ENDBRANCH  26  27
ENDBRANCH   1  26
TORSDOF 15
