REMARK SMILES O=C(C[C@H]1CN(C(=O)c2c(F)cccc2Cl)CCO1)NCCCCCCNC(=O)c1ccc(-c2c3nc(c(-c4c(F)c(F)c(F)c(F)c4F)c4ccc([nH]4)c(-c4c(F)c(F)c(F)c(F)c4F)c4nc(c(-c5c(F)c(F)c(F)c(F)c5F)c5ccc2[nH]5)C=C4)C=C3)cc1
REMARK SMILES IDX 23 1 22 2 21 3 20 4 1 5 2 6 3 8 4 9 5 10 19 11 6 12 18 13
REMARK SMILES IDX 17 14 7 15 8 16 9 17 10 18 15 19 11 20 12 21 14 22 16 23
REMARK SMILES IDX 13 24 24 25 25 26 26 27 27 28 28 29 29 31 30 32 31 33 92 34
REMARK SMILES IDX 32 35 91 36 33 37 34 38 35 39 85 40 36 41 90 42 84 43 86 44
REMARK SMILES IDX 37 45 89 46 83 47 82 48 38 50 70 51 50 52 69 53 51 54 54 55
REMARK SMILES IDX 68 56 87 57 52 58 53 59 67 61 88 62 55 63 39 64 40 65 48 66
REMARK SMILES IDX 41 67 42 68 46 69 49 70 43 71 44 72 47 73 45 74 71 75 72 76
REMARK SMILES IDX 80 77 73 78 74 79 78 80 81 81 75 82 76 83 79 84 77 85 56 86
REMARK SMILES IDX 57 87 65 88 58 89 59 90 63 91 66 92 60 93 61 94 64 95 62 96
REMARK H PARENT 20 7 27 30 86 49 54 60
REMARK Flexibility Score: inf
ROOT
ATOM      1  C   UNL     1       3.635  -0.634  -3.500  1.00  0.00     0.002 C 
ENDROOT
BRANCH   1   2
ATOM      2  C   UNL     1       4.771   0.366  -3.253  1.00  0.00     0.021 C 
BRANCH   2   3
ATOM      3  C   UNL     1       4.566   1.269  -2.038  1.00  0.00     0.116 C 
BRANCH   3   4
ATOM      4  N   UNL     1       4.560   0.508  -0.803  1.00  0.00    -0.356 N 
ATOM      5  O   UNL     1       6.215   1.726   0.191  1.00  0.00    -0.275 OA
ATOM      6  C   UNL     1       5.399   0.809   0.243  1.00  0.00     0.222 C 
ATOM      7  H   UNL     1       3.935  -0.247  -0.711  1.00  0.00     0.163 HD
BRANCH   6   8
ATOM      8  C   UNL     1       5.339  -0.112   1.445  1.00  0.00     0.133 C 
BRANCH   8   9
ATOM      9  C   UNL     1       3.932  -0.406   1.984  1.00  0.00     0.147 C 
ATOM     10  C   UNL     1       3.357  -1.778   1.547  1.00  0.00     0.152 C 
ATOM     11  O   UNL     1       3.917  -0.318   3.429  1.00  0.00    -0.374 OA
ATOM     12  N   UNL     1       4.071  -2.883   2.196  1.00  0.00    -0.334 N 
ATOM     13  C   UNL     1       4.675  -1.369   4.054  1.00  0.00     0.182 C 
ATOM     14  C   UNL     1       4.157  -2.749   3.653  1.00  0.00     0.148 C 
BRANCH  12  15
ATOM     15  C   UNL     1       4.566  -4.037   1.600  1.00  0.00     0.258 C 
ATOM     16  O   UNL     1       5.220  -4.880   2.211  1.00  0.00    -0.269 OA
BRANCH  15  17
ATOM     17  C   UNL     1       4.293  -4.320   0.182  1.00  0.00     0.094 A 
ATOM     18  C   UNL     1       4.933  -3.580  -0.810  1.00  0.00     0.137 A 
ATOM     19  C   UNL     1       3.493  -5.406  -0.192  1.00  0.00     0.056 A 
ATOM     20  F   UNL     1       5.718  -2.543  -0.495  1.00  0.00    -0.206 F 
ATOM     21  C   UNL     1       4.758  -3.880  -2.160  1.00  0.00     0.040 A 
ATOM     22  C   UNL     1       3.319  -5.713  -1.548  1.00  0.00     0.021 A 
ATOM     23  Cl  UNL     1       2.666  -6.393   0.960  1.00  0.00    -0.083 Cl
ATOM     24  C   UNL     1       3.946  -4.947  -2.532  1.00  0.00     0.005 A 
ENDBRANCH  15  17
ENDBRANCH  12  15
ENDBRANCH   8   9
ENDBRANCH   6   8
ENDBRANCH   3   4
ENDBRANCH   2   3
ENDBRANCH   1   2
BRANCH   1  25
ATOM     25  C   UNL     1       2.252  -0.022  -3.736  1.00  0.00     0.002 C 
BRANCH  25  26
ATOM     26  C   UNL     1       2.171   0.980  -4.888  1.00  0.00     0.021 C 
BRANCH  26  27
ATOM     27  C   UNL     1       2.602   0.432  -6.244  1.00  0.00     0.116 C 
BRANCH  27  28
ATOM     28  N   UNL     1       1.733  -0.635  -6.717  1.00  0.00    -0.352 N 
ATOM     29  C   UNL     1       1.054  -0.739  -7.907  1.00  0.00     0.251 C 
ATOM     30  H   UNL     1       1.614  -1.389  -6.096  1.00  0.00     0.163 HD
ATOM     31  O   UNL     1       0.230  -1.634  -8.074  1.00  0.00    -0.269 OA
BRANCH  29  32
ATOM     32  C   UNL     1       1.298   0.248  -8.979  1.00  0.00     0.039 A 
ATOM     33  C   UNL     1       0.207   0.831  -9.630  1.00  0.00     0.014 A 
ATOM     34  C   UNL     1       2.601   0.611  -9.330  1.00  0.00     0.014 A 
ATOM     35  C   UNL     1       0.422   1.832 -10.580  1.00  0.00     0.010 A 
ATOM     36  C   UNL     1       2.811   1.661 -10.219  1.00  0.00     0.010 A 
ATOM     37  C   UNL     1       1.724   2.284 -10.852  1.00  0.00    -0.014 A 
BRANCH  37  38
ATOM     38  C   UNL     1       1.977   3.409 -11.791  1.00  0.00     0.031 A 
ATOM     39  C   UNL     1       2.781   3.176 -13.042  1.00  0.00     0.074 A 
ATOM     40  C   UNL     1       1.558   4.651 -11.479  1.00  0.00     0.049 A 
ATOM     41  N   UNL     1       3.205   4.043 -13.927  1.00  0.00    -0.248 NA
ATOM     42  C   UNL     1       3.188   1.789 -13.321  1.00  0.00     0.031 C 
ATOM     43  C   UNL     1       0.802   5.014 -10.278  1.00  0.00     0.029 A 
ATOM     44  N   UNL     1       1.723   5.846 -12.136  1.00  0.00    -0.354 N 
ATOM     45  C   UNL     1       3.946   3.312 -14.847  1.00  0.00     0.074 A 
ATOM     46  C   UNL     1       3.949   1.939 -14.396  1.00  0.00     0.031 C 
ATOM     47  C   UNL     1       0.557   6.334 -10.293  1.00  0.00     0.029 A 
ATOM     48  C   UNL     1       1.177   6.921 -11.476  1.00  0.00     0.049 A 
ATOM     49  H   UNL     1       2.189   5.925 -13.000  1.00  0.00     0.167 HD
ATOM     50  C   UNL     1       4.554   3.748 -15.975  1.00  0.00     0.037 A 
ATOM     51  C   UNL     1       1.193   8.234 -11.782  1.00  0.00     0.037 A 
ATOM     52  C   UNL     1       4.513   5.108 -16.444  1.00  0.00     0.049 A 
ATOM     53  C   UNL     1       1.892   8.686 -13.038  1.00  0.00     0.074 A 
ATOM     54  C   UNL     1       5.024   5.628 -17.620  1.00  0.00     0.029 A 
ATOM     55  N   UNL     1       3.932   6.163 -15.758  1.00  0.00    -0.354 N 
ATOM     56  N   UNL     1       2.514   7.972 -13.945  1.00  0.00    -0.248 NA
ATOM     57  C   UNL     1       1.889  10.130 -13.316  1.00  0.00     0.031 C 
ATOM     58  C   UNL     1       4.809   7.008 -17.617  1.00  0.00     0.029 A 
ATOM     59  C   UNL     1       4.104   7.338 -16.472  1.00  0.00     0.049 A 
ATOM     60  H   UNL     1       3.466   6.089 -14.894  1.00  0.00     0.167 HD
ATOM     61  C   UNL     1       2.934   8.871 -14.916  1.00  0.00     0.074 A 
ATOM     62  C   UNL     1       2.489  10.181 -14.496  1.00  0.00     0.031 C 
ATOM     63  C   UNL     1       3.628   8.632 -16.055  1.00  0.00     0.037 A 
BRANCH  50  64
ATOM     64  C   UNL     1       5.325   2.754 -16.794  1.00  0.00     0.064 A 
ATOM     65  C   UNL     1       4.685   1.753 -17.539  1.00  0.00     0.173 A 
ATOM     66  C   UNL     1       6.721   2.859 -16.900  1.00  0.00     0.173 A 
ATOM     67  F   UNL     1       3.354   1.604 -17.465  1.00  0.00    -0.203 F 
ATOM     68  C   UNL     1       5.414   0.887 -18.349  1.00  0.00     0.198 A 
ATOM     69  C   UNL     1       7.443   2.011 -17.734  1.00  0.00     0.198 A 
ATOM     70  F   UNL     1       7.383   3.802 -16.212  1.00  0.00    -0.203 F 
ATOM     71  F   UNL     1       4.784  -0.083 -19.027  1.00  0.00    -0.200 F 
ATOM     72  C   UNL     1       6.790   1.023 -18.456  1.00  0.00     0.200 A 
ATOM     73  F   UNL     1       8.771   2.155 -17.848  1.00  0.00    -0.200 F 
ATOM     74  F   UNL     1       7.487   0.202 -19.253  1.00  0.00    -0.200 F 
ENDBRANCH  50  64
BRANCH  51  75
ATOM     75  C   UNL     1       0.529   9.227 -10.893  1.00  0.00     0.064 A 
ATOM     76  C   UNL     1      -0.581   9.961 -11.336  1.00  0.00     0.173 A 
ATOM     77  C   UNL     1       1.021   9.506  -9.610  1.00  0.00     0.173 A 
ATOM     78  F   UNL     1      -1.077   9.748 -12.564  1.00  0.00    -0.203 F 
ATOM     79  C   UNL     1      -1.145  10.963 -10.549  1.00  0.00     0.198 A 
ATOM     80  C   UNL     1       0.433  10.483  -8.808  1.00  0.00     0.198 A 
ATOM     81  F   UNL     1       2.077   8.831  -9.132  1.00  0.00    -0.203 F 
ATOM     82  F   UNL     1      -2.158  11.698 -11.029  1.00  0.00    -0.200 F 
ATOM     83  C   UNL     1      -0.639  11.222  -9.285  1.00  0.00     0.200 A 
ATOM     84  F   UNL     1       0.916  10.719  -7.581  1.00  0.00    -0.200 F 
ATOM     85  F   UNL     1      -1.175  12.191  -8.531  1.00  0.00    -0.200 F 
ENDBRANCH  51  75
BRANCH  63  86
ATOM     86  C   UNL     1       3.896   9.797 -16.965  1.00  0.00     0.064 A 
ATOM     87  C   UNL     1       4.809  10.806 -16.627  1.00  0.00     0.173 A 
ATOM     88  C   UNL     1       3.268   9.872 -18.218  1.00  0.00     0.173 A 
ATOM     89  F   UNL     1       5.426  10.789 -15.436  1.00  0.00    -0.203 F 
ATOM     90  C   UNL     1       5.065  11.860 -17.500  1.00  0.00     0.198 A 
ATOM     91  C   UNL     1       3.552  10.908 -19.102  1.00  0.00     0.198 A 
ATOM     92  F   UNL     1       2.392   8.928 -18.593  1.00  0.00    -0.203 F 
ATOM     93  F   UNL     1       5.905  12.839 -17.137  1.00  0.00    -0.200 F 
ATOM     94  C   UNL     1       4.444  11.905 -18.740  1.00  0.00     0.200 A 
ATOM     95  F   UNL     1       2.965  10.939 -20.306  1.00  0.00    -0.200 F 
ATOM     96  F   UNL     1       4.703  12.913 -19.584  1.00  0.00    -0.200 F 
ENDBRANCH  63  86
ENDBRANCH  37  38
ENDBRANCH  29  32
ENDBRANCH  27  28
ENDBRANCH  26  27
ENDBRANCH  25  26
ENDBRANCH   1  25
TORSDOF 16
