REMARK SMILES C[N@@H+]1[C@@H]2CC[C@H]1CN(C(=O)NC(C)(C)CC(=O)NCCCCCCNC(=O)c1ccc(-c3c4nc(c(-c5c(F)c(F)c(F)c(F)c5F)c5ccc([nH]5)c(-c5c(F)c(F)c(F)c(F)c5F)c5nc(c(-c6c(F)c(F)c(F)c(F)c6F)c6ccc3[nH]6)C=C5)C=C4)cc1)CC2
REMARK SMILES IDX 20 1 19 2 18 3 16 4 17 5 15 7 12 8 13 9 14 10 11 11 9 12
REMARK SMILES IDX 10 13 8 15 7 16 6 17 1 18 2 19 3 20 4 22 5 24 91 25 92 26
REMARK SMILES IDX 21 28 22 29 23 30 24 31 25 32 26 33 27 35 28 36 29 37 90 38
REMARK SMILES IDX 30 39 89 40 31 41 32 42 33 43 83 44 34 45 88 46 82 47 84 48
REMARK SMILES IDX 35 49 87 50 81 51 80 52 36 54 68 55 48 56 67 57 49 58 52 59
REMARK SMILES IDX 66 60 85 61 50 62 51 63 65 65 86 66 53 67 37 68 38 69 46 70
REMARK SMILES IDX 39 71 40 72 44 73 47 74 41 75 42 76 45 77 43 78 69 79 70 80
REMARK SMILES IDX 78 81 71 82 72 83 76 84 79 85 73 86 74 87 77 88 75 89 54 90
REMARK SMILES IDX 55 91 63 92 56 93 57 94 61 95 64 96 58 97 59 98 62 99 60 100
REMARK H PARENT 18 6 11 14 2 21 25 34 84 53 52 64
REMARK Flexibility Score: 90.00
ROOT
ATOM      1  C   UNL     1      -3.189  -0.044  -8.615  1.00  0.00     0.021 C 
ENDROOT
BRANCH   1   2
ATOM      2  C   UNL     1      -3.493   1.082  -7.621  1.00  0.00     0.116 C 
BRANCH   2   3
ATOM      3  N   UNL     1      -3.166   0.624  -6.300  1.00  0.00    -0.356 N 
ATOM      4  C   UNL     1      -1.879   0.284  -5.993  1.00  0.00     0.222 C 
ATOM      5  O   UNL     1      -1.709  -0.788  -5.429  1.00  0.00    -0.275 OA
ATOM      6  H   UNL     1      -3.870   0.555  -5.615  1.00  0.00     0.163 HD
BRANCH   4   7
ATOM      7  C   UNL     1      -0.819   1.325  -6.320  1.00  0.00     0.127 C 
BRANCH   7   8
ATOM      8  C   UNL     1       0.639   0.844  -6.493  1.00  0.00     0.045 C 
ATOM      9  C   UNL     1       1.597   2.025  -6.238  1.00  0.00     0.035 C 
ATOM     10  C   UNL     1       0.762   0.469  -7.999  1.00  0.00     0.035 C 
BRANCH   8  11
ATOM     11  N   UNL     1       1.127  -0.336  -5.734  1.00  0.00    -0.333 N 
ATOM     12  C   UNL     1       1.108  -0.982  -4.557  1.00  0.00     0.318 C 
ATOM     13  O   UNL     1       1.774  -2.028  -4.579  1.00  0.00    -0.249 OA
ATOM     14  H   UNL     1       1.698  -0.857  -6.343  1.00  0.00     0.165 HD
BRANCH  12  15
ATOM     15  N   UNL     1       0.418  -0.602  -3.441  1.00  0.00    -0.319 N 
BRANCH  15  16
ATOM     16  C   UNL     1       0.221  -1.644  -2.414  1.00  0.00     0.186 C 
BRANCH  16  17
ATOM     17  C   UNL     1      -0.034  -1.222  -0.938  1.00  0.00     0.204 C 
ATOM     18  C   UNL     1       1.282  -0.204   0.860  1.00  0.00     0.333 C 
ATOM     19  N   UNL     1       0.847  -0.111  -0.530  1.00  0.00    -0.331 N 
ATOM     20  C   UNL     1       0.066   1.112  -0.763  1.00  0.00     0.186 CG0
ATOM     21  H   UNL     1       1.712  -0.128  -1.070  1.00  0.00     0.348 HD
ATOM     22  C   UNL     1      -1.378   0.743  -0.426  1.00  0.00     0.071 C 
ATOM     23  G   UNL     1       0.235   1.572  -2.204  1.00  0.00     0.000 G0
ATOM     24  C   UNL     1      -1.466  -0.761  -0.647  1.00  0.00     0.073 C 
ENDBRANCH  16  17
ENDBRANCH  15  16
BRANCH  15  25
ATOM     25  C   UNL     1      -0.309   0.628  -3.258  1.00  0.00     0.128 C 
BRANCH  25  26
ATOM     26  C   UNL     1       0.235   1.572  -2.204  1.00  0.00     0.086 CG0
ATOM     27  G   UNL     1       0.066   1.112  -0.763  1.00  0.00     0.000 G0
ENDBRANCH  25  26
ENDBRANCH  15  25
ENDBRANCH  12  15
ENDBRANCH   8  11
ENDBRANCH   7   8
ENDBRANCH   4   7
ENDBRANCH   2   3
ENDBRANCH   1   2
BRANCH   1  28
ATOM     28  C   UNL     1      -4.163  -1.225  -8.496  1.00  0.00     0.002 C 
BRANCH  28  29
ATOM     29  C   UNL     1      -5.637  -0.824  -8.595  1.00  0.00     0.002 C 
BRANCH  29  30
ATOM     30  C   UNL     1      -5.934   0.168  -9.719  1.00  0.00     0.021 C 
BRANCH  30  31
ATOM     31  C   UNL     1      -5.434  -0.296 -11.076  1.00  0.00     0.116 C 
BRANCH  31  32
ATOM     32  N   UNL     1      -6.204  -1.424 -11.555  1.00  0.00    -0.352 N 
ATOM     33  C   UNL     1      -6.957  -1.479 -12.697  1.00  0.00     0.251 C 
ATOM     34  H   UNL     1      -6.184  -2.238 -11.001  1.00  0.00     0.163 HD
ATOM     35  O   UNL     1      -7.777  -2.372 -12.881  1.00  0.00    -0.269 OA
BRANCH  33  36
ATOM     36  C   UNL     1      -6.763  -0.414 -13.697  1.00  0.00     0.039 A 
ATOM     37  C   UNL     1      -7.869   0.300 -14.156  1.00  0.00     0.014 A 
ATOM     38  C   UNL     1      -5.468  -0.081 -14.111  1.00  0.00     0.014 A 
ATOM     39  C   UNL     1      -7.673   1.380 -15.016  1.00  0.00     0.010 A 
ATOM     40  C   UNL     1      -5.271   1.045 -14.897  1.00  0.00     0.010 A 
ATOM     41  C   UNL     1      -6.372   1.773 -15.373  1.00  0.00    -0.014 A 
BRANCH  41  42
ATOM     42  C   UNL     1      -6.126   2.909 -16.293  1.00  0.00     0.031 A 
ATOM     43  C   UNL     1      -5.466   2.643 -17.618  1.00  0.00     0.074 A 
ATOM     44  C   UNL     1      -6.428   4.167 -15.918  1.00  0.00     0.049 A 
ATOM     45  N   UNL     1      -5.019   3.491 -18.507  1.00  0.00    -0.248 NA
ATOM     46  C   UNL     1      -5.255   1.229 -17.977  1.00  0.00     0.031 C 
ATOM     47  C   UNL     1      -7.058   4.547 -14.653  1.00  0.00     0.029 A 
ATOM     48  N   UNL     1      -6.228   5.363 -16.561  1.00  0.00    -0.354 N 
ATOM     49  C   UNL     1      -4.469   2.716 -19.520  1.00  0.00     0.074 A 
ATOM     50  C   UNL     1      -4.578   1.334 -19.110  1.00  0.00     0.031 C 
ATOM     51  C   UNL     1      -7.202   5.883 -14.617  1.00  0.00     0.029 A 
ATOM     52  C   UNL     1      -6.630   6.456 -15.832  1.00  0.00     0.049 A 
ATOM     53  H   UNL     1      -5.833   5.431 -17.461  1.00  0.00     0.167 HD
ATOM     54  C   UNL     1      -3.948   3.121 -20.701  1.00  0.00     0.037 A 
ATOM     55  C   UNL     1      -6.524   7.770 -16.107  1.00  0.00     0.037 A 
ATOM     56  C   UNL     1      -3.861   4.496 -21.111  1.00  0.00     0.049 A 
ATOM     57  C   UNL     1      -5.886   8.194 -17.407  1.00  0.00     0.074 A 
ATOM     58  C   UNL     1      -3.357   5.014 -22.290  1.00  0.00     0.029 A 
ATOM     59  N   UNL     1      -4.298   5.571 -20.352  1.00  0.00    -0.354 N 
ATOM     60  N   UNL     1      -5.399   7.452 -18.371  1.00  0.00    -0.248 NA
ATOM     61  C   UNL     1      -5.785   9.639 -17.659  1.00  0.00     0.031 C 
ATOM     62  C   UNL     1      -3.454   6.406 -22.229  1.00  0.00     0.029 A 
ATOM     63  C   UNL     1      -4.070   6.752 -21.037  1.00  0.00     0.049 A 
ATOM     64  H   UNL     1      -4.709   5.505 -19.460  1.00  0.00     0.167 HD
ATOM     65  C   UNL     1      -4.986   8.334 -19.361  1.00  0.00     0.074 A 
ATOM     66  C   UNL     1      -5.277   9.667 -18.882  1.00  0.00     0.031 C 
ATOM     67  C   UNL     1      -4.419   8.065 -20.562  1.00  0.00     0.037 A 
BRANCH  54  68
ATOM     68  C   UNL     1      -3.451   2.067 -21.645  1.00  0.00     0.064 A 
ATOM     69  C   UNL     1      -4.338   1.207 -22.311  1.00  0.00     0.173 A 
ATOM     70  C   UNL     1      -2.084   1.956 -21.939  1.00  0.00     0.173 A 
ATOM     71  F   UNL     1      -5.653   1.263 -22.054  1.00  0.00    -0.203 F 
ATOM     72  C   UNL     1      -3.873   0.264 -23.223  1.00  0.00     0.198 A 
ATOM     73  C   UNL     1      -1.625   1.034 -22.876  1.00  0.00     0.198 A 
ATOM     74  F   UNL     1      -1.194   2.757 -21.334  1.00  0.00    -0.203 F 
ATOM     75  F   UNL     1      -4.735  -0.572 -23.817  1.00  0.00    -0.200 F 
ATOM     76  C   UNL     1      -2.519   0.186 -23.513  1.00  0.00     0.200 A 
ATOM     77  F   UNL     1      -0.319   0.970 -23.167  1.00  0.00    -0.200 F 
ATOM     78  F   UNL     1      -2.075  -0.709 -24.406  1.00  0.00    -0.200 F 
ENDBRANCH  54  68
BRANCH  55  79
ATOM     79  C   UNL     1      -7.025   8.790 -15.146  1.00  0.00     0.064 A 
ATOM     80  C   UNL     1      -8.094   9.634 -15.483  1.00  0.00     0.173 A 
ATOM     81  C   UNL     1      -6.416   8.982 -13.898  1.00  0.00     0.173 A 
ATOM     82  F   UNL     1      -8.700   9.503 -16.672  1.00  0.00    -0.203 F 
ATOM     83  C   UNL     1      -8.504  10.656 -14.630  1.00  0.00     0.198 A 
ATOM     84  C   UNL     1      -6.850   9.982 -13.029  1.00  0.00     0.198 A 
ATOM     85  F   UNL     1      -5.394   8.200 -13.519  1.00  0.00    -0.203 F 
ATOM     86  F   UNL     1      -9.479  11.493 -15.011  1.00  0.00    -0.200 F 
ATOM     87  C   UNL     1      -7.882  10.829 -13.403  1.00  0.00     0.200 A 
ATOM     88  F   UNL     1      -6.257  10.135 -11.837  1.00  0.00    -0.200 F 
ATOM     89  F   UNL     1      -8.268  11.819 -12.587  1.00  0.00    -0.200 F 
ENDBRANCH  55  79
BRANCH  67  90
ATOM     90  C   UNL     1      -4.156   9.216 -21.486  1.00  0.00     0.064 A 
ATOM     91  C   UNL     1      -3.115  10.127 -21.260  1.00  0.00     0.173 A 
ATOM     92  C   UNL     1      -4.907   9.351 -22.665  1.00  0.00     0.173 A 
ATOM     93  F   UNL     1      -2.379  10.047 -20.142  1.00  0.00    -0.203 F 
ATOM     94  C   UNL     1      -2.843  11.140 -22.176  1.00  0.00     0.198 A 
ATOM     95  C   UNL     1      -4.612  10.345 -23.592  1.00  0.00     0.198 A 
ATOM     96  F   UNL     1      -5.908   8.498 -22.930  1.00  0.00    -0.203 F 
ATOM     97  F   UNL     1      -1.865  12.020 -21.925  1.00  0.00    -0.200 F 
ATOM     98  C   UNL     1      -3.583  11.240 -23.346  1.00  0.00     0.200 A 
ATOM     99  F   UNL     1      -5.316  10.428 -24.730  1.00  0.00    -0.200 F 
ATOM    100  F   UNL     1      -3.303  12.202 -24.236  1.00  0.00    -0.200 F 
ENDBRANCH  67  90
ENDBRANCH  41  42
ENDBRANCH  33  36
ENDBRANCH  31  32
ENDBRANCH  30  31
ENDBRANCH  29  30
ENDBRANCH  28  29
ENDBRANCH   1  28
TORSDOF 16
