REMARK SMILES O=C(NCCCCCCNC(=O)[C@]1([NH2+]C2CC2)CCC[C@H](SC[C@H](O)CO)C1)c1ccc(-c2c3nc(c(-c4c(F)c(F)c(F)c(F)c4F)c4ccc([nH]4)c(-c4c(F)c(F)c(F)c(F)c4F)c4nc(c(-c5c(F)c(F)c(F)c(F)c5F)c5ccc2[nH]5)C=C4)C=C3)cc1
REMARK SMILES IDX 8 1 7 2 6 3 5 4 4 5 3 6 1 7 2 8 29 10 30 11 91 12 31 13
REMARK SMILES IDX 90 14 32 15 33 16 34 17 84 18 35 19 89 20 83 21 85 22 36 23
REMARK SMILES IDX 88 24 82 25 81 26 37 28 69 29 49 30 68 31 50 32 53 33 67 34
REMARK SMILES IDX 86 35 51 36 52 37 66 39 87 40 54 41 38 42 39 43 47 44 40 45
REMARK SMILES IDX 41 46 45 47 48 48 42 49 43 50 46 51 44 52 70 53 71 54 79 55
REMARK SMILES IDX 72 56 73 57 77 58 80 59 74 60 75 61 78 62 76 63 55 64 56 65
REMARK SMILES IDX 64 66 57 67 58 68 62 69 65 70 59 71 60 72 63 73 61 74 9 75
REMARK SMILES IDX 10 76 11 77 12 79 13 80 18 81 28 82 19 83 21 84 20 85 14 86
REMARK SMILES IDX 15 89 16 90 17 91 22 92 23 93 24 94 26 95 27 96 25 98
REMARK H PARENT 3 9 85 27 53 38 10 78 14 87 14 88 27 97 25 99
REMARK Flexibility Score: inf
ROOT
ATOM      1  C   UNL     1      12.860   8.996   9.632  1.00  0.00     0.021 C 
ENDROOT
BRANCH   1   2
ATOM      2  C   UNL     1      11.601   8.147   9.836  1.00  0.00     0.002 C 
BRANCH   2   3
ATOM      3  C   UNL     1      11.764   6.628   9.726  1.00  0.00     0.002 C 
BRANCH   3   4
ATOM      4  C   UNL     1      12.816   5.990  10.631  1.00  0.00     0.021 C 
BRANCH   4   5
ATOM      5  C   UNL     1      12.742   6.377  12.101  1.00  0.00     0.116 C 
BRANCH   5   6
ATOM      6  N   UNL     1      11.491   5.996  12.732  1.00  0.00    -0.352 N 
ATOM      7  O   UNL     1      10.173   5.007  14.277  1.00  0.00    -0.269 OA
ATOM      8  C   UNL     1      11.292   5.361  13.935  1.00  0.00     0.251 C 
ATOM      9  H   UNL     1      10.675   6.224  12.231  1.00  0.00     0.163 HD
BRANCH   8  10
ATOM     10  C   UNL     1      12.452   5.092  14.814  1.00  0.00     0.039 A 
ATOM     11  C   UNL     1      13.395   6.089  15.076  1.00  0.00     0.014 A 
ATOM     12  C   UNL     1      12.579   3.830  15.402  1.00  0.00     0.014 A 
ATOM     13  C   UNL     1      14.516   5.798  15.843  1.00  0.00     0.010 A 
ATOM     14  C   UNL     1      13.664   3.563  16.241  1.00  0.00     0.010 A 
ATOM     15  C   UNL     1      14.641   4.545  16.465  1.00  0.00    -0.014 A 
BRANCH  15  16
ATOM     16  C   UNL     1      15.717   4.335  17.463  1.00  0.00     0.031 A 
ATOM     17  C   UNL     1      16.814   3.337  17.238  1.00  0.00     0.074 A 
ATOM     18  C   UNL     1      15.667   5.056  18.601  1.00  0.00     0.049 A 
ATOM     19  N   UNL     1      17.797   3.005  18.037  1.00  0.00    -0.248 NA
ATOM     20  C   UNL     1      16.810   2.611  15.959  1.00  0.00     0.031 C 
ATOM     21  C   UNL     1      14.628   6.037  18.927  1.00  0.00     0.029 A 
ATOM     22  N   UNL     1      16.494   5.076  19.695  1.00  0.00    -0.354 N 
ATOM     23  C   UNL     1      18.514   2.020  17.372  1.00  0.00     0.074 A 
ATOM     24  C   UNL     1      17.850   1.799  16.105  1.00  0.00     0.031 C 
ATOM     25  C   UNL     1      14.888   6.575  20.127  1.00  0.00     0.029 A 
ATOM     26  C   UNL     1      16.067   5.926  20.686  1.00  0.00     0.049 A 
ATOM     27  H   UNL     1      17.313   4.534  19.763  1.00  0.00     0.167 HD
ATOM     28  C   UNL     1      19.624   1.368  17.792  1.00  0.00     0.037 A 
ATOM     29  C   UNL     1      16.543   6.130  21.927  1.00  0.00     0.037 A 
ATOM     30  C   UNL     1      20.284   1.618  19.049  1.00  0.00     0.049 A 
ATOM     31  C   UNL     1      17.753   5.359  22.371  1.00  0.00     0.074 A 
ATOM     32  C   UNL     1      21.464   1.072  19.524  1.00  0.00     0.029 A 
ATOM     33  N   UNL     1      19.812   2.470  20.036  1.00  0.00    -0.354 N 
ATOM     34  N   UNL     1      18.471   4.492  21.700  1.00  0.00    -0.248 NA
ATOM     35  C   UNL     1      18.215   5.585  23.746  1.00  0.00     0.031 C 
ATOM     36  C   UNL     1      21.670   1.541  20.825  1.00  0.00     0.029 A 
ATOM     37  C   UNL     1      20.650   2.425  21.139  1.00  0.00     0.049 A 
ATOM     38  H   UNL     1      19.002   3.026  19.964  1.00  0.00     0.167 HD
ATOM     39  C   UNL     1      19.471   4.076  22.565  1.00  0.00     0.074 A 
ATOM     40  C   UNL     1      19.289   4.812  23.799  1.00  0.00     0.031 C 
ATOM     41  C   UNL     1      20.448   3.159  22.361  1.00  0.00     0.037 A 
BRANCH  28  42
ATOM     42  C   UNL     1      20.204   0.301  16.910  1.00  0.00     0.064 A 
ATOM     43  C   UNL     1      20.909   0.610  15.738  1.00  0.00     0.173 A 
ATOM     44  C   UNL     1      20.151  -1.045  17.308  1.00  0.00     0.173 A 
ATOM     45  F   UNL     1      20.987   1.879  15.312  1.00  0.00    -0.203 F 
ATOM     46  C   UNL     1      21.535  -0.389  14.995  1.00  0.00     0.198 A 
ATOM     47  C   UNL     1      20.798  -2.037  16.576  1.00  0.00     0.198 A 
ATOM     48  F   UNL     1      19.496  -1.393  18.426  1.00  0.00    -0.203 F 
ATOM     49  F   UNL     1      22.190  -0.073  13.869  1.00  0.00    -0.200 F 
ATOM     50  C   UNL     1      21.489  -1.708  15.421  1.00  0.00     0.200 A 
ATOM     51  F   UNL     1      20.765  -3.309  16.998  1.00  0.00    -0.200 F 
ATOM     52  F   UNL     1      22.114  -2.663  14.718  1.00  0.00    -0.200 F 
ENDBRANCH  28  42
BRANCH  29  53
ATOM     53  C   UNL     1      15.843   7.061  22.851  1.00  0.00     0.064 A 
ATOM     54  C   UNL     1      16.457   8.236  23.300  1.00  0.00     0.173 A 
ATOM     55  C   UNL     1      14.550   6.780  23.320  1.00  0.00     0.173 A 
ATOM     56  F   UNL     1      17.699   8.541  22.895  1.00  0.00    -0.203 F 
ATOM     57  C   UNL     1      15.818   9.079  24.207  1.00  0.00     0.198 A 
ATOM     58  C   UNL     1      13.898   7.642  24.197  1.00  0.00     0.198 A 
ATOM     59  F   UNL     1      13.914   5.670  22.917  1.00  0.00    -0.203 F 
ATOM     60  F   UNL     1      16.453  10.166  24.669  1.00  0.00    -0.200 F 
ATOM     61  C   UNL     1      14.537   8.785  24.651  1.00  0.00     0.200 A 
ATOM     62  F   UNL     1      12.653   7.362  24.606  1.00  0.00    -0.200 F 
ATOM     63  F   UNL     1      13.925   9.595  25.523  1.00  0.00    -0.200 F 
ENDBRANCH  29  53
BRANCH  41  64
ATOM     64  C   UNL     1      21.394   2.906  23.497  1.00  0.00     0.064 A 
ATOM     65  C   UNL     1      20.984   2.216  24.647  1.00  0.00     0.173 A 
ATOM     66  C   UNL     1      22.731   3.324  23.420  1.00  0.00     0.173 A 
ATOM     67  F   UNL     1      19.710   1.815  24.777  1.00  0.00    -0.203 F 
ATOM     68  C   UNL     1      21.875   1.970  25.688  1.00  0.00     0.198 A 
ATOM     69  C   UNL     1      23.626   3.047  24.448  1.00  0.00     0.198 A 
ATOM     70  F   UNL     1      23.172   3.985  22.339  1.00  0.00    -0.203 F 
ATOM     71  F   UNL     1      21.450   1.351  26.798  1.00  0.00    -0.200 F 
ATOM     72  C   UNL     1      23.197   2.377  25.584  1.00  0.00     0.200 A 
ATOM     73  F   UNL     1      24.907   3.429  24.340  1.00  0.00    -0.200 F 
ATOM     74  F   UNL     1      24.056   2.129  26.582  1.00  0.00    -0.200 F 
ENDBRANCH  41  64
ENDBRANCH  15  16
ENDBRANCH   8  10
ENDBRANCH   5   6
ENDBRANCH   4   5
ENDBRANCH   3   4
ENDBRANCH   2   3
ENDBRANCH   1   2
BRANCH   1  75
ATOM     75  C   UNL     1      13.623   8.768   8.332  1.00  0.00     0.116 C 
BRANCH  75  76
ATOM     76  N   UNL     1      12.828   8.930   7.132  1.00  0.00    -0.351 N 
ATOM     77  C   UNL     1      13.228   9.093   5.829  1.00  0.00     0.281 C 
ATOM     78  H   UNL     1      11.854   8.922   7.272  1.00  0.00     0.163 HD
ATOM     79  O   UNL     1      12.336   9.077   4.972  1.00  0.00    -0.268 OA
BRANCH  77  80
ATOM     80  C   UNL     1      14.731   9.366   5.442  1.00  0.00     0.176 C 
ATOM     81  C   UNL     1      14.925   9.375   3.891  1.00  0.00     0.079 C 
ATOM     82  C   UNL     1      15.738   8.320   6.025  1.00  0.00     0.093 C 
ATOM     83  C   UNL     1      14.948   8.000   3.228  1.00  0.00     0.008 C 
ATOM     84  C   UNL     1      15.648   6.896   5.396  1.00  0.00     0.053 C 
ATOM     85  C   UNL     1      15.937   7.066   3.905  1.00  0.00     0.015 C 
BRANCH  80  86
ATOM     86  N   UNL     1      15.059  10.750   5.957  1.00  0.00    -0.331 N 
ATOM     87  H   UNL     1      16.032  10.957   5.734  1.00  0.00     0.347 HD
ATOM     88  H   UNL     1      14.889  10.748   6.963  1.00  0.00     0.347 HD
BRANCH  86  89
ATOM     89  C   UNL     1      14.201  11.810   5.365  1.00  0.00     0.183 C 
ATOM     90  C   UNL     1      12.924  12.197   6.057  1.00  0.00     0.071 C 
ATOM     91  C   UNL     1      14.072  13.158   6.011  1.00  0.00     0.071 C 
ENDBRANCH  86  89
ENDBRANCH  80  86
BRANCH  84  92
ATOM     92  S   UNL     1      14.022   6.114   5.814  1.00  0.00    -0.156 SA
BRANCH  92  93
ATOM     93  C   UNL     1      14.136   4.362   5.319  1.00  0.00     0.104 C 
BRANCH  93  94
ATOM     94  C   UNL     1      14.335   4.105   3.825  1.00  0.00     0.149 C 
BRANCH  94  95
ATOM     95  C   UNL     1      15.722   3.510   3.570  1.00  0.00     0.188 C 
BRANCH  95  96
ATOM     96  O   UNL     1      16.020   3.554   2.177  1.00  0.00    -0.394 OA
ATOM     97  H   UNL     1      15.359   3.040   1.688  1.00  0.00     0.210 HD
ENDBRANCH  95  96
ENDBRANCH  94  95
BRANCH  94  98
ATOM     98  O   UNL     1      13.366   3.150   3.357  1.00  0.00    -0.390 OA
ATOM     99  H   UNL     1      13.481   2.312   3.833  1.00  0.00     0.211 HD
ENDBRANCH  94  98
ENDBRANCH  93  94
ENDBRANCH  92  93
ENDBRANCH  84  92
ENDBRANCH  77  80
ENDBRANCH  75  76
ENDBRANCH   1  75
TORSDOF 21
