REMARK SMILES Cc1ccc(C(=O)NC2(CC(=O)NCCCCCCNC(=O)c3ccc(-c4c5nc(c(-c6c(F)c(F)c(F)c(F)c6F)c6ccc([nH]6)c(-c6c(F)c(F)c(F)c(F)c6F)c6nc(c(-c7c(F)c(F)c(F)c(F)c7F)c7ccc4[nH]7)C=C6)C=C5)cc3)CCC2)cc1
REMARK SMILES IDX 16 1 15 2 14 3 13 4 11 5 12 6 10 8 9 9 86 10 88 11 87 12
REMARK SMILES IDX 8 13 6 14 7 15 5 17 1 18 2 19 3 20 90 21 4 22 89 23 17 24
REMARK SMILES IDX 18 25 19 26 20 27 21 28 22 30 23 31 24 32 85 33 25 34 84 35
REMARK SMILES IDX 26 36 27 37 28 38 78 39 29 40 83 41 77 42 79 43 30 44 82 45
REMARK SMILES IDX 76 46 75 47 31 49 63 50 43 51 62 52 44 53 47 54 61 55 80 56
REMARK SMILES IDX 45 57 46 58 60 60 81 61 48 62 32 63 33 64 41 65 34 66 35 67
REMARK SMILES IDX 39 68 42 69 36 70 37 71 40 72 38 73 64 74 65 75 73 76 66 77
REMARK SMILES IDX 67 78 71 79 74 80 68 81 69 82 72 83 70 84 49 85 50 86 58 87
REMARK SMILES IDX 51 88 52 89 56 90 59 91 53 92 54 93 57 94 55 95
REMARK H PARENT 13 7 8 16 20 29 79 48 47 59
REMARK Flexibility Score: inf
ROOT
ATOM      1  C   UNL     1       0.613  -0.001   3.485  1.00  0.00     0.002 C 
ENDROOT
BRANCH   1   2
ATOM      2  C   UNL     1      -0.418   1.021   3.054  1.00  0.00     0.021 C 
BRANCH   2   3
ATOM      3  C   UNL     1      -0.126   1.614   1.700  1.00  0.00     0.116 C 
BRANCH   3   4
ATOM      4  N   UNL     1      -0.390   0.589   0.433  1.00  0.00    -0.356 N 
ATOM      5  C   UNL     1      -1.291   0.610  -1.324  1.00  0.00     0.222 C 
ATOM      6  O   UNL     1      -1.142  -0.126  -2.337  1.00  0.00    -0.275 OA
ATOM      7  H   UNL     1       0.022  -0.289   0.603  1.00  0.00     0.163 HD
BRANCH   5   8
ATOM      8  C   UNL     1      -2.668   1.839  -1.769  1.00  0.00     0.128 C 
BRANCH   8   9
ATOM      9  C   UNL     1      -3.742   2.539  -0.672  1.00  0.00     0.049 C 
ATOM     10  C   UNL     1      -4.460   3.864  -1.109  1.00  0.00     0.029 C 
ATOM     11  C   UNL     1      -3.630   3.397   0.791  1.00  0.00     0.029 C 
ATOM     12  C   UNL     1      -3.667   4.665  -0.029  1.00  0.00     0.005 C 
BRANCH   9  13
ATOM     13  N   UNL     1      -4.529   1.415  -0.193  1.00  0.00    -0.346 N 
ATOM     14  C   UNL     1      -3.824   0.545   0.587  1.00  0.00     0.251 C 
ATOM     15  O   UNL     1      -4.329  -0.365   1.222  1.00  0.00    -0.269 OA
ATOM     16  H   UNL     1      -5.482   1.294  -0.410  1.00  0.00     0.164 HD
BRANCH  14  17
ATOM     17  C   UNL     1      -2.340   0.701   0.421  1.00  0.00     0.039 A 
ATOM     18  C   UNL     1       2.415   0.030  -1.169  1.00  0.00     0.044 C 
ATOM     19  C   UNL     1       0.921   0.246  -1.134  1.00  0.00    -0.051 A 
ATOM     20  C   UNL     1      -0.075  -1.187  -0.666  1.00  0.00     0.004 A 
ATOM     21  C   UNL     1       0.314   1.927  -0.933  1.00  0.00     0.004 A 
ATOM     22  C   UNL     1      -1.682  -0.963   0.099  1.00  0.00     0.014 A 
ATOM     23  C   UNL     1      -1.308   2.203  -0.126  1.00  0.00     0.014 A 
ENDBRANCH  14  17
ENDBRANCH   9  13
ENDBRANCH   8   9
ENDBRANCH   5   8
ENDBRANCH   3   4
ENDBRANCH   2   3
ENDBRANCH   1   2
BRANCH   1  24
ATOM     24  C   UNL     1       2.065   0.319   3.088  1.00  0.00     0.002 C 
BRANCH  24  25
ATOM     25  C   UNL     1       2.577   1.745   3.341  1.00  0.00     0.021 C 
BRANCH  25  26
ATOM     26  C   UNL     1       2.462   2.171   4.775  1.00  0.00     0.116 C 
BRANCH  26  27
ATOM     27  N   UNL     1       3.480   1.540   5.577  1.00  0.00    -0.352 N 
ATOM     28  C   UNL     1       4.022   1.973   6.764  1.00  0.00     0.251 C 
ATOM     29  H   UNL     1       3.833   0.689   5.230  1.00  0.00     0.163 HD
ATOM     30  O   UNL     1       5.146   1.607   7.087  1.00  0.00    -0.269 OA
BRANCH  28  31
ATOM     31  C   UNL     1       3.128   2.627   7.757  1.00  0.00     0.039 A 
ATOM     32  C   UNL     1       3.153   1.976   8.999  1.00  0.00     0.014 A 
ATOM     33  C   UNL     1       1.971   3.256   7.318  1.00  0.00     0.014 A 
ATOM     34  C   UNL     1       1.957   1.633   9.596  1.00  0.00     0.010 A 
ATOM     35  C   UNL     1       0.788   2.744   7.768  1.00  0.00     0.010 A 
ATOM     36  C   UNL     1       0.800   1.907   8.884  1.00  0.00    -0.014 A 
BRANCH  36  37
ATOM     37  C   UNL     1      -0.526   1.593   9.341  1.00  0.00     0.031 A 
ATOM     38  C   UNL     1      -1.128   2.672  10.146  1.00  0.00     0.074 A 
ATOM     39  C   UNL     1      -1.121   0.512   8.792  1.00  0.00     0.049 A 
ATOM     40  N   UNL     1      -2.123   2.525  10.931  1.00  0.00    -0.248 NA
ATOM     41  C   UNL     1      -0.593   4.041  10.184  1.00  0.00     0.031 C 
ATOM     42  C   UNL     1      -2.530   0.144   8.759  1.00  0.00     0.029 A 
ATOM     43  N   UNL     1      -0.471  -0.615   8.250  1.00  0.00    -0.354 N 
ATOM     44  C   UNL     1      -2.576   3.787  11.263  1.00  0.00     0.074 A 
ATOM     45  C   UNL     1      -1.514   4.682  10.906  1.00  0.00     0.031 C 
ATOM     46  C   UNL     1      -2.627  -1.187   8.575  1.00  0.00     0.029 A 
ATOM     47  C   UNL     1      -1.275  -1.724   8.606  1.00  0.00     0.049 A 
ATOM     48  H   UNL     1       0.367  -0.627   7.733  1.00  0.00     0.167 HD
ATOM     49  C   UNL     1      -3.882   3.896  11.634  1.00  0.00     0.037 A 
ATOM     50  C   UNL     1      -0.812  -2.620   9.531  1.00  0.00     0.037 A 
ATOM     51  C   UNL     1      -4.459   2.554  11.658  1.00  0.00     0.049 A 
ATOM     52  C   UNL     1      -1.608  -2.521  10.811  1.00  0.00     0.074 A 
ATOM     53  C   UNL     1      -5.141   1.831  10.693  1.00  0.00     0.029 A 
ATOM     54  N   UNL     1      -3.957   1.635  12.569  1.00  0.00    -0.354 N 
ATOM     55  N   UNL     1      -2.168  -1.416  11.233  1.00  0.00    -0.248 NA
ATOM     56  C   UNL     1      -1.929  -3.675  11.644  1.00  0.00     0.031 C 
ATOM     57  C   UNL     1      -4.972   0.452  10.995  1.00  0.00     0.029 A 
ATOM     58  C   UNL     1      -4.195   0.345  12.138  1.00  0.00     0.049 A 
ATOM     59  H   UNL     1      -3.495   1.870  13.406  1.00  0.00     0.167 HD
ATOM     60  C   UNL     1      -2.956  -1.702  12.315  1.00  0.00     0.074 A 
ATOM     61  C   UNL     1      -2.758  -3.122  12.545  1.00  0.00     0.031 C 
ATOM     62  C   UNL     1      -3.751  -0.782  12.937  1.00  0.00     0.037 A 
BRANCH  49  63
ATOM     63  C   UNL     1      -4.728   5.145  11.714  1.00  0.00     0.064 A 
ATOM     64  C   UNL     1      -6.137   5.018  11.758  1.00  0.00     0.173 A 
ATOM     65  C   UNL     1      -4.263   6.473  11.719  1.00  0.00     0.173 A 
ATOM     66  F   UNL     1      -6.731   3.817  11.806  1.00  0.00    -0.203 F 
ATOM     67  C   UNL     1      -6.999   6.115  11.753  1.00  0.00     0.198 A 
ATOM     68  C   UNL     1      -5.129   7.575  11.707  1.00  0.00     0.198 A 
ATOM     69  F   UNL     1      -2.962   6.771  11.763  1.00  0.00    -0.203 F 
ATOM     70  F   UNL     1      -8.324   5.916  11.777  1.00  0.00    -0.200 F 
ATOM     71  C   UNL     1      -6.496   7.396  11.719  1.00  0.00     0.200 A 
ATOM     72  F   UNL     1      -4.622   8.817  11.688  1.00  0.00    -0.200 F 
ATOM     73  F   UNL     1      -7.322   8.450  11.713  1.00  0.00    -0.200 F 
ENDBRANCH  49  63
BRANCH  50  74
ATOM     74  C   UNL     1       0.662  -2.830   9.386  1.00  0.00     0.064 A 
ATOM     75  C   UNL     1       1.086  -3.378   8.155  1.00  0.00     0.173 A 
ATOM     76  C   UNL     1       1.591  -2.059  10.097  1.00  0.00     0.173 A 
ATOM     77  F   UNL     1       0.255  -4.169   7.456  1.00  0.00    -0.203 F 
ATOM     78  C   UNL     1       2.274  -2.970   7.553  1.00  0.00     0.198 A 
ATOM     79  C   UNL     1       2.808  -1.695   9.508  1.00  0.00     0.198 A 
ATOM     80  F   UNL     1       1.271  -1.538  11.290  1.00  0.00    -0.203 F 
ATOM     81  F   UNL     1       2.550  -3.345   6.295  1.00  0.00    -0.200 F 
ATOM     82  C   UNL     1       3.112  -2.089   8.212  1.00  0.00     0.200 A 
ATOM     83  F   UNL     1       3.647  -0.878  10.162  1.00  0.00    -0.200 F 
ATOM     84  F   UNL     1       4.185  -1.591   7.582  1.00  0.00    -0.200 F 
ENDBRANCH  50  74
BRANCH  62  85
ATOM     85  C   UNL     1      -4.265  -0.913  14.348  1.00  0.00     0.064 A 
ATOM     86  C   UNL     1      -3.642  -1.712  15.319  1.00  0.00     0.173 A 
ATOM     87  C   UNL     1      -5.313  -0.085  14.822  1.00  0.00     0.173 A 
ATOM     88  F   UNL     1      -2.537  -2.418  15.043  1.00  0.00    -0.203 F 
ATOM     89  C   UNL     1      -4.101  -1.765  16.634  1.00  0.00     0.198 A 
ATOM     90  C   UNL     1      -5.704  -0.069  16.157  1.00  0.00     0.198 A 
ATOM     91  F   UNL     1      -5.969   0.765  14.018  1.00  0.00    -0.203 F 
ATOM     92  F   UNL     1      -3.523  -2.608  17.499  1.00  0.00    -0.200 F 
ATOM     93  C   UNL     1      -5.122  -0.936  17.056  1.00  0.00     0.200 A 
ATOM     94  F   UNL     1      -6.633   0.806  16.567  1.00  0.00    -0.200 F 
ATOM     95  F   UNL     1      -5.528  -0.956  18.331  1.00  0.00    -0.200 F 
ENDBRANCH  62  85
ENDBRANCH  36  37
ENDBRANCH  28  31
ENDBRANCH  26  27
ENDBRANCH  25  26
ENDBRANCH  24  25
ENDBRANCH   1  24
TORSDOF 16
