REMARK SMILES Cc1ccc(C(C)(C)C)c(OCC(=O)c2nc(C)c(C(=O)NCCCCCCNC(=O)c3ccc(-c4c5nc(c(-c6c(F)c(F)c(F)c(F)c6F)c6ccc([nH]6)c(-c6c(F)c(F)c(F)c(F)c6F)c6nc(c(-c7c(F)c(F)c(F)c(F)c7F)c7ccc4[nH]7)C=C6)C=C5)cc3)s2)c1
REMARK SMILES IDX 24 1 23 2 22 3 20 4 21 5 19 7 15 8 16 9 95 10 17 11 18 12
REMARK SMILES IDX 13 13 14 14 12 15 11 16 10 17 1 18 2 19 3 20 96 21 4 22 5 23
REMARK SMILES IDX 6 24 7 25 8 26 9 27 25 28 26 29 27 30 28 31 29 32 30 33
REMARK SMILES IDX 31 35 32 36 33 37 94 38 34 39 93 40 35 41 36 42 37 43 87 44
REMARK SMILES IDX 38 45 92 46 86 47 88 48 39 49 91 50 85 51 84 52 40 54 72 55
REMARK SMILES IDX 52 56 71 57 53 58 56 59 70 60 89 61 54 62 55 63 69 65 90 66
REMARK SMILES IDX 57 67 41 68 42 69 50 70 43 71 44 72 48 73 51 74 45 75 46 76
REMARK SMILES IDX 49 77 47 78 73 79 74 80 82 81 75 82 76 83 80 84 83 85 77 86
REMARK SMILES IDX 78 87 81 88 79 89 58 90 59 91 67 92 60 93 61 94 65 95 68 96
REMARK SMILES IDX 62 97 63 98 66 99 64 100
REMARK H PARENT 22 6 29 34 88 53 56 64
REMARK Flexibility Score: inf
ROOT
ATOM      1  C   UNL     1      -2.942   5.082   8.111  1.00  0.00     0.021 C 
ENDROOT
BRANCH   1   2
ATOM      2  C   UNL     1      -2.216   3.796   7.694  1.00  0.00     0.116 C 
BRANCH   2   3
ATOM      3  N   UNL     1      -2.991   3.064   6.726  1.00  0.00    -0.351 N 
ATOM      4  C   UNL     1      -2.930   2.908   5.367  1.00  0.00     0.263 C 
ATOM      5  O   UNL     1      -3.813   2.152   4.943  1.00  0.00    -0.268 OA
ATOM      6  H   UNL     1      -3.733   2.561   7.133  1.00  0.00     0.163 HD
BRANCH   4   7
ATOM      7  C   UNL     1      -1.938   3.518   4.483  1.00  0.00     0.115 A 
ATOM      8  C   UNL     1      -0.661   3.878   2.405  1.00  0.00     0.164 A 
ATOM      9  N   UNL     1      -0.281   4.725   3.330  1.00  0.00    -0.237 NA
ATOM     10  S   UNL     1      -1.858   2.788   2.896  1.00  0.00    -0.105 S 
ATOM     11  C   UNL     1      -1.030   4.576   4.494  1.00  0.00     0.062 A 
ATOM     12  C   UNL     1      -0.721   5.622   5.497  1.00  0.00     0.068 C 
BRANCH   8  13
ATOM     13  C   UNL     1      -0.060   3.890   1.080  1.00  0.00     0.228 C 
ATOM     14  O   UNL     1       1.113   4.229   0.880  1.00  0.00    -0.288 OA
BRANCH  13  15
ATOM     15  C   UNL     1      -0.956   3.602  -0.135  1.00  0.00     0.313 C 
BRANCH  15  16
ATOM     16  O   UNL     1      -1.678   2.396  -0.249  1.00  0.00    -0.485 OA
BRANCH  16  17
ATOM     17  C   UNL     1      -1.023   1.198  -0.208  1.00  0.00     0.123 A 
ATOM     18  C   UNL     1       2.540  -0.183  -0.094  1.00  0.00     0.044 C 
ATOM     19  C   UNL     1       1.042  -0.115  -0.106  1.00  0.00    -0.047 A 
ATOM     20  C   UNL     1       0.283  -1.272   0.017  1.00  0.00     0.004 A 
ATOM     21  C   UNL     1       0.380   1.107  -0.253  1.00  0.00     0.050 A 
ATOM     22  C   UNL     1      -1.112  -1.199   0.008  1.00  0.00     0.008 A 
ATOM     23  C   UNL     1      -1.809   0.030  -0.096  1.00  0.00    -0.000 A 
BRANCH  23  24
ATOM     24  C   UNL     1      -3.361  -0.023  -0.094  1.00  0.00    -0.010 C 
ATOM     25  C   UNL     1      -3.828  -0.813  -1.340  1.00  0.00     0.016 C 
ATOM     26  C   UNL     1      -3.857  -0.749   1.181  1.00  0.00     0.016 C 
ATOM     27  C   UNL     1      -4.118   1.324  -0.137  1.00  0.00     0.016 C 
ENDBRANCH  23  24
ENDBRANCH  16  17
ENDBRANCH  15  16
ENDBRANCH  13  15
ENDBRANCH   8  13
ENDBRANCH   4   7
ENDBRANCH   2   3
ENDBRANCH   1   2
BRANCH   1  28
ATOM     28  C   UNL     1      -3.671   5.007   9.459  1.00  0.00     0.002 C 
BRANCH  28  29
ATOM     29  C   UNL     1      -2.822   4.555  10.660  1.00  0.00     0.002 C 
BRANCH  29  30
ATOM     30  C   UNL     1      -1.430   5.181  10.766  1.00  0.00     0.021 C 
BRANCH  30  31
ATOM     31  C   UNL     1      -1.452   6.616  11.265  1.00  0.00     0.116 C 
BRANCH  31  32
ATOM     32  N   UNL     1      -1.251   6.732  12.704  1.00  0.00    -0.352 N 
ATOM     33  C   UNL     1      -1.234   7.851  13.524  1.00  0.00     0.251 C 
ATOM     34  H   UNL     1      -1.103   5.877  13.169  1.00  0.00     0.163 HD
ATOM     35  O   UNL     1      -0.956   7.745  14.701  1.00  0.00    -0.269 OA
BRANCH  33  36
ATOM     36  C   UNL     1      -1.739   9.140  12.987  1.00  0.00     0.039 A 
ATOM     37  C   UNL     1      -2.689   9.808  13.769  1.00  0.00     0.014 A 
ATOM     38  C   UNL     1      -1.565   9.473  11.651  1.00  0.00     0.014 A 
ATOM     39  C   UNL     1      -3.674  10.554  13.137  1.00  0.00     0.010 A 
ATOM     40  C   UNL     1      -2.603  10.101  11.004  1.00  0.00     0.010 A 
ATOM     41  C   UNL     1      -3.689  10.569  11.746  1.00  0.00    -0.014 A 
BRANCH  41  42
ATOM     42  C   UNL     1      -4.780  11.116  10.969  1.00  0.00     0.031 A 
ATOM     43  C   UNL     1      -4.692  12.531  10.591  1.00  0.00     0.074 A 
ATOM     44  C   UNL     1      -5.809  10.337  10.571  1.00  0.00     0.049 A 
ATOM     45  N   UNL     1      -5.713  13.284  10.390  1.00  0.00    -0.248 NA
ATOM     46  C   UNL     1      -3.420  13.236  10.483  1.00  0.00     0.031 C 
ATOM     47  C   UNL     1      -6.846  10.673   9.602  1.00  0.00     0.029 A 
ATOM     48  N   UNL     1      -6.223   9.110  11.110  1.00  0.00    -0.354 N 
ATOM     49  C   UNL     1      -5.256  14.468   9.862  1.00  0.00     0.074 A 
ATOM     50  C   UNL     1      -3.823  14.427  10.033  1.00  0.00     0.031 C 
ATOM     51  C   UNL     1      -7.905   9.871   9.800  1.00  0.00     0.029 A 
ATOM     52  C   UNL     1      -7.634   9.086  10.987  1.00  0.00     0.049 A 
ATOM     53  H   UNL     1      -5.649   8.408  11.495  1.00  0.00     0.167 HD
ATOM     54  C   UNL     1      -6.146  15.269   9.211  1.00  0.00     0.037 A 
ATOM     55  C   UNL     1      -8.444   9.014  12.085  1.00  0.00     0.037 A 
ATOM     56  C   UNL     1      -7.488  14.685   9.275  1.00  0.00     0.049 A 
ATOM     57  C   UNL     1      -9.337  10.216  12.252  1.00  0.00     0.074 A 
ATOM     58  C   UNL     1      -8.197  13.886   8.392  1.00  0.00     0.029 A 
ATOM     59  N   UNL     1      -8.133  14.576  10.502  1.00  0.00    -0.354 N 
ATOM     60  N   UNL     1      -9.152  11.354  11.643  1.00  0.00    -0.248 NA
ATOM     61  C   UNL     1     -10.498  10.232  13.129  1.00  0.00     0.031 C 
ATOM     62  C   UNL     1      -9.274  13.293   9.100  1.00  0.00     0.029 A 
ATOM     63  C   UNL     1      -9.238  13.749  10.407  1.00  0.00     0.049 A 
ATOM     64  H   UNL     1      -7.842  15.027  11.328  1.00  0.00     0.167 HD
ATOM     65  C   UNL     1     -10.123  12.249  12.023  1.00  0.00     0.074 A 
ATOM     66  C   UNL     1     -10.959  11.479  12.927  1.00  0.00     0.031 C 
ATOM     67  C   UNL     1     -10.121  13.539  11.554  1.00  0.00     0.037 A 
BRANCH  54  68
ATOM     68  C   UNL     1      -5.764  16.390   8.268  1.00  0.00     0.064 A 
ATOM     69  C   UNL     1      -6.628  16.761   7.213  1.00  0.00     0.173 A 
ATOM     70  C   UNL     1      -4.552  17.105   8.305  1.00  0.00     0.173 A 
ATOM     71  F   UNL     1      -7.859  16.245   7.101  1.00  0.00    -0.203 F 
ATOM     72  C   UNL     1      -6.262  17.680   6.225  1.00  0.00     0.198 A 
ATOM     73  C   UNL     1      -4.163  17.986   7.290  1.00  0.00     0.198 A 
ATOM     74  F   UNL     1      -3.725  17.027   9.354  1.00  0.00    -0.203 F 
ATOM     75  F   UNL     1      -7.126  17.980   5.245  1.00  0.00    -0.200 F 
ATOM     76  C   UNL     1      -5.015  18.267   6.243  1.00  0.00     0.200 A 
ATOM     77  F   UNL     1      -2.955  18.566   7.340  1.00  0.00    -0.200 F 
ATOM     78  F   UNL     1      -4.649  19.119   5.277  1.00  0.00    -0.200 F 
ENDBRANCH  54  68
BRANCH  55  79
ATOM     79  C   UNL     1      -7.825   8.222  13.185  1.00  0.00     0.064 A 
ATOM     80  C   UNL     1      -7.507   6.887  12.866  1.00  0.00     0.173 A 
ATOM     81  C   UNL     1      -7.054   8.865  14.159  1.00  0.00     0.173 A 
ATOM     82  F   UNL     1      -8.267   6.208  11.991  1.00  0.00    -0.203 F 
ATOM     83  C   UNL     1      -6.291   6.340  13.260  1.00  0.00     0.198 A 
ATOM     84  C   UNL     1      -5.867   8.284  14.601  1.00  0.00     0.198 A 
ATOM     85  F   UNL     1      -7.361  10.108  14.557  1.00  0.00    -0.203 F 
ATOM     86  F   UNL     1      -5.886   5.173  12.738  1.00  0.00    -0.200 F 
ATOM     87  C   UNL     1      -5.447   7.065  14.083  1.00  0.00     0.200 A 
ATOM     88  F   UNL     1      -5.075   8.957  15.447  1.00  0.00    -0.200 F 
ATOM     89  F   UNL     1      -4.211   6.611  14.332  1.00  0.00    -0.200 F 
ENDBRANCH  55  79
BRANCH  67  90
ATOM     90  C   UNL     1     -10.969  14.719  12.023  1.00  0.00     0.064 A 
ATOM     91  C   UNL     1     -11.783  14.739  13.167  1.00  0.00     0.173 A 
ATOM     92  C   UNL     1     -10.904  15.967  11.338  1.00  0.00     0.173 A 
ATOM     93  F   UNL     1     -11.869  13.697  13.996  1.00  0.00    -0.203 F 
ATOM     94  C   UNL     1     -12.510  15.872  13.556  1.00  0.00     0.198 A 
ATOM     95  C   UNL     1     -11.567  17.115  11.772  1.00  0.00     0.198 A 
ATOM     96  F   UNL     1     -10.174  16.137  10.228  1.00  0.00    -0.203 F 
ATOM     97  F   UNL     1     -13.312  15.802  14.627  1.00  0.00    -0.200 F 
ATOM     98  C   UNL     1     -12.389  17.062  12.871  1.00  0.00     0.200 A 
ATOM     99  F   UNL     1     -11.386  18.273  11.121  1.00  0.00    -0.200 F 
ATOM    100  F   UNL     1     -13.044  18.156  13.281  1.00  0.00    -0.200 F 
ENDBRANCH  67  90
ENDBRANCH  41  42
ENDBRANCH  33  36
ENDBRANCH  31  32
ENDBRANCH  30  31
ENDBRANCH  29  30
ENDBRANCH  28  29
ENDBRANCH   1  28
TORSDOF 18
