REMARK SMILES CCOC(=O)[C@H]1CCCN(c2cc(C(=O)NCCCCCCNC(=O)c3ccc(-c4c5nc(c(-c6c(F)c(F)c(F)c(F)c6F)c6ccc([nH]6)c(-c6c(F)c(F)c(F)c(F)c6F)c6nc(c(-c7c(F)c(F)c(F)c(F)c7F)c7ccc4[nH]7)C=C6)C=C5)cc3)c3cc(NC(=O)c4ccc(Cl)cc4)ccc3n2)C1
REMARK SMILES IDX 18 1 17 2 16 3 14 4 15 5 13 7 11 8 12 9 105 10 104 11 89 12
REMARK SMILES IDX 103 13 90 14 102 15 91 16 10 17 6 18 7 19 106 20 8 21 9 22
REMARK SMILES IDX 4 23 5 24 3 25 2 26 1 27 92 28 93 29 94 31 95 32 96 33
REMARK SMILES IDX 101 34 97 35 100 36 98 37 99 38 19 39 20 40 21 41 22 42
REMARK SMILES IDX 23 43 24 44 25 46 26 47 27 48 88 49 28 50 87 51 29 52 30 53
REMARK SMILES IDX 31 54 81 55 32 56 86 57 80 58 82 59 33 60 85 61 79 62 78 63
REMARK SMILES IDX 34 65 66 66 46 67 65 68 47 69 50 70 64 71 83 72 48 73 49 74
REMARK SMILES IDX 63 76 84 77 51 78 35 79 36 80 44 81 37 82 38 83 42 84 45 85
REMARK SMILES IDX 39 86 40 87 43 88 41 89 67 90 68 91 76 92 69 93 70 94 74 95
REMARK SMILES IDX 77 96 71 97 72 98 75 99 73 100 52 101 53 102 61 103 54 104
REMARK SMILES IDX 55 105 59 106 62 107 56 108 57 109 60 110 58 111
REMARK H PARENT 16 6 92 30 23 45 82 64 50 75
REMARK Flexibility Score: inf
ROOT
ATOM      1  C   UNL     1      -6.097   4.613   0.494  1.00  0.00     0.021 C 
ENDROOT
BRANCH   1   2
ATOM      2  C   UNL     1      -4.643   5.044   0.720  1.00  0.00     0.116 C 
BRANCH   2   3
ATOM      3  N   UNL     1      -3.651   3.978   0.712  1.00  0.00    -0.352 N 
ATOM      4  C   UNL     1      -2.301   3.898   0.420  1.00  0.00     0.252 C 
ATOM      5  O   UNL     1      -1.800   2.779   0.575  1.00  0.00    -0.269 OA
ATOM      6  H   UNL     1      -4.031   3.109   0.977  1.00  0.00     0.163 HD
BRANCH   4   7
ATOM      7  C   UNL     1      -1.392   4.988  -0.092  1.00  0.00     0.052 A 
ATOM      8  C   UNL     1       0.703   5.418  -1.260  1.00  0.00     0.130 A 
ATOM      9  C   UNL     1      -0.301   4.540  -0.856  1.00  0.00     0.061 A 
ATOM     10  N   UNL     1       0.582   6.742  -1.058  1.00  0.00    -0.231 NA
ATOM     11  C   UNL     1      -0.437   7.202  -0.324  1.00  0.00     0.074 A 
ATOM     12  C   UNL     1      -1.391   6.349   0.263  1.00  0.00     0.015 A 
ATOM     13  C   UNL     1      -0.498   8.568  -0.060  1.00  0.00     0.031 A 
ATOM     14  C   UNL     1      -2.193   6.894   1.267  1.00  0.00     0.037 A 
ATOM     15  C   UNL     1      -1.373   9.100   0.895  1.00  0.00     0.028 A 
ATOM     16  C   UNL     1      -2.153   8.233   1.642  1.00  0.00     0.042 A 
BRANCH   8  17
ATOM     17  N   UNL     1       1.894   4.922  -1.752  1.00  0.00    -0.356 N 
ATOM     18  C   UNL     1       2.939   2.970  -2.755  1.00  0.00     0.118 C 
ATOM     19  C   UNL     1       4.314   3.566  -2.417  1.00  0.00     0.019 C 
ATOM     20  C   UNL     1       1.891   4.071  -2.933  1.00  0.00     0.133 C 
ATOM     21  C   UNL     1       4.240   4.568  -1.260  1.00  0.00     0.022 C 
ATOM     22  C   UNL     1       3.143   5.620  -1.466  1.00  0.00     0.118 C 
BRANCH  18  23
ATOM     23  C   UNL     1       2.983   2.148  -4.024  1.00  0.00     0.310 C 
ATOM     24  O   UNL     1       2.296   2.362  -5.016  1.00  0.00    -0.252 OA
BRANCH  23  25
ATOM     25  O   UNL     1       3.857   1.112  -3.896  1.00  0.00    -0.466 OA
BRANCH  25  26
ATOM     26  C   UNL     1       3.948   0.246  -5.037  1.00  0.00     0.229 C 
ATOM     27  C   UNL     1       2.848  -0.798  -4.992  1.00  0.00     0.049 C 
ENDBRANCH  25  26
ENDBRANCH  23  25
ENDBRANCH  18  23
ENDBRANCH   8  17
BRANCH  16  28
ATOM     28  N   UNL     1      -2.864   8.710   2.759  1.00  0.00    -0.322 N 
ATOM     29  C   UNL     1      -3.346   8.010   3.855  1.00  0.00     0.255 C 
ATOM     30  H   UNL     1      -3.045   9.678   2.762  1.00  0.00     0.170 HD
ATOM     31  O   UNL     1      -4.229   8.492   4.561  1.00  0.00    -0.269 OA
BRANCH  29  32
ATOM     32  C   UNL     1      -2.786   6.673   4.211  1.00  0.00     0.040 A 
ATOM     33  C   UNL     1      -3.675   5.623   4.460  1.00  0.00     0.015 A 
ATOM     34  C   UNL     1      -1.407   6.421   4.190  1.00  0.00     0.015 A 
ATOM     35  C   UNL     1      -3.204   4.311   4.561  1.00  0.00     0.021 A 
ATOM     36  C   UNL     1      -0.936   5.108   4.299  1.00  0.00     0.021 A 
ATOM     37  C   UNL     1      -1.838   4.057   4.460  1.00  0.00     0.041 A 
ATOM     38  Cl  UNL     1      -1.266   2.437   4.526  1.00  0.00    -0.084 Cl
ENDBRANCH  29  32
ENDBRANCH  16  28
ENDBRANCH   4   7
ENDBRANCH   2   3
ENDBRANCH   1   2
BRANCH   1  39
ATOM     39  C   UNL     1      -6.780   3.697   1.526  1.00  0.00     0.002 C 
BRANCH  39  40
ATOM     40  C   UNL     1      -6.903   4.116   2.999  1.00  0.00     0.002 C 
BRANCH  40  41
ATOM     41  C   UNL     1      -7.188   5.577   3.344  1.00  0.00     0.021 C 
BRANCH  41  42
ATOM     42  C   UNL     1      -8.492   6.178   2.839  1.00  0.00     0.116 C 
BRANCH  42  43
ATOM     43  N   UNL     1      -9.660   5.730   3.578  1.00  0.00    -0.352 N 
ATOM     44  C   UNL     1     -10.605   6.447   4.276  1.00  0.00     0.251 C 
ATOM     45  H   UNL     1      -9.799   4.755   3.579  1.00  0.00     0.163 HD
ATOM     46  O   UNL     1     -11.441   5.843   4.946  1.00  0.00    -0.269 OA
BRANCH  44  47
ATOM     47  C   UNL     1     -10.646   7.933   4.247  1.00  0.00     0.039 A 
ATOM     48  C   UNL     1     -11.034   8.620   5.407  1.00  0.00     0.014 A 
ATOM     49  C   UNL     1     -10.395   8.658   3.080  1.00  0.00     0.014 A 
ATOM     50  C   UNL     1     -11.139  10.017   5.402  1.00  0.00     0.010 A 
ATOM     51  C   UNL     1     -10.424  10.053   3.095  1.00  0.00     0.010 A 
ATOM     52  C   UNL     1     -10.826  10.746   4.247  1.00  0.00    -0.014 A 
BRANCH  52  53
ATOM     53  C   UNL     1     -10.994  12.223   4.185  1.00  0.00     0.031 A 
ATOM     54  C   UNL     1     -12.035  12.812   3.268  1.00  0.00     0.074 A 
ATOM     55  C   UNL     1     -10.184  13.033   4.892  1.00  0.00     0.049 A 
ATOM     56  N   UNL     1     -12.278  14.066   2.980  1.00  0.00    -0.248 NA
ATOM     57  C   UNL     1     -12.898  11.858   2.554  1.00  0.00     0.031 C 
ATOM     58  C   UNL     1      -9.115  12.589   5.785  1.00  0.00     0.029 A 
ATOM     59  N   UNL     1     -10.126  14.404   4.956  1.00  0.00    -0.354 N 
ATOM     60  C   UNL     1     -13.296  14.047   2.034  1.00  0.00     0.074 A 
ATOM     61  C   UNL     1     -13.595  12.658   1.762  1.00  0.00     0.031 C 
ATOM     62  C   UNL     1      -8.513  13.666   6.317  1.00  0.00     0.029 A 
ATOM     63  C   UNL     1      -9.133  14.875   5.781  1.00  0.00     0.049 A 
ATOM     64  H   UNL     1     -10.737  14.993   4.458  1.00  0.00     0.167 HD
ATOM     65  C   UNL     1     -13.939  15.092   1.460  1.00  0.00     0.037 A 
ATOM     66  C   UNL     1      -8.764  16.139   6.065  1.00  0.00     0.037 A 
ATOM     67  C   UNL     1     -13.672  16.472   1.767  1.00  0.00     0.049 A 
ATOM     68  C   UNL     1      -9.512  17.284   5.436  1.00  0.00     0.074 A 
ATOM     69  C   UNL     1     -14.310  17.603   1.290  1.00  0.00     0.029 A 
ATOM     70  N   UNL     1     -12.688  16.906   2.642  1.00  0.00    -0.354 N 
ATOM     71  N   UNL     1     -10.507  17.253   4.582  1.00  0.00    -0.248 NA
ATOM     72  C   UNL     1      -9.093  18.640   5.818  1.00  0.00     0.031 C 
ATOM     73  C   UNL     1     -13.689  18.724   1.850  1.00  0.00     0.029 A 
ATOM     74  C   UNL     1     -12.692  18.289   2.709  1.00  0.00     0.049 A 
ATOM     75  H   UNL     1     -12.076  16.318   3.142  1.00  0.00     0.167 HD
ATOM     76  C   UNL     1     -10.850  18.577   4.346  1.00  0.00     0.074 A 
ATOM     77  C   UNL     1      -9.964  19.389   5.155  1.00  0.00     0.031 C 
ATOM     78  C   UNL     1     -11.811  19.077   3.531  1.00  0.00     0.037 A 
BRANCH  65  79
ATOM     79  C   UNL     1     -15.002  14.781   0.445  1.00  0.00     0.064 A 
ATOM     80  C   UNL     1     -16.229  14.211   0.815  1.00  0.00     0.173 A 
ATOM     81  C   UNL     1     -14.802  15.086  -0.910  1.00  0.00     0.173 A 
ATOM     82  F   UNL     1     -16.466  13.890   2.095  1.00  0.00    -0.203 F 
ATOM     83  C   UNL     1     -17.205  13.929  -0.138  1.00  0.00     0.198 A 
ATOM     84  C   UNL     1     -15.792  14.830  -1.856  1.00  0.00     0.198 A 
ATOM     85  F   UNL     1     -13.649  15.638  -1.317  1.00  0.00    -0.203 F 
ATOM     86  F   UNL     1     -18.349  13.337   0.232  1.00  0.00    -0.200 F 
ATOM     87  C   UNL     1     -16.988  14.244  -1.471  1.00  0.00     0.200 A 
ATOM     88  F   UNL     1     -15.586  15.146  -3.142  1.00  0.00    -0.200 F 
ATOM     89  F   UNL     1     -17.930  13.977  -2.386  1.00  0.00    -0.200 F 
ENDBRANCH  65  79
BRANCH  66  90
ATOM     90  C   UNL     1      -7.650  16.388   7.016  1.00  0.00     0.064 A 
ATOM     91  C   UNL     1      -7.900  16.909   8.293  1.00  0.00     0.173 A 
ATOM     92  C   UNL     1      -6.319  16.109   6.674  1.00  0.00     0.173 A 
ATOM     93  F   UNL     1      -9.154  17.215   8.657  1.00  0.00    -0.203 F 
ATOM     94  C   UNL     1      -6.860  17.156   9.187  1.00  0.00     0.198 A 
ATOM     95  C   UNL     1      -5.282  16.332   7.578  1.00  0.00     0.198 A 
ATOM     96  F   UNL     1      -6.027  15.610   5.464  1.00  0.00    -0.203 F 
ATOM     97  F   UNL     1      -7.123  17.693  10.386  1.00  0.00    -0.200 F 
ATOM     98  C   UNL     1      -5.552  16.861   8.831  1.00  0.00     0.200 A 
ATOM     99  F   UNL     1      -4.021  16.038   7.234  1.00  0.00    -0.200 F 
ATOM    100  F   UNL     1      -4.553  17.095   9.693  1.00  0.00    -0.200 F 
ENDBRANCH  66  90
BRANCH  78 101
ATOM    101  C   UNL     1     -11.980  20.567   3.501  1.00  0.00     0.064 A 
ATOM    102  C   UNL     1     -11.058  21.397   2.849  1.00  0.00     0.173 A 
ATOM    103  C   UNL     1     -13.103  21.165   4.092  1.00  0.00     0.173 A 
ATOM    104  F   UNL     1      -9.961  20.873   2.280  1.00  0.00    -0.203 F 
ATOM    105  C   UNL     1     -11.244  22.776   2.807  1.00  0.00     0.198 A 
ATOM    106  C   UNL     1     -13.299  22.541   4.027  1.00  0.00     0.198 A 
ATOM    107  F   UNL     1     -14.017  20.411   4.722  1.00  0.00    -0.203 F 
ATOM    108  F   UNL     1     -10.330  23.556   2.213  1.00  0.00    -0.200 F 
ATOM    109  C   UNL     1     -12.367  23.346   3.390  1.00  0.00     0.200 A 
ATOM    110  F   UNL     1     -14.390  23.088   4.580  1.00  0.00    -0.200 F 
ATOM    111  F   UNL     1     -12.547  24.673   3.343  1.00  0.00    -0.200 F 
ENDBRANCH  78 101
ENDBRANCH  52  53
ENDBRANCH  44  47
ENDBRANCH  42  43
ENDBRANCH  41  42
ENDBRANCH  40  41
ENDBRANCH  39  40
ENDBRANCH   1  39
TORSDOF 19
