REMARK SMILES CN(CC(=O)NCCCCCCNC(=O)c1ccc(-c2c3nc(c(-c4c(F)c(F)c(F)c(F)c4F)c4ccc([nH]4)c(-c4c(F)c(F)c(F)c(F)c4F)c4nc(c(-c5c(F)c(F)c(F)c(F)c5F)c5ccc2[nH]5)C=C4)C=C3)cc1)C(=O)[C@@H]1CC[C@@H](C[NH3+])O1
REMARK SMILES IDX 8 1 7 2 6 3 4 4 5 5 3 7 2 8 1 9 79 10 80 11 81 12 82 13
REMARK SMILES IDX 87 14 83 15 84 16 85 17 86 18 9 22 10 23 11 24 12 25 13 26
REMARK SMILES IDX 14 27 15 29 16 30 17 31 78 32 18 33 77 34 19 35 20 36 21 37
REMARK SMILES IDX 71 38 22 39 76 40 70 41 72 42 23 43 75 44 69 45 68 46 24 48
REMARK SMILES IDX 56 49 36 50 55 51 37 52 40 53 54 54 73 55 38 56 39 57 53 59
REMARK SMILES IDX 74 60 41 61 25 62 26 63 34 64 27 65 28 66 32 67 35 68 29 69
REMARK SMILES IDX 30 70 33 71 31 72 57 73 58 74 66 75 59 76 60 77 64 78 67 79
REMARK SMILES IDX 61 80 62 81 65 82 63 83 42 84 43 85 51 86 44 87 45 88 49 89
REMARK SMILES IDX 52 90 46 91 47 92 50 93 48 94
REMARK H PARENT 6 6 86 19 86 20 86 21 13 28 72 47 40 58
REMARK Flexibility Score: inf
ROOT
ATOM      1  C   UNL     1      -2.191  -0.835  -1.443  1.00  0.00     0.021 C 
ENDROOT
BRANCH   1   2
ATOM      2  C   UNL     1      -2.232  -0.140  -0.085  1.00  0.00     0.116 C 
BRANCH   2   3
ATOM      3  N   UNL     1      -2.532  -1.057   0.991  1.00  0.00    -0.355 N 
ATOM      4  C   UNL     1      -1.710  -1.562   1.953  1.00  0.00     0.239 C 
ATOM      5  O   UNL     1      -2.231  -2.197   2.876  1.00  0.00    -0.273 OA
ATOM      6  H   UNL     1      -3.467  -1.361   1.035  1.00  0.00     0.163 HD
BRANCH   4   7
ATOM      7  C   UNL     1      -0.219  -1.191   2.006  1.00  0.00     0.219 C 
BRANCH   7   8
ATOM      8  N   UNL     1       0.574  -1.367   0.783  1.00  0.00    -0.334 N 
ATOM      9  C   UNL     1       1.246  -0.207   0.220  1.00  0.00     0.147 C 
BRANCH   8  10
ATOM     10  C   UNL     1       0.968  -2.613   0.287  1.00  0.00     0.251 C 
ATOM     11  O   UNL     1       1.770  -2.694  -0.648  1.00  0.00    -0.272 OA
BRANCH  10  12
ATOM     12  C   UNL     1       0.375  -3.876   0.942  1.00  0.00     0.208 C 
ATOM     13  C   UNL     1       1.100  -5.157   0.556  1.00  0.00     0.045 C 
ATOM     14  O   UNL     1      -0.996  -4.063   0.557  1.00  0.00    -0.359 OA
ATOM     15  C   UNL     1       0.027  -6.192   0.774  1.00  0.00     0.041 C 
ATOM     16  C   UNL     1      -1.210  -5.460   0.276  1.00  0.00     0.174 C 
BRANCH  16  17
ATOM     17  C   UNL     1      -2.516  -5.925   0.932  1.00  0.00     0.291 C 
BRANCH  17  18
ATOM     18  N   UNL     1      -2.801  -7.342   0.706  1.00  0.00    -0.355 N 
ATOM     19  H   UNL     1      -2.908  -7.512  -0.294  1.00  0.00     0.344 HD
ATOM     20  H   UNL     1      -3.662  -7.597   1.189  1.00  0.00     0.344 HD
ATOM     21  H   UNL     1      -2.030  -7.905   1.065  1.00  0.00     0.344 HD
ENDBRANCH  17  18
ENDBRANCH  16  17
ENDBRANCH  10  12
ENDBRANCH   8  10
ENDBRANCH   7   8
ENDBRANCH   4   7
ENDBRANCH   2   3
ENDBRANCH   1   2
BRANCH   1  22
ATOM     22  C   UNL     1      -3.550  -1.365  -1.919  1.00  0.00     0.002 C 
BRANCH  22  23
ATOM     23  C   UNL     1      -4.682  -0.331  -1.968  1.00  0.00     0.002 C 
BRANCH  23  24
ATOM     24  C   UNL     1      -4.378   0.932  -2.775  1.00  0.00     0.021 C 
BRANCH  24  25
ATOM     25  C   UNL     1      -4.090   0.684  -4.251  1.00  0.00     0.116 C 
BRANCH  25  26
ATOM     26  N   UNL     1      -5.263   0.205  -4.968  1.00  0.00    -0.352 N 
ATOM     27  C   UNL     1      -5.829   0.695  -6.119  1.00  0.00     0.251 C 
ATOM     28  H   UNL     1      -5.711  -0.578  -4.573  1.00  0.00     0.163 HD
ATOM     29  O   UNL     1      -6.922   0.290  -6.502  1.00  0.00    -0.269 OA
BRANCH  27  30
ATOM     30  C   UNL     1      -5.118   1.737  -6.888  1.00  0.00     0.039 A 
ATOM     31  C   UNL     1      -5.817   2.871  -7.311  1.00  0.00     0.014 A 
ATOM     32  C   UNL     1      -3.758   1.598  -7.176  1.00  0.00     0.014 A 
ATOM     33  C   UNL     1      -5.136   3.898  -7.968  1.00  0.00     0.010 A 
ATOM     34  C   UNL     1      -3.067   2.652  -7.764  1.00  0.00     0.010 A 
ATOM     35  C   UNL     1      -3.749   3.811  -8.169  1.00  0.00    -0.014 A 
BRANCH  35  36
ATOM     36  C   UNL     1      -2.981   4.899  -8.827  1.00  0.00     0.031 A 
ATOM     37  C   UNL     1      -2.282   4.625 -10.131  1.00  0.00     0.074 A 
ATOM     38  C   UNL     1      -2.839   6.093  -8.220  1.00  0.00     0.049 A 
ATOM     39  N   UNL     1      -1.425   5.365 -10.785  1.00  0.00    -0.248 NA
ATOM     40  C   UNL     1      -2.565   3.328 -10.768  1.00  0.00     0.031 C 
ATOM     41  C   UNL     1      -3.445   6.473  -6.943  1.00  0.00     0.029 A 
ATOM     42  N   UNL     1      -2.114   7.201  -8.585  1.00  0.00    -0.354 N 
ATOM     43  C   UNL     1      -1.056   4.620 -11.898  1.00  0.00     0.074 A 
ATOM     44  C   UNL     1      -1.738   3.348 -11.803  1.00  0.00     0.031 C 
ATOM     45  C   UNL     1      -3.070   7.725  -6.633  1.00  0.00     0.029 A 
ATOM     46  C   UNL     1      -2.161   8.219  -7.663  1.00  0.00     0.049 A 
ATOM     47  H   UNL     1      -1.610   7.261  -9.428  1.00  0.00     0.167 HD
ATOM     48  C   UNL     1      -0.243   4.975 -12.920  1.00  0.00     0.037 A 
ATOM     49  C   UNL     1      -1.522   9.405  -7.641  1.00  0.00     0.037 A 
ATOM     50  C   UNL     1       0.415   6.250 -13.023  1.00  0.00     0.049 A 
ATOM     51  C   UNL     1      -0.601   9.764  -8.780  1.00  0.00     0.074 A 
ATOM     52  C   UNL     1       1.247   6.713 -14.027  1.00  0.00     0.029 A 
ATOM     53  N   UNL     1       0.307   7.269 -12.090  1.00  0.00    -0.354 N 
ATOM     54  N   UNL     1      -0.287   9.065  -9.843  1.00  0.00    -0.248 NA
ATOM     55  C   UNL     1       0.050  11.081  -8.719  1.00  0.00     0.031 C 
ATOM     56  C   UNL     1       1.669   8.001 -13.686  1.00  0.00     0.029 A 
ATOM     57  C   UNL     1       1.059   8.359 -12.495  1.00  0.00     0.049 A 
ATOM     58  H   UNL     1      -0.226   7.225 -11.263  1.00  0.00     0.167 HD
ATOM     59  C   UNL     1       0.557   9.870 -10.595  1.00  0.00     0.074 A 
ATOM     60  C   UNL     1       0.704  11.114  -9.871  1.00  0.00     0.031 C 
ATOM     61  C   UNL     1       1.158   9.605 -11.780  1.00  0.00     0.037 A 
BRANCH  48  62
ATOM     62  C   UNL     1      -0.032   3.978 -14.022  1.00  0.00     0.064 A 
ATOM     63  C   UNL     1      -1.058   3.663 -14.926  1.00  0.00     0.173 A 
ATOM     64  C   UNL     1       1.220   3.376 -14.213  1.00  0.00     0.173 A 
ATOM     65  F   UNL     1      -2.277   4.203 -14.779  1.00  0.00    -0.203 F 
ATOM     66  C   UNL     1      -0.844   2.765 -15.968  1.00  0.00     0.198 A 
ATOM     67  C   UNL     1       1.439   2.502 -15.275  1.00  0.00     0.198 A 
ATOM     68  F   UNL     1       2.236   3.648 -13.381  1.00  0.00    -0.203 F 
ATOM     69  F   UNL     1      -1.850   2.448 -16.794  1.00  0.00    -0.200 F 
ATOM     70  C   UNL     1       0.407   2.193 -16.147  1.00  0.00     0.200 A 
ATOM     71  F   UNL     1       2.652   1.962 -15.456  1.00  0.00    -0.200 F 
ATOM     72  F   UNL     1       0.616   1.341 -17.160  1.00  0.00    -0.200 F 
ENDBRANCH  48  62
BRANCH  49  73
ATOM     73  C   UNL     1      -1.719  10.347  -6.506  1.00  0.00     0.064 A 
ATOM     74  C   UNL     1      -2.357  11.582  -6.696  1.00  0.00     0.173 A 
ATOM     75  C   UNL     1      -1.235  10.056  -5.222  1.00  0.00     0.173 A 
ATOM     76  F   UNL     1      -2.820  11.916  -7.909  1.00  0.00    -0.203 F 
ATOM     77  C   UNL     1      -2.468  12.504  -5.657  1.00  0.00     0.198 A 
ATOM     78  C   UNL     1      -1.376  10.965  -4.175  1.00  0.00     0.198 A 
ATOM     79  F   UNL     1      -0.622   8.888  -4.983  1.00  0.00    -0.203 F 
ATOM     80  F   UNL     1      -3.022  13.703  -5.884  1.00  0.00    -0.200 F 
ATOM     81  C   UNL     1      -1.980  12.194  -4.397  1.00  0.00     0.200 A 
ATOM     82  F   UNL     1      -0.916  10.655  -2.955  1.00  0.00    -0.200 F 
ATOM     83  F   UNL     1      -2.079  13.084  -3.400  1.00  0.00    -0.200 F 
ENDBRANCH  49  73
BRANCH  61  84
ATOM     84  C   UNL     1       1.967  10.699 -12.412  1.00  0.00     0.064 A 
ATOM     85  C   UNL     1       3.219  11.080 -11.909  1.00  0.00     0.173 A 
ATOM     86  C   UNL     1       1.507  11.327 -13.580  1.00  0.00     0.173 A 
ATOM     87  F   UNL     1       3.696  10.519 -10.787  1.00  0.00    -0.203 F 
ATOM     88  C   UNL     1       3.973  12.064 -12.543  1.00  0.00     0.198 A 
ATOM     89  C   UNL     1       2.277  12.288 -14.227  1.00  0.00     0.198 A 
ATOM     90  F   UNL     1       0.319  10.992 -14.105  1.00  0.00    -0.203 F 
ATOM     91  F   UNL     1       5.150  12.442 -12.024  1.00  0.00    -0.200 F 
ATOM     92  C   UNL     1       3.507  12.660 -13.706  1.00  0.00     0.200 A 
ATOM     93  F   UNL     1       1.831  12.851 -15.359  1.00  0.00    -0.200 F 
ATOM     94  F   UNL     1       4.242  13.595 -14.322  1.00  0.00    -0.200 F 
ENDBRANCH  61  84
ENDBRANCH  35  36
ENDBRANCH  27  30
ENDBRANCH  25  26
ENDBRANCH  24  25
ENDBRANCH  23  24
ENDBRANCH  22  23
ENDBRANCH   1  22
TORSDOF 18
