REMARK SMILES COc1ccsc1CN(Cc1ccccc1)C(=O)/C=C/C(=O)NCCCCCCNC(=O)c1ccc(-c2c3nc(c(-c4c(F)c(F)c(F)c(F)c4F)c4ccc([nH]4)c(-c4c(F)c(F)c(F)c(F)c4F)c4nc(c(-c5c(F)c(F)c(F)c(F)c5F)c5ccc2[nH]5)C=C4)C=C3)cc1
REMARK SMILES IDX 25 1 24 2 23 3 21 4 22 5 20 7 19 8 17 9 18 10 9 11 8 12 7 13
REMARK SMILES IDX 3 14 4 15 5 16 6 17 2 18 1 19 10 20 11 21 12 22 16 23 13 24
REMARK SMILES IDX 15 25 14 26 26 27 27 28 28 29 29 30 30 31 31 32 32 34 33 35
REMARK SMILES IDX 34 36 95 37 35 38 94 39 36 40 37 41 38 42 88 43 39 44 93 45
REMARK SMILES IDX 87 46 89 47 40 48 92 49 86 50 85 51 41 53 73 54 53 55 72 56
REMARK SMILES IDX 54 57 57 58 71 59 90 60 55 61 56 62 70 64 91 65 58 66 42 67
REMARK SMILES IDX 43 68 51 69 44 70 45 71 49 72 52 73 46 74 47 75 50 76 48 77
REMARK SMILES IDX 74 78 75 79 83 80 76 81 77 82 81 83 84 84 78 85 79 86 82 87
REMARK SMILES IDX 80 88 59 89 60 90 68 91 61 92 62 93 66 94 69 95 63 96 64 97
REMARK SMILES IDX 67 98 65 99
REMARK H PARENT 23 6 30 33 89 52 57 63
REMARK Flexibility Score: inf
ROOT
ATOM      1  C   UNL     1      -2.911   2.611   6.858  1.00  0.00     0.021 C 
ENDROOT
BRANCH   1   2
ATOM      2  C   UNL     1      -3.738   2.162   5.659  1.00  0.00     0.116 C 
BRANCH   2   3
ATOM      3  N   UNL     1      -4.700   3.178   5.270  1.00  0.00    -0.353 N 
ATOM      4  C   UNL     1      -4.579   4.180   4.356  1.00  0.00     0.244 C 
ATOM      5  O   UNL     1      -5.385   5.106   4.338  1.00  0.00    -0.270 OA
ATOM      6  H   UNL     1      -5.567   3.137   5.736  1.00  0.00     0.163 HD
BRANCH   4   7
ATOM      7  C   UNL     1      -3.453   4.170   3.401  1.00  0.00     0.077 C 
ATOM      8  C   UNL     1      -3.227   3.064   2.684  1.00  0.00     0.077 C 
BRANCH   8   9
ATOM      9  C   UNL     1      -2.218   2.929   1.619  1.00  0.00     0.247 C 
ATOM     10  O   UNL     1      -1.326   2.107   1.820  1.00  0.00    -0.270 OA
BRANCH   9  11
ATOM     11  N   UNL     1      -2.429   3.599   0.422  1.00  0.00    -0.330 N 
BRANCH  11  12
ATOM     12  C   UNL     1      -1.543   3.304  -0.709  1.00  0.00     0.170 C 
BRANCH  12  13
ATOM     13  C   UNL     1      -0.086   3.463  -0.387  1.00  0.00     0.066 A 
ATOM     14  C   UNL     1       0.896   2.494  -0.451  1.00  0.00     0.134 A 
ATOM     15  C   UNL     1       2.170   2.971  -0.037  1.00  0.00     0.058 A 
ATOM     16  C   UNL     1       2.123   4.298   0.328  1.00  0.00     0.069 A 
ATOM     17  S   UNL     1       0.557   4.964   0.138  1.00  0.00    -0.143 S 
BRANCH  14  18
ATOM     18  O   UNL     1       0.604   1.252  -0.909  1.00  0.00    -0.496 OA
ATOM     19  C   UNL     1       1.052   0.227  -0.028  1.00  0.00     0.278 C 
ENDBRANCH  14  18
ENDBRANCH  12  13
ENDBRANCH  11  12
BRANCH  11  20
ATOM     20  C   UNL     1      -3.588   4.464   0.142  1.00  0.00     0.155 C 
BRANCH  20  21
ATOM     21  C   UNL     1      -4.947   3.844   0.405  1.00  0.00    -0.029 A 
ATOM     22  C   UNL     1      -5.987   4.664   0.871  1.00  0.00     0.005 A 
ATOM     23  C   UNL     1      -5.187   2.466   0.272  1.00  0.00     0.005 A 
ATOM     24  C   UNL     1      -7.198   4.111   1.287  1.00  0.00     0.000 A 
ATOM     25  C   UNL     1      -6.392   1.913   0.712  1.00  0.00     0.000 A 
ATOM     26  C   UNL     1      -7.391   2.734   1.230  1.00  0.00     0.000 A 
ENDBRANCH  20  21
ENDBRANCH  11  20
ENDBRANCH   9  11
ENDBRANCH   8   9
ENDBRANCH   4   7
ENDBRANCH   2   3
ENDBRANCH   1   2
BRANCH   1  27
ATOM     27  C   UNL     1      -3.684   2.618   8.179  1.00  0.00     0.002 C 
BRANCH  27  28
ATOM     28  C   UNL     1      -4.341   1.284   8.555  1.00  0.00     0.002 C 
BRANCH  28  29
ATOM     29  C   UNL     1      -3.420   0.063   8.500  1.00  0.00     0.021 C 
BRANCH  29  30
ATOM     30  C   UNL     1      -2.175   0.169   9.373  1.00  0.00     0.116 C 
BRANCH  30  31
ATOM     31  N   UNL     1      -2.512   0.280  10.782  1.00  0.00    -0.352 N 
ATOM     32  C   UNL     1      -2.120  -0.508  11.834  1.00  0.00     0.251 C 
ATOM     33  H   UNL     1      -3.107   1.029  11.016  1.00  0.00     0.163 HD
ATOM     34  O   UNL     1      -2.673  -0.409  12.923  1.00  0.00    -0.269 OA
BRANCH  32  35
ATOM     35  C   UNL     1      -1.033  -1.491  11.647  1.00  0.00     0.039 A 
ATOM     36  C   UNL     1      -1.184  -2.774  12.179  1.00  0.00     0.014 A 
ATOM     37  C   UNL     1       0.136  -1.145  10.963  1.00  0.00     0.014 A 
ATOM     38  C   UNL     1      -0.183  -3.726  11.980  1.00  0.00     0.010 A 
ATOM     39  C   UNL     1       1.098  -2.115  10.700  1.00  0.00     0.010 A 
ATOM     40  C   UNL     1       0.951  -3.413  11.213  1.00  0.00    -0.014 A 
BRANCH  40  41
ATOM     41  C   UNL     1       1.992  -4.434  10.935  1.00  0.00     0.031 A 
ATOM     42  C   UNL     1       3.390  -4.251  11.453  1.00  0.00     0.074 A 
ATOM     43  C   UNL     1       1.691  -5.491  10.157  1.00  0.00     0.049 A 
ATOM     44  N   UNL     1       4.446  -5.003  11.269  1.00  0.00    -0.248 NA
ATOM     45  C   UNL     1       3.643  -3.049  12.261  1.00  0.00     0.031 C 
ATOM     46  C   UNL     1       0.384  -5.744   9.548  1.00  0.00     0.029 A 
ATOM     47  N   UNL     1       2.465  -6.541   9.733  1.00  0.00    -0.354 N 
ATOM     48  C   UNL     1       5.488  -4.357  11.922  1.00  0.00     0.074 A 
ATOM     49  C   UNL     1       4.951  -3.126  12.460  1.00  0.00     0.031 C 
ATOM     50  C   UNL     1       0.442  -6.886   8.845  1.00  0.00     0.029 A 
ATOM     51  C   UNL     1       1.797  -7.423   8.920  1.00  0.00     0.049 A 
ATOM     52  H   UNL     1       3.410  -6.652   9.988  1.00  0.00     0.167 HD
ATOM     53  C   UNL     1       6.771  -4.765  12.075  1.00  0.00     0.037 A 
ATOM     54  C   UNL     1       2.231  -8.534   8.296  1.00  0.00     0.037 A 
ATOM     55  C   UNL     1       7.291  -6.002  11.553  1.00  0.00     0.049 A 
ATOM     56  C   UNL     1       3.658  -8.970   8.485  1.00  0.00     0.074 A 
ATOM     57  C   UNL     1       8.552  -6.547  11.721  1.00  0.00     0.029 A 
ATOM     58  N   UNL     1       6.579  -6.883  10.752  1.00  0.00    -0.354 N 
ATOM     59  N   UNL     1       4.613  -8.398   9.177  1.00  0.00    -0.248 NA
ATOM     60  C   UNL     1       4.066 -10.211   7.813  1.00  0.00     0.031 C 
ATOM     61  C   UNL     1       8.622  -7.726  10.971  1.00  0.00     0.029 A 
ATOM     62  C   UNL     1       7.385  -7.950  10.387  1.00  0.00     0.049 A 
ATOM     63  H   UNL     1       5.639  -6.768  10.481  1.00  0.00     0.167 HD
ATOM     64  C   UNL     1       5.726  -9.217   9.045  1.00  0.00     0.074 A 
ATOM     65  C   UNL     1       5.322 -10.337   8.220  1.00  0.00     0.031 C 
ATOM     66  C   UNL     1       6.970  -9.056   9.560  1.00  0.00     0.037 A 
BRANCH  53  67
ATOM     67  C   UNL     1       7.703  -3.858  12.827  1.00  0.00     0.064 A 
ATOM     68  C   UNL     1       7.560  -3.623  14.204  1.00  0.00     0.173 A 
ATOM     69  C   UNL     1       8.772  -3.233  12.166  1.00  0.00     0.173 A 
ATOM     70  F   UNL     1       6.550  -4.189  14.884  1.00  0.00    -0.203 F 
ATOM     71  C   UNL     1       8.425  -2.768  14.881  1.00  0.00     0.198 A 
ATOM     72  C   UNL     1       9.656  -2.405  12.854  1.00  0.00     0.198 A 
ATOM     73  F   UNL     1       8.962  -3.426  10.853  1.00  0.00    -0.203 F 
ATOM     74  F   UNL     1       8.231  -2.513  16.182  1.00  0.00    -0.200 F 
ATOM     75  C   UNL     1       9.476  -2.165  14.207  1.00  0.00     0.200 A 
ATOM     76  F   UNL     1      10.681  -1.836  12.204  1.00  0.00    -0.200 F 
ATOM     77  F   UNL     1      10.311  -1.345  14.861  1.00  0.00    -0.200 F 
ENDBRANCH  53  67
BRANCH  54  78
ATOM     78  C   UNL     1       1.292  -9.317   7.451  1.00  0.00     0.064 A 
ATOM     79  C   UNL     1       0.843 -10.582   7.852  1.00  0.00     0.173 A 
ATOM     80  C   UNL     1       0.809  -8.808   6.237  1.00  0.00     0.173 A 
ATOM     81  F   UNL     1       1.290 -11.120   8.997  1.00  0.00    -0.203 F 
ATOM     82  C   UNL     1      -0.043 -11.315   7.064  1.00  0.00     0.198 A 
ATOM     83  C   UNL     1      -0.099  -9.528   5.464  1.00  0.00     0.198 A 
ATOM     84  F   UNL     1       1.203  -7.598   5.811  1.00  0.00    -0.203 F 
ATOM     85  F   UNL     1      -0.426 -12.539   7.452  1.00  0.00    -0.200 F 
ATOM     86  C   UNL     1      -0.519 -10.784   5.874  1.00  0.00     0.200 A 
ATOM     87  F   UNL     1      -0.570  -9.004   4.324  1.00  0.00    -0.200 F 
ATOM     88  F   UNL     1      -1.379 -11.484   5.122  1.00  0.00    -0.200 F 
ENDBRANCH  54  78
BRANCH  66  89
ATOM     89  C   UNL     1       7.980 -10.128   9.267  1.00  0.00     0.064 A 
ATOM     90  C   UNL     1       8.523 -10.300   7.985  1.00  0.00     0.173 A 
ATOM     91  C   UNL     1       8.441 -10.969  10.292  1.00  0.00     0.173 A 
ATOM     92  F   UNL     1       8.106  -9.532   6.967  1.00  0.00    -0.203 F 
ATOM     93  C   UNL     1       9.469 -11.291   7.735  1.00  0.00     0.198 A 
ATOM     94  C   UNL     1       9.411 -11.936  10.046  1.00  0.00     0.198 A 
ATOM     95  F   UNL     1       7.959 -10.843  11.538  1.00  0.00    -0.203 F 
ATOM     96  F   UNL     1       9.936 -11.470   6.491  1.00  0.00    -0.200 F 
ATOM     97  C   UNL     1       9.918 -12.102   8.766  1.00  0.00     0.200 A 
ATOM     98  F   UNL     1       9.855 -12.708  11.047  1.00  0.00    -0.200 F 
ATOM     99  F   UNL     1      10.835 -13.049   8.525  1.00  0.00    -0.200 F 
ENDBRANCH  66  89
ENDBRANCH  40  41
ENDBRANCH  32  35
ENDBRANCH  30  31
ENDBRANCH  29  30
ENDBRANCH  28  29
ENDBRANCH  27  28
ENDBRANCH   1  27
TORSDOF 20
