REMARK SMILES COc1ccc(-n2c(C)nnc2SCC(=O)NCCCCCCNC(=O)c2ccc(-c3c4nc(c(-c5c(F)c(F)c(F)c(F)c5F)c5ccc([nH]5)c(-c5c(F)c(F)c(F)c(F)c5F)c5nc(c(-c6c(F)c(F)c(F)c(F)c6F)c6ccc3[nH]6)C=C5)C=C4)cc2)cc1F
REMARK SMILES IDX 19 1 18 2 17 3 15 4 16 5 14 7 13 8 12 9 7 10 8 11 9 12 10 13
REMARK SMILES IDX 11 14 6 15 3 16 4 17 91 18 5 19 90 20 92 21 2 22 1 23 20 24
REMARK SMILES IDX 21 25 22 26 23 27 24 28 25 29 26 31 27 32 28 33 89 34 29 35
REMARK SMILES IDX 88 36 30 37 31 38 32 39 82 40 33 41 87 42 81 43 83 44 34 45
REMARK SMILES IDX 86 46 80 47 79 48 35 50 67 51 47 52 66 53 48 54 51 55 65 56
REMARK SMILES IDX 84 57 49 58 50 59 64 61 85 62 52 63 36 64 37 65 45 66 38 67
REMARK SMILES IDX 39 68 43 69 46 70 40 71 41 72 44 73 42 74 68 75 69 76 77 77
REMARK SMILES IDX 70 78 71 79 75 80 78 81 72 82 73 83 76 84 74 85 53 86 54 87
REMARK SMILES IDX 62 88 55 89 56 90 60 91 63 92 57 93 58 94 61 95 59 96
REMARK H PARENT 17 6 24 30 83 49 51 60
REMARK Flexibility Score: inf
ROOT
ATOM      1  C   UNL     1       6.666   5.689  -2.616  1.00  0.00     0.021 C 
ENDROOT
BRANCH   1   2
ATOM      2  C   UNL     1       6.364   4.380  -3.342  1.00  0.00     0.116 C 
BRANCH   2   3
ATOM      3  N   UNL     1       5.342   3.590  -2.689  1.00  0.00    -0.355 N 
ATOM      4  C   UNL     1       4.228   3.020  -3.214  1.00  0.00     0.230 C 
ATOM      5  O   UNL     1       3.845   1.978  -2.667  1.00  0.00    -0.274 OA
ATOM      6  H   UNL     1       5.474   3.446  -1.724  1.00  0.00     0.163 HD
BRANCH   4   7
ATOM      7  C   UNL     1       3.491   3.527  -4.436  1.00  0.00     0.178 C 
BRANCH   7   8
ATOM      8  S   UNL     1       3.531   5.272  -4.799  1.00  0.00    -0.076 SA
BRANCH   8   9
ATOM      9  C   UNL     1       2.579   6.226  -3.720  1.00  0.00     0.196 A 
ATOM     10  N   UNL     1       1.569   5.887  -2.841  1.00  0.00    -0.274 N 
ATOM     11  C   UNL     1       1.025   7.097  -2.435  1.00  0.00     0.135 A 
ATOM     12  C   UNL     1      -0.089   7.278  -1.474  1.00  0.00     0.090 C 
ATOM     13  N   UNL     1       1.687   8.083  -3.001  1.00  0.00    -0.134 NA
ATOM     14  N   UNL     1       2.655   7.540  -3.795  1.00  0.00    -0.123 NA
BRANCH  10  15
ATOM     15  C   UNL     1       1.197   4.632  -2.339  1.00  0.00     0.053 A 
ATOM     16  C   UNL     1       0.479   2.127  -1.333  1.00  0.00     0.154 A 
ATOM     17  C   UNL     1      -0.328   2.774  -2.280  1.00  0.00     0.052 A 
ATOM     18  C   UNL     1       1.614   2.788  -0.854  1.00  0.00     0.167 A 
ATOM     19  C   UNL     1       0.015   4.034  -2.778  1.00  0.00     0.031 A 
ATOM     20  C   UNL     1       1.978   4.040  -1.348  1.00  0.00     0.070 A 
ATOM     21  F   UNL     1       2.408   2.241   0.079  1.00  0.00    -0.203 F 
BRANCH  16  22
ATOM     22  O   UNL     1       0.037   0.881  -0.981  1.00  0.00    -0.494 OA
ATOM     23  C   UNL     1       0.864   0.131  -0.098  1.00  0.00     0.278 C 
ENDBRANCH  16  22
ENDBRANCH  10  15
ENDBRANCH   8   9
ENDBRANCH   7   8
ENDBRANCH   4   7
ENDBRANCH   2   3
ENDBRANCH   1   2
BRANCH   1  24
ATOM     24  C   UNL     1       7.164   5.552  -1.171  1.00  0.00     0.002 C 
BRANCH  24  25
ATOM     25  C   UNL     1       8.324   4.578  -0.919  1.00  0.00     0.002 C 
BRANCH  25  26
ATOM     26  C   UNL     1       9.558   4.705  -1.822  1.00  0.00     0.021 C 
BRANCH  26  27
ATOM     27  C   UNL     1      10.239   6.064  -1.789  1.00  0.00     0.116 C 
BRANCH  27  28
ATOM     28  N   UNL     1      10.886   6.346  -0.514  1.00  0.00    -0.352 N 
ATOM     29  C   UNL     1      11.565   7.492  -0.147  1.00  0.00     0.251 C 
ATOM     30  H   UNL     1      10.832   5.637   0.166  1.00  0.00     0.163 HD
ATOM     31  O   UNL     1      12.396   7.466   0.746  1.00  0.00    -0.269 OA
BRANCH  29  32
ATOM     32  C   UNL     1      11.279   8.754  -0.861  1.00  0.00     0.039 A 
ATOM     33  C   UNL     1      12.312   9.642  -1.163  1.00  0.00     0.014 A 
ATOM     34  C   UNL     1       9.964   9.047  -1.228  1.00  0.00     0.014 A 
ATOM     35  C   UNL     1      12.021  10.780  -1.908  1.00  0.00     0.010 A 
ATOM     36  C   UNL     1       9.696  10.104  -2.071  1.00  0.00     0.010 A 
ATOM     37  C   UNL     1      10.714  10.990  -2.392  1.00  0.00    -0.014 A 
BRANCH  37  38
ATOM     38  C   UNL     1      10.469  12.057  -3.359  1.00  0.00     0.031 A 
ATOM     39  C   UNL     1      11.401  12.021  -4.515  1.00  0.00     0.074 A 
ATOM     40  C   UNL     1       9.437  12.928  -3.329  1.00  0.00     0.049 A 
ATOM     41  N   UNL     1      12.400  12.811  -4.717  1.00  0.00    -0.248 NA
ATOM     42  C   UNL     1      11.331  10.896  -5.459  1.00  0.00     0.031 C 
ATOM     43  C   UNL     1       8.265  12.911  -2.448  1.00  0.00     0.029 A 
ATOM     44  N   UNL     1       9.181  13.990  -4.150  1.00  0.00    -0.354 N 
ATOM     45  C   UNL     1      12.957  12.423  -5.929  1.00  0.00     0.074 A 
ATOM     46  C   UNL     1      12.384  11.141  -6.245  1.00  0.00     0.031 C 
ATOM     47  C   UNL     1       7.329  13.765  -2.921  1.00  0.00     0.029 A 
ATOM     48  C   UNL     1       7.899  14.518  -4.024  1.00  0.00     0.049 A 
ATOM     49  H   UNL     1       9.847  14.351  -4.779  1.00  0.00     0.167 HD
ATOM     50  C   UNL     1      13.621  13.334  -6.691  1.00  0.00     0.037 A 
ATOM     51  C   UNL     1       7.350  15.505  -4.774  1.00  0.00     0.037 A 
ATOM     52  C   UNL     1      13.894  14.527  -5.928  1.00  0.00     0.049 A 
ATOM     53  C   UNL     1       8.468  16.296  -5.333  1.00  0.00     0.074 A 
ATOM     54  C   UNL     1      14.697  14.865  -4.861  1.00  0.00     0.029 A 
ATOM     55  N   UNL     1      12.909  15.474  -6.012  1.00  0.00    -0.354 N 
ATOM     56  N   UNL     1       9.254  17.048  -4.616  1.00  0.00    -0.248 NA
ATOM     57  C   UNL     1       8.937  16.005  -6.681  1.00  0.00     0.031 C 
ATOM     58  C   UNL     1      14.002  15.899  -4.164  1.00  0.00     0.029 A 
ATOM     59  C   UNL     1      12.831  16.203  -4.859  1.00  0.00     0.049 A 
ATOM     60  H   UNL     1      12.333  15.611  -6.799  1.00  0.00     0.167 HD
ATOM     61  C   UNL     1      10.483  16.932  -5.232  1.00  0.00     0.074 A 
ATOM     62  C   UNL     1      10.188  16.458  -6.579  1.00  0.00     0.031 C 
ATOM     63  C   UNL     1      11.626  16.913  -4.488  1.00  0.00     0.037 A 
BRANCH  50  64
ATOM     64  C   UNL     1      13.577  13.381  -8.203  1.00  0.00     0.064 A 
ATOM     65  C   UNL     1      12.546  12.804  -8.974  1.00  0.00     0.173 A 
ATOM     66  C   UNL     1      14.399  14.304  -8.884  1.00  0.00     0.173 A 
ATOM     67  F   UNL     1      11.607  12.020  -8.433  1.00  0.00    -0.203 F 
ATOM     68  C   UNL     1      12.356  13.113 -10.320  1.00  0.00     0.198 A 
ATOM     69  C   UNL     1      14.172  14.652 -10.220  1.00  0.00     0.198 A 
ATOM     70  F   UNL     1      15.379  14.953  -8.237  1.00  0.00    -0.203 F 
ATOM     71  F   UNL     1      11.338  12.550 -10.986  1.00  0.00    -0.200 F 
ATOM     72  C   UNL     1      13.152  14.054 -10.937  1.00  0.00     0.200 A 
ATOM     73  F   UNL     1      14.903  15.619 -10.791  1.00  0.00    -0.200 F 
ATOM     74  F   UNL     1      12.900  14.420 -12.201  1.00  0.00    -0.200 F 
ENDBRANCH  50  64
BRANCH  51  75
ATOM     75  C   UNL     1       5.957  15.703  -5.242  1.00  0.00     0.064 A 
ATOM     76  C   UNL     1       5.089  14.612  -5.428  1.00  0.00     0.173 A 
ATOM     77  C   UNL     1       5.570  16.918  -5.840  1.00  0.00     0.173 A 
ATOM     78  F   UNL     1       5.392  13.404  -4.934  1.00  0.00    -0.203 F 
ATOM     79  C   UNL     1       3.946  14.711  -6.225  1.00  0.00     0.198 A 
ATOM     80  C   UNL     1       4.430  17.013  -6.642  1.00  0.00     0.198 A 
ATOM     81  F   UNL     1       6.348  18.005  -5.729  1.00  0.00    -0.203 F 
ATOM     82  F   UNL     1       3.194  13.624  -6.448  1.00  0.00    -0.200 F 
ATOM     83  C   UNL     1       3.630  15.904  -6.852  1.00  0.00     0.200 A 
ATOM     84  F   UNL     1       4.152  18.163  -7.274  1.00  0.00    -0.200 F 
ATOM     85  F   UNL     1       2.588  15.970  -7.692  1.00  0.00    -0.200 F 
ENDBRANCH  51  75
BRANCH  63  86
ATOM     86  C   UNL     1      11.577  17.546  -3.128  1.00  0.00     0.064 A 
ATOM     87  C   UNL     1      12.457  18.611  -2.886  1.00  0.00     0.173 A 
ATOM     88  C   UNL     1      10.778  17.111  -2.057  1.00  0.00     0.173 A 
ATOM     89  F   UNL     1      13.267  19.049  -3.863  1.00  0.00    -0.203 F 
ATOM     90  C   UNL     1      12.543  19.211  -1.635  1.00  0.00     0.198 A 
ATOM     91  C   UNL     1      10.835  17.744  -0.816  1.00  0.00     0.198 A 
ATOM     92  F   UNL     1       9.969  16.051  -2.180  1.00  0.00    -0.203 F 
ATOM     93  F   UNL     1      13.435  20.189  -1.427  1.00  0.00    -0.200 F 
ATOM     94  C   UNL     1      11.724  18.787  -0.604  1.00  0.00     0.200 A 
ATOM     95  F   UNL     1      10.046  17.331   0.187  1.00  0.00    -0.200 F 
ATOM     96  F   UNL     1      11.806  19.369   0.600  1.00  0.00    -0.200 F 
ENDBRANCH  63  86
ENDBRANCH  37  38
ENDBRANCH  29  32
ENDBRANCH  27  28
ENDBRANCH  26  27
ENDBRANCH  25  26
ENDBRANCH  24  25
ENDBRANCH   1  24
TORSDOF 17
