REMARK SMILES Cc1cc(N2CCC[C@H]2C2CCCC2)cc(C(=O)NCCCCCCNC(=O)c2ccc(-c3c4nc(c(-c5c(F)c(F)c(F)c(F)c5F)c5ccc([nH]5)c(-c5c(F)c(F)c(F)c(F)c5F)c5nc(c(-c6c(F)c(F)c(F)c(F)c6F)c6ccc3[nH]6)C=C5)C=C4)cc2)c1N
REMARK SMILES IDX 22 1 21 2 20 3 19 4 17 5 18 6 16 8 1 9 2 10 3 11 92 12 4 13
REMARK SMILES IDX 15 14 93 15 5 18 6 19 9 20 7 21 8 22 10 23 11 24 14 25 12 26
REMARK SMILES IDX 13 27 23 28 24 29 25 30 26 31 27 32 28 34 29 35 30 36 91 37
REMARK SMILES IDX 31 38 90 39 32 40 33 41 34 42 84 43 35 44 89 45 83 46 85 47
REMARK SMILES IDX 36 48 88 49 82 50 81 51 37 53 69 54 49 55 68 56 50 57 53 58
REMARK SMILES IDX 67 59 86 60 51 61 52 62 66 64 87 65 54 66 38 67 39 68 47 69
REMARK SMILES IDX 40 70 41 71 45 72 48 73 42 74 43 75 46 76 44 77 70 78 71 79
REMARK SMILES IDX 79 80 72 81 73 82 77 83 80 84 74 85 75 86 78 87 76 88 55 89
REMARK SMILES IDX 56 90 64 91 57 92 58 93 62 94 65 95 59 96 60 97 63 98 61 99
REMARK H PARENT 19 7 93 16 93 17 26 33 85 52 53 63
REMARK Flexibility Score: inf
ROOT
ATOM      1  C   UNL     1      -3.842  -5.687  -1.096  1.00  0.00     0.002 C 
ENDROOT
BRANCH   1   2
ATOM      2  C   UNL     1      -3.363  -4.230  -1.226  1.00  0.00     0.021 C 
BRANCH   2   3
ATOM      3  C   UNL     1      -2.446  -3.730  -0.096  1.00  0.00     0.116 C 
BRANCH   3   4
ATOM      4  N   UNL     1      -1.061  -3.650  -0.533  1.00  0.00    -0.352 N 
ATOM      5  C   UNL     1      -0.117  -2.654  -0.635  1.00  0.00     0.253 C 
ATOM      6  O   UNL     1       1.012  -3.046  -0.958  1.00  0.00    -0.269 OA
ATOM      7  H   UNL     1      -0.713  -4.523  -0.829  1.00  0.00     0.163 HD
BRANCH   5   8
ATOM      8  C   UNL     1      -0.329  -1.184  -0.368  1.00  0.00     0.065 A 
ATOM      9  C   UNL     1       1.791   1.917   0.433  1.00  0.00     0.046 C 
ATOM     10  C   UNL     1       0.613   1.008   0.190  1.00  0.00    -0.025 A 
ATOM     11  C   UNL     1      -0.678   1.566   0.127  1.00  0.00     0.031 A 
ATOM     12  C   UNL     1       0.793  -0.378  -0.029  1.00  0.00     0.047 A 
ATOM     13  C   UNL     1      -1.791   0.806  -0.250  1.00  0.00     0.038 A 
ATOM     14  C   UNL     1      -1.567  -0.550  -0.572  1.00  0.00     0.042 A 
BRANCH  12  15
ATOM     15  N   UNL     1       2.050  -0.946   0.226  1.00  0.00    -0.398 N 
ATOM     16  H   UNL     1       2.813  -0.369   0.459  1.00  0.00     0.156 HD
ATOM     17  H   UNL     1       2.169  -1.921   0.172  1.00  0.00     0.156 HD
ENDBRANCH  12  15
BRANCH  13  18
ATOM     18  N   UNL     1      -3.079   1.362  -0.350  1.00  0.00    -0.368 N 
ATOM     19  C   UNL     1      -3.209   2.529  -1.237  1.00  0.00     0.117 C 
ATOM     20  C   UNL     1      -3.849   1.608   0.911  1.00  0.00     0.085 C 
ATOM     21  C   UNL     1      -3.637   3.677  -0.330  1.00  0.00     0.024 C 
ATOM     22  C   UNL     1      -4.482   3.003   0.729  1.00  0.00     0.027 C 
BRANCH  20  23
ATOM     23  C   UNL     1      -4.951   0.561   1.206  1.00  0.00     0.011 C 
ATOM     24  C   UNL     1      -6.122   0.501   0.214  1.00  0.00     0.006 C 
ATOM     25  C   UNL     1      -4.445  -0.865   1.207  1.00  0.00     0.006 C 
ATOM     26  C   UNL     1      -6.756  -0.864   0.434  1.00  0.00     0.000 C 
ATOM     27  C   UNL     1      -5.634  -1.756   0.925  1.00  0.00     0.000 C 
ENDBRANCH  20  23
ENDBRANCH  13  18
ENDBRANCH   5   8
ENDBRANCH   3   4
ENDBRANCH   2   3
ENDBRANCH   1   2
BRANCH   1  28
ATOM     28  C   UNL     1      -4.780  -6.037   0.070  1.00  0.00     0.002 C 
BRANCH  28  29
ATOM     29  C   UNL     1      -6.117  -5.299   0.167  1.00  0.00     0.021 C 
BRANCH  29  30
ATOM     30  C   UNL     1      -6.992  -5.255  -1.082  1.00  0.00     0.116 C 
BRANCH  30  31
ATOM     31  N   UNL     1      -7.614  -6.541  -1.348  1.00  0.00    -0.352 N 
ATOM     32  C   UNL     1      -8.932  -6.914  -1.313  1.00  0.00     0.251 C 
ATOM     33  H   UNL     1      -6.987  -7.260  -1.593  1.00  0.00     0.163 HD
ATOM     34  O   UNL     1      -9.215  -8.118  -1.334  1.00  0.00    -0.269 OA
BRANCH  32  35
ATOM     35  C   UNL     1     -10.033  -5.923  -1.247  1.00  0.00     0.039 A 
ATOM     36  C   UNL     1     -11.162  -6.226  -0.475  1.00  0.00     0.014 A 
ATOM     37  C   UNL     1     -10.019  -4.746  -2.002  1.00  0.00     0.014 A 
ATOM     38  C   UNL     1     -12.248  -5.344  -0.429  1.00  0.00     0.010 A 
ATOM     39  C   UNL     1     -11.078  -3.836  -1.909  1.00  0.00     0.010 A 
ATOM     40  C   UNL     1     -12.209  -4.129  -1.130  1.00  0.00    -0.014 A 
BRANCH  40  41
ATOM     41  C   UNL     1     -13.347  -3.169  -1.067  1.00  0.00     0.031 A 
ATOM     42  C   UNL     1     -14.159  -2.863  -2.299  1.00  0.00     0.074 A 
ATOM     43  C   UNL     1     -13.629  -2.537   0.089  1.00  0.00     0.049 A 
ATOM     44  N   UNL     1     -15.144  -2.012  -2.453  1.00  0.00    -0.248 NA
ATOM     45  C   UNL     1     -13.804  -3.595  -3.524  1.00  0.00     0.031 C 
ATOM     46  C   UNL     1     -12.905  -2.717   1.347  1.00  0.00     0.029 A 
ATOM     47  N   UNL     1     -14.594  -1.606   0.392  1.00  0.00    -0.354 N 
ATOM     48  C   UNL     1     -15.514  -2.096  -3.790  1.00  0.00     0.074 A 
ATOM     49  C   UNL     1     -14.621  -3.048  -4.414  1.00  0.00     0.031 C 
ATOM     50  C   UNL     1     -13.458  -1.935   2.289  1.00  0.00     0.029 A 
ATOM     51  C   UNL     1     -14.551  -1.171   1.694  1.00  0.00     0.049 A 
ATOM     52  H   UNL     1     -15.253  -1.281  -0.263  1.00  0.00     0.167 HD
ATOM     53  C   UNL     1     -16.518  -1.453  -4.434  1.00  0.00     0.037 A 
ATOM     54  C   UNL     1     -15.300  -0.252   2.336  1.00  0.00     0.037 A 
ATOM     55  C   UNL     1     -17.428  -0.527  -3.809  1.00  0.00     0.049 A 
ATOM     56  C   UNL     1     -16.402   0.454   1.593  1.00  0.00     0.074 A 
ATOM     57  C   UNL     1     -18.512   0.128  -4.369  1.00  0.00     0.029 A 
ATOM     58  N   UNL     1     -17.360  -0.125  -2.484  1.00  0.00    -0.354 N 
ATOM     59  N   UNL     1     -16.779   0.320   0.345  1.00  0.00    -0.248 NA
ATOM     60  C   UNL     1     -17.190   1.437   2.353  1.00  0.00     0.031 C 
ATOM     61  C   UNL     1     -19.072   0.961  -3.395  1.00  0.00     0.029 A 
ATOM     62  C   UNL     1     -18.369   0.786  -2.215  1.00  0.00     0.049 A 
ATOM     63  H   UNL     1     -16.694  -0.440  -1.831  1.00  0.00     0.167 HD
ATOM     64  C   UNL     1     -17.862   1.173   0.179  1.00  0.00     0.074 A 
ATOM     65  C   UNL     1     -18.092   1.811   1.457  1.00  0.00     0.031 C 
ATOM     66  C   UNL     1     -18.599   1.406  -0.935  1.00  0.00     0.037 A 
BRANCH  53  67
ATOM     67  C   UNL     1     -16.697  -1.726  -5.901  1.00  0.00     0.064 A 
ATOM     68  C   UNL     1     -17.190  -2.955  -6.365  1.00  0.00     0.173 A 
ATOM     69  C   UNL     1     -16.431  -0.727  -6.849  1.00  0.00     0.173 A 
ATOM     70  F   UNL     1     -17.454  -3.946  -5.500  1.00  0.00    -0.203 F 
ATOM     71  C   UNL     1     -17.388  -3.180  -7.725  1.00  0.00     0.198 A 
ATOM     72  C   UNL     1     -16.657  -0.945  -8.205  1.00  0.00     0.198 A 
ATOM     73  F   UNL     1     -15.967   0.470  -6.458  1.00  0.00    -0.203 F 
ATOM     74  F   UNL     1     -17.822  -4.376  -8.148  1.00  0.00    -0.200 F 
ATOM     75  C   UNL     1     -17.130  -2.173  -8.643  1.00  0.00     0.200 A 
ATOM     76  F   UNL     1     -16.422   0.034  -9.089  1.00  0.00    -0.200 F 
ATOM     77  F   UNL     1     -17.333  -2.388  -9.950  1.00  0.00    -0.200 F 
ENDBRANCH  53  67
BRANCH  54  78
ATOM     78  C   UNL     1     -15.043   0.049   3.769  1.00  0.00     0.064 A 
ATOM     79  C   UNL     1     -15.970  -0.308   4.759  1.00  0.00     0.173 A 
ATOM     80  C   UNL     1     -13.879   0.717   4.178  1.00  0.00     0.173 A 
ATOM     81  F   UNL     1     -17.109  -0.927   4.415  1.00  0.00    -0.203 F 
ATOM     82  C   UNL     1     -15.755   0.013   6.097  1.00  0.00     0.198 A 
ATOM     83  C   UNL     1     -13.651   1.010   5.520  1.00  0.00     0.198 A 
ATOM     84  F   UNL     1     -12.959   1.079   3.271  1.00  0.00    -0.203 F 
ATOM     85  F   UNL     1     -16.683  -0.293   7.014  1.00  0.00    -0.200 F 
ATOM     86  C   UNL     1     -14.593   0.667   6.478  1.00  0.00     0.200 A 
ATOM     87  F   UNL     1     -12.521   1.631   5.885  1.00  0.00    -0.200 F 
ATOM     88  F   UNL     1     -14.387   0.976   7.765  1.00  0.00    -0.200 F 
ENDBRANCH  54  78
BRANCH  66  89
ATOM     89  C   UNL     1     -19.751   2.361  -0.814  1.00  0.00     0.064 A 
ATOM     90  C   UNL     1     -19.553   3.742  -0.674  1.00  0.00     0.173 A 
ATOM     91  C   UNL     1     -21.072   1.890  -0.879  1.00  0.00     0.173 A 
ATOM     92  F   UNL     1     -18.310   4.240  -0.591  1.00  0.00    -0.203 F 
ATOM     93  C   UNL     1     -20.634   4.614  -0.578  1.00  0.00     0.198 A 
ATOM     94  C   UNL     1     -22.150   2.767  -0.813  1.00  0.00     0.198 A 
ATOM     95  F   UNL     1     -21.316   0.578  -1.020  1.00  0.00    -0.203 F 
ATOM     96  F   UNL     1     -20.421   5.925  -0.397  1.00  0.00    -0.200 F 
ATOM     97  C   UNL     1     -21.931   4.127  -0.655  1.00  0.00     0.200 A 
ATOM     98  F   UNL     1     -23.402   2.297  -0.902  1.00  0.00    -0.200 F 
ATOM     99  F   UNL     1     -22.970   4.969  -0.571  1.00  0.00    -0.200 F 
ENDBRANCH  66  89
ENDBRANCH  40  41
ENDBRANCH  32  35
ENDBRANCH  30  31
ENDBRANCH  29  30
ENDBRANCH  28  29
ENDBRANCH   1  28
TORSDOF 16
