REMARK SMILES CCCc1cc2c(cc1Cl)C=C(C(=O)NCCCCCCNC(=O)c1ccc(-c3c4nc(c(-c5c(F)c(F)c(F)c(F)c5F)c5ccc([nH]5)c(-c5c(F)c(F)c(F)c(F)c5F)c5nc(c(-c6c(F)c(F)c(F)c(F)c6F)c6ccc3[nH]6)C=C5)C=C4)cc1)[C@@H](C(F)(F)F)O2
REMARK SMILES IDX 18 1 17 2 16 3 15 4 13 5 14 6 12 8 4 9 5 10 9 11 6 12 8 13
REMARK SMILES IDX 10 14 7 15 93 16 11 17 88 18 3 19 2 20 1 21 89 22 90 23
REMARK SMILES IDX 91 24 92 25 19 26 20 27 21 28 22 29 23 30 24 32 25 33 26 34
REMARK SMILES IDX 87 35 27 36 86 37 28 38 29 39 30 40 80 41 31 42 85 43 79 44
REMARK SMILES IDX 81 45 32 46 84 47 78 48 77 49 33 51 65 52 45 53 64 54 46 55
REMARK SMILES IDX 49 56 63 57 82 58 47 59 48 60 62 62 83 63 50 64 34 65 35 66
REMARK SMILES IDX 43 67 36 68 37 69 41 70 44 71 38 72 39 73 42 74 40 75 66 76
REMARK SMILES IDX 67 77 75 78 68 79 69 80 73 81 76 82 70 83 71 84 74 85 72 86
REMARK SMILES IDX 51 87 52 88 60 89 53 90 54 91 58 92 61 93 55 94 56 95 59 96
REMARK SMILES IDX 57 97
REMARK H PARENT 15 7 22 31 81 50 49 61
REMARK Flexibility Score: inf
ROOT
ATOM      1  C   UNL     1      -4.140   5.051  -8.158  1.00  0.00     0.002 C 
ENDROOT
BRANCH   1   2
ATOM      2  C   UNL     1      -3.716   4.327  -6.876  1.00  0.00     0.021 C 
BRANCH   2   3
ATOM      3  C   UNL     1      -2.210   4.343  -6.627  1.00  0.00     0.116 C 
BRANCH   3   4
ATOM      4  N   UNL     1      -1.788   5.557  -5.949  1.00  0.00    -0.352 N 
ATOM      5  C   UNL     1      -1.259   5.897  -4.751  1.00  0.00     0.251 C 
ATOM      6  O   UNL     1      -1.022   7.101  -4.604  1.00  0.00    -0.270 OA
ATOM      7  H   UNL     1      -1.923   6.349  -6.518  1.00  0.00     0.163 HD
BRANCH   5   8
ATOM      8  C   UNL     1      -0.955   4.949  -3.639  1.00  0.00     0.067 C 
ATOM      9  C   UNL     1       0.524   2.785   0.678  1.00  0.00    -0.026 A 
ATOM     10  C   UNL     1      -0.283   2.398  -0.399  1.00  0.00     0.052 A 
ATOM     11  C   UNL     1       0.941   4.132   0.724  1.00  0.00     0.045 A 
ATOM     12  C   UNL     1      -0.571   3.286  -1.431  1.00  0.00     0.128 A 
ATOM     13  C   UNL     1       0.609   5.036  -0.297  1.00  0.00     0.032 A 
ATOM     14  Cl  UNL     1       1.880   4.742   2.043  1.00  0.00    -0.084 Cl
ATOM     15  C   UNL     1      -0.134   4.607  -1.396  1.00  0.00     0.019 A 
ATOM     16  O   UNL     1      -1.315   2.790  -2.463  1.00  0.00    -0.475 OA
ATOM     17  C   UNL     1      -0.484   5.495  -2.500  1.00  0.00     0.025 C 
ATOM     18  C   UNL     1      -1.112   3.458  -3.736  1.00  0.00     0.314 C 
BRANCH   9  19
ATOM     19  C   UNL     1       0.926   1.802   1.761  1.00  0.00     0.037 C 
BRANCH  19  20
ATOM     20  C   UNL     1       0.581   0.316   1.566  1.00  0.00     0.001 C 
ATOM     21  C   UNL     1       1.394  -0.368   0.472  1.00  0.00     0.004 C 
ENDBRANCH  19  20
ENDBRANCH   9  19
BRANCH  18  22
ATOM     22  C   UNL     1       0.049   2.788  -4.499  1.00  0.00     0.429 C 
ATOM     23  F   UNL     1      -0.269   1.508  -4.818  1.00  0.00    -0.167 F 
ATOM     24  F   UNL     1       0.328   3.414  -5.668  1.00  0.00    -0.167 F 
ATOM     25  F   UNL     1       1.198   2.756  -3.788  1.00  0.00    -0.167 F 
ENDBRANCH  18  22
ENDBRANCH   5   8
ENDBRANCH   3   4
ENDBRANCH   2   3
ENDBRANCH   1   2
BRANCH   1  26
ATOM     26  C   UNL     1      -3.485   4.544  -9.451  1.00  0.00     0.002 C 
BRANCH  26  27
ATOM     27  C   UNL     1      -3.528   3.029  -9.663  1.00  0.00     0.021 C 
BRANCH  27  28
ATOM     28  C   UNL     1      -4.928   2.427  -9.692  1.00  0.00     0.116 C 
BRANCH  28  29
ATOM     29  N   UNL     1      -5.721   2.915 -10.809  1.00  0.00    -0.352 N 
ATOM     30  C   UNL     1      -6.417   2.206 -11.758  1.00  0.00     0.251 C 
ATOM     31  H   UNL     1      -5.767   3.894 -10.897  1.00  0.00     0.163 HD
ATOM     32  O   UNL     1      -6.903   2.779 -12.728  1.00  0.00    -0.269 OA
BRANCH  30  33
ATOM     33  C   UNL     1      -6.551   0.741 -11.624  1.00  0.00     0.039 A 
ATOM     34  C   UNL     1      -6.894   0.167 -10.398  1.00  0.00     0.014 A 
ATOM     35  C   UNL     1      -6.314  -0.070 -12.738  1.00  0.00     0.014 A 
ATOM     36  C   UNL     1      -6.843  -1.214 -10.247  1.00  0.00     0.010 A 
ATOM     37  C   UNL     1      -6.343  -1.460 -12.603  1.00  0.00     0.010 A 
ATOM     38  C   UNL     1      -6.561  -2.043 -11.345  1.00  0.00    -0.014 A 
BRANCH  38  39
ATOM     39  C   UNL     1      -6.493  -3.513 -11.147  1.00  0.00     0.031 A 
ATOM     40  C   UNL     1      -5.193  -4.252 -11.310  1.00  0.00     0.074 A 
ATOM     41  C   UNL     1      -7.599  -4.173 -10.750  1.00  0.00     0.049 A 
ATOM     42  N   UNL     1      -4.940  -5.525 -11.133  1.00  0.00    -0.248 NA
ATOM     43  C   UNL     1      -4.024  -3.464 -11.730  1.00  0.00     0.031 C 
ATOM     44  C   UNL     1      -8.913  -3.561 -10.550  1.00  0.00     0.029 A 
ATOM     45  N   UNL     1      -7.789  -5.489 -10.415  1.00  0.00    -0.354 N 
ATOM     46  C   UNL     1      -3.594  -5.691 -11.430  1.00  0.00     0.074 A 
ATOM     47  C   UNL     1      -3.086  -4.396 -11.830  1.00  0.00     0.031 C 
ATOM     48  C   UNL     1      -9.758  -4.485 -10.068  1.00  0.00     0.029 A 
ATOM     49  C   UNL     1      -9.062  -5.766  -9.982  1.00  0.00     0.049 A 
ATOM     50  H   UNL     1      -7.080  -6.170 -10.478  1.00  0.00     0.167 HD
ATOM     51  C   UNL     1      -2.847  -6.818 -11.359  1.00  0.00     0.037 A 
ATOM     52  C   UNL     1      -9.612  -6.922  -9.566  1.00  0.00     0.037 A 
ATOM     53  C   UNL     1      -3.348  -8.099 -10.936  1.00  0.00     0.049 A 
ATOM     54  C   UNL     1      -8.770  -8.165  -9.536  1.00  0.00     0.074 A 
ATOM     55  C   UNL     1      -2.660  -9.294 -10.808  1.00  0.00     0.029 A 
ATOM     56  N   UNL     1      -4.660  -8.352 -10.567  1.00  0.00    -0.354 N 
ATOM     57  N   UNL     1      -7.496  -8.305  -9.811  1.00  0.00    -0.248 NA
ATOM     58  C   UNL     1      -9.443  -9.413  -9.151  1.00  0.00     0.031 C 
ATOM     59  C   UNL     1      -3.565 -10.278 -10.400  1.00  0.00     0.029 A 
ATOM     60  C   UNL     1      -4.807  -9.688 -10.232  1.00  0.00     0.049 A 
ATOM     61  H   UNL     1      -5.381  -7.681 -10.546  1.00  0.00     0.167 HD
ATOM     62  C   UNL     1      -7.212  -9.650  -9.626  1.00  0.00     0.074 A 
ATOM     63  C   UNL     1      -8.442 -10.282  -9.194  1.00  0.00     0.031 C 
ATOM     64  C   UNL     1      -6.038 -10.302  -9.805  1.00  0.00     0.037 A 
BRANCH  51  65
ATOM     65  C   UNL     1      -1.400  -6.728 -11.748  1.00  0.00     0.064 A 
ATOM     66  C   UNL     1      -0.456  -6.107 -10.917  1.00  0.00     0.173 A 
ATOM     67  C   UNL     1      -0.941  -7.333 -12.928  1.00  0.00     0.173 A 
ATOM     68  F   UNL     1      -0.846  -5.504  -9.784  1.00  0.00    -0.203 F 
ATOM     69  C   UNL     1       0.894  -6.086 -11.259  1.00  0.00     0.198 A 
ATOM     70  C   UNL     1       0.413  -7.332 -13.254  1.00  0.00     0.198 A 
ATOM     71  F   UNL     1      -1.803  -7.946 -13.753  1.00  0.00    -0.203 F 
ATOM     72  F   UNL     1       1.775  -5.463 -10.464  1.00  0.00    -0.200 F 
ATOM     73  C   UNL     1       1.328  -6.706 -12.422  1.00  0.00     0.200 A 
ATOM     74  F   UNL     1       0.832  -7.942 -14.371  1.00  0.00    -0.200 F 
ATOM     75  F   UNL     1       2.630  -6.698 -12.741  1.00  0.00    -0.200 F 
ENDBRANCH  51  65
BRANCH  52  76
ATOM     76  C   UNL     1     -11.032  -6.943  -9.133  1.00  0.00     0.064 A 
ATOM     77  C   UNL     1     -11.369  -7.117  -7.785  1.00  0.00     0.173 A 
ATOM     78  C   UNL     1     -12.076  -6.752 -10.050  1.00  0.00     0.173 A 
ATOM     79  F   UNL     1     -10.406  -7.323  -6.875  1.00  0.00    -0.203 F 
ATOM     80  C   UNL     1     -12.699  -7.100  -7.369  1.00  0.00     0.198 A 
ATOM     81  C   UNL     1     -13.403  -6.708  -9.629  1.00  0.00     0.198 A 
ATOM     82  F   UNL     1     -11.804  -6.577 -11.351  1.00  0.00    -0.203 F 
ATOM     83  F   UNL     1     -12.997  -7.293  -6.077  1.00  0.00    -0.200 F 
ATOM     84  C   UNL     1     -13.714  -6.885  -8.290  1.00  0.00     0.200 A 
ATOM     85  F   UNL     1     -14.379  -6.484 -10.520  1.00  0.00    -0.200 F 
ATOM     86  F   UNL     1     -14.991  -6.852  -7.886  1.00  0.00    -0.200 F 
ENDBRANCH  52  76
BRANCH  64  87
ATOM     87  C   UNL     1      -6.016 -11.775  -9.531  1.00  0.00     0.064 A 
ATOM     88  C   UNL     1      -6.588 -12.690 -10.426  1.00  0.00     0.173 A 
ATOM     89  C   UNL     1      -5.352 -12.281  -8.403  1.00  0.00     0.173 A 
ATOM     90  F   UNL     1      -7.245 -12.252 -11.511  1.00  0.00    -0.203 F 
ATOM     91  C   UNL     1      -6.501 -14.061 -10.199  1.00  0.00     0.198 A 
ATOM     92  C   UNL     1      -5.247 -13.652  -8.192  1.00  0.00     0.198 A 
ATOM     93  F   UNL     1      -4.784 -11.445  -7.521  1.00  0.00    -0.203 F 
ATOM     94  F   UNL     1      -7.076 -14.918 -11.053  1.00  0.00    -0.200 F 
ATOM     95  C   UNL     1      -5.822 -14.541  -9.088  1.00  0.00     0.200 A 
ATOM     96  F   UNL     1      -4.580 -14.115  -7.125  1.00  0.00    -0.200 F 
ATOM     97  F   UNL     1      -5.726 -15.861  -8.879  1.00  0.00    -0.200 F 
ENDBRANCH  64  87
ENDBRANCH  38  39
ENDBRANCH  30  33
ENDBRANCH  28  29
ENDBRANCH  27  28
ENDBRANCH  26  27
ENDBRANCH   1  26
TORSDOF 16
