REMARK SMILES COc1ccc([C@H](C)[N@H+]2CC[C@H](C(=O)NCCCCCCNC(=O)c3ccc(-c4c5nc(c(-c6c(F)c(F)c(F)c(F)c6F)c6ccc([nH]6)c(-c6c(F)c(F)c(F)c(F)c6F)c6nc(c(-c7c(F)c(F)c(F)c(F)c7F)c7ccc4[nH]7)C=C6)C=C5)cc3)[C@@H]2C)cc1
REMARK SMILES IDX 18 1 17 2 16 3 15 4 13 5 14 6 12 8 9 9 10 10 88 11 11 13
REMARK SMILES IDX 89 14 7 15 8 16 6 17 3 18 4 19 91 20 5 21 90 22 2 23 1 24
REMARK SMILES IDX 19 25 20 26 21 27 22 28 23 29 24 31 25 32 26 33 87 34 27 35
REMARK SMILES IDX 86 36 28 37 29 38 30 39 80 40 31 41 85 42 79 43 81 44 32 45
REMARK SMILES IDX 84 46 78 47 77 48 33 50 65 51 45 52 64 53 46 54 49 55 63 56
REMARK SMILES IDX 82 57 47 58 48 59 62 61 83 62 50 63 34 64 35 65 43 66 36 67
REMARK SMILES IDX 37 68 41 69 44 70 38 71 39 72 42 73 40 74 66 75 67 76 75 77
REMARK SMILES IDX 68 78 69 79 73 80 76 81 70 82 71 83 74 84 72 85 51 86 52 87
REMARK SMILES IDX 60 88 53 89 54 90 58 91 61 92 55 93 56 94 59 95 57 96
REMARK H PARENT 15 7 9 12 22 30 81 49 49 60
REMARK Flexibility Score: inf
ROOT
ATOM      1  C   UNL     1      -4.487   9.399  -1.404  1.00  0.00     0.002 C 
ENDROOT
BRANCH   1   2
ATOM      2  C   UNL     1      -3.676   8.125  -1.638  1.00  0.00     0.021 C 
BRANCH   2   3
ATOM      3  C   UNL     1      -2.168   8.353  -1.675  1.00  0.00     0.116 C 
BRANCH   3   4
ATOM      4  N   UNL     1      -1.561   8.268  -0.367  1.00  0.00    -0.356 N 
ATOM      5  C   UNL     1      -0.673   7.413   0.194  1.00  0.00     0.229 C 
ATOM      6  O   UNL     1      -0.373   7.657   1.371  1.00  0.00    -0.275 OA
ATOM      7  H   UNL     1      -1.855   8.981   0.245  1.00  0.00     0.163 HD
BRANCH   5   8
ATOM      8  C   UNL     1       0.001   6.228  -0.501  1.00  0.00     0.142 C 
ATOM      9  N   UNL     1       1.368   6.245  -2.498  1.00  0.00    -0.326 N 
ATOM     10  C   UNL     1      -0.007   5.949  -2.885  1.00  0.00     0.264 C 
ATOM     11  C   UNL     1       1.428   6.463  -1.042  1.00  0.00     0.194 C 
ATOM     12  H   UNL     1       1.671   7.128  -2.909  1.00  0.00     0.348 HD
ATOM     13  C   UNL     1      -0.716   5.504  -1.622  1.00  0.00     0.081 C 
ATOM     14  C   UNL     1       2.036   7.830  -0.733  1.00  0.00     0.076 C 
BRANCH   9  15
ATOM     15  C   UNL     1       2.363   5.336  -3.106  1.00  0.00     0.212 C 
ATOM     16  C   UNL     1       2.232   3.884  -2.605  1.00  0.00     0.081 C 
BRANCH  15  17
ATOM     17  C   UNL     1       2.276   5.482  -4.639  1.00  0.00     0.009 A 
ATOM     18  C   UNL     1       1.684   5.989  -7.355  1.00  0.00     0.118 A 
ATOM     19  C   UNL     1       2.230   6.992  -6.557  1.00  0.00     0.047 A 
ATOM     20  C   UNL     1       1.509   4.713  -6.826  1.00  0.00     0.047 A 
ATOM     21  C   UNL     1       2.519   6.744  -5.211  1.00  0.00     0.013 A 
ATOM     22  C   UNL     1       1.808   4.460  -5.481  1.00  0.00     0.013 A 
BRANCH  18  23
ATOM     23  O   UNL     1       1.387   6.339  -8.644  1.00  0.00    -0.497 OA
ATOM     24  C   UNL     1       0.197   5.748  -9.161  1.00  0.00     0.278 C 
ENDBRANCH  18  23
ENDBRANCH  15  17
ENDBRANCH   9  15
ENDBRANCH   5   8
ENDBRANCH   3   4
ENDBRANCH   2   3
ENDBRANCH   1   2
BRANCH   1  25
ATOM     25  C   UNL     1      -4.221  10.532  -2.404  1.00  0.00     0.002 C 
BRANCH  25  26
ATOM     26  C   UNL     1      -4.299  10.139  -3.883  1.00  0.00     0.021 C 
BRANCH  26  27
ATOM     27  C   UNL     1      -5.628   9.526  -4.311  1.00  0.00     0.116 C 
BRANCH  27  28
ATOM     28  N   UNL     1      -6.744  10.420  -4.050  1.00  0.00    -0.352 N 
ATOM     29  C   UNL     1      -7.676  10.932  -4.915  1.00  0.00     0.251 C 
ATOM     30  H   UNL     1      -6.846  10.699  -3.111  1.00  0.00     0.163 HD
ATOM     31  O   UNL     1      -8.406  11.851  -4.562  1.00  0.00    -0.269 OA
BRANCH  29  32
ATOM     32  C   UNL     1      -7.796  10.377  -6.278  1.00  0.00     0.039 A 
ATOM     33  C   UNL     1      -7.953  11.257  -7.352  1.00  0.00     0.014 A 
ATOM     34  C   UNL     1      -7.785   8.996  -6.492  1.00  0.00     0.014 A 
ATOM     35  C   UNL     1      -8.053  10.751  -8.649  1.00  0.00     0.010 A 
ATOM     36  C   UNL     1      -7.812   8.497  -7.791  1.00  0.00     0.010 A 
ATOM     37  C   UNL     1      -7.956   9.370  -8.880  1.00  0.00    -0.014 A 
BRANCH  37  38
ATOM     38  C   UNL     1      -8.013   8.818 -10.256  1.00  0.00     0.031 A 
ATOM     39  C   UNL     1      -9.149   7.922 -10.663  1.00  0.00     0.074 A 
ATOM     40  C   UNL     1      -7.009   9.076 -11.116  1.00  0.00     0.049 A 
ATOM     41  N   UNL     1      -9.342   7.290 -11.793  1.00  0.00    -0.248 NA
ATOM     42  C   UNL     1     -10.194   7.682  -9.656  1.00  0.00     0.031 C 
ATOM     43  C   UNL     1      -5.833   9.894 -10.820  1.00  0.00     0.029 A 
ATOM     44  N   UNL     1      -6.813   8.668 -12.411  1.00  0.00    -0.354 N 
ATOM     45  C   UNL     1     -10.518   6.571 -11.628  1.00  0.00     0.074 A 
ATOM     46  C   UNL     1     -10.966   6.798 -10.272  1.00  0.00     0.031 C 
ATOM     47  C   UNL     1      -5.049   9.946 -11.908  1.00  0.00     0.029 A 
ATOM     48  C   UNL     1      -5.646   9.134 -12.964  1.00  0.00     0.049 A 
ATOM     49  H   UNL     1      -7.449   8.095 -12.898  1.00  0.00     0.167 HD
ATOM     50  C   UNL     1     -11.177   5.810 -12.534  1.00  0.00     0.037 A 
ATOM     51  C   UNL     1      -5.114   8.923 -14.183  1.00  0.00     0.037 A 
ATOM     52  C   UNL     1     -10.736   5.606 -13.890  1.00  0.00     0.049 A 
ATOM     53  C   UNL     1      -5.862   8.065 -15.168  1.00  0.00     0.074 A 
ATOM     54  C   UNL     1     -11.359   4.901 -14.904  1.00  0.00     0.029 A 
ATOM     55  N   UNL     1      -9.555   6.108 -14.419  1.00  0.00    -0.354 N 
ATOM     56  N   UNL     1      -7.007   7.444 -15.023  1.00  0.00    -0.248 NA
ATOM     57  C   UNL     1      -5.244   7.883 -16.488  1.00  0.00     0.031 C 
ATOM     58  C   UNL     1     -10.532   4.932 -16.031  1.00  0.00     0.029 A 
ATOM     59  C   UNL     1      -9.420   5.705 -15.738  1.00  0.00     0.049 A 
ATOM     60  H   UNL     1      -8.909   6.667 -13.930  1.00  0.00     0.167 HD
ATOM     61  C   UNL     1      -7.263   6.825 -16.239  1.00  0.00     0.074 A 
ATOM     62  C   UNL     1      -6.158   7.157 -17.115  1.00  0.00     0.031 C 
ATOM     63  C   UNL     1      -8.316   6.051 -16.598  1.00  0.00     0.037 A 
BRANCH  50  64
ATOM     64  C   UNL     1     -12.445   5.140 -12.090  1.00  0.00     0.064 A 
ATOM     65  C   UNL     1     -13.608   5.874 -11.810  1.00  0.00     0.173 A 
ATOM     66  C   UNL     1     -12.511   3.743 -11.977  1.00  0.00     0.173 A 
ATOM     67  F   UNL     1     -13.597   7.213 -11.890  1.00  0.00    -0.203 F 
ATOM     68  C   UNL     1     -14.778   5.238 -11.404  1.00  0.00     0.198 A 
ATOM     69  C   UNL     1     -13.693   3.107 -11.603  1.00  0.00     0.198 A 
ATOM     70  F   UNL     1     -11.431   2.991 -12.239  1.00  0.00    -0.203 F 
ATOM     71  F   UNL     1     -15.860   5.965 -11.091  1.00  0.00    -0.200 F 
ATOM     72  C   UNL     1     -14.822   3.856 -11.309  1.00  0.00     0.200 A 
ATOM     73  F   UNL     1     -13.737   1.770 -11.525  1.00  0.00    -0.200 F 
ATOM     74  F   UNL     1     -15.952   3.244 -10.925  1.00  0.00    -0.200 F 
ENDBRANCH  50  64
BRANCH  51  75
ATOM     75  C   UNL     1      -3.818   9.552 -14.547  1.00  0.00     0.064 A 
ATOM     76  C   UNL     1      -3.757  10.570 -15.509  1.00  0.00     0.173 A 
ATOM     77  C   UNL     1      -2.616   9.149 -13.947  1.00  0.00     0.173 A 
ATOM     78  F   UNL     1      -4.877  10.977 -16.125  1.00  0.00    -0.203 F 
ATOM     79  C   UNL     1      -2.541  11.144 -15.874  1.00  0.00     0.198 A 
ATOM     80  C   UNL     1      -1.405   9.745 -14.291  1.00  0.00     0.198 A 
ATOM     81  F   UNL     1      -2.620   8.183 -13.017  1.00  0.00    -0.203 F 
ATOM     82  F   UNL     1      -2.507  12.081 -16.832  1.00  0.00    -0.200 F 
ATOM     83  C   UNL     1      -1.367  10.736 -15.261  1.00  0.00     0.200 A 
ATOM     84  F   UNL     1      -0.274   9.357 -13.685  1.00  0.00    -0.200 F 
ATOM     85  F   UNL     1      -0.198  11.290 -15.610  1.00  0.00    -0.200 F 
ENDBRANCH  51  75
BRANCH  63  86
ATOM     86  C   UNL     1      -8.345   5.540 -18.010  1.00  0.00     0.064 A 
ATOM     87  C   UNL     1      -7.463   4.543 -18.451  1.00  0.00     0.173 A 
ATOM     88  C   UNL     1      -9.296   6.026 -18.920  1.00  0.00     0.173 A 
ATOM     89  F   UNL     1      -6.526   4.056 -17.624  1.00  0.00    -0.203 F 
ATOM     90  C   UNL     1      -7.514   4.071 -19.760  1.00  0.00     0.198 A 
ATOM     91  C   UNL     1      -9.366   5.529 -20.218  1.00  0.00     0.198 A 
ATOM     92  F   UNL     1     -10.168   6.975 -18.546  1.00  0.00    -0.203 F 
ATOM     93  F   UNL     1      -6.629   3.155 -20.175  1.00  0.00    -0.200 F 
ATOM     94  C   UNL     1      -8.470   4.558 -20.640  1.00  0.00     0.200 A 
ATOM     95  F   UNL     1     -10.300   5.989 -21.061  1.00  0.00    -0.200 F 
ATOM     96  F   UNL     1      -8.523   4.096 -21.896  1.00  0.00    -0.200 F 
ENDBRANCH  63  86
ENDBRANCH  37  38
ENDBRANCH  29  32
ENDBRANCH  27  28
ENDBRANCH  26  27
ENDBRANCH  25  26
ENDBRANCH   1  25
TORSDOF 16
