REMARK SMILES CO[C@H](C)[C@@H](NC(=O)OCc1ccccc1)C(=O)NCCCCCCNC(=O)c1ccc(-c2c3nc(c(-c4c(F)c(F)c(F)c(F)c4F)c4ccc([nH]4)c(-c4c(F)c(F)c(F)c(F)c4F)c4nc(c(-c5c(F)c(F)c(F)c(F)c5F)c5ccc2[nH]5)C=C4)C=C3)cc1
REMARK SMILES IDX 21 1 20 2 19 3 17 4 18 5 5 7 3 8 4 9 2 10 1 11 6 12 7 13
REMARK SMILES IDX 8 15 9 16 10 17 11 18 12 19 16 20 13 21 15 22 14 23 22 24
REMARK SMILES IDX 23 25 24 26 25 27 26 28 27 29 28 31 29 32 30 33 91 34 31 35
REMARK SMILES IDX 90 36 32 37 33 38 34 39 84 40 35 41 89 42 83 43 85 44 36 45
REMARK SMILES IDX 88 46 82 47 81 48 37 50 69 51 49 52 68 53 50 54 53 55 67 56
REMARK SMILES IDX 86 57 51 58 52 59 66 61 87 62 54 63 38 64 39 65 47 66 40 67
REMARK SMILES IDX 41 68 45 69 48 70 42 71 43 72 46 73 44 74 70 75 71 76 79 77
REMARK SMILES IDX 72 78 73 79 77 80 80 81 74 82 75 83 78 84 76 85 55 86 56 87
REMARK SMILES IDX 64 88 57 89 58 90 62 91 65 92 59 93 60 94 63 95 61 96
REMARK H PARENT 19 6 6 14 26 30 85 49 53 60
REMARK Flexibility Score: inf
ROOT
ATOM      1  C   UNL     1       0.374  -5.349   3.044  1.00  0.00     0.021 C 
ENDROOT
BRANCH   1   2
ATOM      2  C   UNL     1       1.492  -4.319   3.026  1.00  0.00     0.116 C 
BRANCH   2   3
ATOM      3  N   UNL     1       2.362  -4.524   1.885  1.00  0.00    -0.354 N 
ATOM      4  C   UNL     1       2.915  -3.605   1.040  1.00  0.00     0.245 C 
ATOM      5  O   UNL     1       3.659  -4.031   0.152  1.00  0.00    -0.273 OA
ATOM      6  H   UNL     1       2.586  -5.462   1.691  1.00  0.00     0.163 HD
BRANCH   4   7
ATOM      7  C   UNL     1       2.536  -2.108   1.135  1.00  0.00     0.203 C 
BRANCH   7   8
ATOM      8  C   UNL     1       1.051  -1.970   0.639  1.00  0.00     0.146 C 
ATOM      9  C   UNL     1       0.387  -0.653   1.055  1.00  0.00     0.041 C 
BRANCH   8  10
ATOM     10  O   UNL     1       0.911  -1.999  -0.792  1.00  0.00    -0.379 OA
ATOM     11  C   UNL     1       1.130  -3.271  -1.391  1.00  0.00     0.195 C 
ENDBRANCH   8  10
ENDBRANCH   7   8
BRANCH   7  12
ATOM     12  N   UNL     1       2.730  -1.599   2.511  1.00  0.00    -0.307 N 
ATOM     13  C   UNL     1       3.686  -1.957   3.415  1.00  0.00     0.408 C 
ATOM     14  H   UNL     1       2.088  -0.915   2.811  1.00  0.00     0.168 HD
ATOM     15  O   UNL     1       3.676  -1.485   4.546  1.00  0.00    -0.225 OA
BRANCH  13  16
ATOM     16  O   UNL     1       4.522  -2.917   2.975  1.00  0.00    -0.445 OA
BRANCH  16  17
ATOM     17  C   UNL     1       5.202  -3.690   3.973  1.00  0.00     0.270 C 
BRANCH  17  18
ATOM     18  C   UNL     1       6.631  -3.257   4.159  1.00  0.00    -0.011 A 
ATOM     19  C   UNL     1       7.626  -4.210   4.420  1.00  0.00     0.007 A 
ATOM     20  C   UNL     1       6.982  -1.901   4.152  1.00  0.00     0.007 A 
ATOM     21  C   UNL     1       8.945  -3.811   4.647  1.00  0.00     0.000 A 
ATOM     22  C   UNL     1       8.297  -1.504   4.375  1.00  0.00     0.000 A 
ATOM     23  C   UNL     1       9.279  -2.458   4.622  1.00  0.00     0.000 A 
ENDBRANCH  17  18
ENDBRANCH  16  17
ENDBRANCH  13  16
ENDBRANCH   7  12
ENDBRANCH   4   7
ENDBRANCH   2   3
ENDBRANCH   1   2
BRANCH   1  24
ATOM     24  C   UNL     1       0.869  -6.779   3.275  1.00  0.00     0.002 C 
BRANCH  24  25
ATOM     25  C   UNL     1       1.702  -6.968   4.547  1.00  0.00     0.002 C 
BRANCH  25  26
ATOM     26  C   UNL     1       1.027  -6.484   5.832  1.00  0.00     0.021 C 
BRANCH  26  27
ATOM     27  C   UNL     1      -0.357  -7.072   6.074  1.00  0.00     0.116 C 
BRANCH  27  28
ATOM     28  N   UNL     1      -0.325  -8.523   6.138  1.00  0.00    -0.352 N 
ATOM     29  C   UNL     1      -0.839  -9.363   7.089  1.00  0.00     0.251 C 
ATOM     30  H   UNL     1       0.135  -8.967   5.389  1.00  0.00     0.163 HD
ATOM     31  O   UNL     1      -0.533 -10.551   7.090  1.00  0.00    -0.269 OA
BRANCH  29  32
ATOM     32  C   UNL     1      -1.749  -8.834   8.124  1.00  0.00     0.039 A 
ATOM     33  C   UNL     1      -1.593  -9.277   9.438  1.00  0.00     0.014 A 
ATOM     34  C   UNL     1      -2.761  -7.923   7.803  1.00  0.00     0.014 A 
ATOM     35  C   UNL     1      -2.426  -8.776  10.438  1.00  0.00     0.010 A 
ATOM     36  C   UNL     1      -3.536  -7.362   8.814  1.00  0.00     0.010 A 
ATOM     37  C   UNL     1      -3.384  -7.792  10.140  1.00  0.00    -0.014 A 
BRANCH  37  38
ATOM     38  C   UNL     1      -4.224  -7.209  11.217  1.00  0.00     0.031 A 
ATOM     39  C   UNL     1      -5.715  -7.399  11.210  1.00  0.00     0.074 A 
ATOM     40  C   UNL     1      -3.638  -6.484  12.188  1.00  0.00     0.049 A 
ATOM     41  N   UNL     1      -6.606  -6.974  12.071  1.00  0.00    -0.248 NA
ATOM     42  C   UNL     1      -6.287  -8.144  10.078  1.00  0.00     0.031 C 
ATOM     43  C   UNL     1      -2.207  -6.183  12.270  1.00  0.00     0.029 A 
ATOM     44  N   UNL     1      -4.169  -5.869  13.294  1.00  0.00    -0.354 N 
ATOM     45  C   UNL     1      -7.836  -7.394  11.582  1.00  0.00     0.074 A 
ATOM     46  C   UNL     1      -7.587  -8.054  10.320  1.00  0.00     0.031 C 
ATOM     47  C   UNL     1      -1.970  -5.473  13.383  1.00  0.00     0.029 A 
ATOM     48  C   UNL     1      -3.233  -5.233  14.072  1.00  0.00     0.049 A 
ATOM     49  H   UNL     1      -5.130  -5.883  13.509  1.00  0.00     0.167 HD
ATOM     50  C   UNL     1      -9.060  -7.262  12.149  1.00  0.00     0.037 A 
ATOM     51  C   UNL     1      -3.379  -4.531  15.212  1.00  0.00     0.037 A 
ATOM     52  C   UNL     1      -9.299  -6.616  13.413  1.00  0.00     0.049 A 
ATOM     53  C   UNL     1      -4.752  -4.394  15.814  1.00  0.00     0.074 A 
ATOM     54  C   UNL     1     -10.492  -6.484  14.102  1.00  0.00     0.029 A 
ATOM     55  N   UNL     1      -8.327  -5.985  14.176  1.00  0.00    -0.354 N 
ATOM     56  N   UNL     1      -5.896  -4.869  15.385  1.00  0.00    -0.248 NA
ATOM     57  C   UNL     1      -4.849  -3.633  17.066  1.00  0.00     0.031 C 
ATOM     58  C   UNL     1     -10.254  -5.717  15.247  1.00  0.00     0.029 A 
ATOM     59  C   UNL     1      -8.900  -5.433  15.311  1.00  0.00     0.049 A 
ATOM     60  H   UNL     1      -7.371  -5.936  13.944  1.00  0.00     0.167 HD
ATOM     61  C   UNL     1      -6.843  -4.489  16.327  1.00  0.00     0.074 A 
ATOM     62  C   UNL     1      -6.133  -3.768  17.362  1.00  0.00     0.031 C 
ATOM     63  C   UNL     1      -8.181  -4.715  16.334  1.00  0.00     0.037 A 
BRANCH  50  64
ATOM     64  C   UNL     1     -10.239  -7.826  11.405  1.00  0.00     0.064 A 
ATOM     65  C   UNL     1     -10.418  -9.208  11.242  1.00  0.00     0.173 A 
ATOM     66  C   UNL     1     -11.229  -6.973  10.893  1.00  0.00     0.173 A 
ATOM     67  F   UNL     1      -9.497 -10.068  11.702  1.00  0.00    -0.203 F 
ATOM     68  C   UNL     1     -11.529  -9.714  10.570  1.00  0.00     0.198 A 
ATOM     69  C   UNL     1     -12.355  -7.484  10.252  1.00  0.00     0.198 A 
ATOM     70  F   UNL     1     -11.112  -5.644  11.025  1.00  0.00    -0.203 F 
ATOM     71  F   UNL     1     -11.652 -11.035  10.383  1.00  0.00    -0.200 F 
ATOM     72  C   UNL     1     -12.501  -8.852  10.085  1.00  0.00     0.200 A 
ATOM     73  F   UNL     1     -13.301  -6.650   9.798  1.00  0.00    -0.200 F 
ATOM     74  F   UNL     1     -13.575  -9.341   9.450  1.00  0.00    -0.200 F 
ENDBRANCH  50  64
BRANCH  51  75
ATOM     75  C   UNL     1      -2.193  -3.917  15.866  1.00  0.00     0.064 A 
ATOM     76  C   UNL     1      -1.740  -4.366  17.115  1.00  0.00     0.173 A 
ATOM     77  C   UNL     1      -1.498  -2.857  15.265  1.00  0.00     0.173 A 
ATOM     78  F   UNL     1      -2.382  -5.365  17.740  1.00  0.00    -0.203 F 
ATOM     79  C   UNL     1      -0.659  -3.759  17.751  1.00  0.00     0.198 A 
ATOM     80  C   UNL     1      -0.395  -2.275  15.885  1.00  0.00     0.198 A 
ATOM     81  F   UNL     1      -1.884  -2.393  14.068  1.00  0.00    -0.203 F 
ATOM     82  F   UNL     1      -0.286  -4.170  18.971  1.00  0.00    -0.200 F 
ATOM     83  C   UNL     1       0.016  -2.718  17.133  1.00  0.00     0.200 A 
ATOM     84  F   UNL     1       0.266  -1.281  15.276  1.00  0.00    -0.200 F 
ATOM     85  F   UNL     1       1.057  -2.135  17.744  1.00  0.00    -0.200 F 
ENDBRANCH  51  75
BRANCH  63  86
ATOM     86  C   UNL     1      -8.956  -4.206  17.516  1.00  0.00     0.064 A 
ATOM     87  C   UNL     1      -9.139  -2.834  17.747  1.00  0.00     0.173 A 
ATOM     88  C   UNL     1      -9.538  -5.105  18.424  1.00  0.00     0.173 A 
ATOM     89  F   UNL     1      -8.594  -1.931  16.917  1.00  0.00    -0.203 F 
ATOM     90  C   UNL     1      -9.838  -2.381  18.863  1.00  0.00     0.198 A 
ATOM     91  C   UNL     1     -10.270  -4.650  19.517  1.00  0.00     0.198 A 
ATOM     92  F   UNL     1      -9.404  -6.428  18.247  1.00  0.00    -0.203 F 
ATOM     93  F   UNL     1      -9.941  -1.066  19.099  1.00  0.00    -0.200 F 
ATOM     94  C   UNL     1     -10.408  -3.289  19.743  1.00  0.00     0.200 A 
ATOM     95  F   UNL     1     -10.836  -5.529  20.355  1.00  0.00    -0.200 F 
ATOM     96  F   UNL     1     -11.082  -2.852  20.816  1.00  0.00    -0.200 F 
ENDBRANCH  63  86
ENDBRANCH  37  38
ENDBRANCH  29  32
ENDBRANCH  27  28
ENDBRANCH  26  27
ENDBRANCH  25  26
ENDBRANCH  24  25
ENDBRANCH   1  24
TORSDOF 19
