REMARK SMILES Cc1noc(C)c1CNC(=O)N(CC(=O)NCCCCCCNC(=O)c1ccc(-c2c3nc(c(-c4c(F)c(F)c(F)c(F)c4F)c4ccc([nH]4)c(-c4c(F)c(F)c(F)c(F)c4F)c4nc(c(-c5c(F)c(F)c(F)c(F)c5F)c5ccc2[nH]5)C=C4)C=C3)cc1)CC(C)C
REMARK SMILES IDX 18 1 17 2 16 3 14 4 15 5 13 7 12 8 10 9 9 10 11 12 8 13 7 14
REMARK SMILES IDX 1 15 2 16 3 17 4 18 5 19 6 20 89 21 90 22 91 23 92 24 19 25
REMARK SMILES IDX 20 26 21 27 22 28 23 29 24 30 25 32 26 33 27 34 88 35 28 36
REMARK SMILES IDX 87 37 29 38 30 39 31 40 81 41 32 42 86 43 80 44 82 45 33 46
REMARK SMILES IDX 85 47 79 48 78 49 34 51 66 52 46 53 65 54 47 55 50 56 64 57
REMARK SMILES IDX 83 58 48 59 49 60 63 62 84 63 51 64 35 65 36 66 44 67 37 68
REMARK SMILES IDX 38 69 42 70 45 71 39 72 40 73 43 74 41 75 67 76 68 77 76 78
REMARK SMILES IDX 69 79 70 80 74 81 77 82 71 83 72 84 75 85 73 86 52 87 53 88
REMARK SMILES IDX 61 89 54 90 55 91 59 92 62 93 56 94 57 95 60 96 58 97
REMARK H PARENT 16 6 9 11 23 31 82 50 50 61
REMARK Flexibility Score: inf
ROOT
ATOM      1  C   UNL     1      -0.049   7.252  -0.195  1.00  0.00     0.021 C 
ENDROOT
BRANCH   1   2
ATOM      2  C   UNL     1       0.130   5.900   0.488  1.00  0.00     0.116 C 
BRANCH   2   3
ATOM      3  N   UNL     1      -0.465   5.867   1.806  1.00  0.00    -0.355 N 
ATOM      4  C   UNL     1      -1.425   5.071   2.346  1.00  0.00     0.239 C 
ATOM      5  O   UNL     1      -1.641   5.221   3.555  1.00  0.00    -0.273 OA
ATOM      6  H   UNL     1      -0.109   6.544   2.426  1.00  0.00     0.163 HD
BRANCH   4   7
ATOM      7  C   UNL     1      -2.091   3.906   1.595  1.00  0.00     0.221 C 
BRANCH   7   8
ATOM      8  N   UNL     1      -2.611   4.112   0.239  1.00  0.00    -0.315 N 
BRANCH   8   9
ATOM      9  C   UNL     1      -2.208   3.507  -0.917  1.00  0.00     0.318 C 
ATOM     10  N   UNL     1      -1.091   2.783  -1.055  1.00  0.00    -0.334 N 
ATOM     11  H   UNL     1      -1.033   2.412  -1.965  1.00  0.00     0.165 HD
ATOM     12  O   UNL     1      -2.871   3.593  -1.957  1.00  0.00    -0.249 OA
BRANCH  10  13
ATOM     13  C   UNL     1       0.056   2.380  -0.274  1.00  0.00     0.159 C 
BRANCH  13  14
ATOM     14  C   UNL     1       0.054   0.906  -0.082  1.00  0.00     0.037 A 
ATOM     15  C   UNL     1      -2.494   0.244   0.030  1.00  0.00     0.071 C 
ATOM     16  C   UNL     1      -1.033  -0.012   0.050  1.00  0.00     0.086 A 
ATOM     17  N   UNL     1      -0.596  -1.268   0.201  1.00  0.00    -0.085 NA
ATOM     18  O   UNL     1       0.778  -1.199   0.178  1.00  0.00    -0.361 OA
ATOM     19  C   UNL     1       1.166   0.090   0.014  1.00  0.00     0.138 A 
ATOM     20  C   UNL     1       2.622   0.326  -0.022  1.00  0.00     0.091 C 
ENDBRANCH  13  14
ENDBRANCH  10  13
ENDBRANCH   8   9
BRANCH   8  21
ATOM     21  C   UNL     1      -3.870   4.886   0.178  1.00  0.00     0.125 C 
BRANCH  21  22
ATOM     22  C   UNL     1      -3.707   6.368  -0.207  1.00  0.00     0.002 C 
ATOM     23  C   UNL     1      -3.295   6.562  -1.668  1.00  0.00     0.009 C 
ATOM     24  C   UNL     1      -5.012   7.128   0.046  1.00  0.00     0.009 C 
ENDBRANCH  21  22
ENDBRANCH   8  21
ENDBRANCH   7   8
ENDBRANCH   4   7
ENDBRANCH   2   3
ENDBRANCH   1   2
BRANCH   1  25
ATOM     25  C   UNL     1       0.695   8.417   0.459  1.00  0.00     0.002 C 
BRANCH  25  26
ATOM     26  C   UNL     1       2.220   8.326   0.401  1.00  0.00     0.002 C 
BRANCH  26  27
ATOM     27  C   UNL     1       2.808   8.118  -0.996  1.00  0.00     0.021 C 
BRANCH  27  28
ATOM     28  C   UNL     1       2.330   9.108  -2.055  1.00  0.00     0.116 C 
BRANCH  28  29
ATOM     29  N   UNL     1       2.702  10.478  -1.744  1.00  0.00    -0.352 N 
ATOM     30  C   UNL     1       3.410  11.379  -2.505  1.00  0.00     0.251 C 
ATOM     31  H   UNL     1       2.406  10.808  -0.866  1.00  0.00     0.163 HD
ATOM     32  O   UNL     1       3.782  12.441  -2.033  1.00  0.00    -0.269 OA
BRANCH  30  33
ATOM     33  C   UNL     1       3.745  11.031  -3.903  1.00  0.00     0.039 A 
ATOM     34  C   UNL     1       5.069  11.154  -4.330  1.00  0.00     0.014 A 
ATOM     35  C   UNL     1       2.759  10.563  -4.775  1.00  0.00     0.014 A 
ATOM     36  C   UNL     1       5.421  10.732  -5.613  1.00  0.00     0.010 A 
ATOM     37  C   UNL     1       3.122  10.085  -6.031  1.00  0.00     0.010 A 
ATOM     38  C   UNL     1       4.457  10.155  -6.457  1.00  0.00    -0.014 A 
BRANCH  38  39
ATOM     39  C   UNL     1       4.824   9.599  -7.784  1.00  0.00     0.031 A 
ATOM     40  C   UNL     1       4.276  10.221  -9.037  1.00  0.00     0.074 A 
ATOM     41  C   UNL     1       5.587   8.491  -7.855  1.00  0.00     0.049 A 
ATOM     42  N   UNL     1       4.379   9.815 -10.277  1.00  0.00    -0.248 NA
ATOM     43  C   UNL     1       3.490  11.454  -8.871  1.00  0.00     0.031 C 
ATOM     44  C   UNL     1       6.159   7.783  -6.709  1.00  0.00     0.029 A 
ATOM     45  N   UNL     1       5.999   7.755  -8.938  1.00  0.00    -0.354 N 
ATOM     46  C   UNL     1       3.670  10.736 -11.035  1.00  0.00     0.074 A 
ATOM     47  C   UNL     1       3.097  11.693 -10.114  1.00  0.00     0.031 C 
ATOM     48  C   UNL     1       6.859   6.725  -7.150  1.00  0.00     0.029 A 
ATOM     49  C   UNL     1       6.747   6.652  -8.603  1.00  0.00     0.049 A 
ATOM     50  H   UNL     1       5.781   7.996  -9.868  1.00  0.00     0.167 HD
ATOM     51  C   UNL     1       3.530  10.791 -12.381  1.00  0.00     0.037 A 
ATOM     52  C   UNL     1       7.264   5.681  -9.380  1.00  0.00     0.037 A 
ATOM     53  C   UNL     1       4.112   9.845 -13.296  1.00  0.00     0.049 A 
ATOM     54  C   UNL     1       7.041   5.735 -10.868  1.00  0.00     0.074 A 
ATOM     55  C   UNL     1       4.057   9.835 -14.679  1.00  0.00     0.029 A 
ATOM     56  N   UNL     1       4.855   8.736 -12.918  1.00  0.00    -0.354 N 
ATOM     57  N   UNL     1       6.411   6.638 -11.579  1.00  0.00    -0.248 NA
ATOM     58  C   UNL     1       7.598   4.630 -11.662  1.00  0.00     0.031 C 
ATOM     59  C   UNL     1       4.732   8.699 -15.136  1.00  0.00     0.029 A 
ATOM     60  C   UNL     1       5.245   8.024 -14.040  1.00  0.00     0.049 A 
ATOM     61  H   UNL     1       5.073   8.492 -11.989  1.00  0.00     0.167 HD
ATOM     62  C   UNL     1       6.520   6.228 -12.900  1.00  0.00     0.074 A 
ATOM     63  C   UNL     1       7.289   5.002 -12.896  1.00  0.00     0.031 C 
ATOM     64  C   UNL     1       6.024   6.813 -14.018  1.00  0.00     0.037 A 
BRANCH  51  65
ATOM     65  C   UNL     1       2.724  11.921 -12.950  1.00  0.00     0.064 A 
ATOM     66  C   UNL     1       3.205  13.239 -12.940  1.00  0.00     0.173 A 
ATOM     67  C   UNL     1       1.482  11.680 -13.558  1.00  0.00     0.173 A 
ATOM     68  F   UNL     1       4.382  13.523 -12.361  1.00  0.00    -0.203 F 
ATOM     69  C   UNL     1       2.464  14.277 -13.497  1.00  0.00     0.198 A 
ATOM     70  C   UNL     1       0.756  12.717 -14.139  1.00  0.00     0.198 A 
ATOM     71  F   UNL     1       0.979  10.437 -13.600  1.00  0.00    -0.203 F 
ATOM     72  F   UNL     1       2.926  15.534 -13.439  1.00  0.00    -0.200 F 
ATOM     73  C   UNL     1       1.245  14.014 -14.103  1.00  0.00     0.200 A 
ATOM     74  F   UNL     1      -0.416  12.460 -14.736  1.00  0.00    -0.200 F 
ATOM     75  F   UNL     1       0.537  15.013 -14.649  1.00  0.00    -0.200 F 
ENDBRANCH  51  65
BRANCH  52  76
ATOM     76  C   UNL     1       8.046   4.572  -8.774  1.00  0.00     0.064 A 
ATOM     77  C   UNL     1       9.421   4.445  -9.020  1.00  0.00     0.173 A 
ATOM     78  C   UNL     1       7.437   3.602  -7.965  1.00  0.00     0.173 A 
ATOM     79  F   UNL     1      10.044   5.336  -9.806  1.00  0.00    -0.203 F 
ATOM     80  C   UNL     1      10.151   3.377  -8.502  1.00  0.00     0.198 A 
ATOM     81  C   UNL     1       8.174   2.551  -7.422  1.00  0.00     0.198 A 
ATOM     82  F   UNL     1       6.126   3.677  -7.695  1.00  0.00    -0.203 F 
ATOM     83  F   UNL     1      11.451   3.252  -8.797  1.00  0.00    -0.200 F 
ATOM     84  C   UNL     1       9.528   2.433  -7.700  1.00  0.00     0.200 A 
ATOM     85  F   UNL     1       7.571   1.649  -6.636  1.00  0.00    -0.200 F 
ATOM     86  F   UNL     1      10.229   1.405  -7.203  1.00  0.00    -0.200 F 
ENDBRANCH  52  76
BRANCH  64  87
ATOM     87  C   UNL     1       6.325   6.155 -15.332  1.00  0.00     0.064 A 
ATOM     88  C   UNL     1       5.694   4.964 -15.718  1.00  0.00     0.173 A 
ATOM     89  C   UNL     1       7.215   6.753 -16.237  1.00  0.00     0.173 A 
ATOM     90  F   UNL     1       4.848   4.346 -14.879  1.00  0.00    -0.203 F 
ATOM     91  C   UNL     1       5.955   4.386 -16.957  1.00  0.00     0.198 A 
ATOM     92  C   UNL     1       7.453   6.187 -17.486  1.00  0.00     0.198 A 
ATOM     93  F   UNL     1       7.841   7.895 -15.917  1.00  0.00    -0.203 F 
ATOM     94  F   UNL     1       5.371   3.227 -17.289  1.00  0.00    -0.200 F 
ATOM     95  C   UNL     1       6.827   5.002 -17.843  1.00  0.00     0.200 A 
ATOM     96  F   UNL     1       8.285   6.790 -18.346  1.00  0.00    -0.200 F 
ATOM     97  F   UNL     1       7.068   4.450 -19.040  1.00  0.00    -0.200 F 
ENDBRANCH  64  87
ENDBRANCH  38  39
ENDBRANCH  30  33
ENDBRANCH  28  29
ENDBRANCH  27  28
ENDBRANCH  26  27
ENDBRANCH  25  26
ENDBRANCH   1  25
TORSDOF 19
