REMARK SMILES O=C(NCCCCCCNC(=O)c1ccc(C[NH2+]C[C@H]2C[C@H](O)C2)nc1)c1ccc(-c2c3nc(c(-c4c(F)c(F)c(F)c(F)c4F)c4ccc([nH]4)c(-c4c(F)c(F)c(F)c(F)c4F)c4nc(c(-c5c(F)c(F)c(F)c(F)c5F)c5ccc2[nH]5)C=C4)C=C3)cc1
REMARK SMILES IDX 8 1 7 2 6 3 5 4 4 5 3 6 1 7 2 8 27 10 28 11 89 12 29 13
REMARK SMILES IDX 88 14 30 15 31 16 32 17 82 18 33 19 87 20 81 21 83 22 34 23
REMARK SMILES IDX 86 24 80 25 79 26 35 28 67 29 47 30 66 31 48 32 51 33 65 34
REMARK SMILES IDX 84 35 49 36 50 37 64 39 85 40 52 41 36 42 37 43 45 44 38 45
REMARK SMILES IDX 39 46 43 47 46 48 40 49 41 50 44 51 42 52 68 53 69 54 77 55
REMARK SMILES IDX 70 56 71 57 75 58 78 59 72 60 73 61 76 62 74 63 53 64 54 65
REMARK SMILES IDX 62 66 55 67 56 68 60 69 63 70 57 71 58 72 61 73 59 74 9 75
REMARK SMILES IDX 10 76 11 77 12 79 13 80 14 81 26 82 15 83 25 84 16 85 17 86
REMARK SMILES IDX 18 87 19 90 20 91 24 92 21 93 22 94 23 95
REMARK H PARENT 3 9 83 27 51 38 10 78 18 88 18 89 23 96
REMARK Flexibility Score: inf
ROOT
ATOM      1  C   UNL     1       6.346  -2.455  -3.576  1.00  0.00     0.021 C 
ENDROOT
BRANCH   1   2
ATOM      2  C   UNL     1       4.817  -2.549  -3.521  1.00  0.00     0.002 C 
BRANCH   2   3
ATOM      3  C   UNL     1       4.242  -3.162  -2.241  1.00  0.00     0.002 C 
BRANCH   3   4
ATOM      4  C   UNL     1       4.708  -2.511  -0.941  1.00  0.00     0.021 C 
BRANCH   4   5
ATOM      5  C   UNL     1       4.474  -1.010  -0.861  1.00  0.00     0.116 C 
BRANCH   5   6
ATOM      6  N   UNL     1       3.062  -0.656  -0.862  1.00  0.00    -0.352 N 
ATOM      7  O   UNL     1       1.128   0.162  -0.027  1.00  0.00    -0.269 OA
ATOM      8  C   UNL     1       2.350   0.085   0.051  1.00  0.00     0.251 C 
ATOM      9  H   UNL     1       2.543  -0.997  -1.626  1.00  0.00     0.163 HD
BRANCH   8  10
ATOM     10  C   UNL     1       3.064   0.763   1.154  1.00  0.00     0.039 A 
ATOM     11  C   UNL     1       4.249   1.458   0.908  1.00  0.00     0.014 A 
ATOM     12  C   UNL     1       2.557   0.678   2.453  1.00  0.00     0.014 A 
ATOM     13  C   UNL     1       5.018   1.904   1.974  1.00  0.00     0.010 A 
ATOM     14  C   UNL     1       3.281   1.226   3.517  1.00  0.00     0.010 A 
ATOM     15  C   UNL     1       4.540   1.803   3.292  1.00  0.00    -0.014 A 
BRANCH  15  16
ATOM     16  C   UNL     1       5.366   2.347   4.402  1.00  0.00     0.031 A 
ATOM     17  C   UNL     1       5.903   1.455   5.487  1.00  0.00     0.074 A 
ATOM     18  C   UNL     1       5.669   3.660   4.396  1.00  0.00     0.049 A 
ATOM     19  N   UNL     1       6.681   1.761   6.497  1.00  0.00    -0.248 NA
ATOM     20  C   UNL     1       5.513   0.038   5.444  1.00  0.00     0.031 C 
ATOM     21  C   UNL     1       5.196   4.626   3.401  1.00  0.00     0.029 A 
ATOM     22  N   UNL     1       6.462   4.404   5.230  1.00  0.00    -0.354 N 
ATOM     23  C   UNL     1       6.851   0.587   7.220  1.00  0.00     0.074 A 
ATOM     24  C   UNL     1       6.074  -0.434   6.550  1.00  0.00     0.031 C 
ATOM     25  C   UNL     1       5.757   5.818   3.645  1.00  0.00     0.029 A 
ATOM     26  C   UNL     1       6.569   5.720   4.852  1.00  0.00     0.049 A 
ATOM     27  H   UNL     1       6.911   4.032   6.023  1.00  0.00     0.167 HD
ATOM     28  C   UNL     1       7.592   0.381   8.337  1.00  0.00     0.037 A 
ATOM     29  C   UNL     1       7.237   6.741   5.419  1.00  0.00     0.037 A 
ATOM     30  C   UNL     1       8.378   1.400   8.988  1.00  0.00     0.049 A 
ATOM     31  C   UNL     1       8.030   6.486   6.668  1.00  0.00     0.074 A 
ATOM     32  C   UNL     1       9.201   1.279  10.095  1.00  0.00     0.029 A 
ATOM     33  N   UNL     1       8.430   2.731   8.598  1.00  0.00    -0.354 N 
ATOM     34  N   UNL     1       8.222   5.361   7.313  1.00  0.00    -0.248 NA
ATOM     35  C   UNL     1       8.700   7.646   7.269  1.00  0.00     0.031 C 
ATOM     36  C   UNL     1       9.703   2.546  10.410  1.00  0.00     0.029 A 
ATOM     37  C   UNL     1       9.247   3.446   9.461  1.00  0.00     0.049 A 
ATOM     38  H   UNL     1       7.957   3.111   7.823  1.00  0.00     0.167 HD
ATOM     39  C   UNL     1       9.056   5.670   8.377  1.00  0.00     0.074 A 
ATOM     40  C   UNL     1       9.349   7.085   8.279  1.00  0.00     0.031 C 
ATOM     41  C   UNL     1       9.536   4.854   9.349  1.00  0.00     0.037 A 
BRANCH  28  42
ATOM     42  C   UNL     1       7.571  -0.993   8.948  1.00  0.00     0.064 A 
ATOM     43  C   UNL     1       8.177  -2.094   8.326  1.00  0.00     0.173 A 
ATOM     44  C   UNL     1       6.972  -1.200  10.201  1.00  0.00     0.173 A 
ATOM     45  F   UNL     1       8.757  -1.956   7.124  1.00  0.00    -0.203 F 
ATOM     46  C   UNL     1       8.157  -3.355   8.919  1.00  0.00     0.198 A 
ATOM     47  C   UNL     1       6.982  -2.455  10.806  1.00  0.00     0.198 A 
ATOM     48  F   UNL     1       6.385  -0.181  10.847  1.00  0.00    -0.203 F 
ATOM     49  F   UNL     1       8.699  -4.402   8.281  1.00  0.00    -0.200 F 
ATOM     50  C   UNL     1       7.567  -3.533  10.161  1.00  0.00     0.200 A 
ATOM     51  F   UNL     1       6.425  -2.620  12.014  1.00  0.00    -0.200 F 
ATOM     52  F   UNL     1       7.556  -4.745  10.733  1.00  0.00    -0.200 F 
ENDBRANCH  28  42
BRANCH  29  53
ATOM     53  C   UNL     1       7.187   8.092   4.803  1.00  0.00     0.064 A 
ATOM     54  C   UNL     1       8.332   8.666   4.233  1.00  0.00     0.173 A 
ATOM     55  C   UNL     1       5.998   8.835   4.768  1.00  0.00     0.173 A 
ATOM     56  F   UNL     1       9.497   8.002   4.257  1.00  0.00    -0.203 F 
ATOM     57  C   UNL     1       8.293   9.940   3.670  1.00  0.00     0.198 A 
ATOM     58  C   UNL     1       5.952  10.093   4.174  1.00  0.00     0.198 A 
ATOM     59  F   UNL     1       4.873   8.327   5.293  1.00  0.00    -0.203 F 
ATOM     60  F   UNL     1       9.412  10.485   3.175  1.00  0.00    -0.200 F 
ATOM     61  C   UNL     1       7.101  10.649   3.635  1.00  0.00     0.200 A 
ATOM     62  F   UNL     1       4.794  10.766   4.125  1.00  0.00    -0.200 F 
ATOM     63  F   UNL     1       7.063  11.871   3.087  1.00  0.00    -0.200 F 
ENDBRANCH  29  53
BRANCH  41  64
ATOM     64  C   UNL     1      10.468   5.467  10.355  1.00  0.00     0.064 A 
ATOM     65  C   UNL     1      10.023   6.391  11.312  1.00  0.00     0.173 A 
ATOM     66  C   UNL     1      11.827   5.114  10.367  1.00  0.00     0.173 A 
ATOM     67  F   UNL     1       8.738   6.776  11.333  1.00  0.00    -0.203 F 
ATOM     68  C   UNL     1      10.911   6.967  12.218  1.00  0.00     0.198 A 
ATOM     69  C   UNL     1      12.703   5.664  11.297  1.00  0.00     0.198 A 
ATOM     70  F   UNL     1      12.304   4.230   9.477  1.00  0.00    -0.203 F 
ATOM     71  F   UNL     1      10.476   7.896  13.080  1.00  0.00    -0.200 F 
ATOM     72  C   UNL     1      12.248   6.598  12.214  1.00  0.00     0.200 A 
ATOM     73  F   UNL     1      13.992   5.295  11.301  1.00  0.00    -0.200 F 
ATOM     74  F   UNL     1      13.100   7.152  13.087  1.00  0.00    -0.200 F 
ENDBRANCH  41  64
ENDBRANCH  15  16
ENDBRANCH   8  10
ENDBRANCH   5   6
ENDBRANCH   4   5
ENDBRANCH   3   4
ENDBRANCH   2   3
ENDBRANCH   1   2
BRANCH   1  75
ATOM     75  C   UNL     1       7.079  -3.774  -3.341  1.00  0.00     0.116 C 
BRANCH  75  76
ATOM     76  N   UNL     1       6.738  -4.767  -4.345  1.00  0.00    -0.352 N 
ATOM     77  C   UNL     1       7.560  -5.403  -5.237  1.00  0.00     0.252 C 
ATOM     78  H   UNL     1       5.787  -5.017  -4.389  1.00  0.00     0.163 HD
ATOM     79  O   UNL     1       7.093  -6.064  -6.160  1.00  0.00    -0.269 OA
BRANCH  77  80
ATOM     80  C   UNL     1       9.013  -5.279  -5.090  1.00  0.00     0.058 A 
ATOM     81  C   UNL     1       9.663  -5.604  -3.900  1.00  0.00     0.017 A 
ATOM     82  C   UNL     1       9.763  -4.823  -6.160  1.00  0.00     0.125 A 
ATOM     83  C   UNL     1      11.036  -5.404  -3.809  1.00  0.00     0.030 A 
ATOM     84  N   UNL     1      11.096  -4.604  -6.088  1.00  0.00    -0.255 NA
ATOM     85  C   UNL     1      11.717  -4.888  -4.914  1.00  0.00     0.094 A 
BRANCH  85  86
ATOM     86  C   UNL     1      13.209  -4.638  -4.831  1.00  0.00     0.317 C 
BRANCH  86  87
ATOM     87  N   UNL     1      13.997  -5.779  -5.308  1.00  0.00    -0.341 N 
ATOM     88  H   UNL     1      13.818  -5.908  -6.304  1.00  0.00     0.346 HD
ATOM     89  H   UNL     1      13.717  -6.600  -4.772  1.00  0.00     0.346 HD
BRANCH  87  90
ATOM     90  C   UNL     1      15.428  -5.578  -5.109  1.00  0.00     0.264 C 
BRANCH  90  91
ATOM     91  C   UNL     1      15.842  -5.859  -3.670  1.00  0.00     0.049 C 
ATOM     92  C   UNL     1      17.195  -5.244  -3.235  1.00  0.00     0.041 C 
ATOM     93  C   UNL     1      16.468  -7.248  -3.369  1.00  0.00     0.041 C 
ATOM     94  C   UNL     1      17.452  -6.529  -2.417  1.00  0.00     0.115 C 
BRANCH  94  95
ATOM     95  O   UNL     1      17.084  -6.488  -1.024  1.00  0.00    -0.393 OA
ATOM     96  H   UNL     1      16.174  -6.164  -0.940  1.00  0.00     0.210 HD
ENDBRANCH  94  95
ENDBRANCH  90  91
ENDBRANCH  87  90
ENDBRANCH  86  87
ENDBRANCH  85  86
ENDBRANCH  77  80
ENDBRANCH  75  76
ENDBRANCH   1  75
TORSDOF 18
