REMARK SMILES COc1ccc(S(=O)(=O)N2CCC[C@H](C(=O)N3CCC[C@H](C(=O)NCCCCCCNC(=O)c4ccc(-c5c6nc(c(-c7c(F)c(F)c(F)c(F)c7F)c7ccc([nH]7)c(-c7c(F)c(F)c(F)c(F)c7F)c7nc(c(-c8c(F)c(F)c(F)c(F)c8F)c8ccc5[nH]8)C=C7)C=C6)cc4)C3)C2)cc1
REMARK SMILES IDX 26 1 25 2 24 3 22 4 23 5 21 7 17 8 18 9 97 10 19 11 20 12
REMARK SMILES IDX 15 13 16 14 14 15 10 16 11 17 98 18 12 19 13 20 7 21 8 22
REMARK SMILES IDX 9 23 6 24 3 25 4 26 100 27 5 28 99 29 2 30 1 31 27 32 28 33
REMARK SMILES IDX 29 34 30 35 31 36 32 37 33 39 34 40 35 41 96 42 36 43 95 44
REMARK SMILES IDX 37 45 38 46 39 47 89 48 40 49 94 50 88 51 90 52 41 53 93 54
REMARK SMILES IDX 87 55 86 56 42 58 74 59 54 60 73 61 55 62 58 63 72 64 91 65
REMARK SMILES IDX 56 66 57 67 71 69 92 70 59 71 43 72 44 73 52 74 45 75 46 76
REMARK SMILES IDX 50 77 53 78 47 79 48 80 51 81 49 82 75 83 76 84 84 85 77 86
REMARK SMILES IDX 78 87 82 88 85 89 79 90 80 91 83 92 81 93 60 94 61 95 69 96
REMARK SMILES IDX 62 97 63 98 67 99 70 100 64 101 65 102 68 103 66 104
REMARK H PARENT 24 6 31 38 90 57 58 68
REMARK Flexibility Score: inf
ROOT
ATOM      1  C   UNL     1       8.261  11.844  -1.368  1.00  0.00     0.021 C 
ENDROOT
BRANCH   1   2
ATOM      2  C   UNL     1       7.996  10.613  -0.509  1.00  0.00     0.116 C 
BRANCH   2   3
ATOM      3  N   UNL     1       8.514  10.729   0.833  1.00  0.00    -0.356 N 
ATOM      4  C   UNL     1       7.921  10.477   2.027  1.00  0.00     0.224 C 
ATOM      5  O   UNL     1       8.657  10.489   3.021  1.00  0.00    -0.275 OA
ATOM      6  H   UNL     1       9.445  11.042   0.892  1.00  0.00     0.163 HD
BRANCH   4   7
ATOM      7  C   UNL     1       6.428  10.175   2.204  1.00  0.00     0.098 C 
ATOM      8  N   UNL     1       5.345   8.849   0.371  1.00  0.00    -0.342 N 
ATOM      9  C   UNL     1       4.290   9.843   0.197  1.00  0.00     0.119 C 
ATOM     10  C   UNL     1       5.991   8.810   1.671  1.00  0.00     0.133 C 
ATOM     11  C   UNL     1       4.728  11.256   0.565  1.00  0.00     0.022 C 
ATOM     12  C   UNL     1       5.469  11.331   1.898  1.00  0.00     0.017 C 
BRANCH   8  13
ATOM     13  C   UNL     1       5.753   8.117  -0.725  1.00  0.00     0.227 C 
ATOM     14  O   UNL     1       5.875   8.663  -1.829  1.00  0.00    -0.275 OA
BRANCH  13  15
ATOM     15  C   UNL     1       5.820   6.589  -0.669  1.00  0.00     0.094 C 
ATOM     16  N   UNL     1       3.434   6.258  -0.161  1.00  0.00    -0.197 NA
ATOM     17  C   UNL     1       3.681   5.858   1.236  1.00  0.00     0.102 C 
ATOM     18  C   UNL     1       4.482   6.066  -1.177  1.00  0.00     0.116 C 
ATOM     19  C   UNL     1       5.138   5.623   1.625  1.00  0.00     0.018 C 
ATOM     20  C   UNL     1       6.220   5.806   0.568  1.00  0.00     0.016 C 
BRANCH  16  21
ATOM     21  S   UNL     1       1.815   6.269  -0.681  1.00  0.00     0.243 S 
ATOM     22  O   UNL     1       1.763   6.859  -1.997  1.00  0.00    -0.207 OA
ATOM     23  O   UNL     1       1.023   6.794   0.416  1.00  0.00    -0.207 OA
BRANCH  21  24
ATOM     24  C   UNL     1       1.338   4.562  -0.865  1.00  0.00     0.082 A 
ATOM     25  C   UNL     1       0.440   1.920  -1.013  1.00  0.00     0.118 A 
ATOM     26  C   UNL     1      -0.449   2.975  -1.223  1.00  0.00     0.048 A 
ATOM     27  C   UNL     1       1.789   2.187  -0.782  1.00  0.00     0.048 A 
ATOM     28  C   UNL     1      -0.007   4.298  -1.140  1.00  0.00     0.025 A 
ATOM     29  C   UNL     1       2.236   3.506  -0.702  1.00  0.00     0.025 A 
BRANCH  25  30
ATOM     30  O   UNL     1      -0.095   0.663  -1.074  1.00  0.00    -0.497 OA
ATOM     31  C   UNL     1       0.534  -0.291  -0.221  1.00  0.00     0.278 C 
ENDBRANCH  25  30
ENDBRANCH  21  24
ENDBRANCH  16  21
ENDBRANCH  13  15
ENDBRANCH   8  13
ENDBRANCH   4   7
ENDBRANCH   2   3
ENDBRANCH   1   2
BRANCH   1  32
ATOM     32  C   UNL     1       9.436  11.691  -2.335  1.00  0.00     0.002 C 
BRANCH  32  33
ATOM     33  C   UNL     1       9.329  10.535  -3.338  1.00  0.00     0.002 C 
BRANCH  33  34
ATOM     34  C   UNL     1       8.044  10.476  -4.170  1.00  0.00     0.021 C 
BRANCH  34  35
ATOM     35  C   UNL     1       7.706  11.737  -4.959  1.00  0.00     0.116 C 
BRANCH  35  36
ATOM     36  N   UNL     1       8.792  12.164  -5.825  1.00  0.00    -0.352 N 
ATOM     37  C   UNL     1       8.799  12.452  -7.164  1.00  0.00     0.251 C 
ATOM     38  H   UNL     1       9.664  12.260  -5.377  1.00  0.00     0.163 HD
ATOM     39  O   UNL     1       9.865  12.651  -7.740  1.00  0.00    -0.269 OA
BRANCH  37  40
ATOM     40  C   UNL     1       7.536  12.514  -7.931  1.00  0.00     0.039 A 
ATOM     41  C   UNL     1       7.503  11.944  -9.207  1.00  0.00     0.014 A 
ATOM     42  C   UNL     1       6.408  13.168  -7.428  1.00  0.00     0.014 A 
ATOM     43  C   UNL     1       6.328  11.985  -9.959  1.00  0.00     0.010 A 
ATOM     44  C   UNL     1       5.218  13.158  -8.153  1.00  0.00     0.010 A 
ATOM     45  C   UNL     1       5.169  12.572  -9.427  1.00  0.00    -0.014 A 
BRANCH  45  46
ATOM     46  C   UNL     1       3.900  12.590 -10.195  1.00  0.00     0.031 A 
ATOM     47  C   UNL     1       3.332  13.892 -10.684  1.00  0.00     0.074 A 
ATOM     48  C   UNL     1       3.232  11.440 -10.402  1.00  0.00     0.049 A 
ATOM     49  N   UNL     1       2.204  14.123 -11.308  1.00  0.00    -0.248 NA
ATOM     50  C   UNL     1       4.126  15.100 -10.414  1.00  0.00     0.031 C 
ATOM     51  C   UNL     1       3.661  10.120  -9.939  1.00  0.00     0.029 A 
ATOM     52  N   UNL     1       2.042  11.199 -11.042  1.00  0.00    -0.354 N 
ATOM     53  C   UNL     1       2.146  15.498 -11.488  1.00  0.00     0.074 A 
ATOM     54  C   UNL     1       3.330  16.056 -10.871  1.00  0.00     0.031 C 
ATOM     55  C   UNL     1       2.756   9.205 -10.322  1.00  0.00     0.029 A 
ATOM     56  C   UNL     1       1.670   9.877 -11.029  1.00  0.00     0.049 A 
ATOM     57  H   UNL     1       1.507  11.905 -11.470  1.00  0.00     0.167 HD
ATOM     58  C   UNL     1       1.200  16.226 -12.127  1.00  0.00     0.037 A 
ATOM     59  C   UNL     1       0.572   9.278 -11.526  1.00  0.00     0.037 A 
ATOM     60  C   UNL     1       0.037  15.665 -12.763  1.00  0.00     0.049 A 
ATOM     61  C   UNL     1      -0.459  10.108 -12.240  1.00  0.00     0.074 A 
ATOM     62  C   UNL     1      -0.951  16.312 -13.484  1.00  0.00     0.029 A 
ATOM     63  N   UNL     1      -0.293  14.317 -12.752  1.00  0.00    -0.354 N 
ATOM     64  N   UNL     1      -0.475  11.401 -12.456  1.00  0.00    -0.248 NA
ATOM     65  C   UNL     1      -1.622   9.394 -12.785  1.00  0.00     0.031 C 
ATOM     66  C   UNL     1      -1.897  15.361 -13.882  1.00  0.00     0.029 A 
ATOM     67  C   UNL     1      -1.477  14.115 -13.443  1.00  0.00     0.049 A 
ATOM     68  H   UNL     1       0.236  13.609 -12.319  1.00  0.00     0.167 HD
ATOM     69  C   UNL     1      -1.632  11.653 -13.180  1.00  0.00     0.074 A 
ATOM     70  C   UNL     1      -2.286  10.376 -13.379  1.00  0.00     0.031 C 
ATOM     71  C   UNL     1      -2.109  12.836 -13.637  1.00  0.00     0.037 A 
BRANCH  58  72
ATOM     72  C   UNL     1       1.386  17.714 -12.173  1.00  0.00     0.064 A 
ATOM     73  C   UNL     1       2.381  18.305 -12.967  1.00  0.00     0.173 A 
ATOM     74  C   UNL     1       0.542  18.562 -11.441  1.00  0.00     0.173 A 
ATOM     75  F   UNL     1       3.221  17.537 -13.678  1.00  0.00    -0.203 F 
ATOM     76  C   UNL     1       2.541  19.687 -13.005  1.00  0.00     0.198 A 
ATOM     77  C   UNL     1       0.687  19.946 -11.503  1.00  0.00     0.198 A 
ATOM     78  F   UNL     1      -0.429  18.049 -10.670  1.00  0.00    -0.203 F 
ATOM     79  F   UNL     1       3.527  20.226 -13.735  1.00  0.00    -0.200 F 
ATOM     80  C   UNL     1       1.690  20.507 -12.278  1.00  0.00     0.200 A 
ATOM     81  F   UNL     1      -0.142  20.737 -10.808  1.00  0.00    -0.200 F 
ATOM     82  F   UNL     1       1.843  21.837 -12.320  1.00  0.00    -0.200 F 
ENDBRANCH  58  72
BRANCH  59  83
ATOM     83  C   UNL     1       0.408   7.809 -11.390  1.00  0.00     0.064 A 
ATOM     84  C   UNL     1       0.537   6.967 -12.504  1.00  0.00     0.173 A 
ATOM     85  C   UNL     1       0.129   7.216 -10.151  1.00  0.00     0.173 A 
ATOM     86  F   UNL     1       0.782   7.492 -13.714  1.00  0.00    -0.203 F 
ATOM     87  C   UNL     1       0.379   5.588 -12.386  1.00  0.00     0.198 A 
ATOM     88  C   UNL     1      -0.005   5.834 -10.029  1.00  0.00     0.198 A 
ATOM     89  F   UNL     1      -0.001   7.979  -9.056  1.00  0.00    -0.203 F 
ATOM     90  F   UNL     1       0.470   4.810 -13.473  1.00  0.00    -0.200 F 
ATOM     91  C   UNL     1       0.114   5.022 -11.148  1.00  0.00     0.200 A 
ATOM     92  F   UNL     1      -0.250   5.289  -8.830  1.00  0.00    -0.200 F 
ATOM     93  F   UNL     1      -0.033   3.695 -11.034  1.00  0.00    -0.200 F 
ENDBRANCH  59  83
BRANCH  71  94
ATOM     94  C   UNL     1      -3.385  12.801 -14.424  1.00  0.00     0.064 A 
ATOM     95  C   UNL     1      -4.625  12.588 -13.804  1.00  0.00     0.173 A 
ATOM     96  C   UNL     1      -3.371  13.024 -15.809  1.00  0.00     0.173 A 
ATOM     97  F   UNL     1      -4.687  12.355 -12.484  1.00  0.00    -0.203 F 
ATOM     98  C   UNL     1      -5.802  12.578 -14.546  1.00  0.00     0.198 A 
ATOM     99  C   UNL     1      -4.553  13.039 -16.544  1.00  0.00     0.198 A 
ATOM    100  F   UNL     1      -2.210  13.238 -16.448  1.00  0.00    -0.203 F 
ATOM    101  F   UNL     1      -6.972  12.332 -13.940  1.00  0.00    -0.200 F 
ATOM    102  C   UNL     1      -5.766  12.811 -15.913  1.00  0.00     0.200 A 
ATOM    103  F   UNL     1      -4.517  13.274 -17.863  1.00  0.00    -0.200 F 
ATOM    104  F   UNL     1      -6.902  12.807 -16.625  1.00  0.00    -0.200 F 
ENDBRANCH  71  94
ENDBRANCH  45  46
ENDBRANCH  37  40
ENDBRANCH  35  36
ENDBRANCH  34  35
ENDBRANCH  33  34
ENDBRANCH  32  33
ENDBRANCH   1  32
TORSDOF 18
