REMARK SMILES COc1ccc(NC(C)(C)C2=N[C@@H](C(=O)NCCCCCCNC(=O)c3ccc(-c4c5nc(c(-c6c(F)c(F)c(F)c(F)c6F)c6ccc([nH]6)c(-c6c(F)c(F)c(F)c(F)c6F)c6nc(c(-c7c(F)c(F)c(F)c(F)c7F)c7ccc4[nH]7)C=C6)C=C5)cc3)CS2)cc1
REMARK SMILES IDX 18 1 17 2 16 3 14 4 15 5 13 7 11 8 12 9 90 10 89 11 8 12
REMARK SMILES IDX 9 13 10 14 7 15 6 17 3 18 4 19 92 20 5 21 91 22 2 23 1 24
REMARK SMILES IDX 19 25 20 26 21 27 22 28 23 29 24 30 25 32 26 33 27 34 88 35
REMARK SMILES IDX 28 36 87 37 29 38 30 39 31 40 81 41 32 42 86 43 80 44 82 45
REMARK SMILES IDX 33 46 85 47 79 48 78 49 34 51 66 52 46 53 65 54 47 55 50 56
REMARK SMILES IDX 64 57 83 58 48 59 49 60 63 62 84 63 51 64 35 65 36 66 44 67
REMARK SMILES IDX 37 68 38 69 42 70 45 71 39 72 40 73 43 74 41 75 67 76 68 77
REMARK SMILES IDX 76 78 69 79 70 80 74 81 77 82 71 83 72 84 75 85 73 86 52 87
REMARK SMILES IDX 53 88 61 89 54 90 55 91 59 92 62 93 56 94 57 95 60 96 58 97
REMARK H PARENT 16 6 7 16 23 31 82 50 50 61
REMARK Flexibility Score: inf
ROOT
ATOM      1  C   UNL     1      -4.197   5.656   5.107  1.00  0.00     0.021 C 
ENDROOT
BRANCH   1   2
ATOM      2  C   UNL     1      -2.937   5.186   4.393  1.00  0.00     0.116 C 
BRANCH   2   3
ATOM      3  N   UNL     1      -3.297   4.285   3.321  1.00  0.00    -0.354 N 
ATOM      4  C   UNL     1      -3.044   4.398   1.988  1.00  0.00     0.245 C 
ATOM      5  O   UNL     1      -3.614   3.619   1.220  1.00  0.00    -0.273 OA
ATOM      6  H   UNL     1      -3.792   3.478   3.592  1.00  0.00     0.163 HD
BRANCH   4   7
ATOM      7  C   UNL     1      -2.106   5.478   1.466  1.00  0.00     0.205 C 
ATOM      8  C   UNL     1      -0.263   6.622   2.146  1.00  0.00     0.094 C 
ATOM      9  N   UNL     1      -0.867   5.484   2.284  1.00  0.00    -0.266 NA
ATOM     10  S   UNL     1      -1.224   7.911   1.427  1.00  0.00    -0.106 SA
ATOM     11  C   UNL     1      -2.706   6.867   1.433  1.00  0.00     0.113 C 
BRANCH   8  12
ATOM     12  C   UNL     1       1.173   6.874   2.668  1.00  0.00     0.080 C 
ATOM     13  C   UNL     1       1.064   6.915   4.207  1.00  0.00     0.042 C 
ATOM     14  C   UNL     1       1.795   8.193   2.187  1.00  0.00     0.042 C 
BRANCH  12  15
ATOM     15  N   UNL     1       2.152   5.801   2.333  1.00  0.00    -0.374 N 
ATOM     16  H   UNL     1       3.048   5.905   2.727  1.00  0.00     0.161 HD
BRANCH  15  17
ATOM     17  C   UNL     1       1.975   4.680   1.544  1.00  0.00     0.035 A 
ATOM     18  C   UNL     1       1.352   2.224   0.264  1.00  0.00     0.119 A 
ATOM     19  C   UNL     1       0.833   3.426  -0.207  1.00  0.00     0.048 A 
ATOM     20  C   UNL     1       2.253   2.254   1.323  1.00  0.00     0.048 A 
ATOM     21  C   UNL     1       1.171   4.640   0.406  1.00  0.00     0.029 A 
ATOM     22  C   UNL     1       2.552   3.470   1.956  1.00  0.00     0.029 A 
BRANCH  18  23
ATOM     23  O   UNL     1       0.908   1.109  -0.390  1.00  0.00    -0.497 OA
ATOM     24  C   UNL     1       1.268  -0.147   0.171  1.00  0.00     0.278 C 
ENDBRANCH  18  23
ENDBRANCH  15  17
ENDBRANCH  12  15
ENDBRANCH   8  12
ENDBRANCH   4   7
ENDBRANCH   2   3
ENDBRANCH   1   2
BRANCH   1  25
ATOM     25  C   UNL     1      -4.853   4.563   5.954  1.00  0.00     0.002 C 
BRANCH  25  26
ATOM     26  C   UNL     1      -3.944   3.969   7.036  1.00  0.00     0.002 C 
BRANCH  26  27
ATOM     27  C   UNL     1      -3.284   5.001   7.954  1.00  0.00     0.021 C 
BRANCH  27  28
ATOM     28  C   UNL     1      -4.260   5.968   8.612  1.00  0.00     0.116 C 
BRANCH  28  29
ATOM     29  N   UNL     1      -5.250   5.278   9.417  1.00  0.00    -0.352 N 
ATOM     30  C   UNL     1      -5.679   5.563  10.685  1.00  0.00     0.251 C 
ATOM     31  H   UNL     1      -5.672   4.496   8.992  1.00  0.00     0.163 HD
ATOM     32  O   UNL     1      -6.388   4.769  11.293  1.00  0.00    -0.269 OA
BRANCH  30  33
ATOM     33  C   UNL     1      -5.272   6.830  11.325  1.00  0.00     0.039 A 
ATOM     34  C   UNL     1      -4.880   6.806  12.665  1.00  0.00     0.014 A 
ATOM     35  C   UNL     1      -5.307   8.037  10.620  1.00  0.00     0.014 A 
ATOM     36  C   UNL     1      -4.507   7.992  13.294  1.00  0.00     0.010 A 
ATOM     37  C   UNL     1      -4.858   9.206  11.225  1.00  0.00     0.010 A 
ATOM     38  C   UNL     1      -4.484   9.200  12.577  1.00  0.00    -0.014 A 
BRANCH  38  39
ATOM     39  C   UNL     1      -4.133  10.473  13.249  1.00  0.00     0.031 A 
ATOM     40  C   UNL     1      -5.171  11.552  13.397  1.00  0.00     0.074 A 
ATOM     41  C   UNL     1      -2.881  10.666  13.704  1.00  0.00     0.049 A 
ATOM     42  N   UNL     1      -5.062  12.739  13.939  1.00  0.00    -0.248 NA
ATOM     43  C   UNL     1      -6.501  11.273  12.833  1.00  0.00     0.031 C 
ATOM     44  C   UNL     1      -1.778   9.713  13.575  1.00  0.00     0.029 A 
ATOM     45  N   UNL     1      -2.326  11.731  14.367  1.00  0.00    -0.354 N 
ATOM     46  C   UNL     1      -6.300  13.346  13.770  1.00  0.00     0.074 A 
ATOM     47  C   UNL     1      -7.124  12.427  13.017  1.00  0.00     0.031 C 
ATOM     48  C   UNL     1      -0.687  10.222  14.168  1.00  0.00     0.029 A 
ATOM     49  C   UNL     1      -1.005  11.548  14.692  1.00  0.00     0.049 A 
ATOM     50  H   UNL     1      -2.828  12.548  14.589  1.00  0.00     0.167 HD
ATOM     51  C   UNL     1      -6.722  14.548  14.228  1.00  0.00     0.037 A 
ATOM     52  C   UNL     1      -0.151  12.359  15.343  1.00  0.00     0.037 A 
ATOM     53  C   UNL     1      -5.907  15.447  15.001  1.00  0.00     0.049 A 
ATOM     54  C   UNL     1      -0.649  13.686  15.852  1.00  0.00     0.074 A 
ATOM     55  C   UNL     1      -6.251  16.665  15.558  1.00  0.00     0.029 A 
ATOM     56  N   UNL     1      -4.577  15.219  15.329  1.00  0.00    -0.354 N 
ATOM     57  N   UNL     1      -1.842  14.221  15.745  1.00  0.00    -0.248 NA
ATOM     58  C   UNL     1       0.317  14.514  16.585  1.00  0.00     0.031 C 
ATOM     59  C   UNL     1      -5.118  17.196  16.184  1.00  0.00     0.029 A 
ATOM     60  C   UNL     1      -4.082  16.283  16.066  1.00  0.00     0.049 A 
ATOM     61  H   UNL     1      -4.062  14.419  15.075  1.00  0.00     0.167 HD
ATOM     62  C   UNL     1      -1.779  15.431  16.423  1.00  0.00     0.074 A 
ATOM     63  C   UNL     1      -0.436  15.540  16.954  1.00  0.00     0.031 C 
ATOM     64  C   UNL     1      -2.743  16.370  16.589  1.00  0.00     0.037 A 
BRANCH  51  65
ATOM     65  C   UNL     1      -8.132  14.956  13.906  1.00  0.00     0.064 A 
ATOM     66  C   UNL     1      -9.237  14.300  14.472  1.00  0.00     0.173 A 
ATOM     67  C   UNL     1      -8.384  16.028  13.037  1.00  0.00     0.173 A 
ATOM     68  F   UNL     1      -9.053  13.258  15.298  1.00  0.00    -0.203 F 
ATOM     69  C   UNL     1     -10.538  14.679  14.153  1.00  0.00     0.198 A 
ATOM     70  C   UNL     1      -9.686  16.427  12.747  1.00  0.00     0.198 A 
ATOM     71  F   UNL     1      -7.366  16.693  12.470  1.00  0.00    -0.203 F 
ATOM     72  F   UNL     1     -11.576  13.999  14.661  1.00  0.00    -0.200 F 
ATOM     73  C   UNL     1     -10.762  15.746  13.297  1.00  0.00     0.200 A 
ATOM     74  F   UNL     1      -9.901  17.466  11.929  1.00  0.00    -0.200 F 
ATOM     75  F   UNL     1     -12.015  16.114  12.995  1.00  0.00    -0.200 F 
ENDBRANCH  51  65
BRANCH  52  76
ATOM     76  C   UNL     1       1.249  11.926  15.586  1.00  0.00     0.064 A 
ATOM     77  C   UNL     1       1.698  11.632  16.881  1.00  0.00     0.173 A 
ATOM     78  C   UNL     1       2.170  11.810  14.535  1.00  0.00     0.173 A 
ATOM     79  F   UNL     1       0.860  11.745  17.922  1.00  0.00    -0.203 F 
ATOM     80  C   UNL     1       3.021  11.265  17.120  1.00  0.00     0.198 A 
ATOM     81  C   UNL     1       3.485  11.414  14.771  1.00  0.00     0.198 A 
ATOM     82  F   UNL     1       1.790  12.072  13.276  1.00  0.00    -0.203 F 
ATOM     83  F   UNL     1       3.436  11.041  18.374  1.00  0.00    -0.200 F 
ATOM     84  C   UNL     1       3.912  11.152  16.064  1.00  0.00     0.200 A 
ATOM     85  F   UNL     1       4.339  11.290  13.746  1.00  0.00    -0.200 F 
ATOM     86  F   UNL     1       5.184  10.799  16.293  1.00  0.00    -0.200 F 
ENDBRANCH  52  76
BRANCH  64  87
ATOM     87  C   UNL     1      -2.387  17.576  17.411  1.00  0.00     0.064 A 
ATOM     88  C   UNL     1      -1.484  18.545  16.948  1.00  0.00     0.173 A 
ATOM     89  C   UNL     1      -2.968  17.771  18.673  1.00  0.00     0.173 A 
ATOM     90  F   UNL     1      -0.891  18.399  15.753  1.00  0.00    -0.203 F 
ATOM     91  C   UNL     1      -1.145  19.642  17.736  1.00  0.00     0.198 A 
ATOM     92  C   UNL     1      -2.653  18.887  19.443  1.00  0.00     0.198 A 
ATOM     93  F   UNL     1      -3.845  16.880  19.160  1.00  0.00    -0.203 F 
ATOM     94  F   UNL     1      -0.230  20.520  17.300  1.00  0.00    -0.200 F 
ATOM     95  C   UNL     1      -1.733  19.814  18.980  1.00  0.00     0.200 A 
ATOM     96  F   UNL     1      -3.234  19.060  20.638  1.00  0.00    -0.200 F 
ATOM     97  F   UNL     1      -1.404  20.870  19.736  1.00  0.00    -0.200 F 
ENDBRANCH  64  87
ENDBRANCH  38  39
ENDBRANCH  30  33
ENDBRANCH  28  29
ENDBRANCH  27  28
ENDBRANCH  26  27
ENDBRANCH  25  26
ENDBRANCH   1  25
TORSDOF 17
