REMARK SMILES Nc1nccc(N2CCC[C@@](Cc3ccc(F)cc3F)(C(=O)NCCCCCCNC(=O)c3ccc(-c4c5nc(c(-c6c(F)c(F)c(F)c(F)c6F)c6ccc([nH]6)c(-c6c(F)c(F)c(F)c(F)c6F)c6nc(c(-c7c(F)c(F)c(F)c(F)c7F)c7ccc4[nH]7)C=C6)C=C5)cc3)C2)n1
REMARK SMILES IDX 26 1 25 2 24 3 23 4 21 5 22 6 11 8 7 9 8 10 96 11 9 12 10 13
REMARK SMILES IDX 6 14 2 15 3 16 97 17 4 18 5 19 1 20 12 23 13 24 14 25 19 26
REMARK SMILES IDX 15 27 18 28 20 29 16 30 17 31 27 32 28 33 29 34 30 35 31 36
REMARK SMILES IDX 32 38 33 39 34 40 95 41 35 42 94 43 36 44 37 45 38 46 88 47
REMARK SMILES IDX 39 48 93 49 87 50 89 51 40 52 92 53 86 54 85 55 41 57 73 58
REMARK SMILES IDX 53 59 72 60 54 61 57 62 71 63 90 64 55 65 56 66 70 68 91 69
REMARK SMILES IDX 58 70 42 71 43 72 51 73 44 74 45 75 49 76 52 77 46 78 47 79
REMARK SMILES IDX 50 80 48 81 74 82 75 83 83 84 76 85 77 86 81 87 84 88 78 89
REMARK SMILES IDX 79 90 82 91 80 92 59 93 60 94 68 95 61 96 62 97 66 98 69 99
REMARK SMILES IDX 63 100 64 101 67 102 65 103
REMARK H PARENT 23 7 1 21 1 22 30 37 89 56 57 67
REMARK Flexibility Score: inf
ROOT
ATOM      1  C   UNL     1       5.313  -8.143  -4.249  1.00  0.00     0.002 C 
ENDROOT
BRANCH   1   2
ATOM      2  C   UNL     1       5.329  -7.356  -2.934  1.00  0.00     0.021 C 
BRANCH   2   3
ATOM      3  C   UNL     1       4.851  -5.917  -3.057  1.00  0.00     0.116 C 
BRANCH   3   4
ATOM      4  N   UNL     1       3.415  -5.782  -3.159  1.00  0.00    -0.356 N 
ATOM      5  C   UNL     1       2.556  -4.833  -2.698  1.00  0.00     0.228 C 
ATOM      6  O   UNL     1       1.429  -4.865  -3.207  1.00  0.00    -0.274 OA
ATOM      7  H   UNL     1       2.979  -6.512  -3.654  1.00  0.00     0.163 HD
BRANCH   5   8
ATOM      8  C   UNL     1       2.921  -3.769  -1.636  1.00  0.00     0.071 C 
ATOM      9  N   UNL     1       1.800  -2.293  -0.021  1.00  0.00    -0.355 N 
ATOM     10  C   UNL     1       2.320  -2.884   1.196  1.00  0.00     0.118 C 
ATOM     11  C   UNL     1       1.540  -3.208  -1.129  1.00  0.00     0.135 C 
ATOM     12  C   UNL     1       3.664  -3.510   0.858  1.00  0.00     0.023 C 
ATOM     13  C   UNL     1       3.613  -4.400  -0.391  1.00  0.00     0.021 C 
BRANCH   9  14
ATOM     14  C   UNL     1       1.063  -1.130   0.076  1.00  0.00     0.134 A 
ATOM     15  C   UNL     1      -0.926  -0.007  -0.009  1.00  0.00     0.221 A 
ATOM     16  N   UNL     1      -0.358   1.190   0.162  1.00  0.00    -0.222 NA
ATOM     17  N   UNL     1      -0.269  -1.169  -0.077  1.00  0.00    -0.196 NA
ATOM     18  C   UNL     1       0.976   1.199   0.289  1.00  0.00     0.119 A 
ATOM     19  C   UNL     1       1.736   0.059   0.274  1.00  0.00     0.067 A 
BRANCH  15  20
ATOM     20  N   UNL     1      -2.286  -0.043  -0.101  1.00  0.00    -0.368 N 
ATOM     21  H   UNL     1      -2.805   0.792  -0.055  1.00  0.00     0.159 HD
ATOM     22  H   UNL     1      -2.750  -0.904  -0.214  1.00  0.00     0.159 HD
ENDBRANCH  15  20
ENDBRANCH   9  14
BRANCH   8  23
ATOM     23  C   UNL     1       3.653  -2.542  -2.272  1.00  0.00     0.057 C 
BRANCH  23  24
ATOM     24  C   UNL     1       4.986  -2.704  -2.958  1.00  0.00    -0.011 A 
ATOM     25  C   UNL     1       5.053  -2.870  -4.351  1.00  0.00     0.010 A 
ATOM     26  C   UNL     1       6.184  -2.650  -2.235  1.00  0.00     0.129 A 
ATOM     27  C   UNL     1       6.288  -3.038  -4.982  1.00  0.00     0.040 A 
ATOM     28  C   UNL     1       7.416  -2.813  -2.855  1.00  0.00     0.078 A 
ATOM     29  F   UNL     1       6.157  -2.450  -0.911  1.00  0.00    -0.207 F 
ATOM     30  C   UNL     1       7.455  -3.018  -4.226  1.00  0.00     0.126 A 
ATOM     31  F   UNL     1       8.634  -3.220  -4.828  1.00  0.00    -0.207 F 
ENDBRANCH  23  24
ENDBRANCH   8  23
ENDBRANCH   5   8
ENDBRANCH   3   4
ENDBRANCH   2   3
ENDBRANCH   1   2
BRANCH   1  32
ATOM     32  C   UNL     1       6.002  -7.473  -5.446  1.00  0.00     0.002 C 
BRANCH  32  33
ATOM     33  C   UNL     1       7.420  -6.946  -5.200  1.00  0.00     0.021 C 
BRANCH  33  34
ATOM     34  C   UNL     1       8.427  -7.984  -4.721  1.00  0.00     0.116 C 
BRANCH  34  35
ATOM     35  N   UNL     1       8.604  -9.066  -5.672  1.00  0.00    -0.352 N 
ATOM     36  C   UNL     1       9.758  -9.622  -6.154  1.00  0.00     0.251 C 
ATOM     37  H   UNL     1       7.771  -9.459  -6.020  1.00  0.00     0.163 HD
ATOM     38  O   UNL     1       9.705 -10.433  -7.083  1.00  0.00    -0.269 OA
BRANCH  36  39
ATOM     39  C   UNL     1      11.071  -9.247  -5.589  1.00  0.00     0.039 A 
ATOM     40  C   UNL     1      12.143  -9.045  -6.462  1.00  0.00     0.014 A 
ATOM     41  C   UNL     1      11.261  -9.125  -4.209  1.00  0.00     0.014 A 
ATOM     42  C   UNL     1      13.392  -8.678  -5.958  1.00  0.00     0.010 A 
ATOM     43  C   UNL     1      12.488  -8.690  -3.712  1.00  0.00     0.010 A 
ATOM     44  C   UNL     1      13.568  -8.471  -4.580  1.00  0.00    -0.014 A 
BRANCH  44  45
ATOM     45  C   UNL     1      14.879  -8.040  -4.032  1.00  0.00     0.031 A 
ATOM     46  C   UNL     1      15.651  -8.949  -3.118  1.00  0.00     0.074 A 
ATOM     47  C   UNL     1      15.351  -6.812  -4.323  1.00  0.00     0.049 A 
ATOM     48  N   UNL     1      16.778  -8.726  -2.489  1.00  0.00    -0.248 NA
ATOM     49  C   UNL     1      15.072 -10.276  -2.854  1.00  0.00     0.031 C 
ATOM     50  C   UNL     1      14.674  -5.826  -5.167  1.00  0.00     0.029 A 
ATOM     51  N   UNL     1      16.506  -6.179  -3.935  1.00  0.00    -0.354 N 
ATOM     52  C   UNL     1      17.033  -9.875  -1.752  1.00  0.00     0.074 A 
ATOM     53  C   UNL     1      15.922 -10.775  -1.969  1.00  0.00     0.031 C 
ATOM     54  C   UNL     1      15.436  -4.725  -5.254  1.00  0.00     0.029 A 
ATOM     55  C   UNL     1      16.635  -4.909  -4.442  1.00  0.00     0.049 A 
ATOM     56  H   UNL     1      17.178  -6.597  -3.350  1.00  0.00     0.167 HD
ATOM     57  C   UNL     1      18.111 -10.161  -0.985  1.00  0.00     0.037 A 
ATOM     58  C   UNL     1      17.608  -3.994  -4.266  1.00  0.00     0.037 A 
ATOM     59  C   UNL     1      19.232  -9.278  -0.802  1.00  0.00     0.049 A 
ATOM     60  C   UNL     1      18.793  -4.338  -3.405  1.00  0.00     0.074 A 
ATOM     61  C   UNL     1      20.396  -9.502  -0.088  1.00  0.00     0.029 A 
ATOM     62  N   UNL     1      19.331  -8.005  -1.342  1.00  0.00    -0.354 N 
ATOM     63  N   UNL     1      19.048  -5.448  -2.756  1.00  0.00    -0.248 NA
ATOM     64  C   UNL     1      19.829  -3.306  -3.254  1.00  0.00     0.031 C 
ATOM     65  C   UNL     1      21.181  -8.349  -0.160  1.00  0.00     0.029 A 
ATOM     66  C   UNL     1      20.530  -7.424  -0.961  1.00  0.00     0.049 A 
ATOM     67  H   UNL     1      18.652  -7.577  -1.912  1.00  0.00     0.167 HD
ATOM     68  C   UNL     1      20.278  -5.259  -2.142  1.00  0.00     0.074 A 
ATOM     69  C   UNL     1      20.728  -3.932  -2.507  1.00  0.00     0.031 C 
ATOM     70  C   UNL     1      20.969  -6.107  -1.344  1.00  0.00     0.037 A 
BRANCH  57  71
ATOM     71  C   UNL     1      18.154 -11.494  -0.297  1.00  0.00     0.064 A 
ATOM     72  C   UNL     1      18.066 -11.577   1.101  1.00  0.00     0.173 A 
ATOM     73  C   UNL     1      18.375 -12.679  -1.013  1.00  0.00     0.173 A 
ATOM     74  F   UNL     1      17.861 -10.471   1.833  1.00  0.00    -0.203 F 
ATOM     75  C   UNL     1      18.217 -12.796   1.757  1.00  0.00     0.198 A 
ATOM     76  C   UNL     1      18.498 -13.900  -0.355  1.00  0.00     0.198 A 
ATOM     77  F   UNL     1      18.456 -12.654  -2.352  1.00  0.00    -0.203 F 
ATOM     78  F   UNL     1      18.167 -12.845   3.095  1.00  0.00    -0.200 F 
ATOM     79  C   UNL     1      18.431 -13.956   1.029  1.00  0.00     0.200 A 
ATOM     80  F   UNL     1      18.684 -15.024  -1.062  1.00  0.00    -0.200 F 
ATOM     81  F   UNL     1      18.573 -15.129   1.661  1.00  0.00    -0.200 F 
ENDBRANCH  57  71
BRANCH  58  82
ATOM     82  C   UNL     1      17.511  -2.673  -4.942  1.00  0.00     0.064 A 
ATOM     83  C   UNL     1      16.545  -1.728  -4.565  1.00  0.00     0.173 A 
ATOM     84  C   UNL     1      18.379  -2.336  -5.989  1.00  0.00     0.173 A 
ATOM     85  F   UNL     1      15.688  -2.003  -3.571  1.00  0.00    -0.203 F 
ATOM     86  C   UNL     1      16.442  -0.503  -5.221  1.00  0.00     0.198 A 
ATOM     87  C   UNL     1      18.293  -1.099  -6.626  1.00  0.00     0.198 A 
ATOM     88  F   UNL     1      19.332  -3.198  -6.372  1.00  0.00    -0.203 F 
ATOM     89  F   UNL     1      15.491   0.369  -4.861  1.00  0.00    -0.200 F 
ATOM     90  C   UNL     1      17.320  -0.187  -6.246  1.00  0.00     0.200 A 
ATOM     91  F   UNL     1      19.161  -0.787  -7.598  1.00  0.00    -0.200 F 
ATOM     92  F   UNL     1      17.233   0.999  -6.864  1.00  0.00    -0.200 F 
ENDBRANCH  58  82
BRANCH  70  93
ATOM     93  C   UNL     1      22.299  -5.649  -0.823  1.00  0.00     0.064 A 
ATOM     94  C   UNL     1      23.485  -6.244  -1.283  1.00  0.00     0.173 A 
ATOM     95  C   UNL     1      22.396  -4.687   0.192  1.00  0.00     0.173 A 
ATOM     96  F   UNL     1      23.444  -7.176  -2.246  1.00  0.00    -0.203 F 
ATOM     97  C   UNL     1      24.716  -5.905  -0.731  1.00  0.00     0.198 A 
ATOM     98  C   UNL     1      23.632  -4.330   0.722  1.00  0.00     0.198 A 
ATOM     99  F   UNL     1      21.292  -4.082   0.656  1.00  0.00    -0.203 F 
ATOM    100  F   UNL     1      25.831  -6.514  -1.157  1.00  0.00    -0.200 F 
ATOM    101  C   UNL     1      24.789  -4.947   0.269  1.00  0.00     0.200 A 
ATOM    102  F   UNL     1      23.704  -3.388   1.673  1.00  0.00    -0.200 F 
ATOM    103  F   UNL     1      25.976  -4.616   0.796  1.00  0.00    -0.200 F 
ENDBRANCH  70  93
ENDBRANCH  44  45
ENDBRANCH  36  39
ENDBRANCH  34  35
ENDBRANCH  33  34
ENDBRANCH  32  33
ENDBRANCH   1  32
TORSDOF 17
