REMARK SMILES COc1cc(OC)c(-c2cc(C(=O)NCCCCCCNC(=O)c3ccc(-c4c5nc(c(-c6c(F)c(F)c(F)c(F)c6F)c6ccc([nH]6)c(-c6c(F)c(F)c(F)c(F)c6F)c6nc(c(-c7c(F)c(F)c(F)c(F)c7F)c7ccc4[nH]7)C=C6)C=C5)cc3)c3c(-c4ccc(Cl)cc4)[nH]nc3n2)cc1OC
REMARK SMILES IDX 17 1 16 2 15 3 14 4 12 5 13 6 11 8 9 9 10 10 99 11 98 12
REMARK SMILES IDX 87 13 97 14 88 15 96 16 8 18 3 19 4 20 101 21 5 22 100 23
REMARK SMILES IDX 2 24 1 25 102 26 103 27 6 28 7 29 89 30 90 31 95 32 91 33
REMARK SMILES IDX 94 34 92 35 93 36 18 37 19 38 20 39 21 40 22 41 23 43 24 44
REMARK SMILES IDX 25 45 86 46 26 47 85 48 27 49 28 50 29 51 79 52 30 53 84 54
REMARK SMILES IDX 78 55 80 56 31 57 83 58 77 59 76 60 32 62 64 63 44 64 63 65
REMARK SMILES IDX 45 66 48 67 62 68 81 69 46 70 47 71 61 73 82 74 49 75 33 76
REMARK SMILES IDX 34 77 42 78 35 79 36 80 40 81 43 82 37 83 38 84 41 85 39 86
REMARK SMILES IDX 65 87 66 88 74 89 67 90 68 91 72 92 75 93 69 94 70 95 73 96
REMARK SMILES IDX 71 97 50 98 51 99 59 100 52 101 53 102 57 103 60 104 54 105
REMARK SMILES IDX 55 106 58 107 56 108
REMARK H PARENT 14 7 96 17 21 42 80 61 48 72
REMARK Flexibility Score: inf
ROOT
ATOM      1  C   UNL     1       6.207   7.825  -0.355  1.00  0.00     0.002 C 
ENDROOT
BRANCH   1   2
ATOM      2  C   UNL     1       5.083   7.048   0.345  1.00  0.00     0.021 C 
BRANCH   2   3
ATOM      3  C   UNL     1       5.533   6.428   1.666  1.00  0.00     0.116 C 
BRANCH   3   4
ATOM      4  N   UNL     1       5.625   7.436   2.699  1.00  0.00    -0.352 N 
ATOM      5  C   UNL     1       4.947   7.720   3.851  1.00  0.00     0.252 C 
ATOM      6  O   UNL     1       5.522   8.522   4.580  1.00  0.00    -0.269 OA
ATOM      7  H   UNL     1       6.356   8.075   2.531  1.00  0.00     0.163 HD
BRANCH   5   8
ATOM      8  C   UNL     1       3.680   7.074   4.262  1.00  0.00     0.055 A 
ATOM      9  C   UNL     1       1.998   5.253   4.004  1.00  0.00     0.077 A 
ATOM     10  C   UNL     1       3.009   6.112   3.503  1.00  0.00     0.043 A 
ATOM     11  N   UNL     1       1.443   5.341   5.237  1.00  0.00    -0.226 NA
ATOM     12  C   UNL     1       1.906   6.412   5.939  1.00  0.00     0.182 A 
ATOM     13  C   UNL     1       2.981   7.255   5.468  1.00  0.00     0.059 A 
ATOM     14  N   UNL     1       1.428   6.833   7.109  1.00  0.00    -0.154 NA
ATOM     15  C   UNL     1       3.079   8.268   6.413  1.00  0.00     0.075 A 
ATOM     16  N   UNL     1       2.135   7.945   7.361  1.00  0.00    -0.275 N 
ATOM     17  H   UNL     1       1.988   8.492   8.166  1.00  0.00     0.190 HD
BRANCH   9  18
ATOM     18  C   UNL     1       1.538   4.186   3.091  1.00  0.00     0.046 A 
ATOM     19  C   UNL     1       1.069   2.288   1.024  1.00  0.00     0.164 A 
ATOM     20  C   UNL     1       0.078   3.202   1.413  1.00  0.00     0.097 A 
ATOM     21  C   UNL     1       2.297   2.285   1.681  1.00  0.00     0.161 A 
ATOM     22  C   UNL     1       0.310   4.171   2.413  1.00  0.00     0.132 A 
ATOM     23  C   UNL     1       2.493   3.202   2.725  1.00  0.00     0.064 A 
BRANCH  19  24
ATOM     24  O   UNL     1       0.857   1.580  -0.129  1.00  0.00    -0.493 OA
ATOM     25  C   UNL     1       0.142   0.364   0.091  1.00  0.00     0.278 C 
ENDBRANCH  19  24
BRANCH  21  26
ATOM     26  O   UNL     1       3.424   1.561   1.405  1.00  0.00    -0.493 OA
ATOM     27  C   UNL     1       3.330   0.432   0.551  1.00  0.00     0.278 C 
ENDBRANCH  21  26
BRANCH  22  28
ATOM     28  O   UNL     1      -0.745   5.031   2.574  1.00  0.00    -0.496 OA
ATOM     29  C   UNL     1      -0.449   6.402   2.816  1.00  0.00     0.278 C 
ENDBRANCH  22  28
ENDBRANCH   9  18
BRANCH  15  30
ATOM     30  C   UNL     1       3.850   9.503   6.528  1.00  0.00     0.000 A 
ATOM     31  C   UNL     1       4.763   9.662   7.579  1.00  0.00     0.012 A 
ATOM     32  C   UNL     1       3.741  10.515   5.560  1.00  0.00     0.012 A 
ATOM     33  C   UNL     1       5.597  10.784   7.630  1.00  0.00     0.021 A 
ATOM     34  C   UNL     1       4.586  11.630   5.604  1.00  0.00     0.021 A 
ATOM     35  C   UNL     1       5.518  11.752   6.632  1.00  0.00     0.041 A 
ATOM     36  Cl  UNL     1       6.593  13.096   6.659  1.00  0.00    -0.084 Cl
ENDBRANCH  15  30
ENDBRANCH   5   8
ENDBRANCH   3   4
ENDBRANCH   2   3
ENDBRANCH   1   2
BRANCH   1  37
ATOM     37  C   UNL     1       7.538   7.063  -0.492  1.00  0.00     0.002 C 
BRANCH  37  38
ATOM     38  C   UNL     1       7.440   5.628  -1.036  1.00  0.00     0.021 C 
BRANCH  38  39
ATOM     39  C   UNL     1       7.065   5.577  -2.503  1.00  0.00     0.116 C 
BRANCH  39  40
ATOM     40  N   UNL     1       8.132   6.109  -3.353  1.00  0.00    -0.352 N 
ATOM     41  C   UNL     1       8.117   6.311  -4.722  1.00  0.00     0.251 C 
ATOM     42  H   UNL     1       8.966   6.355  -2.892  1.00  0.00     0.163 HD
ATOM     43  O   UNL     1       9.140   6.403  -5.370  1.00  0.00    -0.269 OA
BRANCH  41  44
ATOM     44  C   UNL     1       6.802   6.440  -5.366  1.00  0.00     0.039 A 
ATOM     45  C   UNL     1       6.498   5.817  -6.579  1.00  0.00     0.014 A 
ATOM     46  C   UNL     1       5.846   7.166  -4.665  1.00  0.00     0.014 A 
ATOM     47  C   UNL     1       5.190   5.893  -7.046  1.00  0.00     0.010 A 
ATOM     48  C   UNL     1       4.533   7.030  -4.998  1.00  0.00     0.010 A 
ATOM     49  C   UNL     1       4.215   6.498  -6.237  1.00  0.00    -0.014 A 
BRANCH  49  50
ATOM     50  C   UNL     1       2.809   6.527  -6.604  1.00  0.00     0.031 A 
ATOM     51  C   UNL     1       2.222   5.176  -6.789  1.00  0.00     0.074 A 
ATOM     52  C   UNL     1       2.083   7.666  -6.522  1.00  0.00     0.049 A 
ATOM     53  N   UNL     1       1.852   4.623  -7.894  1.00  0.00    -0.248 NA
ATOM     54  C   UNL     1       2.206   4.258  -5.637  1.00  0.00     0.031 C 
ATOM     55  C   UNL     1       2.506   8.978  -6.001  1.00  0.00     0.029 A 
ATOM     56  N   UNL     1       0.766   7.872  -6.793  1.00  0.00    -0.354 N 
ATOM     57  C   UNL     1       1.332   3.379  -7.541  1.00  0.00     0.074 A 
ATOM     58  C   UNL     1       1.777   3.125  -6.199  1.00  0.00     0.031 C 
ATOM     59  C   UNL     1       1.425   9.754  -5.771  1.00  0.00     0.029 A 
ATOM     60  C   UNL     1       0.263   9.080  -6.310  1.00  0.00     0.049 A 
ATOM     61  H   UNL     1       0.214   7.224  -7.287  1.00  0.00     0.167 HD
ATOM     62  C   UNL     1       0.322   2.828  -8.273  1.00  0.00     0.037 A 
ATOM     63  C   UNL     1      -1.032   9.478  -6.354  1.00  0.00     0.037 A 
ATOM     64  C   UNL     1       0.164   3.547  -9.512  1.00  0.00     0.049 A 
ATOM     65  C   UNL     1      -1.685   8.672  -7.410  1.00  0.00     0.074 A 
ATOM     66  C   UNL     1       0.849   3.651 -10.701  1.00  0.00     0.029 A 
ATOM     67  N   UNL     1      -0.638   4.653  -9.398  1.00  0.00    -0.354 N 
ATOM     68  N   UNL     1      -1.365   8.749  -8.674  1.00  0.00    -0.248 NA
ATOM     69  C   UNL     1      -2.423   7.477  -7.022  1.00  0.00     0.031 C 
ATOM     70  C   UNL     1       0.591   4.970 -11.184  1.00  0.00     0.029 A 
ATOM     71  C   UNL     1      -0.294   5.607 -10.314  1.00  0.00     0.049 A 
ATOM     72  H   UNL     1      -1.367   4.748  -8.743  1.00  0.00     0.167 HD
ATOM     73  C   UNL     1      -1.489   7.455  -9.143  1.00  0.00     0.074 A 
ATOM     74  C   UNL     1      -2.289   6.759  -8.141  1.00  0.00     0.031 C 
ATOM     75  C   UNL     1      -0.665   6.993 -10.128  1.00  0.00     0.037 A 
BRANCH  62  76
ATOM     76  C   UNL     1      -0.836   2.026  -7.707  1.00  0.00     0.064 A 
ATOM     77  C   UNL     1      -1.785   1.483  -8.602  1.00  0.00     0.173 A 
ATOM     78  C   UNL     1      -1.232   2.044  -6.352  1.00  0.00     0.173 A 
ATOM     79  F   UNL     1      -1.530   1.429  -9.918  1.00  0.00    -0.203 F 
ATOM     80  C   UNL     1      -3.052   1.067  -8.180  1.00  0.00     0.198 A 
ATOM     81  C   UNL     1      -2.478   1.581  -5.929  1.00  0.00     0.198 A 
ATOM     82  F   UNL     1      -0.489   2.609  -5.395  1.00  0.00    -0.203 F 
ATOM     83  F   UNL     1      -3.960   0.674  -9.083  1.00  0.00    -0.200 F 
ATOM     84  C   UNL     1      -3.400   1.122  -6.844  1.00  0.00     0.200 A 
ATOM     85  F   UNL     1      -2.803   1.665  -4.630  1.00  0.00    -0.200 F 
ATOM     86  F   UNL     1      -4.630   0.780  -6.442  1.00  0.00    -0.200 F 
ENDBRANCH  62  76
BRANCH  63  87
ATOM     87  C   UNL     1      -1.804  10.242  -5.346  1.00  0.00     0.064 A 
ATOM     88  C   UNL     1      -3.020  10.862  -5.678  1.00  0.00     0.173 A 
ATOM     89  C   UNL     1      -1.522  10.111  -3.972  1.00  0.00     0.173 A 
ATOM     90  F   UNL     1      -3.380  10.989  -6.963  1.00  0.00    -0.203 F 
ATOM     91  C   UNL     1      -3.920  11.289  -4.694  1.00  0.00     0.198 A 
ATOM     92  C   UNL     1      -2.421  10.536  -2.991  1.00  0.00     0.198 A 
ATOM     93  F   UNL     1      -0.416   9.475  -3.559  1.00  0.00    -0.203 F 
ATOM     94  F   UNL     1      -5.101  11.813  -5.049  1.00  0.00    -0.200 F 
ATOM     95  C   UNL     1      -3.626  11.110  -3.352  1.00  0.00     0.200 A 
ATOM     96  F   UNL     1      -2.144  10.320  -1.697  1.00  0.00    -0.200 F 
ATOM     97  F   UNL     1      -4.519  11.449  -2.411  1.00  0.00    -0.200 F 
ENDBRANCH  63  87
BRANCH  75  98
ATOM     98  C   UNL     1       0.025   8.005 -10.991  1.00  0.00     0.064 A 
ATOM     99  C   UNL     1       1.070   8.842 -10.567  1.00  0.00     0.173 A 
ATOM    100  C   UNL     1      -0.307   8.020 -12.351  1.00  0.00     0.173 A 
ATOM    101  F   UNL     1       1.488   8.835  -9.296  1.00  0.00    -0.203 F 
ATOM    102  C   UNL     1       1.741   9.666 -11.471  1.00  0.00     0.198 A 
ATOM    103  C   UNL     1       0.385   8.815 -13.256  1.00  0.00     0.198 A 
ATOM    104  F   UNL     1      -1.273   7.209 -12.812  1.00  0.00    -0.203 F 
ATOM    105  F   UNL     1       2.737  10.459 -11.049  1.00  0.00    -0.200 F 
ATOM    106  C   UNL     1       1.406   9.642 -12.816  1.00  0.00     0.200 A 
ATOM    107  F   UNL     1       0.084   8.754 -14.560  1.00  0.00    -0.200 F 
ATOM    108  F   UNL     1       2.082  10.397 -13.694  1.00  0.00    -0.200 F 
ENDBRANCH  75  98
ENDBRANCH  49  50
ENDBRANCH  41  44
ENDBRANCH  39  40
ENDBRANCH  38  39
ENDBRANCH  37  38
ENDBRANCH   1  37
TORSDOF 18
