REMARK SMILES CC1=C2C(=O)N(C[C@H]3CCCO3)C(=O)N=C2S[C@@H]1C(=O)NCCCCCCNC(=O)c1ccc(-c2c3nc(c(-c4c(F)c(F)c(F)c(F)c4F)c4ccc([nH]4)c(-c4c(F)c(F)c(F)c(F)c4F)c4nc(c(-c5c(F)c(F)c(F)c(F)c5F)c5ccc2[nH]5)C=C4)C=C3)cc1
REMARK SMILES IDX 24 1 23 2 22 3 21 4 19 5 20 6 18 8 1 9 2 10 3 11 4 12 16 13
REMARK SMILES IDX 17 14 5 15 6 16 15 17 13 18 14 19 7 20 8 21 9 22 12 23 10 24
REMARK SMILES IDX 11 25 25 26 26 27 27 28 28 29 29 30 30 32 31 33 32 34 93 35
REMARK SMILES IDX 33 36 92 37 34 38 35 39 36 40 86 41 37 42 91 43 85 44 87 45
REMARK SMILES IDX 38 46 90 47 84 48 83 49 39 51 71 52 51 53 70 54 52 55 55 56
REMARK SMILES IDX 69 57 88 58 53 59 54 60 68 62 89 63 56 64 40 65 41 66 49 67
REMARK SMILES IDX 42 68 43 69 47 70 50 71 44 72 45 73 48 74 46 75 72 76 73 77
REMARK SMILES IDX 81 78 74 79 75 80 79 81 82 82 76 83 77 84 80 85 78 86 57 87
REMARK SMILES IDX 58 88 66 89 59 90 60 91 64 92 67 93 61 94 62 95 65 96 63 97
REMARK H PARENT 21 7 28 31 87 50 55 61
REMARK Flexibility Score: inf
ROOT
ATOM      1  C   UNL     1       8.703  -3.227   4.077  1.00  0.00     0.002 C 
ENDROOT
BRANCH   1   2
ATOM      2  C   UNL     1       7.415  -3.516   4.853  1.00  0.00     0.021 C 
BRANCH   2   3
ATOM      3  C   UNL     1       6.306  -4.131   4.005  1.00  0.00     0.116 C 
BRANCH   3   4
ATOM      4  N   UNL     1       6.584  -5.521   3.698  1.00  0.00    -0.355 N 
ATOM      5  C   UNL     1       5.908  -6.665   4.002  1.00  0.00     0.237 C 
ATOM      6  O   UNL     1       6.399  -7.727   3.602  1.00  0.00    -0.273 OA
ATOM      7  H   UNL     1       7.407  -5.664   3.177  1.00  0.00     0.163 HD
BRANCH   5   8
ATOM      8  C   UNL     1       4.558  -6.674   4.731  1.00  0.00     0.169 C 
ATOM      9  C   UNL     1       3.145  -6.226   2.624  1.00  0.00     0.042 C 
ATOM     10  C   UNL     1       3.485  -5.877   4.040  1.00  0.00    -0.035 C 
ATOM     11  C   UNL     1       2.894  -4.938   4.791  1.00  0.00     0.073 C 
ATOM     12  C   UNL     1       1.863  -3.965   4.445  1.00  0.00     0.264 C 
ATOM     13  C   UNL     1       3.360  -4.903   6.166  1.00  0.00     0.116 C 
ATOM     14  S   UNL     1       4.680  -6.006   6.426  1.00  0.00    -0.087 SA
ATOM     15  O   UNL     1       1.770  -3.517   3.311  1.00  0.00    -0.268 OA
ATOM     16  N   UNL     1       1.136  -3.572   5.540  1.00  0.00    -0.256 N 
ATOM     17  N   UNL     1       2.875  -4.158   7.085  1.00  0.00    -0.186 NA
ATOM     18  C   UNL     1       1.746  -3.420   6.794  1.00  0.00     0.351 C 
ATOM     19  O   UNL     1       1.281  -2.658   7.633  1.00  0.00    -0.246 OA
BRANCH  16  20
ATOM     20  C   UNL     1      -0.304  -3.339   5.448  1.00  0.00     0.163 C 
BRANCH  20  21
ATOM     21  C   UNL     1      -0.928  -2.614   4.238  1.00  0.00     0.138 C 
ATOM     22  C   UNL     1      -1.087  -3.392   2.936  1.00  0.00     0.036 C 
ATOM     23  O   UNL     1      -2.311  -2.344   4.608  1.00  0.00    -0.376 OA
ATOM     24  C   UNL     1      -2.292  -4.256   3.188  1.00  0.00     0.031 C 
ATOM     25  C   UNL     1      -3.160  -3.357   4.037  1.00  0.00     0.160 C 
ENDBRANCH  20  21
ENDBRANCH  16  20
ENDBRANCH   5   8
ENDBRANCH   3   4
ENDBRANCH   2   3
ENDBRANCH   1   2
BRANCH   1  26
ATOM     26  C   UNL     1       8.547  -2.272   2.888  1.00  0.00     0.002 C 
BRANCH  26  27
ATOM     27  C   UNL     1       7.870  -0.934   3.199  1.00  0.00     0.021 C 
BRANCH  27  28
ATOM     28  C   UNL     1       8.534  -0.113   4.302  1.00  0.00     0.116 C 
BRANCH  28  29
ATOM     29  N   UNL     1       9.900   0.253   3.972  1.00  0.00    -0.352 N 
ATOM     30  C   UNL     1      10.530   1.466   4.082  1.00  0.00     0.251 C 
ATOM     31  H   UNL     1      10.457  -0.478   3.618  1.00  0.00     0.163 HD
ATOM     32  O   UNL     1      11.652   1.619   3.607  1.00  0.00    -0.269 OA
BRANCH  30  33
ATOM     33  C   UNL     1       9.858   2.601   4.751  1.00  0.00     0.039 A 
ATOM     34  C   UNL     1       9.940   3.866   4.161  1.00  0.00     0.014 A 
ATOM     35  C   UNL     1       9.190   2.438   5.968  1.00  0.00     0.014 A 
ATOM     36  C   UNL     1       9.315   4.958   4.767  1.00  0.00     0.010 A 
ATOM     37  C   UNL     1       8.520   3.516   6.544  1.00  0.00     0.010 A 
ATOM     38  C   UNL     1       8.584   4.787   5.953  1.00  0.00    -0.014 A 
BRANCH  38  39
ATOM     39  C   UNL     1       7.898   5.934   6.598  1.00  0.00     0.031 A 
ATOM     40  C   UNL     1       8.380   6.454   7.922  1.00  0.00     0.074 A 
ATOM     41  C   UNL     1       6.810   6.472   6.016  1.00  0.00     0.049 A 
ATOM     42  N   UNL     1       7.885   7.411   8.666  1.00  0.00    -0.248 NA
ATOM     43  C   UNL     1       9.563   5.795   8.498  1.00  0.00     0.031 C 
ATOM     44  C   UNL     1       6.221   6.029   4.752  1.00  0.00     0.029 A 
ATOM     45  N   UNL     1       6.001   7.505   6.418  1.00  0.00    -0.354 N 
ATOM     46  C   UNL     1       8.680   7.454   9.804  1.00  0.00     0.074 A 
ATOM     47  C   UNL     1       9.667   6.404   9.671  1.00  0.00     0.031 C 
ATOM     48  C   UNL     1       5.157   6.798   4.471  1.00  0.00     0.029 A 
ATOM     49  C   UNL     1       4.973   7.768   5.547  1.00  0.00     0.049 A 
ATOM     50  H   UNL     1       6.144   8.009   7.251  1.00  0.00     0.167 HD
ATOM     51  C   UNL     1       8.604   8.304  10.856  1.00  0.00     0.037 A 
ATOM     52  C   UNL     1       3.993   8.689   5.612  1.00  0.00     0.037 A 
ATOM     53  C   UNL     1       7.646   9.372  10.970  1.00  0.00     0.049 A 
ATOM     54  C   UNL     1       3.942   9.632   6.782  1.00  0.00     0.074 A 
ATOM     55  C   UNL     1       7.536  10.331  11.961  1.00  0.00     0.029 A 
ATOM     56  N   UNL     1       6.633   9.621  10.056  1.00  0.00    -0.354 N 
ATOM     57  N   UNL     1       4.740   9.707   7.819  1.00  0.00    -0.248 NA
ATOM     58  C   UNL     1       2.856  10.622   6.786  1.00  0.00     0.031 C 
ATOM     59  C   UNL     1       6.435  11.143  11.664  1.00  0.00     0.029 A 
ATOM     60  C   UNL     1       5.882  10.710  10.469  1.00  0.00     0.049 A 
ATOM     61  H   UNL     1       6.471   9.101   9.236  1.00  0.00     0.167 HD
ATOM     62  C   UNL     1       4.272  10.766   8.584  1.00  0.00     0.074 A 
ATOM     63  C   UNL     1       3.125  11.311   7.887  1.00  0.00     0.031 C 
ATOM     64  C   UNL     1       4.751  11.245   9.757  1.00  0.00     0.037 A 
BRANCH  51  65
ATOM     65  C   UNL     1       9.589   8.112  11.970  1.00  0.00     0.064 A 
ATOM     66  C   UNL     1      10.943   8.445  11.818  1.00  0.00     0.173 A 
ATOM     67  C   UNL     1       9.170   7.614  13.213  1.00  0.00     0.173 A 
ATOM     68  F   UNL     1      11.396   8.913  10.645  1.00  0.00    -0.203 F 
ATOM     69  C   UNL     1      11.847   8.261  12.861  1.00  0.00     0.198 A 
ATOM     70  C   UNL     1      10.072   7.455  14.261  1.00  0.00     0.198 A 
ATOM     71  F   UNL     1       7.884   7.286  13.411  1.00  0.00    -0.203 F 
ATOM     72  F   UNL     1      13.145   8.543  12.678  1.00  0.00    -0.200 F 
ATOM     73  C   UNL     1      11.410   7.771  14.082  1.00  0.00     0.200 A 
ATOM     74  F   UNL     1       9.647   6.991  15.444  1.00  0.00    -0.200 F 
ATOM     75  F   UNL     1      12.281   7.596  15.086  1.00  0.00    -0.200 F 
ENDBRANCH  51  65
BRANCH  52  76
ATOM     76  C   UNL     1       3.003   8.792   4.511  1.00  0.00     0.064 A 
ATOM     77  C   UNL     1       3.045   9.867   3.612  1.00  0.00     0.173 A 
ATOM     78  C   UNL     1       2.004   7.826   4.332  1.00  0.00     0.173 A 
ATOM     79  F   UNL     1       3.971  10.826   3.758  1.00  0.00    -0.203 F 
ATOM     80  C   UNL     1       2.113   9.979   2.583  1.00  0.00     0.198 A 
ATOM     81  C   UNL     1       1.087   7.927   3.289  1.00  0.00     0.198 A 
ATOM     82  F   UNL     1       1.927   6.778   5.165  1.00  0.00    -0.203 F 
ATOM     83  F   UNL     1       2.153  11.034   1.758  1.00  0.00    -0.200 F 
ATOM     84  C   UNL     1       1.138   9.006   2.418  1.00  0.00     0.200 A 
ATOM     85  F   UNL     1       0.152   6.981   3.126  1.00  0.00    -0.200 F 
ATOM     86  F   UNL     1       0.245   9.113   1.426  1.00  0.00    -0.200 F 
ENDBRANCH  52  76
BRANCH  64  87
ATOM     87  C   UNL     1       4.058  12.438  10.343  1.00  0.00     0.064 A 
ATOM     88  C   UNL     1       2.806  12.327  10.965  1.00  0.00     0.173 A 
ATOM     89  C   UNL     1       4.669  13.700  10.310  1.00  0.00     0.173 A 
ATOM     90  F   UNL     1       2.175  11.144  11.005  1.00  0.00    -0.203 F 
ATOM     91  C   UNL     1       2.181  13.443  11.515  1.00  0.00     0.198 A 
ATOM     92  C   UNL     1       4.052  14.809  10.882  1.00  0.00     0.198 A 
ATOM     93  F   UNL     1       5.868  13.856   9.729  1.00  0.00    -0.203 F 
ATOM     94  F   UNL     1       0.967  13.323  12.069  1.00  0.00    -0.200 F 
ATOM     95  C   UNL     1       2.807  14.680  11.479  1.00  0.00     0.200 A 
ATOM     96  F   UNL     1       4.661  16.002  10.854  1.00  0.00    -0.200 F 
ATOM     97  F   UNL     1       2.205  15.752  12.012  1.00  0.00    -0.200 F 
ENDBRANCH  64  87
ENDBRANCH  38  39
ENDBRANCH  30  33
ENDBRANCH  28  29
ENDBRANCH  27  28
ENDBRANCH  26  27
ENDBRANCH   1  26
TORSDOF 15
