REMARK SMILES Cc1ccc(C(=O)NCCCCCCNC(=O)c2ccc(-c3c4nc(c(-c5c(F)c(F)c(F)c(F)c5F)c5ccc([nH]5)c(-c5c(F)c(F)c(F)c(F)c5F)c5nc(c(-c6c(F)c(F)c(F)c(F)c6F)c6ccc3[nH]6)C=C5)C=C4)cc2)cc1NC(=O)c1ccc(Br)o1
REMARK SMILES IDX 11 1 10 2 9 3 8 4 6 5 7 6 5 8 1 9 2 10 3 11 82 12 4 13 81 14
REMARK SMILES IDX 83 15 84 16 85 18 86 19 87 20 91 21 88 22 89 23 90 24 12 25
REMARK SMILES IDX 13 26 14 27 15 28 16 29 17 31 18 32 19 33 80 34 20 35 79 36
REMARK SMILES IDX 21 37 22 38 23 39 73 40 24 41 78 42 72 43 74 44 25 45 77 46
REMARK SMILES IDX 71 47 70 48 26 50 58 51 38 52 57 53 39 54 42 55 56 56 75 57
REMARK SMILES IDX 40 58 41 59 55 61 76 62 43 63 27 64 28 65 36 66 29 67 30 68
REMARK SMILES IDX 34 69 37 70 31 71 32 72 35 73 33 74 59 75 60 76 68 77 61 78
REMARK SMILES IDX 62 79 66 80 69 81 63 82 64 83 67 84 65 85 44 86 45 87 53 88
REMARK SMILES IDX 46 89 47 90 51 91 54 92 48 93 49 94 52 95 50 96
REMARK H PARENT 8 7 83 17 15 30 74 49 42 60
REMARK Flexibility Score: inf
ROOT
ATOM      1  C   UNL     1      -6.103   3.276  -1.201  1.00  0.00     0.002 C 
ENDROOT
BRANCH   1   2
ATOM      2  C   UNL     1      -4.594   2.991  -1.294  1.00  0.00     0.021 C 
BRANCH   2   3
ATOM      3  C   UNL     1      -3.945   2.200  -0.150  1.00  0.00     0.116 C 
BRANCH   3   4
ATOM      4  N   UNL     1      -3.969   0.770  -0.380  1.00  0.00    -0.352 N 
ATOM      5  C   UNL     1      -3.063  -0.260  -0.359  1.00  0.00     0.251 C 
ATOM      6  O   UNL     1      -3.575  -1.376  -0.513  1.00  0.00    -0.269 OA
ATOM      7  H   UNL     1      -4.872   0.454  -0.612  1.00  0.00     0.163 HD
BRANCH   5   8
ATOM      8  C   UNL     1      -1.569  -0.200  -0.165  1.00  0.00     0.041 A 
ATOM      9  C   UNL     1       2.747  -0.748   0.161  1.00  0.00     0.046 C 
ATOM     10  C   UNL     1       1.264  -0.461   0.092  1.00  0.00    -0.027 A 
ATOM     11  C   UNL     1       0.436  -1.588   0.051  1.00  0.00     0.006 A 
ATOM     12  C   UNL     1       0.671   0.822   0.056  1.00  0.00     0.045 A 
ATOM     13  C   UNL     1      -0.946  -1.456  -0.055  1.00  0.00     0.014 A 
ATOM     14  C   UNL     1      -0.732   0.930  -0.127  1.00  0.00     0.040 A 
BRANCH  12  15
ATOM     15  N   UNL     1       1.538   1.926   0.204  1.00  0.00    -0.319 N 
ATOM     16  C   UNL     1       1.414   3.282   0.342  1.00  0.00     0.291 C 
ATOM     17  H   UNL     1       2.482   1.646   0.208  1.00  0.00     0.170 HD
ATOM     18  O   UNL     1       2.464   3.924   0.424  1.00  0.00    -0.265 OA
BRANCH  16  19
ATOM     19  C   UNL     1       0.138   3.921   0.398  1.00  0.00     0.193 A 
ATOM     20  C   UNL     1      -0.808   4.056   1.397  1.00  0.00     0.057 A 
ATOM     21  O   UNL     1      -0.232   4.643  -0.694  1.00  0.00    -0.444 OA
ATOM     22  C   UNL     1      -1.801   4.930   0.883  1.00  0.00     0.059 A 
ATOM     23  C   UNL     1      -1.398   5.253  -0.392  1.00  0.00     0.170 A 
ATOM     24  Br  UNL     1      -2.281   6.366  -1.581  1.00  0.00    -0.008 Br
ENDBRANCH  16  19
ENDBRANCH  12  15
ENDBRANCH   5   8
ENDBRANCH   3   4
ENDBRANCH   2   3
ENDBRANCH   1   2
BRANCH   1  25
ATOM     25  C   UNL     1      -6.642   3.953   0.070  1.00  0.00     0.002 C 
BRANCH  25  26
ATOM     26  C   UNL     1      -5.966   5.251   0.525  1.00  0.00     0.021 C 
BRANCH  26  27
ATOM     27  C   UNL     1      -6.161   6.452  -0.406  1.00  0.00     0.116 C 
BRANCH  27  28
ATOM     28  N   UNL     1      -6.864   7.574   0.222  1.00  0.00    -0.352 N 
ATOM     29  C   UNL     1      -7.029   8.868  -0.252  1.00  0.00     0.251 C 
ATOM     30  H   UNL     1      -7.274   7.385   1.096  1.00  0.00     0.163 HD
ATOM     31  O   UNL     1      -7.754   9.666   0.318  1.00  0.00    -0.269 OA
BRANCH  29  32
ATOM     32  C   UNL     1      -6.371   9.234  -1.524  1.00  0.00     0.039 A 
ATOM     33  C   UNL     1      -7.167   9.581  -2.618  1.00  0.00     0.014 A 
ATOM     34  C   UNL     1      -5.004   9.029  -1.675  1.00  0.00     0.014 A 
ATOM     35  C   UNL     1      -6.640   9.456  -3.903  1.00  0.00     0.010 A 
ATOM     36  C   UNL     1      -4.497   8.863  -2.952  1.00  0.00     0.010 A 
ATOM     37  C   UNL     1      -5.339   8.973  -4.061  1.00  0.00    -0.014 A 
BRANCH  37  38
ATOM     38  C   UNL     1      -4.868   8.376  -5.309  1.00  0.00     0.031 A 
ATOM     39  C   UNL     1      -3.910   9.062  -6.194  1.00  0.00     0.074 A 
ATOM     40  C   UNL     1      -5.310   7.152  -5.685  1.00  0.00     0.049 A 
ATOM     41  N   UNL     1      -3.960   8.979  -7.484  1.00  0.00    -0.248 NA
ATOM     42  C   UNL     1      -2.820   9.896  -5.702  1.00  0.00     0.031 C 
ATOM     43  C   UNL     1      -4.825   6.345  -6.803  1.00  0.00     0.029 A 
ATOM     44  N   UNL     1      -6.465   6.482  -5.249  1.00  0.00    -0.354 N 
ATOM     45  C   UNL     1      -2.788   9.499  -7.968  1.00  0.00     0.074 A 
ATOM     46  C   UNL     1      -2.148  10.133  -6.834  1.00  0.00     0.031 C 
ATOM     47  C   UNL     1      -5.803   5.512  -7.188  1.00  0.00     0.029 A 
ATOM     48  C   UNL     1      -6.975   5.827  -6.394  1.00  0.00     0.049 A 
ATOM     49  H   UNL     1      -6.841   6.471  -4.339  1.00  0.00     0.167 HD
ATOM     50  C   UNL     1      -2.382   9.225  -9.238  1.00  0.00     0.037 A 
ATOM     51  C   UNL     1      -8.221   6.077  -6.880  1.00  0.00     0.037 A 
ATOM     52  C   UNL     1      -3.284   8.320  -9.937  1.00  0.00     0.049 A 
ATOM     53  C   UNL     1      -8.257   6.485  -8.332  1.00  0.00     0.074 A 
ATOM     54  C   UNL     1      -3.233   6.960 -10.196  1.00  0.00     0.029 A 
ATOM     55  N   UNL     1      -4.581   8.723 -10.234  1.00  0.00    -0.354 N 
ATOM     56  N   UNL     1      -7.224   6.921  -8.993  1.00  0.00    -0.248 NA
ATOM     57  C   UNL     1      -9.473   6.483  -9.136  1.00  0.00     0.031 C 
ATOM     58  C   UNL     1      -4.495   6.547 -10.680  1.00  0.00     0.029 A 
ATOM     59  C   UNL     1      -5.321   7.655 -10.708  1.00  0.00     0.049 A 
ATOM     60  H   UNL     1      -4.925   9.638 -10.122  1.00  0.00     0.167 HD
ATOM     61  C   UNL     1      -7.606   7.281 -10.266  1.00  0.00     0.074 A 
ATOM     62  C   UNL     1      -9.018   6.957 -10.309  1.00  0.00     0.031 C 
ATOM     63  C   UNL     1      -6.702   7.822 -11.142  1.00  0.00     0.037 A 
BRANCH  50  64
ATOM     64  C   UNL     1      -0.993   9.572  -9.699  1.00  0.00     0.064 A 
ATOM     65  C   UNL     1      -0.191   8.659 -10.411  1.00  0.00     0.173 A 
ATOM     66  C   UNL     1      -0.391  10.808  -9.402  1.00  0.00     0.173 A 
ATOM     67  F   UNL     1      -0.662   7.474 -10.814  1.00  0.00    -0.203 F 
ATOM     68  C   UNL     1       1.147   8.923 -10.709  1.00  0.00     0.198 A 
ATOM     69  C   UNL     1       0.961  11.054  -9.659  1.00  0.00     0.198 A 
ATOM     70  F   UNL     1      -1.103  11.797  -8.841  1.00  0.00    -0.203 F 
ATOM     71  F   UNL     1       1.874   8.009 -11.369  1.00  0.00    -0.200 F 
ATOM     72  C   UNL     1       1.733  10.105 -10.302  1.00  0.00     0.200 A 
ATOM     73  F   UNL     1       1.516  12.206  -9.259  1.00  0.00    -0.200 F 
ATOM     74  F   UNL     1       3.034  10.329 -10.532  1.00  0.00    -0.200 F 
ENDBRANCH  50  64
BRANCH  51  75
ATOM     75  C   UNL     1      -9.182   6.532  -5.845  1.00  0.00     0.064 A 
ATOM     76  C   UNL     1      -9.477   5.664  -4.775  1.00  0.00     0.173 A 
ATOM     77  C   UNL     1      -9.515   7.882  -5.696  1.00  0.00     0.173 A 
ATOM     78  F   UNL     1      -9.172   4.360  -4.866  1.00  0.00    -0.203 F 
ATOM     79  C   UNL     1      -9.973   6.147  -3.567  1.00  0.00     0.198 A 
ATOM     80  C   UNL     1     -10.031   8.359  -4.490  1.00  0.00     0.198 A 
ATOM     81  F   UNL     1      -9.236   8.761  -6.669  1.00  0.00    -0.203 F 
ATOM     82  F   UNL     1     -10.128   5.314  -2.528  1.00  0.00    -0.200 F 
ATOM     83  C   UNL     1     -10.226   7.499  -3.418  1.00  0.00     0.200 A 
ATOM     84  F   UNL     1     -10.247   9.673  -4.332  1.00  0.00    -0.200 F 
ATOM     85  F   UNL     1     -10.614   7.981  -2.229  1.00  0.00    -0.200 F 
ENDBRANCH  51  75
BRANCH  63  86
ATOM     86  C   UNL     1      -6.945   8.452 -12.509  1.00  0.00     0.064 A 
ATOM     87  C   UNL     1      -8.196   8.823 -13.028  1.00  0.00     0.173 A 
ATOM     88  C   UNL     1      -5.841   8.803 -13.339  1.00  0.00     0.173 A 
ATOM     89  F   UNL     1      -9.324   8.667 -12.329  1.00  0.00    -0.203 F 
ATOM     90  C   UNL     1      -8.339   9.434 -14.281  1.00  0.00     0.198 A 
ATOM     91  C   UNL     1      -5.983   9.461 -14.561  1.00  0.00     0.198 A 
ATOM     92  F   UNL     1      -4.574   8.547 -12.984  1.00  0.00    -0.203 F 
ATOM     93  F   UNL     1      -9.565   9.728 -14.737  1.00  0.00    -0.200 F 
ATOM     94  C   UNL     1      -7.235   9.764 -15.042  1.00  0.00     0.200 A 
ATOM     95  F   UNL     1      -4.892   9.813 -15.257  1.00  0.00    -0.200 F 
ATOM     96  F   UNL     1      -7.376  10.389 -16.218  1.00  0.00    -0.200 F 
ENDBRANCH  63  86
ENDBRANCH  37  38
ENDBRANCH  29  32
ENDBRANCH  27  28
ENDBRANCH  26  27
ENDBRANCH  25  26
ENDBRANCH   1  25
TORSDOF 15
