REMARK SMILES CC(C)N1C(=O)C[C@@H](Sc2csc(C(=O)NCCCCCCNC(=O)c3ccc(-c4c5nc(c(-c6c(F)c(F)c(F)c(F)c6F)c6ccc([nH]6)c(-c6c(F)c(F)c(F)c(F)c6F)c6nc(c(-c7c(F)c(F)c(F)c(F)c7F)c7ccc4[nH]7)C=C6)C=C5)cc3)c2)C1=O
REMARK SMILES IDX 19 1 18 2 17 3 16 4 14 5 15 6 13 8 10 9 11 10 89 11 12 12
REMARK SMILES IDX 9 13 8 14 4 15 5 16 90 17 6 18 7 19 91 20 2 21 1 22 3 23
REMARK SMILES IDX 20 24 21 25 22 26 23 27 24 28 25 30 26 31 27 32 88 33 28 34
REMARK SMILES IDX 87 35 29 36 30 37 31 38 81 39 32 40 86 41 80 42 82 43 33 44
REMARK SMILES IDX 85 45 79 46 78 47 34 49 66 50 46 51 65 52 47 53 50 54 64 55
REMARK SMILES IDX 83 56 48 57 49 58 63 60 84 61 51 62 35 63 36 64 44 65 37 66
REMARK SMILES IDX 38 67 42 68 45 69 39 70 40 71 43 72 41 73 67 74 68 75 76 76
REMARK SMILES IDX 69 77 70 78 74 79 77 80 71 81 72 82 75 83 73 84 52 85 53 86
REMARK SMILES IDX 61 87 54 88 55 89 59 90 62 91 56 92 57 93 60 94 58 95
REMARK H PARENT 16 7 23 29 82 48 50 59
REMARK Flexibility Score: inf
ROOT
ATOM      1  C   UNL     1      -6.215  -3.169  -7.566  1.00  0.00     0.002 C 
ENDROOT
BRANCH   1   2
ATOM      2  C   UNL     1      -5.732  -2.954  -6.125  1.00  0.00     0.021 C 
BRANCH   2   3
ATOM      3  C   UNL     1      -4.302  -3.446  -5.905  1.00  0.00     0.116 C 
BRANCH   3   4
ATOM      4  N   UNL     1      -3.361  -2.474  -6.410  1.00  0.00    -0.351 N 
ATOM      5  C   UNL     1      -2.620  -1.502  -5.786  1.00  0.00     0.261 C 
ATOM      6  O   UNL     1      -1.920  -0.821  -6.540  1.00  0.00    -0.268 OA
ATOM      7  H   UNL     1      -3.226  -2.516  -7.384  1.00  0.00     0.163 HD
BRANCH   5   8
ATOM      8  C   UNL     1      -2.644  -1.330  -4.339  1.00  0.00     0.093 A 
ATOM      9  C   UNL     1      -3.064  -1.462  -2.024  1.00  0.00     0.020 A 
ATOM     10  C   UNL     1      -1.935  -0.689  -2.057  1.00  0.00     0.080 A 
ATOM     11  C   UNL     1      -3.525  -1.732  -3.349  1.00  0.00     0.040 A 
ATOM     12  S   UNL     1      -1.355  -0.428  -3.640  1.00  0.00    -0.137 S 
BRANCH   9  13
ATOM     13  S   UNL     1      -3.969  -2.089  -0.654  1.00  0.00    -0.111 SA
BRANCH  13  14
ATOM     14  C   UNL     1      -3.098  -1.652   0.868  1.00  0.00     0.150 C 
ATOM     15  N   UNL     1      -0.885  -0.947   1.110  1.00  0.00    -0.279 N 
ATOM     16  C   UNL     1      -1.646   0.166   1.339  1.00  0.00     0.231 C 
ATOM     17  C   UNL     1      -1.651  -2.064   0.892  1.00  0.00     0.243 C 
ATOM     18  O   UNL     1      -1.247   1.287   1.618  1.00  0.00    -0.274 OA
ATOM     19  C   UNL     1      -3.098  -0.168   1.174  1.00  0.00     0.125 C 
ATOM     20  O   UNL     1      -1.242  -3.210   0.769  1.00  0.00    -0.273 OA
BRANCH  15  21
ATOM     21  C   UNL     1       0.580  -0.987   1.151  1.00  0.00     0.087 C 
ATOM     22  C   UNL     1       1.228   0.039   0.216  1.00  0.00     0.031 C 
ATOM     23  C   UNL     1       1.094  -0.828   2.578  1.00  0.00     0.031 C 
ENDBRANCH  15  21
ENDBRANCH  13  14
ENDBRANCH   9  13
ENDBRANCH   5   8
ENDBRANCH   3   4
ENDBRANCH   2   3
ENDBRANCH   1   2
BRANCH   1  24
ATOM     24  C   UNL     1      -6.207  -4.632  -8.028  1.00  0.00     0.002 C 
BRANCH  24  25
ATOM     25  C   UNL     1      -6.968  -5.590  -7.109  1.00  0.00     0.021 C 
BRANCH  25  26
ATOM     26  C   UNL     1      -8.455  -5.275  -6.998  1.00  0.00     0.116 C 
BRANCH  26  27
ATOM     27  N   UNL     1      -9.132  -5.454  -8.275  1.00  0.00    -0.352 N 
ATOM     28  C   UNL     1     -10.181  -6.281  -8.584  1.00  0.00     0.251 C 
ATOM     29  H   UNL     1      -8.790  -4.905  -9.018  1.00  0.00     0.163 HD
ATOM     30  O   UNL     1     -10.480  -6.508  -9.750  1.00  0.00    -0.269 OA
BRANCH  28  31
ATOM     31  C   UNL     1     -10.942  -6.908  -7.486  1.00  0.00     0.039 A 
ATOM     32  C   UNL     1     -11.227  -8.273  -7.543  1.00  0.00     0.014 A 
ATOM     33  C   UNL     1     -11.350  -6.140  -6.392  1.00  0.00     0.014 A 
ATOM     34  C   UNL     1     -11.870  -8.884  -6.466  1.00  0.00     0.010 A 
ATOM     35  C   UNL     1     -11.918  -6.764  -5.289  1.00  0.00     0.010 A 
ATOM     36  C   UNL     1     -12.187  -8.142  -5.317  1.00  0.00    -0.014 A 
BRANCH  36  37
ATOM     37  C   UNL     1     -12.803  -8.776  -4.126  1.00  0.00     0.031 A 
ATOM     38  C   UNL     1     -14.170  -8.345  -3.675  1.00  0.00     0.074 A 
ATOM     39  C   UNL     1     -12.100  -9.672  -3.407  1.00  0.00     0.049 A 
ATOM     40  N   UNL     1     -14.833  -8.684  -2.599  1.00  0.00    -0.248 NA
ATOM     41  C   UNL     1     -14.874  -7.380  -4.534  1.00  0.00     0.031 C 
ATOM     42  C   UNL     1     -10.750 -10.140  -3.725  1.00  0.00     0.029 A 
ATOM     43  N   UNL     1     -12.417 -10.335  -2.248  1.00  0.00    -0.354 N 
ATOM     44  C   UNL     1     -16.019  -7.964  -2.644  1.00  0.00     0.074 A 
ATOM     45  C   UNL     1     -15.962  -7.126  -3.822  1.00  0.00     0.031 C 
ATOM     46  C   UNL     1     -10.362 -11.026  -2.795  1.00  0.00     0.029 A 
ATOM     47  C   UNL     1     -11.412 -11.152  -1.790  1.00  0.00     0.049 A 
ATOM     48  H   UNL     1     -13.282 -10.235  -1.789  1.00  0.00     0.167 HD
ATOM     49  C   UNL     1     -17.069  -8.014  -1.792  1.00  0.00     0.037 A 
ATOM     50  C   UNL     1     -11.341 -11.903  -0.674  1.00  0.00     0.037 A 
ATOM     51  C   UNL     1     -17.126  -8.866  -0.633  1.00  0.00     0.049 A 
ATOM     52  C   UNL     1     -12.512 -11.919   0.273  1.00  0.00     0.074 A 
ATOM     53  C   UNL     1     -18.166  -9.032   0.265  1.00  0.00     0.029 A 
ATOM     54  N   UNL     1     -16.094  -9.691  -0.208  1.00  0.00    -0.354 N 
ATOM     55  N   UNL     1     -13.655 -11.282   0.188  1.00  0.00    -0.248 NA
ATOM     56  C   UNL     1     -12.384 -12.760   1.471  1.00  0.00     0.031 C 
ATOM     57  C   UNL     1     -17.743  -9.913   1.264  1.00  0.00     0.029 A 
ATOM     58  C   UNL     1     -16.463 -10.347   0.955  1.00  0.00     0.049 A 
ATOM     59  H   UNL     1     -15.229  -9.795  -0.665  1.00  0.00     0.167 HD
ATOM     60  C   UNL     1     -14.394 -11.672   1.297  1.00  0.00     0.074 A 
ATOM     61  C   UNL     1     -13.573 -12.608   2.036  1.00  0.00     0.031 C 
ATOM     62  C   UNL     1     -15.640 -11.290   1.669  1.00  0.00     0.037 A 
BRANCH  49  63
ATOM     63  C   UNL     1     -18.243  -7.123  -2.079  1.00  0.00     0.064 A 
ATOM     64  C   UNL     1     -19.077  -7.335  -3.189  1.00  0.00     0.173 A 
ATOM     65  C   UNL     1     -18.563  -6.066  -1.214  1.00  0.00     0.173 A 
ATOM     66  F   UNL     1     -18.811  -8.325  -4.054  1.00  0.00    -0.203 F 
ATOM     67  C   UNL     1     -20.166  -6.503  -3.437  1.00  0.00     0.198 A 
ATOM     68  C   UNL     1     -19.673  -5.258  -1.446  1.00  0.00     0.198 A 
ATOM     69  F   UNL     1     -17.804  -5.821  -0.135  1.00  0.00    -0.203 F 
ATOM     70  F   UNL     1     -20.915  -6.693  -4.533  1.00  0.00    -0.200 F 
ATOM     71  C   UNL     1     -20.468  -5.471  -2.562  1.00  0.00     0.200 A 
ATOM     72  F   UNL     1     -19.972  -4.271  -0.591  1.00  0.00    -0.200 F 
ATOM     73  F   UNL     1     -21.521  -4.678  -2.797  1.00  0.00    -0.200 F 
ENDBRANCH  49  63
BRANCH  50  74
ATOM     74  C   UNL     1     -10.125 -12.711  -0.395  1.00  0.00     0.064 A 
ATOM     75  C   UNL     1     -10.170 -14.113  -0.423  1.00  0.00     0.173 A 
ATOM     76  C   UNL     1      -8.899 -12.105  -0.083  1.00  0.00     0.173 A 
ATOM     77  F   UNL     1     -11.323 -14.739  -0.696  1.00  0.00    -0.203 F 
ATOM     78  C   UNL     1      -9.043 -14.876  -0.124  1.00  0.00     0.198 A 
ATOM     79  C   UNL     1      -7.764 -12.870   0.183  1.00  0.00     0.198 A 
ATOM     80  F   UNL     1      -8.799 -10.768  -0.049  1.00  0.00    -0.203 F 
ATOM     81  F   UNL     1      -9.129 -16.213  -0.105  1.00  0.00    -0.200 F 
ATOM     82  C   UNL     1      -7.840 -14.254   0.173  1.00  0.00     0.200 A 
ATOM     83  F   UNL     1      -6.600 -12.264   0.454  1.00  0.00    -0.200 F 
ATOM     84  F   UNL     1      -6.756 -14.989   0.459  1.00  0.00    -0.200 F 
ENDBRANCH  50  74
BRANCH  62  85
ATOM     85  C   UNL     1     -16.219 -11.918   2.904  1.00  0.00     0.064 A 
ATOM     86  C   UNL     1     -15.749 -11.599   4.187  1.00  0.00     0.173 A 
ATOM     87  C   UNL     1     -17.300 -12.808   2.803  1.00  0.00     0.173 A 
ATOM     88  F   UNL     1     -14.709 -10.765   4.337  1.00  0.00    -0.203 F 
ATOM     89  C   UNL     1     -16.327 -12.164   5.321  1.00  0.00     0.198 A 
ATOM     90  C   UNL     1     -17.897 -13.344   3.940  1.00  0.00     0.198 A 
ATOM     91  F   UNL     1     -17.792 -13.141   1.600  1.00  0.00    -0.203 F 
ATOM     92  F   UNL     1     -15.834 -11.879   6.534  1.00  0.00    -0.200 F 
ATOM     93  C   UNL     1     -17.406 -13.027   5.197  1.00  0.00     0.200 A 
ATOM     94  F   UNL     1     -18.950 -14.163   3.819  1.00  0.00    -0.200 F 
ATOM     95  F   UNL     1     -17.971 -13.556   6.291  1.00  0.00    -0.200 F 
ENDBRANCH  62  85
ENDBRANCH  36  37
ENDBRANCH  28  31
ENDBRANCH  26  27
ENDBRANCH  25  26
ENDBRANCH  24  25
ENDBRANCH   1  24
TORSDOF 16
