REMARK SMILES CC[C@@H]1C=CCN1S(=O)(=O)c1sc2c(c1C(=O)NCCCCCCNC(=O)c1ccc(-c3c4nc(c(-c5c(F)c(F)c(F)c(F)c5F)c5ccc([nH]5)c(-c5c(F)c(F)c(F)c(F)c5F)c5nc(c(-c6c(F)c(F)c(F)c(F)c6F)c6ccc3[nH]6)C=C5)C=C4)cc1)CC[NH2+]C2
REMARK SMILES IDX 21 1 20 2 19 3 18 4 16 5 17 6 15 8 11 9 12 10 13 11 14 12
REMARK SMILES IDX 94 13 91 14 93 15 92 16 8 19 9 20 10 21 7 22 3 23 4 24 5 25
REMARK SMILES IDX 6 26 2 27 1 28 22 29 23 30 24 31 25 32 26 33 27 35 28 36
REMARK SMILES IDX 29 37 90 38 30 39 89 40 31 41 32 42 33 43 83 44 34 45 88 46
REMARK SMILES IDX 82 47 84 48 35 49 87 50 81 51 80 52 36 54 68 55 48 56 67 57
REMARK SMILES IDX 49 58 52 59 66 60 85 61 50 62 51 63 65 65 86 66 53 67 37 68
REMARK SMILES IDX 38 69 46 70 39 71 40 72 44 73 47 74 41 75 42 76 45 77 43 78
REMARK SMILES IDX 69 79 70 80 78 81 71 82 72 83 76 84 79 85 73 86 74 87 77 88
REMARK SMILES IDX 75 89 54 90 55 91 63 92 56 93 57 94 61 95 64 96 58 97 59 98
REMARK SMILES IDX 62 99 60 100
REMARK H PARENT 18 7 93 17 93 18 25 34 84 53 52 64
REMARK Flexibility Score: inf
ROOT
ATOM      1  C   UNL     1       2.969   2.900   0.713  1.00  0.00     0.002 C 
ENDROOT
BRANCH   1   2
ATOM      2  C   UNL     1       3.295   1.549   0.092  1.00  0.00     0.021 C 
BRANCH   2   3
ATOM      3  C   UNL     1       3.078   1.369  -1.395  1.00  0.00     0.116 C 
BRANCH   3   4
ATOM      4  N   UNL     1       4.082   1.861  -2.268  1.00  0.00    -0.352 N 
ATOM      5  C   UNL     1       4.459   1.415  -3.505  1.00  0.00     0.253 C 
ATOM      6  O   UNL     1       5.233   2.204  -4.061  1.00  0.00    -0.269 OA
ATOM      7  H   UNL     1       4.583   2.640  -1.934  1.00  0.00     0.163 HD
BRANCH   5   8
ATOM      8  C   UNL     1       4.117   0.110  -4.157  1.00  0.00     0.074 A 
ATOM      9  C   UNL     1       3.079  -0.851  -3.998  1.00  0.00     0.148 A 
ATOM     10  S   UNL     1       3.275  -2.160  -5.135  1.00  0.00    -0.120 S 
ATOM     11  C   UNL     1       4.676  -1.558  -5.800  1.00  0.00     0.064 A 
ATOM     12  C   UNL     1       5.013  -0.334  -5.276  1.00  0.00    -0.009 A 
ATOM     13  C   UNL     1       5.392  -2.286  -6.899  1.00  0.00     0.308 C 
ATOM     14  C   UNL     1       6.232   0.370  -5.852  1.00  0.00     0.099 C 
ATOM     15  N   UNL     1       6.755  -1.766  -7.083  1.00  0.00    -0.342 N 
ATOM     16  C   UNL     1       6.721  -0.296  -7.162  1.00  0.00     0.265 C 
ATOM     17  H   UNL     1       7.335  -2.050  -6.293  1.00  0.00     0.346 HD
ATOM     18  H   UNL     1       7.145  -2.142  -7.947  1.00  0.00     0.346 HD
BRANCH   9  19
ATOM     19  S   UNL     1       1.522  -1.199  -3.045  1.00  0.00     0.254 S 
ATOM     20  O   UNL     1       0.643  -1.919  -3.937  1.00  0.00    -0.206 OA
ATOM     21  O   UNL     1       1.057   0.070  -2.516  1.00  0.00    -0.206 OA
BRANCH  19  22
ATOM     22  N   UNL     1       1.879  -2.259  -1.696  1.00  0.00    -0.186 NA
ATOM     23  C   UNL     1       0.709  -2.431  -0.743  1.00  0.00     0.096 C 
ATOM     24  C   UNL     1       0.227  -3.821  -1.030  1.00  0.00    -0.010 C 
ATOM     25  C   UNL     1       1.115  -4.504  -1.749  1.00  0.00    -0.013 C 
ATOM     26  C   UNL     1       2.261  -3.647  -2.146  1.00  0.00     0.130 C 
BRANCH  23  27
ATOM     27  C   UNL     1       1.074  -2.393   0.763  1.00  0.00     0.021 C 
ATOM     28  C   UNL     1       2.507  -2.099   1.164  1.00  0.00     0.006 C 
ENDBRANCH  23  27
ENDBRANCH  19  22
ENDBRANCH   9  19
ENDBRANCH   5   8
ENDBRANCH   3   4
ENDBRANCH   2   3
ENDBRANCH   1   2
BRANCH   1  29
ATOM     29  C   UNL     1       1.584   3.495   0.413  1.00  0.00     0.002 C 
BRANCH  29  30
ATOM     30  C   UNL     1       0.349   2.590   0.555  1.00  0.00     0.021 C 
BRANCH  30  31
ATOM     31  C   UNL     1       0.141   1.976   1.930  1.00  0.00     0.116 C 
BRANCH  31  32
ATOM     32  N   UNL     1      -0.082   2.966   2.983  1.00  0.00    -0.352 N 
ATOM     33  C   UNL     1      -0.297   2.755   4.332  1.00  0.00     0.251 C 
ATOM     34  H   UNL     1      -0.079   3.907   2.693  1.00  0.00     0.163 HD
ATOM     35  O   UNL     1      -0.809   3.621   5.032  1.00  0.00    -0.269 OA
BRANCH  33  36
ATOM     36  C   UNL     1       0.102   1.468   4.928  1.00  0.00     0.039 A 
ATOM     37  C   UNL     1      -0.662   0.850   5.924  1.00  0.00     0.014 A 
ATOM     38  C   UNL     1       1.271   0.873   4.467  1.00  0.00     0.014 A 
ATOM     39  C   UNL     1      -0.277  -0.407   6.386  1.00  0.00     0.010 A 
ATOM     40  C   UNL     1       1.550  -0.427   4.790  1.00  0.00     0.010 A 
ATOM     41  C   UNL     1       0.824  -1.049   5.796  1.00  0.00    -0.014 A 
BRANCH  41  42
ATOM     42  C   UNL     1       1.175  -2.423   6.132  1.00  0.00     0.031 A 
ATOM     43  C   UNL     1       0.073  -3.402   5.927  1.00  0.00     0.074 A 
ATOM     44  C   UNL     1       2.448  -2.816   6.363  1.00  0.00     0.049 A 
ATOM     45  N   UNL     1      -0.524  -4.114   6.823  1.00  0.00    -0.248 NA
ATOM     46  C   UNL     1      -0.527  -3.510   4.587  1.00  0.00     0.031 C 
ATOM     47  C   UNL     1       3.679  -2.021   6.268  1.00  0.00     0.029 A 
ATOM     48  N   UNL     1       2.927  -4.061   6.627  1.00  0.00    -0.354 N 
ATOM     49  C   UNL     1      -1.442  -4.907   6.139  1.00  0.00     0.074 A 
ATOM     50  C   UNL     1      -1.529  -4.363   4.810  1.00  0.00     0.031 C 
ATOM     51  C   UNL     1       4.751  -2.844   6.228  1.00  0.00     0.029 A 
ATOM     52  C   UNL     1       4.302  -4.202   6.466  1.00  0.00     0.049 A 
ATOM     53  H   UNL     1       2.346  -4.805   6.910  1.00  0.00     0.167 HD
ATOM     54  C   UNL     1      -1.855  -6.096   6.660  1.00  0.00     0.037 A 
ATOM     55  C   UNL     1       5.006  -5.362   6.496  1.00  0.00     0.037 A 
ATOM     56  C   UNL     1      -1.559  -6.165   8.072  1.00  0.00     0.049 A 
ATOM     57  C   UNL     1       4.154  -6.374   7.169  1.00  0.00     0.074 A 
ATOM     58  C   UNL     1      -1.899  -5.399   9.172  1.00  0.00     0.029 A 
ATOM     59  N   UNL     1      -0.476  -6.911   8.469  1.00  0.00    -0.354 N 
ATOM     60  N   UNL     1       3.845  -6.334   8.435  1.00  0.00    -0.248 NA
ATOM     61  C   UNL     1       3.261  -7.160   6.331  1.00  0.00     0.031 C 
ATOM     62  C   UNL     1      -0.712  -5.345   9.963  1.00  0.00     0.029 A 
ATOM     63  C   UNL     1       0.248  -6.147   9.347  1.00  0.00     0.049 A 
ATOM     64  H   UNL     1      -0.259  -7.826   8.176  1.00  0.00     0.167 HD
ATOM     65  C   UNL     1       2.507  -6.692   8.478  1.00  0.00     0.074 A 
ATOM     66  C   UNL     1       2.223  -7.268   7.164  1.00  0.00     0.031 C 
ATOM     67  C   UNL     1       1.684  -6.216   9.458  1.00  0.00     0.037 A 
BRANCH  54  68
ATOM     68  C   UNL     1      -2.145  -7.338   5.845  1.00  0.00     0.064 A 
ATOM     69  C   UNL     1      -2.603  -8.494   6.513  1.00  0.00     0.173 A 
ATOM     70  C   UNL     1      -1.698  -7.546   4.522  1.00  0.00     0.173 A 
ATOM     71  F   UNL     1      -3.052  -8.422   7.775  1.00  0.00    -0.203 F 
ATOM     72  C   UNL     1      -2.508  -9.767   5.944  1.00  0.00     0.198 A 
ATOM     73  C   UNL     1      -1.655  -8.812   3.937  1.00  0.00     0.198 A 
ATOM     74  F   UNL     1      -1.178  -6.567   3.775  1.00  0.00    -0.203 F 
ATOM     75  F   UNL     1      -2.815 -10.846   6.675  1.00  0.00    -0.200 F 
ATOM     76  C   UNL     1      -2.022  -9.925   4.660  1.00  0.00     0.200 A 
ATOM     77  F   UNL     1      -1.168  -8.944   2.695  1.00  0.00    -0.200 F 
ATOM     78  F   UNL     1      -1.860 -11.148   4.138  1.00  0.00    -0.200 F 
ENDBRANCH  54  68
BRANCH  55  79
ATOM     79  C   UNL     1       6.218  -5.746   5.730  1.00  0.00     0.064 A 
ATOM     80  C   UNL     1       6.958  -6.889   6.081  1.00  0.00     0.173 A 
ATOM     81  C   UNL     1       6.499  -5.184   4.470  1.00  0.00     0.173 A 
ATOM     82  F   UNL     1       6.728  -7.510   7.247  1.00  0.00    -0.203 F 
ATOM     83  C   UNL     1       7.888  -7.461   5.206  1.00  0.00     0.198 A 
ATOM     84  C   UNL     1       7.433  -5.752   3.600  1.00  0.00     0.198 A 
ATOM     85  F   UNL     1       5.802  -4.134   4.013  1.00  0.00    -0.203 F 
ATOM     86  F   UNL     1       8.517  -8.595   5.546  1.00  0.00    -0.200 F 
ATOM     87  C   UNL     1       8.114  -6.900   3.961  1.00  0.00     0.200 A 
ATOM     88  F   UNL     1       7.615  -5.221   2.383  1.00  0.00    -0.200 F 
ATOM     89  F   UNL     1       8.948  -7.488   3.092  1.00  0.00    -0.200 F 
ENDBRANCH  55  79
BRANCH  67  90
ATOM     90  C   UNL     1       2.315  -5.521  10.634  1.00  0.00     0.064 A 
ATOM     91  C   UNL     1       3.093  -4.353  10.546  1.00  0.00     0.173 A 
ATOM     92  C   UNL     1       2.010  -5.993  11.917  1.00  0.00     0.173 A 
ATOM     93  F   UNL     1       3.344  -3.774   9.366  1.00  0.00    -0.203 F 
ATOM     94  C   UNL     1       3.586  -3.724  11.689  1.00  0.00     0.198 A 
ATOM     95  C   UNL     1       2.468  -5.341  13.057  1.00  0.00     0.198 A 
ATOM     96  F   UNL     1       1.225  -7.072  12.067  1.00  0.00    -0.203 F 
ATOM     97  F   UNL     1       4.345  -2.623  11.577  1.00  0.00    -0.200 F 
ATOM     98  C   UNL     1       3.268  -4.215  12.944  1.00  0.00     0.200 A 
ATOM     99  F   UNL     1       2.115  -5.792  14.269  1.00  0.00    -0.200 F 
ATOM    100  F   UNL     1       3.711  -3.592  14.044  1.00  0.00    -0.200 F 
ENDBRANCH  67  90
ENDBRANCH  41  42
ENDBRANCH  33  36
ENDBRANCH  31  32
ENDBRANCH  30  31
ENDBRANCH  29  30
ENDBRANCH   1  29
TORSDOF 16
