REMARK SMILES Cc1oc2c(C)c3oc(=O)c(CCC(=O)N[C@H](Cc4ccc(Cl)cc4)C(=O)NCCCCCCNC(=O)c4ccc(-c5c6nc(c(-c7c(F)c(F)c(F)c(F)c7F)c7ccc([nH]7)c(-c7c(F)c(F)c(F)c(F)c7F)c7nc(c(-c8c(F)c(F)c(F)c(F)c8F)c8ccc5[nH]8)C=C7)C=C6)cc4)c(C)c3cc2c1C
REMARK SMILES IDX 30 1 29 2 28 3 26 4 27 5 17 7 16 8 14 9 15 10 13 12 12 13
REMARK SMILES IDX 11 14 1 15 2 16 3 17 106 18 4 19 105 20 107 21 5 22 104 23
REMARK SMILES IDX 6 24 7 25 103 26 8 27 101 28 9 29 102 30 10 31 18 32 19 33
REMARK SMILES IDX 20 34 25 35 21 36 24 37 22 38 23 39 31 40 32 41 33 42 34 43
REMARK SMILES IDX 35 44 36 45 37 47 38 48 39 49 100 50 40 51 99 52 41 53 42 54
REMARK SMILES IDX 43 55 93 56 44 57 98 58 92 59 94 60 45 61 97 62 91 63 90 64
REMARK SMILES IDX 46 66 78 67 58 68 77 69 59 70 62 71 76 72 95 73 60 74 61 75
REMARK SMILES IDX 75 77 96 78 63 79 47 80 48 81 56 82 49 83 50 84 54 85 57 86
REMARK SMILES IDX 51 87 52 88 55 89 53 90 79 91 80 92 88 93 81 94 82 95 86 96
REMARK SMILES IDX 89 97 83 98 84 99 87 100 85 101 64 102 65 103 73 104 66 105
REMARK SMILES IDX 67 106 71 107 74 108 68 109 69 110 72 111 70 112
REMARK H PARENT 28 6 16 11 35 46 94 65 62 76
REMARK Flexibility Score: inf
ROOT
ATOM      1  C   UNL     1      -1.780   3.519   3.739  1.00  0.00     0.021 C 
ENDROOT
BRANCH   1   2
ATOM      2  C   UNL     1      -1.885   3.668   2.221  1.00  0.00     0.116 C 
BRANCH   2   3
ATOM      3  N   UNL     1      -2.775   4.797   1.799  1.00  0.00    -0.354 N 
ATOM      4  C   UNL     1      -2.884   6.060   1.122  1.00  0.00     0.242 C 
ATOM      5  O   UNL     1      -4.162   6.088   1.259  1.00  0.00    -0.273 OA
ATOM      6  H   UNL     1      -3.677   4.579   2.128  1.00  0.00     0.163 HD
BRANCH   4   7
ATOM      7  C   UNL     1      -1.598   7.540   0.170  1.00  0.00     0.175 C 
BRANCH   7   8
ATOM      8  N   UNL     1      -0.288   7.372  -0.851  1.00  0.00    -0.344 N 
ATOM      9  C   UNL     1      -0.214   7.061  -2.190  1.00  0.00     0.220 C 
ATOM     10  O   UNL     1       0.890   7.043  -2.735  1.00  0.00    -0.275 OA
ATOM     11  H   UNL     1       0.585   7.523  -0.420  1.00  0.00     0.164 HD
BRANCH   9  12
ATOM     12  C   UNL     1      -1.480   6.674  -2.950  1.00  0.00     0.105 C 
BRANCH  12  13
ATOM     13  C   UNL     1      -2.221   5.489  -2.324  1.00  0.00     0.053 C 
BRANCH  13  14
ATOM     14  C   UNL     1      -2.284   5.753  -0.855  1.00  0.00     0.042 A 
ATOM     15  C   UNL     1       0.702   6.672   8.167  1.00  0.00     0.088 C 
ATOM     16  C   UNL     1       0.636   7.026   6.721  1.00  0.00     0.105 A 
ATOM     17  O   UNL     1      -0.254   8.026   6.404  1.00  0.00    -0.461 OA
ATOM     18  C   UNL     1       1.242   6.367   5.643  1.00  0.00    -0.002 A 
ATOM     19  C   UNL     1      -0.470   7.997   5.053  1.00  0.00     0.141 A 
ATOM     20  C   UNL     1       0.559   6.773   4.466  1.00  0.00     0.025 A 
ATOM     21  C   UNL     1       2.205   5.236   5.693  1.00  0.00     0.049 C 
ATOM     22  C   UNL     1      -1.899   8.622   4.085  1.00  0.00     0.036 A 
ATOM     23  C   UNL     1       0.364   6.002   2.882  1.00  0.00     0.024 A 
ATOM     24  C   UNL     1      -2.609   9.641   5.017  1.00  0.00     0.052 C 
ATOM     25  C   UNL     1      -2.175   7.659   2.318  1.00  0.00     0.145 A 
ATOM     26  C   UNL     1      -0.900   6.347   1.772  1.00  0.00     0.022 A 
ATOM     27  O   UNL     1      -3.355   7.964   0.948  1.00  0.00    -0.422 OA
ATOM     28  C   UNL     1      -1.112   5.417   0.124  1.00  0.00    -0.030 A 
ATOM     29  C   UNL     1      -3.645   7.084  -0.580  1.00  0.00     0.339 A 
ATOM     30  C   UNL     1       0.068   4.550  -0.274  1.00  0.00     0.046 C 
ATOM     31  O   UNL     1      -4.427   7.499  -1.421  1.00  0.00    -0.246 OA
ENDBRANCH  13  14
ENDBRANCH  12  13
ENDBRANCH   9  12
ENDBRANCH   7   8
BRANCH   7  32
ATOM     32  C   UNL     1      -1.074   9.166   0.679  1.00  0.00     0.070 C 
BRANCH  32  33
ATOM     33  C   UNL     1      -1.281   9.512   2.178  1.00  0.00    -0.045 A 
ATOM     34  C   UNL     1      -3.022   9.715   2.430  1.00  0.00     0.005 A 
ATOM     35  C   UNL     1      -0.464   8.111   2.943  1.00  0.00     0.005 A 
ATOM     36  C   UNL     1      -4.032   8.504   3.255  1.00  0.00     0.021 A 
ATOM     37  C   UNL     1      -1.625   6.740   3.850  1.00  0.00     0.021 A 
ATOM     38  C   UNL     1      -3.388   7.049   3.972  1.00  0.00     0.041 A 
ATOM     39  Cl  UNL     1      -4.423   5.998   4.847  1.00  0.00    -0.084 Cl
ENDBRANCH  32  33
ENDBRANCH   7  32
ENDBRANCH   4   7
ENDBRANCH   2   3
ENDBRANCH   1   2
BRANCH   1  40
ATOM     40  C   UNL     1      -2.494   2.365   4.406  1.00  0.00     0.002 C 
BRANCH  40  41
ATOM     41  C   UNL     1      -1.854   1.001   4.205  1.00  0.00     0.002 C 
BRANCH  41  42
ATOM     42  C   UNL     1      -0.375   0.870   4.616  1.00  0.00     0.021 C 
BRANCH  42  43
ATOM     43  C   UNL     1      -0.004   1.357   6.029  1.00  0.00     0.116 C 
BRANCH  43  44
ATOM     44  N   UNL     1      -0.881   0.789   7.034  1.00  0.00    -0.352 N 
ATOM     45  C   UNL     1      -0.686  -0.419   7.649  1.00  0.00     0.251 C 
ATOM     46  H   UNL     1      -1.675   1.310   7.293  1.00  0.00     0.163 HD
ATOM     47  O   UNL     1      -1.557  -1.281   7.572  1.00  0.00    -0.269 OA
BRANCH  45  48
ATOM     48  C   UNL     1       0.497  -0.638   8.518  1.00  0.00     0.039 A 
ATOM     49  C   UNL     1       0.838  -1.962   8.826  1.00  0.00     0.014 A 
ATOM     50  C   UNL     1       1.144   0.413   9.176  1.00  0.00     0.014 A 
ATOM     51  C   UNL     1       1.806  -2.236   9.792  1.00  0.00     0.010 A 
ATOM     52  C   UNL     1       2.114   0.135  10.148  1.00  0.00     0.010 A 
ATOM     53  C   UNL     1       2.452  -1.191  10.461  1.00  0.00    -0.014 A 
BRANCH  53  54
ATOM     54  C   UNL     1       3.589  -1.545  11.337  1.00  0.00     0.031 A 
ATOM     55  C   UNL     1       4.830  -0.751  11.063  1.00  0.00     0.074 A 
ATOM     56  C   UNL     1       3.440  -2.095  12.564  1.00  0.00     0.049 A 
ATOM     57  N   UNL     1       5.022   0.444  11.542  1.00  0.00    -0.248 NA
ATOM     58  C   UNL     1       5.775  -1.117  10.009  1.00  0.00     0.031 C 
ATOM     59  C   UNL     1       2.335  -1.801  13.480  1.00  0.00     0.029 A 
ATOM     60  N   UNL     1       4.306  -2.862  13.317  1.00  0.00    -0.354 N 
ATOM     61  C   UNL     1       6.081   1.005  10.852  1.00  0.00     0.074 A 
ATOM     62  C   UNL     1       6.519  -0.002   9.911  1.00  0.00     0.031 C 
ATOM     63  C   UNL     1       2.664  -2.240  14.713  1.00  0.00     0.029 A 
ATOM     64  C   UNL     1       3.930  -2.974  14.660  1.00  0.00     0.049 A 
ATOM     65  H   UNL     1       5.111  -3.290  12.945  1.00  0.00     0.167 HD
ATOM     66  C   UNL     1       6.533   2.263  11.105  1.00  0.00     0.037 A 
ATOM     67  C   UNL     1       4.819  -3.020  15.697  1.00  0.00     0.037 A 
ATOM     68  C   UNL     1       5.849   2.966  12.150  1.00  0.00     0.049 A 
ATOM     69  C   UNL     1       5.382  -1.617  15.660  1.00  0.00     0.074 A 
ATOM     70  C   UNL     1       4.878   3.935  12.274  1.00  0.00     0.029 A 
ATOM     71  N   UNL     1       6.167   2.633  13.445  1.00  0.00    -0.354 N 
ATOM     72  N   UNL     1       4.793  -0.536  16.101  1.00  0.00    -0.248 NA
ATOM     73  C   UNL     1       6.496  -1.380  14.740  1.00  0.00     0.031 C 
ATOM     74  C   UNL     1       4.338   3.761  13.590  1.00  0.00     0.029 A 
ATOM     75  C   UNL     1       5.005   2.682  14.168  1.00  0.00     0.049 A 
ATOM     76  H   UNL     1       7.060   2.403  13.788  1.00  0.00     0.167 HD
ATOM     77  C   UNL     1       5.286   0.499  15.304  1.00  0.00     0.074 A 
ATOM     78  C   UNL     1       6.329  -0.090  14.490  1.00  0.00     0.031 C 
ATOM     79  C   UNL     1       4.708   1.731  15.214  1.00  0.00     0.037 A 
BRANCH  66  80
ATOM     80  C   UNL     1       7.780   2.846  10.575  1.00  0.00     0.064 A 
ATOM     81  C   UNL     1       8.896   2.852  11.428  1.00  0.00     0.173 A 
ATOM     82  C   UNL     1       7.838   3.606   9.405  1.00  0.00     0.173 A 
ATOM     83  F   UNL     1       8.868   2.142  12.569  1.00  0.00    -0.203 F 
ATOM     84  C   UNL     1      10.008   3.637  11.155  1.00  0.00     0.198 A 
ATOM     85  C   UNL     1       8.966   4.380   9.123  1.00  0.00     0.198 A 
ATOM     86  F   UNL     1       6.792   3.646   8.568  1.00  0.00    -0.203 F 
ATOM     87  F   UNL     1      11.024   3.674  12.027  1.00  0.00    -0.200 F 
ATOM     88  C   UNL     1      10.039   4.410  10.007  1.00  0.00     0.200 A 
ATOM     89  F   UNL     1       9.002   5.133   8.014  1.00  0.00    -0.200 F 
ATOM     90  F   UNL     1      11.096   5.196   9.761  1.00  0.00    -0.200 F 
ENDBRANCH  66  80
BRANCH  67  91
ATOM     91  C   UNL     1       5.689  -4.243  15.783  1.00  0.00     0.064 A 
ATOM     92  C   UNL     1       5.083  -5.511  15.662  1.00  0.00     0.173 A 
ATOM     93  C   UNL     1       7.080  -4.249  15.975  1.00  0.00     0.173 A 
ATOM     94  F   UNL     1       3.746  -5.616  15.613  1.00  0.00    -0.203 F 
ATOM     95  C   UNL     1       5.831  -6.686  15.577  1.00  0.00     0.198 A 
ATOM     96  C   UNL     1       7.834  -5.422  15.857  1.00  0.00     0.198 A 
ATOM     97  F   UNL     1       7.746  -3.123  16.262  1.00  0.00    -0.203 F 
ATOM     98  F   UNL     1       5.210  -7.862  15.410  1.00  0.00    -0.200 F 
ATOM     99  C   UNL     1       7.211  -6.636  15.632  1.00  0.00     0.200 A 
ATOM    100  F   UNL     1       9.171  -5.363  15.932  1.00  0.00    -0.200 F 
ATOM    101  F   UNL     1       7.937  -7.751  15.473  1.00  0.00    -0.200 F 
ENDBRANCH  67  91
BRANCH  79 102
ATOM    102  C   UNL     1       3.571   1.991  16.137  1.00  0.00     0.064 A 
ATOM    103  C   UNL     1       3.801   2.160  17.507  1.00  0.00     0.173 A 
ATOM    104  C   UNL     1       2.260   2.155  15.660  1.00  0.00     0.173 A 
ATOM    105  F   UNL     1       5.039   2.024  18.008  1.00  0.00    -0.203 F 
ATOM    106  C   UNL     1       2.765   2.515  18.364  1.00  0.00     0.198 A 
ATOM    107  C   UNL     1       1.233   2.538  16.516  1.00  0.00     0.198 A 
ATOM    108  F   UNL     1       1.976   1.985  14.358  1.00  0.00    -0.203 F 
ATOM    109  F   UNL     1       3.010   2.691  19.670  1.00  0.00    -0.200 F 
ATOM    110  C   UNL     1       1.487   2.723  17.866  1.00  0.00     0.200 A 
ATOM    111  F   UNL     1       0.003   2.760  16.029  1.00  0.00    -0.200 F 
ATOM    112  F   UNL     1       0.503   3.120  18.685  1.00  0.00    -0.200 F 
ENDBRANCH  79 102
ENDBRANCH  53  54
ENDBRANCH  45  48
ENDBRANCH  43  44
ENDBRANCH  42  43
ENDBRANCH  41  42
ENDBRANCH  40  41
ENDBRANCH   1  40
TORSDOF 19
