REMARK SMILES C[C@@H](c1ccccc1)[C@@H](CC(=O)Nc1ccccc1I)C(=O)NCCCCCCNC(=O)c1ccc(-c2c3nc(c(-c4c(F)c(F)c(F)c(F)c4F)c4ccc([nH]4)c(-c4c(F)c(F)c(F)c(F)c4F)c4nc(c(-c5c(F)c(F)c(F)c(F)c5F)c5ccc2[nH]5)C=C4)C=C3)cc1
REMARK SMILES IDX 26 1 25 2 24 3 23 4 21 5 22 6 9 8 2 9 1 10 3 11 4 12 8 13
REMARK SMILES IDX 5 14 7 15 6 16 10 17 11 18 12 19 13 20 14 22 15 23 19 24
REMARK SMILES IDX 16 25 18 26 20 27 17 28 27 29 28 30 29 31 30 32 31 33 32 35
REMARK SMILES IDX 33 36 34 37 95 38 35 39 94 40 36 41 37 42 38 43 88 44 39 45
REMARK SMILES IDX 93 46 87 47 89 48 40 49 92 50 86 51 85 52 41 54 73 55 53 56
REMARK SMILES IDX 72 57 54 58 57 59 71 60 90 61 55 62 56 63 70 65 91 66 58 67
REMARK SMILES IDX 42 68 43 69 51 70 44 71 45 72 49 73 52 74 46 75 47 76 50 77
REMARK SMILES IDX 48 78 74 79 75 80 83 81 76 82 77 83 81 84 84 85 78 86 79 87
REMARK SMILES IDX 82 88 80 89 59 90 60 91 68 92 61 93 62 94 66 95 69 96 63 97
REMARK SMILES IDX 64 98 67 99 65 100
REMARK H PARENT 23 7 13 21 30 34 89 53 57 64
REMARK Flexibility Score: inf
ROOT
ATOM      1  C   UNL     1      -0.578   3.906  -5.675  1.00  0.00     0.002 C 
ENDROOT
BRANCH   1   2
ATOM      2  C   UNL     1       0.003   3.227  -4.440  1.00  0.00     0.021 C 
BRANCH   2   3
ATOM      3  C   UNL     1      -0.997   2.752  -3.401  1.00  0.00     0.116 C 
BRANCH   3   4
ATOM      4  N   UNL     1      -1.454   1.400  -3.588  1.00  0.00    -0.356 N 
ATOM      5  C   UNL     1      -1.604   0.372  -2.715  1.00  0.00     0.224 C 
ATOM      6  O   UNL     1      -2.319  -0.553  -3.126  1.00  0.00    -0.275 OA
ATOM      7  H   UNL     1      -1.701   1.181  -4.516  1.00  0.00     0.163 HD
BRANCH   5   8
ATOM      8  C   UNL     1      -0.952   0.248  -1.313  1.00  0.00     0.095 C 
BRANCH   8   9
ATOM      9  C   UNL     1       0.381  -0.540  -1.286  1.00  0.00     0.029 C 
ATOM     10  C   UNL     1       0.746  -0.955   0.155  1.00  0.00     0.013 C 
BRANCH   9  11
ATOM     11  C   UNL     1       0.515  -1.806  -2.130  1.00  0.00    -0.044 A 
ATOM     12  C   UNL     1      -0.432  -2.839  -2.113  1.00  0.00     0.004 A 
ATOM     13  C   UNL     1       1.704  -2.013  -2.853  1.00  0.00     0.004 A 
ATOM     14  C   UNL     1      -0.198  -4.032  -2.805  1.00  0.00     0.000 A 
ATOM     15  C   UNL     1       1.937  -3.201  -3.546  1.00  0.00     0.000 A 
ATOM     16  C   UNL     1       0.985  -4.214  -3.520  1.00  0.00     0.000 A 
ENDBRANCH   9  11
ENDBRANCH   8   9
BRANCH   8  17
ATOM     17  C   UNL     1      -1.042   1.452  -0.338  1.00  0.00     0.114 C 
BRANCH  17  18
ATOM     18  C   UNL     1      -0.123   2.690  -0.280  1.00  0.00     0.225 C 
ATOM     19  O   UNL     1      -0.590   3.759   0.135  1.00  0.00    -0.275 OA
ATOM     20  N   UNL     1       1.136   2.726  -0.813  1.00  0.00    -0.325 N 
ATOM     21  H   UNL     1       1.250   3.254  -1.636  1.00  0.00     0.169 HD
BRANCH  20  22
ATOM     22  C   UNL     1       2.290   2.086  -0.311  1.00  0.00     0.054 A 
ATOM     23  C   UNL     1       2.517   2.067   1.068  1.00  0.00     0.027 A 
ATOM     24  C   UNL     1       3.295   1.606  -1.171  1.00  0.00     0.037 A 
ATOM     25  C   UNL     1       3.678   1.482   1.579  1.00  0.00     0.002 A 
ATOM     26  C   UNL     1       4.401   0.928  -0.652  1.00  0.00     0.017 A 
ATOM     27  I   UNL     1       3.288   1.890  -3.245  1.00  0.00    -0.042 I 
ATOM     28  C   UNL     1       4.591   0.868   0.724  1.00  0.00     0.001 A 
ENDBRANCH  20  22
ENDBRANCH  17  18
ENDBRANCH   8  17
ENDBRANCH   5   8
ENDBRANCH   3   4
ENDBRANCH   2   3
ENDBRANCH   1   2
BRANCH   1  29
ATOM     29  C   UNL     1      -1.051   5.353  -5.495  1.00  0.00     0.002 C 
BRANCH  29  30
ATOM     30  C   UNL     1      -0.096   6.333  -4.801  1.00  0.00     0.021 C 
BRANCH  30  31
ATOM     31  C   UNL     1       1.366   6.314  -5.247  1.00  0.00     0.116 C 
BRANCH  31  32
ATOM     32  N   UNL     1       1.538   6.687  -6.638  1.00  0.00    -0.352 N 
ATOM     33  C   UNL     1       2.267   7.710  -7.178  1.00  0.00     0.251 C 
ATOM     34  H   UNL     1       1.060   6.122  -7.288  1.00  0.00     0.163 HD
ATOM     35  O   UNL     1       2.171   7.965  -8.387  1.00  0.00    -0.269 OA
BRANCH  33  36
ATOM     36  C   UNL     1       3.166   8.531  -6.341  1.00  0.00     0.039 A 
ATOM     37  C   UNL     1       3.130   9.921  -6.481  1.00  0.00     0.014 A 
ATOM     38  C   UNL     1       4.088   7.940  -5.470  1.00  0.00     0.014 A 
ATOM     39  C   UNL     1       3.997  10.722  -5.733  1.00  0.00     0.010 A 
ATOM     40  C   UNL     1       4.917   8.743  -4.684  1.00  0.00     0.010 A 
ATOM     41  C   UNL     1       4.893  10.140  -4.822  1.00  0.00    -0.014 A 
BRANCH  41  42
ATOM     42  C   UNL     1       5.848  10.981  -4.053  1.00  0.00     0.031 A 
ATOM     43  C   UNL     1       7.323  10.896  -4.341  1.00  0.00     0.074 A 
ATOM     44  C   UNL     1       5.399  11.799  -3.082  1.00  0.00     0.049 A 
ATOM     45  N   UNL     1       8.320  11.513  -3.757  1.00  0.00    -0.248 NA
ATOM     46  C   UNL     1       7.733   9.979  -5.415  1.00  0.00     0.031 C 
ATOM     47  C   UNL     1       3.998  11.950  -2.686  1.00  0.00     0.029 A 
ATOM     48  N   UNL     1       6.075  12.654  -2.248  1.00  0.00    -0.354 N 
ATOM     49  C   UNL     1       9.470  11.049  -4.382  1.00  0.00     0.074 A 
ATOM     50  C   UNL     1       9.054  10.063  -5.356  1.00  0.00     0.031 C 
ATOM     51  C   UNL     1       3.918  12.857  -1.698  1.00  0.00     0.029 A 
ATOM     52  C   UNL     1       5.261  13.332  -1.374  1.00  0.00     0.049 A 
ATOM     53  H   UNL     1       7.053  12.770  -2.273  1.00  0.00     0.167 HD
ATOM     54  C   UNL     1      10.756  11.428  -4.181  1.00  0.00     0.037 A 
ATOM     55  C   UNL     1       5.564  14.234  -0.422  1.00  0.00     0.037 A 
ATOM     56  C   UNL     1      11.168  12.429  -3.233  1.00  0.00     0.049 A 
ATOM     57  C   UNL     1       7.000  14.644  -0.225  1.00  0.00     0.074 A 
ATOM     58  C   UNL     1      12.443  12.906  -2.978  1.00  0.00     0.029 A 
ATOM     59  N   UNL     1      10.309  13.115  -2.389  1.00  0.00    -0.354 N 
ATOM     60  N   UNL     1       8.073  14.232  -0.855  1.00  0.00    -0.248 NA
ATOM     61  C   UNL     1       7.264  15.654   0.810  1.00  0.00     0.031 C 
ATOM     62  C   UNL     1      12.358  13.859  -1.957  1.00  0.00     0.029 A 
ATOM     63  C   UNL     1      11.026  14.007  -1.607  1.00  0.00     0.049 A 
ATOM     64  H   UNL     1       9.333  12.988  -2.350  1.00  0.00     0.167 HD
ATOM     65  C   UNL     1       9.130  14.958  -0.323  1.00  0.00     0.074 A 
ATOM     66  C   UNL     1       8.569  15.842   0.677  1.00  0.00     0.031 C 
ATOM     67  C   UNL     1      10.448  14.898  -0.635  1.00  0.00     0.037 A 
BRANCH  54  68
ATOM     68  C   UNL     1      11.813  10.758  -5.011  1.00  0.00     0.064 A 
ATOM     69  C   UNL     1      11.942  11.021  -6.383  1.00  0.00     0.173 A 
ATOM     70  C   UNL     1      12.729   9.873  -4.423  1.00  0.00     0.173 A 
ATOM     71  F   UNL     1      11.084  11.851  -6.995  1.00  0.00    -0.203 F 
ATOM     72  C   UNL     1      12.931  10.400  -7.142  1.00  0.00     0.198 A 
ATOM     73  C   UNL     1      13.735   9.276  -5.179  1.00  0.00     0.198 A 
ATOM     74  F   UNL     1      12.654   9.592  -3.114  1.00  0.00    -0.203 F 
ATOM     75  F   UNL     1      13.005  10.630  -8.460  1.00  0.00    -0.200 F 
ATOM     76  C   UNL     1      13.830   9.534  -6.538  1.00  0.00     0.200 A 
ATOM     77  F   UNL     1      14.611   8.448  -4.592  1.00  0.00    -0.200 F 
ATOM     78  F   UNL     1      14.786   8.942  -7.269  1.00  0.00    -0.200 F 
ENDBRANCH  54  68
BRANCH  55  79
ATOM     79  C   UNL     1       4.485  14.846   0.397  1.00  0.00     0.064 A 
ATOM     80  C   UNL     1       4.139  16.195   0.236  1.00  0.00     0.173 A 
ATOM     81  C   UNL     1       3.792  14.104   1.364  1.00  0.00     0.173 A 
ATOM     82  F   UNL     1       4.790  16.951  -0.661  1.00  0.00    -0.203 F 
ATOM     83  C   UNL     1       3.158  16.786   1.030  1.00  0.00     0.198 A 
ATOM     84  C   UNL     1       2.792  14.690   2.138  1.00  0.00     0.198 A 
ATOM     85  F   UNL     1       4.083  12.809   1.554  1.00  0.00    -0.203 F 
ATOM     86  F   UNL     1       2.883  18.090   0.890  1.00  0.00    -0.200 F 
ATOM     87  C   UNL     1       2.482  16.032   1.976  1.00  0.00     0.200 A 
ATOM     88  F   UNL     1       2.133  13.955   3.044  1.00  0.00    -0.200 F 
ATOM     89  F   UNL     1       1.539  16.601   2.740  1.00  0.00    -0.200 F 
ENDBRANCH  55  79
BRANCH  67  90
ATOM     90  C   UNL     1      11.367  15.851   0.070  1.00  0.00     0.064 A 
ATOM     91  C   UNL     1      11.710  15.684   1.419  1.00  0.00     0.173 A 
ATOM     92  C   UNL     1      11.939  16.926  -0.627  1.00  0.00     0.173 A 
ATOM     93  F   UNL     1      11.178  14.680   2.132  1.00  0.00    -0.203 F 
ATOM     94  C   UNL     1      12.574  16.575   2.053  1.00  0.00     0.198 A 
ATOM     95  C   UNL     1      12.823  17.798   0.002  1.00  0.00     0.198 A 
ATOM     96  F   UNL     1      11.648  17.125  -1.921  1.00  0.00    -0.203 F 
ATOM     97  F   UNL     1      12.852  16.423   3.355  1.00  0.00    -0.200 F 
ATOM     98  C   UNL     1      13.134  17.626   1.342  1.00  0.00     0.200 A 
ATOM     99  F   UNL     1      13.373  18.807  -0.689  1.00  0.00    -0.200 F 
ATOM    100  F   UNL     1      13.968  18.479   1.952  1.00  0.00    -0.200 F 
ENDBRANCH  67  90
ENDBRANCH  41  42
ENDBRANCH  33  36
ENDBRANCH  31  32
ENDBRANCH  30  31
ENDBRANCH  29  30
ENDBRANCH   1  29
TORSDOF 18
