REMARK SMILES CSc1ccc(C[C@H]([NH3+])C(=O)NCCCCCCNC(=O)c2ccc(-c3c4nc(c(-c5c(F)c(F)c(F)c(F)c5F)c5ccc([nH]5)c(-c5c(F)c(F)c(F)c(F)c5F)c5nc(c(-c6c(F)c(F)c(F)c(F)c6F)c6ccc3[nH]6)C=C5)C=C4)cc2)cc1
REMARK SMILES IDX 15 1 14 2 13 3 12 4 10 5 11 6 8 8 7 9 6 10 3 11 4 12 86 13
REMARK SMILES IDX 5 14 85 15 2 16 1 17 9 18 16 22 17 23 18 24 19 25 20 26
REMARK SMILES IDX 21 28 22 29 23 30 84 31 24 32 83 33 25 34 26 35 27 36 77 37
REMARK SMILES IDX 28 38 82 39 76 40 78 41 29 42 81 43 75 44 74 45 30 47 62 48
REMARK SMILES IDX 42 49 61 50 43 51 46 52 60 53 79 54 44 55 45 56 59 58 80 59
REMARK SMILES IDX 47 60 31 61 32 62 40 63 33 64 34 65 38 66 41 67 35 68 36 69
REMARK SMILES IDX 39 70 37 71 63 72 64 73 72 74 65 75 66 76 70 77 73 78 67 79
REMARK SMILES IDX 68 80 71 81 69 82 48 83 49 84 57 85 50 86 51 87 55 88 58 89
REMARK SMILES IDX 52 90 53 91 56 92 54 93
REMARK H PARENT 12 7 9 19 9 20 9 21 19 27 78 46 46 57
REMARK Flexibility Score: inf
ROOT
ATOM      1  C   UNL     1       4.742 -10.073   2.785  1.00  0.00     0.002 C 
ENDROOT
BRANCH   1   2
ATOM      2  C   UNL     1       4.431  -8.572   2.721  1.00  0.00     0.021 C 
BRANCH   2   3
ATOM      3  C   UNL     1       2.947  -8.222   2.675  1.00  0.00     0.116 C 
BRANCH   3   4
ATOM      4  N   UNL     1       2.254  -8.456   3.922  1.00  0.00    -0.351 N 
ATOM      5  C   UNL     1       1.140  -7.836   4.413  1.00  0.00     0.278 C 
ATOM      6  O   UNL     1       0.601  -8.337   5.407  1.00  0.00    -0.268 OA
ATOM      7  H   UNL     1       2.637  -9.158   4.496  1.00  0.00     0.163 HD
BRANCH   5   8
ATOM      8  C   UNL     1       0.554  -6.547   3.785  1.00  0.00     0.275 C 
BRANCH   8   9
ATOM      9  C   UNL     1      -0.413  -6.718   2.591  1.00  0.00     0.111 C 
BRANCH   9  10
ATOM     10  C   UNL     1      -0.430  -8.034   1.858  1.00  0.00    -0.041 A 
ATOM     11  C   UNL     1      -0.338 -10.559   0.584  1.00  0.00     0.007 A 
ATOM     12  C   UNL     1       0.366  -9.471   0.061  1.00  0.00     0.015 A 
ATOM     13  C   UNL     1      -1.130 -10.352   1.720  1.00  0.00     0.015 A 
ATOM     14  C   UNL     1       0.307  -8.216   0.683  1.00  0.00     0.005 A 
ATOM     15  C   UNL     1      -1.175  -9.107   2.353  1.00  0.00     0.005 A 
BRANCH  11  16
ATOM     16  S   UNL     1      -0.284 -12.229  -0.054  1.00  0.00    -0.130 SA
ATOM     17  C   UNL     1       0.757 -12.097  -1.528  1.00  0.00     0.091 C 
ENDBRANCH  11  16
ENDBRANCH   9  10
ENDBRANCH   8   9
BRANCH   8  18
ATOM     18  N   UNL     1       1.610  -5.533   3.529  1.00  0.00    -0.347 N 
ATOM     19  H   UNL     1       2.240  -5.874   2.804  1.00  0.00     0.345 HD
ATOM     20  H   UNL     1       2.137  -5.367   4.387  1.00  0.00     0.345 HD
ATOM     21  H   UNL     1       1.178  -4.662   3.222  1.00  0.00     0.345 HD
ENDBRANCH   8  18
ENDBRANCH   5   8
ENDBRANCH   3   4
ENDBRANCH   2   3
ENDBRANCH   1   2
BRANCH   1  22
ATOM     22  C   UNL     1       4.077 -10.952   1.718  1.00  0.00     0.002 C 
BRANCH  22  23
ATOM     23  C   UNL     1       4.259 -10.501   0.268  1.00  0.00     0.021 C 
BRANCH  23  24
ATOM     24  C   UNL     1       5.702 -10.350  -0.196  1.00  0.00     0.116 C 
BRANCH  24  25
ATOM     25  N   UNL     1       6.434 -11.606  -0.170  1.00  0.00    -0.352 N 
ATOM     26  C   UNL     1       7.187 -12.198  -1.154  1.00  0.00     0.251 C 
ATOM     27  H   UNL     1       6.383 -12.105   0.677  1.00  0.00     0.163 HD
ATOM     28  O   UNL     1       7.618 -13.338  -1.006  1.00  0.00    -0.269 OA
BRANCH  26  29
ATOM     29  C   UNL     1       7.455 -11.472  -2.414  1.00  0.00     0.039 A 
ATOM     30  C   UNL     1       7.301 -12.145  -3.630  1.00  0.00     0.014 A 
ATOM     31  C   UNL     1       7.846 -10.131  -2.400  1.00  0.00     0.014 A 
ATOM     32  C   UNL     1       7.465 -11.452  -4.832  1.00  0.00     0.010 A 
ATOM     33  C   UNL     1       7.934  -9.424  -3.595  1.00  0.00     0.010 A 
ATOM     34  C   UNL     1       7.741 -10.076  -4.823  1.00  0.00    -0.014 A 
BRANCH  34  35
ATOM     35  C   UNL     1       7.831  -9.288  -6.079  1.00  0.00     0.031 A 
ATOM     36  C   UNL     1       9.123  -8.618  -6.451  1.00  0.00     0.074 A 
ATOM     37  C   UNL     1       6.729  -9.098  -6.830  1.00  0.00     0.049 A 
ATOM     38  N   UNL     1       9.371  -7.774  -7.421  1.00  0.00    -0.248 NA
ATOM     39  C   UNL     1      10.286  -8.913  -5.599  1.00  0.00     0.031 C 
ATOM     40  C   UNL     1       5.409  -9.666  -6.555  1.00  0.00     0.029 A 
ATOM     41  N   UNL     1       6.539  -8.353  -7.968  1.00  0.00    -0.354 N 
ATOM     42  C   UNL     1      10.707  -7.421  -7.281  1.00  0.00     0.074 A 
ATOM     43  C   UNL     1      11.205  -8.104  -6.106  1.00  0.00     0.031 C 
ATOM     44  C   UNL     1       4.549  -9.259  -7.503  1.00  0.00     0.029 A 
ATOM     45  C   UNL     1       5.243  -8.365  -8.425  1.00  0.00     0.049 A 
ATOM     46  H   UNL     1       7.263  -7.857  -8.414  1.00  0.00     0.167 HD
ATOM     47  C   UNL     1      11.455  -6.616  -8.073  1.00  0.00     0.037 A 
ATOM     48  C   UNL     1       4.676  -7.715  -9.459  1.00  0.00     0.037 A 
ATOM     49  C   UNL     1      10.961  -5.962  -9.256  1.00  0.00     0.049 A 
ATOM     50  C   UNL     1       5.525  -6.815 -10.315  1.00  0.00     0.074 A 
ATOM     51  C   UNL     1      11.652  -5.171 -10.157  1.00  0.00     0.029 A 
ATOM     52  N   UNL     1       9.649  -6.024  -9.702  1.00  0.00    -0.354 N 
ATOM     53  N   UNL     1       6.801  -6.532 -10.207  1.00  0.00    -0.248 NA
ATOM     54  C   UNL     1       4.858  -6.146 -11.441  1.00  0.00     0.031 C 
ATOM     55  C   UNL     1      10.749  -4.715 -11.121  1.00  0.00     0.029 A 
ATOM     56  C   UNL     1       9.506  -5.268 -10.854  1.00  0.00     0.049 A 
ATOM     57  H   UNL     1       8.926  -6.529  -9.264  1.00  0.00     0.167 HD
ATOM     58  C   UNL     1       7.096  -5.686 -11.267  1.00  0.00     0.074 A 
ATOM     59  C   UNL     1       5.868  -5.504 -12.012  1.00  0.00     0.031 C 
ATOM     60  C   UNL     1       8.281  -5.115 -11.596  1.00  0.00     0.037 A 
BRANCH  47  61
ATOM     61  C   UNL     1      12.889  -6.396  -7.685  1.00  0.00     0.064 A 
ATOM     62  C   UNL     1      13.843  -7.421  -7.775  1.00  0.00     0.173 A 
ATOM     63  C   UNL     1      13.323  -5.134  -7.253  1.00  0.00     0.173 A 
ATOM     64  F   UNL     1      13.478  -8.650  -8.172  1.00  0.00    -0.203 F 
ATOM     65  C   UNL     1      15.170  -7.199  -7.418  1.00  0.00     0.198 A 
ATOM     66  C   UNL     1      14.658  -4.907  -6.928  1.00  0.00     0.198 A 
ATOM     67  F   UNL     1      12.455  -4.116  -7.155  1.00  0.00    -0.203 F 
ATOM     68  F   UNL     1      16.052  -8.208  -7.463  1.00  0.00    -0.200 F 
ATOM     69  C   UNL     1      15.579  -5.941  -7.003  1.00  0.00     0.200 A 
ATOM     70  F   UNL     1      15.054  -3.686  -6.541  1.00  0.00    -0.200 F 
ATOM     71  F   UNL     1      16.858  -5.727  -6.667  1.00  0.00    -0.200 F 
ENDBRANCH  47  61
BRANCH  48  72
ATOM     72  C   UNL     1       3.230  -7.903  -9.752  1.00  0.00     0.064 A 
ATOM     73  C   UNL     1       2.814  -8.586 -10.903  1.00  0.00     0.173 A 
ATOM     74  C   UNL     1       2.238  -7.403  -8.895  1.00  0.00     0.173 A 
ATOM     75  F   UNL     1       3.724  -9.065 -11.763  1.00  0.00    -0.203 F 
ATOM     76  C   UNL     1       1.461  -8.744 -11.197  1.00  0.00     0.198 A 
ATOM     77  C   UNL     1       0.886  -7.588  -9.175  1.00  0.00     0.198 A 
ATOM     78  F   UNL     1       2.583  -6.747  -7.777  1.00  0.00    -0.203 F 
ATOM     79  F   UNL     1       1.091  -9.361 -12.328  1.00  0.00    -0.200 F 
ATOM     80  C   UNL     1       0.498  -8.250 -10.330  1.00  0.00     0.200 A 
ATOM     81  F   UNL     1      -0.041  -7.122  -8.327  1.00  0.00    -0.200 F 
ATOM     82  F   UNL     1      -0.803  -8.406 -10.611  1.00  0.00    -0.200 F 
ENDBRANCH  48  72
BRANCH  60  83
ATOM     83  C   UNL     1       8.327  -4.283 -12.844  1.00  0.00     0.064 A 
ATOM     84  C   UNL     1       7.736  -3.013 -12.909  1.00  0.00     0.173 A 
ATOM     85  C   UNL     1       9.028  -4.741 -13.970  1.00  0.00     0.173 A 
ATOM     86  F   UNL     1       7.041  -2.537 -11.865  1.00  0.00    -0.203 F 
ATOM     87  C   UNL     1       7.831  -2.239 -14.063  1.00  0.00     0.198 A 
ATOM     88  C   UNL     1       9.147  -3.952 -15.111  1.00  0.00     0.198 A 
ATOM     89  F   UNL     1       9.617  -5.946 -13.956  1.00  0.00    -0.203 F 
ATOM     90  F   UNL     1       7.226  -1.045 -14.118  1.00  0.00    -0.200 F 
ATOM     91  C   UNL     1       8.544  -2.705 -15.158  1.00  0.00     0.200 A 
ATOM     92  F   UNL     1       9.849  -4.397 -16.162  1.00  0.00    -0.200 F 
ATOM     93  F   UNL     1       8.647  -1.952 -16.262  1.00  0.00    -0.200 F 
ENDBRANCH  60  83
ENDBRANCH  34  35
ENDBRANCH  26  29
ENDBRANCH  24  25
ENDBRANCH  23  24
ENDBRANCH  22  23
ENDBRANCH   1  22
TORSDOF 17
