REMARK SMILES N#C/C(=C\c1ccc(-c2cc(C(F)(F)F)ccc2Cl)o1)C(=O)NCCCCCCNC(=O)c1ccc(-c2c3nc(c(-c4c(F)c(F)c(F)c(F)c4F)c4ccc([nH]4)c(-c4c(F)c(F)c(F)c(F)c4F)c4nc(c(-c5c(F)c(F)c(F)c(F)c5F)c5ccc2[nH]5)C=C4)C=C3)cc1
REMARK SMILES IDX 26 1 25 2 24 3 23 4 21 5 22 6 3 8 4 9 2 10 1 11 5 12 6 13
REMARK SMILES IDX 20 14 7 15 8 16 9 17 10 18 18 19 11 20 17 21 19 22 16 23
REMARK SMILES IDX 12 24 13 25 14 26 15 27 27 28 28 29 29 30 30 31 31 32 32 34
REMARK SMILES IDX 33 35 34 36 95 37 35 38 94 39 36 40 37 41 38 42 88 43 39 44
REMARK SMILES IDX 93 45 87 46 89 47 40 48 92 49 86 50 85 51 41 53 73 54 53 55
REMARK SMILES IDX 72 56 54 57 57 58 71 59 90 60 55 61 56 62 70 64 91 65 58 66
REMARK SMILES IDX 42 67 43 68 51 69 44 70 45 71 49 72 52 73 46 74 47 75 50 76
REMARK SMILES IDX 48 77 74 78 75 79 83 80 76 81 77 82 81 83 84 84 78 85 79 86
REMARK SMILES IDX 82 87 80 88 59 89 60 90 68 91 61 92 62 93 66 94 69 95 63 96
REMARK SMILES IDX 64 97 67 98 65 99
REMARK H PARENT 23 7 30 33 89 52 57 63
REMARK Flexibility Score: inf
ROOT
ATOM      1  C   UNL     1       8.775  -0.420  -2.155  1.00  0.00     0.002 C 
ENDROOT
BRANCH   1   2
ATOM      2  C   UNL     1       7.739  -0.944  -1.165  1.00  0.00     0.021 C 
BRANCH   2   3
ATOM      3  C   UNL     1       6.887   0.119  -0.488  1.00  0.00     0.116 C 
BRANCH   3   4
ATOM      4  N   UNL     1       5.814   0.633  -1.324  1.00  0.00    -0.351 N 
ATOM      5  C   UNL     1       4.455   0.673  -1.197  1.00  0.00     0.262 C 
ATOM      6  O   UNL     1       3.820   1.209  -2.106  1.00  0.00    -0.268 OA
ATOM      7  H   UNL     1       6.137   1.040  -2.161  1.00  0.00     0.163 HD
BRANCH   5   8
ATOM      8  C   UNL     1       3.728   0.064  -0.055  1.00  0.00     0.120 C 
ATOM      9  C   UNL     1       4.219  -0.135   1.196  1.00  0.00     0.072 C 
BRANCH   8  10
ATOM     10  C   UNL     1       2.208   0.064  -0.055  1.00  0.00     0.105 C 
ATOM     11  N   UNL     1       0.947   0.064  -0.055  1.00  0.00    -0.192 NA
ENDBRANCH   8  10
BRANCH   9  12
ATOM     12  C   UNL     1       3.493  -0.779   2.260  1.00  0.00     0.129 A 
ATOM     13  C   UNL     1       2.561  -1.816   2.220  1.00  0.00     0.051 A 
ATOM     14  O   UNL     1       3.681  -0.461   3.594  1.00  0.00    -0.457 OA
ATOM     15  C   UNL     1       2.136  -2.085   3.538  1.00  0.00     0.051 A 
ATOM     16  C   UNL     1       2.868  -1.255   4.352  1.00  0.00     0.136 A 
BRANCH  16  17
ATOM     17  C   UNL     1       2.930  -1.080   5.798  1.00  0.00     0.036 A 
ATOM     18  C   UNL     1       2.778   0.209   6.341  1.00  0.00     0.026 A 
ATOM     19  C   UNL     1       3.081  -2.163   6.684  1.00  0.00     0.052 A 
ATOM     20  C   UNL     1       2.758   0.422   7.733  1.00  0.00     0.056 A 
ATOM     21  C   UNL     1       3.071  -1.959   8.068  1.00  0.00     0.022 A 
ATOM     22  Cl  UNL     1       3.315  -3.791   6.140  1.00  0.00    -0.084 Cl
ATOM     23  C   UNL     1       2.907  -0.676   8.589  1.00  0.00     0.014 A 
BRANCH  20  24
ATOM     24  C   UNL     1       2.571   1.817   8.283  1.00  0.00     0.416 C 
ATOM     25  F   UNL     1       3.590   2.651   7.941  1.00  0.00    -0.166 F 
ATOM     26  F   UNL     1       1.431   2.407   7.830  1.00  0.00    -0.166 F 
ATOM     27  F   UNL     1       2.496   1.857   9.643  1.00  0.00    -0.166 F 
ENDBRANCH  20  24
ENDBRANCH  16  17
ENDBRANCH   9  12
ENDBRANCH   5   8
ENDBRANCH   3   4
ENDBRANCH   2   3
ENDBRANCH   1   2
BRANCH   1  28
ATOM     28  C   UNL     1       9.727   0.657  -1.621  1.00  0.00     0.002 C 
BRANCH  28  29
ATOM     29  C   UNL     1      10.418   0.355  -0.286  1.00  0.00     0.021 C 
BRANCH  29  30
ATOM     30  C   UNL     1      11.221  -0.942  -0.235  1.00  0.00     0.116 C 
BRANCH  30  31
ATOM     31  N   UNL     1      12.269  -0.980  -1.236  1.00  0.00    -0.352 N 
ATOM     32  C   UNL     1      13.609  -1.235  -1.105  1.00  0.00     0.251 C 
ATOM     33  H   UNL     1      11.971  -0.794  -2.156  1.00  0.00     0.163 HD
ATOM     34  O   UNL     1      14.359  -1.038  -2.056  1.00  0.00    -0.269 OA
BRANCH  32  35
ATOM     35  C   UNL     1      14.168  -1.735   0.172  1.00  0.00     0.039 A 
ATOM     36  C   UNL     1      15.402  -1.233   0.596  1.00  0.00     0.014 A 
ATOM     37  C   UNL     1      13.529  -2.732   0.916  1.00  0.00     0.014 A 
ATOM     38  C   UNL     1      15.979  -1.704   1.776  1.00  0.00     0.010 A 
ATOM     39  C   UNL     1      14.075  -3.158   2.127  1.00  0.00     0.010 A 
ATOM     40  C   UNL     1      15.312  -2.659   2.561  1.00  0.00    -0.014 A 
BRANCH  40  41
ATOM     41  C   UNL     1      15.916  -3.146   3.827  1.00  0.00     0.031 A 
ATOM     42  C   UNL     1      16.386  -4.568   3.949  1.00  0.00     0.074 A 
ATOM     43  C   UNL     1      16.022  -2.307   4.875  1.00  0.00     0.049 A 
ATOM     44  N   UNL     1      16.942  -5.172   4.970  1.00  0.00    -0.248 NA
ATOM     45  C   UNL     1      16.187  -5.435   2.777  1.00  0.00     0.031 C 
ATOM     46  C   UNL     1      15.553  -0.921   4.897  1.00  0.00     0.029 A 
ATOM     47  N   UNL     1      16.556  -2.498   6.124  1.00  0.00    -0.354 N 
ATOM     48  C   UNL     1      17.157  -6.482   4.564  1.00  0.00     0.074 A 
ATOM     49  C   UNL     1      16.620  -6.604   3.226  1.00  0.00     0.031 C 
ATOM     50  C   UNL     1      15.838  -0.381   6.093  1.00  0.00     0.029 A 
ATOM     51  C   UNL     1      16.490  -1.386   6.926  1.00  0.00     0.049 A 
ATOM     52  H   UNL     1      16.949  -3.352   6.418  1.00  0.00     0.167 HD
ATOM     53  C   UNL     1      17.773  -7.486   5.235  1.00  0.00     0.037 A 
ATOM     54  C   UNL     1      16.913  -1.198   8.191  1.00  0.00     0.037 A 
ATOM     55  C   UNL     1      18.320  -7.360   6.561  1.00  0.00     0.049 A 
ATOM     56  C   UNL     1      17.613  -2.322   8.905  1.00  0.00     0.074 A 
ATOM     57  C   UNL     1      18.986  -8.309   7.316  1.00  0.00     0.029 A 
ATOM     58  N   UNL     1      18.265  -6.206   7.328  1.00  0.00    -0.354 N 
ATOM     59  N   UNL     1      17.863  -3.539   8.487  1.00  0.00    -0.248 NA
ATOM     60  C   UNL     1      18.104  -2.039  10.261  1.00  0.00     0.031 C 
ATOM     61  C   UNL     1      19.310  -7.739   8.552  1.00  0.00     0.029 A 
ATOM     62  C   UNL     1      18.880  -6.421   8.551  1.00  0.00     0.049 A 
ATOM     63  H   UNL     1      17.851  -5.359   7.046  1.00  0.00     0.167 HD
ATOM     64  C   UNL     1      18.558  -4.159   9.516  1.00  0.00     0.074 A 
ATOM     65  C   UNL     1      18.709  -3.177  10.569  1.00  0.00     0.031 C 
ATOM     66  C   UNL     1      19.024  -5.430   9.586  1.00  0.00     0.037 A 
BRANCH  53  67
ATOM     67  C   UNL     1      17.902  -8.808   4.535  1.00  0.00     0.064 A 
ATOM     68  C   UNL     1      18.781  -8.978   3.454  1.00  0.00     0.173 A 
ATOM     69  C   UNL     1      17.173  -9.924   4.970  1.00  0.00     0.173 A 
ATOM     70  F   UNL     1      19.492  -7.938   2.993  1.00  0.00    -0.203 F 
ATOM     71  C   UNL     1      18.906 -10.210   2.818  1.00  0.00     0.198 A 
ATOM     72  C   UNL     1      17.321 -11.162   4.348  1.00  0.00     0.198 A 
ATOM     73  F   UNL     1      16.323  -9.818   6.002  1.00  0.00    -0.203 F 
ATOM     74  F   UNL     1      19.718 -10.336   1.760  1.00  0.00    -0.200 F 
ATOM     75  C   UNL     1      18.181 -11.302   3.270  1.00  0.00     0.200 A 
ATOM     76  F   UNL     1      16.629 -12.220   4.792  1.00  0.00    -0.200 F 
ATOM     77  F   UNL     1      18.308 -12.489   2.660  1.00  0.00    -0.200 F 
ENDBRANCH  53  67
BRANCH  54  78
ATOM     78  C   UNL     1      16.715   0.118   8.850  1.00  0.00     0.064 A 
ATOM     79  C   UNL     1      17.802   0.964   9.113  1.00  0.00     0.173 A 
ATOM     80  C   UNL     1      15.440   0.554   9.235  1.00  0.00     0.173 A 
ATOM     81  F   UNL     1      19.043   0.582   8.779  1.00  0.00    -0.203 F 
ATOM     82  C   UNL     1      17.622   2.186   9.758  1.00  0.00     0.198 A 
ATOM     83  C   UNL     1      15.258   1.788   9.856  1.00  0.00     0.198 A 
ATOM     84  F   UNL     1      14.367  -0.216   8.999  1.00  0.00    -0.203 F 
ATOM     85  F   UNL     1      18.683   2.954  10.039  1.00  0.00    -0.200 F 
ATOM     86  C   UNL     1      16.350   2.599  10.125  1.00  0.00     0.200 A 
ATOM     87  F   UNL     1      14.026   2.189  10.196  1.00  0.00    -0.200 F 
ATOM     88  F   UNL     1      16.178   3.774  10.744  1.00  0.00    -0.200 F 
ENDBRANCH  54  78
BRANCH  66  89
ATOM     89  C   UNL     1      19.762  -5.818  10.833  1.00  0.00     0.064 A 
ATOM     90  C   UNL     1      19.093  -6.009  12.051  1.00  0.00     0.173 A 
ATOM     91  C   UNL     1      21.150  -6.020  10.805  1.00  0.00     0.173 A 
ATOM     92  F   UNL     1      17.768  -5.812  12.132  1.00  0.00    -0.203 F 
ATOM     93  C   UNL     1      19.792  -6.357  13.203  1.00  0.00     0.198 A 
ATOM     94  C   UNL     1      21.842  -6.396  11.952  1.00  0.00     0.198 A 
ATOM     95  F   UNL     1      21.834  -5.856   9.662  1.00  0.00    -0.203 F 
ATOM     96  F   UNL     1      19.141  -6.484  14.367  1.00  0.00    -0.200 F 
ATOM     97  C   UNL     1      21.164  -6.555  13.152  1.00  0.00     0.200 A 
ATOM     98  F   UNL     1      23.166  -6.597  11.899  1.00  0.00    -0.200 F 
ATOM     99  F   UNL     1      21.836  -6.891  14.262  1.00  0.00    -0.200 F 
ENDBRANCH  66  89
ENDBRANCH  40  41
ENDBRANCH  32  35
ENDBRANCH  30  31
ENDBRANCH  29  30
ENDBRANCH  28  29
ENDBRANCH   1  28
TORSDOF 17
