REMARK SMILES CC(C)c1nc(C(=O)NCCCCCCNC(=O)c2ccc(-c3c4nc(c(-c5c(F)c(F)c(F)c(F)c5F)c5ccc([nH]5)c(-c5c(F)c(F)c(F)c(F)c5F)c5nc(c(-c6c(F)c(F)c(F)c(F)c6F)c6ccc3[nH]6)C=C5)C=C4)cc2)nn1-c1ccccc1F
REMARK SMILES IDX 13 1 12 2 11 3 10 4 9 5 7 6 8 7 6 9 4 10 5 11 83 12 82 13
REMARK SMILES IDX 2 14 1 15 3 16 84 17 85 18 89 19 86 20 88 21 90 22 87 23
REMARK SMILES IDX 14 24 15 25 16 26 17 27 18 29 19 30 20 31 81 32 21 33 80 34
REMARK SMILES IDX 22 35 23 36 24 37 74 38 25 39 79 40 73 41 75 42 26 43 78 44
REMARK SMILES IDX 72 45 71 46 27 48 59 49 39 50 58 51 40 52 43 53 57 54 76 55
REMARK SMILES IDX 41 56 42 57 56 59 77 60 44 61 28 62 29 63 37 64 30 65 31 66
REMARK SMILES IDX 35 67 38 68 32 69 33 70 36 71 34 72 60 73 61 74 69 75 62 76
REMARK SMILES IDX 63 77 67 78 70 79 64 80 65 81 68 82 66 83 45 84 46 85 54 86
REMARK SMILES IDX 47 87 48 88 52 89 55 90 49 91 50 92 53 93 51 94
REMARK H PARENT 9 8 16 28 75 47 43 58
REMARK Flexibility Score: inf
ROOT
ATOM      1  C   UNL     1      -8.880   3.381   0.458  1.00  0.00     0.002 C 
ENDROOT
BRANCH   1   2
ATOM      2  C   UNL     1      -8.212   2.885  -0.834  1.00  0.00     0.002 C 
BRANCH   2   3
ATOM      3  C   UNL     1      -6.724   3.199  -1.002  1.00  0.00     0.021 C 
BRANCH   3   4
ATOM      4  C   UNL     1      -5.814   2.734   0.134  1.00  0.00     0.116 C 
BRANCH   4   5
ATOM      5  N   UNL     1      -5.638   1.292   0.161  1.00  0.00    -0.349 N 
ATOM      6  C   UNL     1      -4.472   0.544   0.181  1.00  0.00     0.290 C 
ATOM      7  O   UNL     1      -4.591  -0.686   0.120  1.00  0.00    -0.266 OA
ATOM      8  H   UNL     1      -6.471   0.768   0.166  1.00  0.00     0.163 HD
BRANCH   6   9
ATOM      9  C   UNL     1      -3.151   1.211   0.248  1.00  0.00     0.239 A 
ATOM     10  C   UNL     1      -1.057   1.573  -0.023  1.00  0.00     0.136 A 
ATOM     11  N   UNL     1      -1.977   0.640  -0.210  1.00  0.00    -0.207 NA
ATOM     12  N   UNL     1      -1.710   2.730   0.376  1.00  0.00    -0.214 N 
ATOM     13  N   UNL     1      -2.946   2.412   0.817  1.00  0.00    -0.140 NA
BRANCH  10  14
ATOM     14  C   UNL     1       0.432   1.329   0.104  1.00  0.00     0.051 C 
ATOM     15  C   UNL     1       0.744  -0.172   0.023  1.00  0.00     0.016 C 
ATOM     16  C   UNL     1       1.306   2.058  -0.906  1.00  0.00     0.016 C 
ENDBRANCH  10  14
BRANCH  12  17
ATOM     17  C   UNL     1      -1.345   4.085   0.316  1.00  0.00     0.102 A 
ATOM     18  C   UNL     1      -1.725   4.950   1.350  1.00  0.00     0.031 A 
ATOM     19  C   UNL     1      -0.743   4.604  -0.827  1.00  0.00     0.148 A 
ATOM     20  C   UNL     1      -1.399   6.306   1.272  1.00  0.00     0.002 A 
ATOM     21  C   UNL     1      -0.421   5.955  -0.908  1.00  0.00     0.041 A 
ATOM     22  F   UNL     1      -0.552   3.843  -1.913  1.00  0.00    -0.205 F 
ATOM     23  C   UNL     1      -0.734   6.806   0.151  1.00  0.00     0.003 A 
ENDBRANCH  12  17
ENDBRANCH   6   9
ENDBRANCH   4   5
ENDBRANCH   3   4
ENDBRANCH   2   3
ENDBRANCH   1   2
BRANCH   1  24
ATOM     24  C   UNL     1      -8.685   4.858   0.832  1.00  0.00     0.021 C 
BRANCH  24  25
ATOM     25  C   UNL     1      -9.255   5.847  -0.173  1.00  0.00     0.116 C 
BRANCH  25  26
ATOM     26  N   UNL     1     -10.718   5.815  -0.260  1.00  0.00    -0.352 N 
ATOM     27  C   UNL     1     -11.533   6.551  -1.095  1.00  0.00     0.251 C 
ATOM     28  H   UNL     1     -11.174   5.193   0.352  1.00  0.00     0.163 HD
ATOM     29  O   UNL     1     -12.732   6.708  -0.843  1.00  0.00    -0.269 OA
BRANCH  27  30
ATOM     30  C   UNL     1     -10.951   7.155  -2.301  1.00  0.00     0.039 A 
ATOM     31  C   UNL     1     -11.277   8.447  -2.725  1.00  0.00     0.014 A 
ATOM     32  C   UNL     1     -10.009   6.401  -2.990  1.00  0.00     0.014 A 
ATOM     33  C   UNL     1     -10.579   9.000  -3.797  1.00  0.00     0.010 A 
ATOM     34  C   UNL     1      -9.193   7.013  -3.901  1.00  0.00     0.010 A 
ATOM     35  C   UNL     1      -9.521   8.279  -4.371  1.00  0.00    -0.014 A 
BRANCH  35  36
ATOM     36  C   UNL     1      -8.699   8.841  -5.437  1.00  0.00     0.031 A 
ATOM     37  C   UNL     1      -8.036  10.142  -5.136  1.00  0.00     0.074 A 
ATOM     38  C   UNL     1      -8.356   8.114  -6.525  1.00  0.00     0.049 A 
ATOM     39  N   UNL     1      -8.154  11.264  -5.767  1.00  0.00    -0.248 NA
ATOM     40  C   UNL     1      -7.191  10.226  -3.933  1.00  0.00     0.031 C 
ATOM     41  C   UNL     1      -8.647   6.702  -6.816  1.00  0.00     0.029 A 
ATOM     42  N   UNL     1      -7.552   8.466  -7.562  1.00  0.00    -0.354 N 
ATOM     43  C   UNL     1      -7.282  12.160  -5.146  1.00  0.00     0.074 A 
ATOM     44  C   UNL     1      -6.824  11.509  -3.946  1.00  0.00     0.031 C 
ATOM     45  C   UNL     1      -7.833   6.264  -7.800  1.00  0.00     0.029 A 
ATOM     46  C   UNL     1      -7.111   7.401  -8.334  1.00  0.00     0.049 A 
ATOM     47  H   UNL     1      -7.303   9.400  -7.750  1.00  0.00     0.167 HD
ATOM     48  C   UNL     1      -6.852  13.289  -5.778  1.00  0.00     0.037 A 
ATOM     49  C   UNL     1      -6.191   7.448  -9.326  1.00  0.00     0.037 A 
ATOM     50  C   UNL     1      -7.695  13.609  -6.902  1.00  0.00     0.049 A 
ATOM     51  C   UNL     1      -6.081   8.864  -9.755  1.00  0.00     0.074 A 
ATOM     52  C   UNL     1      -9.033  13.918  -7.051  1.00  0.00     0.029 A 
ATOM     53  N   UNL     1      -7.254  13.282  -8.161  1.00  0.00    -0.354 N 
ATOM     54  N   UNL     1      -7.037   9.517 -10.355  1.00  0.00    -0.248 NA
ATOM     55  C   UNL     1      -5.077   9.687  -9.098  1.00  0.00     0.031 C 
ATOM     56  C   UNL     1      -9.428  13.264  -8.256  1.00  0.00     0.029 A 
ATOM     57  C   UNL     1      -8.294  12.655  -8.797  1.00  0.00     0.049 A 
ATOM     58  H   UNL     1      -6.362  13.464  -8.535  1.00  0.00     0.167 HD
ATOM     59  C   UNL     1      -6.998  10.789  -9.802  1.00  0.00     0.074 A 
ATOM     60  C   UNL     1      -5.718  10.859  -9.101  1.00  0.00     0.031 C 
ATOM     61  C   UNL     1      -8.123  11.559  -9.721  1.00  0.00     0.037 A 
BRANCH  48  62
ATOM     62  C   UNL     1      -5.490  13.918  -5.598  1.00  0.00     0.064 A 
ATOM     63  C   UNL     1      -5.216  15.158  -6.215  1.00  0.00     0.173 A 
ATOM     64  C   UNL     1      -4.363  13.225  -5.107  1.00  0.00     0.173 A 
ATOM     65  F   UNL     1      -6.207  15.901  -6.728  1.00  0.00    -0.203 F 
ATOM     66  C   UNL     1      -3.909  15.618  -6.404  1.00  0.00     0.198 A 
ATOM     67  C   UNL     1      -3.065  13.714  -5.250  1.00  0.00     0.198 A 
ATOM     68  F   UNL     1      -4.455  12.002  -4.574  1.00  0.00    -0.203 F 
ATOM     69  F   UNL     1      -3.693  16.735  -7.112  1.00  0.00    -0.200 F 
ATOM     70  C   UNL     1      -2.834  14.892  -5.929  1.00  0.00     0.200 A 
ATOM     71  F   UNL     1      -2.034  12.987  -4.794  1.00  0.00    -0.200 F 
ATOM     72  F   UNL     1      -1.579  15.296  -6.165  1.00  0.00    -0.200 F 
ENDBRANCH  48  62
BRANCH  49  73
ATOM     73  C   UNL     1      -5.201   6.414  -9.700  1.00  0.00     0.064 A 
ATOM     74  C   UNL     1      -4.562   6.441 -10.948  1.00  0.00     0.173 A 
ATOM     75  C   UNL     1      -4.662   5.539  -8.735  1.00  0.00     0.173 A 
ATOM     76  F   UNL     1      -4.988   7.278 -11.904  1.00  0.00    -0.203 F 
ATOM     77  C   UNL     1      -3.432   5.659 -11.208  1.00  0.00     0.198 A 
ATOM     78  C   UNL     1      -3.538   4.755  -8.998  1.00  0.00     0.198 A 
ATOM     79  F   UNL     1      -5.155   5.501  -7.489  1.00  0.00    -0.203 F 
ATOM     80  F   UNL     1      -2.808   5.758 -12.391  1.00  0.00    -0.200 F 
ATOM     81  C   UNL     1      -2.914   4.825 -10.230  1.00  0.00     0.200 A 
ATOM     82  F   UNL     1      -3.026   3.982  -8.030  1.00  0.00    -0.200 F 
ATOM     83  F   UNL     1      -1.794   4.126 -10.457  1.00  0.00    -0.200 F 
ENDBRANCH  49  73
BRANCH  61  84
ATOM     84  C   UNL     1      -9.350  11.093 -10.456  1.00  0.00     0.064 A 
ATOM     85  C   UNL     1     -10.034   9.899 -10.166  1.00  0.00     0.173 A 
ATOM     86  C   UNL     1      -9.942  11.960 -11.383  1.00  0.00     0.173 A 
ATOM     87  F   UNL     1      -9.596   9.065  -9.217  1.00  0.00    -0.203 F 
ATOM     88  C   UNL     1     -11.227   9.569 -10.809  1.00  0.00     0.198 A 
ATOM     89  C   UNL     1     -11.152  11.646 -11.997  1.00  0.00     0.198 A 
ATOM     90  F   UNL     1      -9.368  13.142 -11.658  1.00  0.00    -0.203 F 
ATOM     91  F   UNL     1     -11.851   8.418 -10.519  1.00  0.00    -0.200 F 
ATOM     92  C   UNL     1     -11.788  10.447 -11.719  1.00  0.00     0.200 A 
ATOM     93  F   UNL     1     -11.717  12.522 -12.839  1.00  0.00    -0.200 F 
ATOM     94  F   UNL     1     -12.956  10.152 -12.307  1.00  0.00    -0.200 F 
ENDBRANCH  61  84
ENDBRANCH  35  36
ENDBRANCH  27  30
ENDBRANCH  25  26
ENDBRANCH  24  25
ENDBRANCH   1  24
TORSDOF 15
