REMARK SMILES N#CCc1nc(-c2ccccc2)c(CC(=O)NCCCCCCNC(=O)c2ccc(-c3c4nc(c(-c5c(F)c(F)c(F)c(F)c5F)c5ccc([nH]5)c(-c5c(F)c(F)c(F)c(F)c5F)c5nc(c(-c6c(F)c(F)c(F)c(F)c6F)c6ccc3[nH]6)C=C5)C=C4)cc2)s1
REMARK SMILES IDX 20 1 19 2 18 3 17 4 15 5 16 6 14 8 13 9 4 10 5 11 90 12 6 13
REMARK SMILES IDX 3 14 2 15 1 16 7 17 8 18 12 19 9 20 11 21 10 22 21 23 22 24
REMARK SMILES IDX 23 25 24 26 25 27 26 29 27 30 28 31 89 32 29 33 88 34 30 35
REMARK SMILES IDX 31 36 32 37 82 38 33 39 87 40 81 41 83 42 34 43 86 44 80 45
REMARK SMILES IDX 79 46 35 48 67 49 47 50 66 51 48 52 51 53 65 54 84 55 49 56
REMARK SMILES IDX 50 57 64 59 85 60 52 61 36 62 37 63 45 64 38 65 39 66 43 67
REMARK SMILES IDX 46 68 40 69 41 70 44 71 42 72 68 73 69 74 77 75 70 76 71 77
REMARK SMILES IDX 75 78 78 79 72 80 73 81 76 82 74 83 53 84 54 85 62 86 55 87
REMARK SMILES IDX 56 88 60 89 63 90 57 91 58 92 61 93 59 94
REMARK H PARENT 17 7 24 28 83 47 51 58
REMARK Flexibility Score: inf
ROOT
ATOM      1  C   UNL     1       0.471   0.187  -5.462  1.00  0.00     0.002 C 
ENDROOT
BRANCH   1   2
ATOM      2  C   UNL     1       1.685  -0.579  -4.920  1.00  0.00     0.021 C 
BRANCH   2   3
ATOM      3  C   UNL     1       2.789  -0.786  -5.958  1.00  0.00     0.116 C 
BRANCH   3   4
ATOM      4  N   UNL     1       3.526   0.441  -6.188  1.00  0.00    -0.356 N 
ATOM      5  C   UNL     1       4.767   0.793  -5.742  1.00  0.00     0.225 C 
ATOM      6  O   UNL     1       5.172   1.933  -5.981  1.00  0.00    -0.275 OA
ATOM      7  H   UNL     1       3.068   1.113  -6.743  1.00  0.00     0.163 HD
BRANCH   5   8
ATOM      8  C   UNL     1       5.649  -0.224  -5.036  1.00  0.00     0.149 C 
BRANCH   8   9
ATOM      9  C   UNL     1       5.153  -0.570  -3.662  1.00  0.00     0.042 A 
ATOM     10  C   UNL     1       4.270  -0.497  -1.396  1.00  0.00     0.108 A 
ATOM     11  N   UNL     1       4.295  -1.741  -1.825  1.00  0.00    -0.240 NA
ATOM     12  S   UNL     1       4.910   0.664  -2.486  1.00  0.00    -0.121 S 
ATOM     13  C   UNL     1       4.827  -1.798  -3.102  1.00  0.00     0.085 A 
BRANCH  10  14
ATOM     14  C   UNL     1       3.762  -0.079  -0.059  1.00  0.00     0.187 C 
BRANCH  14  15
ATOM     15  C   UNL     1       2.242  -0.079  -0.059  1.00  0.00     0.069 C 
ATOM     16  N   UNL     1       0.981  -0.079  -0.059  1.00  0.00    -0.198 NA
ENDBRANCH  14  15
ENDBRANCH  10  14
BRANCH  13  17
ATOM     17  C   UNL     1       4.899  -3.072  -3.807  1.00  0.00     0.001 A 
ATOM     18  C   UNL     1       6.072  -3.490  -4.448  1.00  0.00     0.010 A 
ATOM     19  C   UNL     1       3.754  -3.876  -3.884  1.00  0.00     0.010 A 
ATOM     20  C   UNL     1       6.080  -4.662  -5.208  1.00  0.00     0.001 A 
ATOM     21  C   UNL     1       3.763  -5.047  -4.645  1.00  0.00     0.001 A 
ATOM     22  C   UNL     1       4.922  -5.432  -5.316  1.00  0.00     0.000 A 
ENDBRANCH  13  17
ENDBRANCH   8   9
ENDBRANCH   5   8
ENDBRANCH   3   4
ENDBRANCH   2   3
ENDBRANCH   1   2
BRANCH   1  23
ATOM     23  C   UNL     1      -0.272  -0.509  -6.609  1.00  0.00     0.002 C 
BRANCH  23  24
ATOM     24  C   UNL     1      -0.765  -1.926  -6.301  1.00  0.00     0.021 C 
BRANCH  24  25
ATOM     25  C   UNL     1      -1.740  -2.025  -5.131  1.00  0.00     0.116 C 
BRANCH  25  26
ATOM     26  N   UNL     1      -2.970  -1.293  -5.386  1.00  0.00    -0.352 N 
ATOM     27  C   UNL     1      -4.273  -1.700  -5.280  1.00  0.00     0.251 C 
ATOM     28  H   UNL     1      -2.848  -0.362  -5.680  1.00  0.00     0.163 HD
ATOM     29  O   UNL     1      -5.172  -0.989  -5.729  1.00  0.00    -0.269 OA
BRANCH  27  30
ATOM     30  C   UNL     1      -4.617  -2.989  -4.641  1.00  0.00     0.039 A 
ATOM     31  C   UNL     1      -5.650  -3.753  -5.194  1.00  0.00     0.014 A 
ATOM     32  C   UNL     1      -3.983  -3.416  -3.470  1.00  0.00     0.014 A 
ATOM     33  C   UNL     1      -6.030  -4.953  -4.589  1.00  0.00     0.010 A 
ATOM     34  C   UNL     1      -4.317  -4.646  -2.905  1.00  0.00     0.010 A 
ATOM     35  C   UNL     1      -5.359  -5.413  -3.445  1.00  0.00    -0.014 A 
BRANCH  35  36
ATOM     36  C   UNL     1      -5.779  -6.670  -2.777  1.00  0.00     0.031 A 
ATOM     37  C   UNL     1      -6.411  -6.625  -1.414  1.00  0.00     0.074 A 
ATOM     38  C   UNL     1      -5.569  -7.853  -3.384  1.00  0.00     0.049 A 
ATOM     39  N   UNL     1      -6.852  -7.609  -0.671  1.00  0.00    -0.248 NA
ATOM     40  C   UNL     1      -6.543  -5.299  -0.793  1.00  0.00     0.031 C 
ATOM     41  C   UNL     1      -4.927  -8.031  -4.686  1.00  0.00     0.029 A 
ATOM     42  N   UNL     1      -5.877  -9.128  -2.985  1.00  0.00    -0.354 N 
ATOM     43  C   UNL     1      -7.296  -7.023   0.506  1.00  0.00     0.074 A 
ATOM     44  C   UNL     1      -7.024  -5.606   0.402  1.00  0.00     0.031 C 
ATOM     45  C   UNL     1      -4.922  -9.338  -4.996  1.00  0.00     0.029 A 
ATOM     46  C   UNL     1      -5.540 -10.088  -3.905  1.00  0.00     0.049 A 
ATOM     47  H   UNL     1      -6.301  -9.335  -2.120  1.00  0.00     0.167 HD
ATOM     48  C   UNL     1      -7.900  -7.608   1.569  1.00  0.00     0.037 A 
ATOM     49  C   UNL     1      -5.724 -11.421  -3.878  1.00  0.00     0.037 A 
ATOM     50  C   UNL     1      -8.195  -9.013   1.661  1.00  0.00     0.049 A 
ATOM     51  C   UNL     1      -6.414 -12.046  -2.698  1.00  0.00     0.074 A 
ATOM     52  C   UNL     1      -8.848  -9.697   2.672  1.00  0.00     0.029 A 
ATOM     53  N   UNL     1      -7.852  -9.953   0.699  1.00  0.00    -0.354 N 
ATOM     54  N   UNL     1      -6.890 -11.476  -1.619  1.00  0.00    -0.248 NA
ATOM     55  C   UNL     1      -6.603 -13.503  -2.741  1.00  0.00     0.031 C 
ATOM     56  C   UNL     1      -8.872 -11.056   2.335  1.00  0.00     0.029 A 
ATOM     57  C   UNL     1      -8.270 -11.213   1.097  1.00  0.00     0.049 A 
ATOM     58  H   UNL     1      -7.381  -9.753  -0.142  1.00  0.00     0.167 HD
ATOM     59  C   UNL     1      -7.465 -12.493  -0.870  1.00  0.00     0.074 A 
ATOM     60  C   UNL     1      -7.282 -13.718  -1.623  1.00  0.00     0.031 C 
ATOM     61  C   UNL     1      -8.092 -12.419   0.330  1.00  0.00     0.037 A 
BRANCH  48  62
ATOM     62  C   UNL     1      -8.276  -6.716   2.717  1.00  0.00     0.064 A 
ATOM     63  C   UNL     1      -9.312  -5.774   2.607  1.00  0.00     0.173 A 
ATOM     64  C   UNL     1      -7.591  -6.796   3.938  1.00  0.00     0.173 A 
ATOM     65  F   UNL     1      -9.990  -5.649   1.456  1.00  0.00    -0.203 F 
ATOM     66  C   UNL     1      -9.618  -4.919   3.662  1.00  0.00     0.198 A 
ATOM     67  C   UNL     1      -7.920  -5.960   5.001  1.00  0.00     0.198 A 
ATOM     68  F   UNL     1      -6.597  -7.683   4.099  1.00  0.00    -0.203 F 
ATOM     69  F   UNL     1     -10.569  -3.986   3.511  1.00  0.00    -0.200 F 
ATOM     70  C   UNL     1      -8.925  -5.014   4.859  1.00  0.00     0.200 A 
ATOM     71  F   UNL     1      -7.257  -6.060   6.161  1.00  0.00    -0.200 F 
ATOM     72  F   UNL     1      -9.218  -4.187   5.872  1.00  0.00    -0.200 F 
ENDBRANCH  48  62
BRANCH  49  73
ATOM     73  C   UNL     1      -5.313 -12.242  -5.044  1.00  0.00     0.064 A 
ATOM     74  C   UNL     1      -6.274 -12.772  -5.916  1.00  0.00     0.173 A 
ATOM     75  C   UNL     1      -3.963 -12.494  -5.324  1.00  0.00     0.173 A 
ATOM     76  F   UNL     1      -7.578 -12.571  -5.675  1.00  0.00    -0.203 F 
ATOM     77  C   UNL     1      -5.901 -13.534  -7.020  1.00  0.00     0.198 A 
ATOM     78  C   UNL     1      -3.590 -13.239  -6.442  1.00  0.00     0.198 A 
ATOM     79  F   UNL     1      -3.007 -12.003  -4.522  1.00  0.00    -0.203 F 
ATOM     80  F   UNL     1      -6.841 -14.054  -7.821  1.00  0.00    -0.200 F 
ATOM     81  C   UNL     1      -4.559 -13.761  -7.286  1.00  0.00     0.200 A 
ATOM     82  F   UNL     1      -2.292 -13.447  -6.703  1.00  0.00    -0.200 F 
ATOM     83  F   UNL     1      -4.199 -14.487  -8.353  1.00  0.00    -0.200 F 
ENDBRANCH  49  73
BRANCH  61  84
ATOM     84  C   UNL     1      -8.666 -13.690   0.881  1.00  0.00     0.064 A 
ATOM     85  C   UNL     1      -7.850 -14.701   1.407  1.00  0.00     0.173 A 
ATOM     86  C   UNL     1     -10.056 -13.886   0.904  1.00  0.00     0.173 A 
ATOM     87  F   UNL     1      -6.515 -14.567   1.391  1.00  0.00    -0.203 F 
ATOM     88  C   UNL     1      -8.402 -15.875   1.911  1.00  0.00     0.198 A 
ATOM     89  C   UNL     1     -10.606 -15.050   1.434  1.00  0.00     0.198 A 
ATOM     90  F   UNL     1     -10.880 -12.946   0.417  1.00  0.00    -0.203 F 
ATOM     91  F   UNL     1      -7.601 -16.850   2.365  1.00  0.00    -0.200 F 
ATOM     92  C   UNL     1      -9.779 -16.046   1.930  1.00  0.00     0.200 A 
ATOM     93  F   UNL     1     -11.936 -15.209   1.459  1.00  0.00    -0.200 F 
ATOM     94  F   UNL     1     -10.309 -17.177   2.417  1.00  0.00    -0.200 F 
ENDBRANCH  61  84
ENDBRANCH  35  36
ENDBRANCH  27  30
ENDBRANCH  25  26
ENDBRANCH  24  25
ENDBRANCH  23  24
ENDBRANCH   1  23
TORSDOF 17
