REMARK SMILES C[C@@H](C(=O)NCCCCCCNC(=O)c1ccc(-c2c3nc(c(-c4c(F)c(F)c(F)c(F)c4F)c4ccc([nH]4)c(-c4c(F)c(F)c(F)c(F)c4F)c4nc(c(-c5c(F)c(F)c(F)c(F)c5F)c5ccc2[nH]5)C=C4)C=C3)cc1)c1ccc(C[C@H]2CCC[C@@H]2O)cc1Br
REMARK SMILES IDX 7 1 6 2 5 3 3 4 4 5 2 7 1 8 78 9 79 10 90 11 80 12 89 13
REMARK SMILES IDX 91 14 81 15 82 16 83 17 84 18 87 19 85 20 86 21 88 22 8 24
REMARK SMILES IDX 9 25 10 26 11 27 12 28 13 29 14 31 15 32 16 33 77 34 17 35
REMARK SMILES IDX 76 36 18 37 19 38 20 39 70 40 21 41 75 42 69 43 71 44 22 45
REMARK SMILES IDX 74 46 68 47 67 48 23 50 55 51 35 52 54 53 36 54 39 55 53 56
REMARK SMILES IDX 72 57 37 58 38 59 52 61 73 62 40 63 24 64 25 65 33 66 26 67
REMARK SMILES IDX 27 68 31 69 34 70 28 71 29 72 32 73 30 74 56 75 57 76 65 77
REMARK SMILES IDX 58 78 59 79 63 80 66 81 60 82 61 83 64 84 62 85 41 86 42 87
REMARK SMILES IDX 50 88 43 89 44 90 48 91 51 92 45 93 46 94 49 95 47 96
REMARK H PARENT 5 6 88 23 12 30 71 49 39 60
REMARK Flexibility Score: inf
ROOT
ATOM      1  C   UNL     1       4.277  -1.165   1.108  1.00  0.00     0.021 C 
ENDROOT
BRANCH   1   2
ATOM      2  C   UNL     1       3.373  -2.029   0.221  1.00  0.00     0.116 C 
BRANCH   2   3
ATOM      3  N   UNL     1       2.232  -2.484   0.988  1.00  0.00    -0.356 N 
ATOM      4  C   UNL     1       0.966  -1.969   1.025  1.00  0.00     0.227 C 
ATOM      5  O   UNL     1       0.284  -2.208   2.023  1.00  0.00    -0.274 OA
ATOM      6  H   UNL     1       2.388  -3.270   1.560  1.00  0.00     0.163 HD
BRANCH   4   7
ATOM      7  C   UNL     1       0.455  -1.141  -0.169  1.00  0.00     0.106 C 
ATOM      8  C   UNL     1       0.966   0.297   0.036  1.00  0.00     0.023 C 
BRANCH   7   9
ATOM      9  C   UNL     1      -1.068  -1.238  -0.340  1.00  0.00    -0.022 A 
ATOM     10  C   UNL     1      -1.839  -0.074  -0.511  1.00  0.00     0.006 A 
ATOM     11  C   UNL     1      -1.769  -2.461  -0.321  1.00  0.00     0.022 A 
ATOM     12  C   UNL     1      -3.232  -0.107  -0.497  1.00  0.00     0.004 A 
ATOM     13  C   UNL     1      -3.170  -2.484  -0.232  1.00  0.00     0.019 A 
ATOM     14  Br  UNL     1      -0.909  -4.155  -0.461  1.00  0.00    -0.051 Br
ATOM     15  C   UNL     1      -3.910  -1.297  -0.251  1.00  0.00    -0.047 A 
BRANCH  15  16
ATOM     16  C   UNL     1      -5.394  -1.298   0.018  1.00  0.00     0.041 C 
BRANCH  16  17
ATOM     17  C   UNL     1      -5.826  -0.755   1.397  1.00  0.00     0.022 C 
ATOM     18  C   UNL     1      -5.215  -1.469   2.616  1.00  0.00     0.007 C 
ATOM     19  C   UNL     1      -5.565   0.733   1.661  1.00  0.00     0.117 C 
ATOM     20  C   UNL     1      -4.982  -0.386   3.675  1.00  0.00     0.003 C 
ATOM     21  C   UNL     1      -5.718   0.844   3.169  1.00  0.00     0.032 C 
BRANCH  19  22
ATOM     22  O   UNL     1      -6.500   1.565   0.999  1.00  0.00    -0.393 OA
ATOM     23  H   UNL     1      -7.398   1.331   1.281  1.00  0.00     0.210 HD
ENDBRANCH  19  22
ENDBRANCH  16  17
ENDBRANCH  15  16
ENDBRANCH   7   9
ENDBRANCH   4   7
ENDBRANCH   2   3
ENDBRANCH   1   2
BRANCH   1  24
ATOM     24  C   UNL     1       5.004  -1.956   2.204  1.00  0.00     0.002 C 
BRANCH  24  25
ATOM     25  C   UNL     1       5.959  -3.037   1.690  1.00  0.00     0.002 C 
BRANCH  25  26
ATOM     26  C   UNL     1       7.011  -2.543   0.696  1.00  0.00     0.021 C 
BRANCH  26  27
ATOM     27  C   UNL     1       7.917  -1.444   1.237  1.00  0.00     0.116 C 
BRANCH  27  28
ATOM     28  N   UNL     1       8.781  -1.923   2.305  1.00  0.00    -0.352 N 
ATOM     29  C   UNL     1      10.143  -1.790   2.425  1.00  0.00     0.251 C 
ATOM     30  H   UNL     1       8.332  -2.406   3.035  1.00  0.00     0.163 HD
ATOM     31  O   UNL     1      10.764  -2.401   3.288  1.00  0.00    -0.269 OA
BRANCH  29  32
ATOM     32  C   UNL     1      10.858  -0.909   1.482  1.00  0.00     0.039 A 
ATOM     33  C   UNL     1      11.976  -1.398   0.802  1.00  0.00     0.014 A 
ATOM     34  C   UNL     1      10.398   0.391   1.255  1.00  0.00     0.014 A 
ATOM     35  C   UNL     1      12.602  -0.600  -0.158  1.00  0.00     0.010 A 
ATOM     36  C   UNL     1      10.982   1.159   0.256  1.00  0.00     0.010 A 
ATOM     37  C   UNL     1      12.090   0.672  -0.458  1.00  0.00    -0.014 A 
BRANCH  37  38
ATOM     38  C   UNL     1      12.696   1.540  -1.496  1.00  0.00     0.031 A 
ATOM     39  C   UNL     1      13.309   2.849  -1.094  1.00  0.00     0.074 A 
ATOM     40  C   UNL     1      12.585   1.212  -2.796  1.00  0.00     0.049 A 
ATOM     41  N   UNL     1      13.713   3.843  -1.842  1.00  0.00    -0.248 NA
ATOM     42  C   UNL     1      13.446   3.087   0.351  1.00  0.00     0.031 C 
ATOM     43  C   UNL     1      11.977  -0.014  -3.311  1.00  0.00     0.029 A 
ATOM     44  N   UNL     1      12.950   1.905  -3.924  1.00  0.00    -0.354 N 
ATOM     45  C   UNL     1      14.115   4.836  -0.960  1.00  0.00     0.074 A 
ATOM     46  C   UNL     1      13.871   4.341   0.377  1.00  0.00     0.031 C 
ATOM     47  C   UNL     1      12.002   0.015  -4.653  1.00  0.00     0.029 A 
ATOM     48  C   UNL     1      12.589   1.279  -5.091  1.00  0.00     0.049 A 
ATOM     49  H   UNL     1      13.424   2.767  -3.898  1.00  0.00     0.167 HD
ATOM     50  C   UNL     1      14.651   6.047  -1.243  1.00  0.00     0.037 A 
ATOM     51  C   UNL     1      12.696   1.689  -6.370  1.00  0.00     0.037 A 
ATOM     52  C   UNL     1      14.925   6.515  -2.575  1.00  0.00     0.049 A 
ATOM     53  C   UNL     1      13.313   3.028  -6.665  1.00  0.00     0.074 A 
ATOM     54  C   UNL     1      15.538   7.691  -2.968  1.00  0.00     0.029 A 
ATOM     55  N   UNL     1      14.601   5.824  -3.734  1.00  0.00    -0.354 N 
ATOM     56  N   UNL     1      13.745   3.939  -5.827  1.00  0.00    -0.248 NA
ATOM     57  C   UNL     1      13.463   3.397  -8.079  1.00  0.00     0.031 C 
ATOM     58  C   UNL     1      15.547   7.731  -4.367  1.00  0.00     0.029 A 
ATOM     59  C   UNL     1      14.983   6.558  -4.844  1.00  0.00     0.049 A 
ATOM     60  H   UNL     1      14.163   4.942  -3.763  1.00  0.00     0.167 HD
ATOM     61  C   UNL     1      14.243   4.973  -6.607  1.00  0.00     0.074 A 
ATOM     62  C   UNL     1      14.059   4.578  -7.989  1.00  0.00     0.031 C 
ATOM     63  C   UNL     1      14.805   6.141  -6.213  1.00  0.00     0.037 A 
BRANCH  50  64
ATOM     64  C   UNL     1      14.959   6.951  -0.085  1.00  0.00     0.064 A 
ATOM     65  C   UNL     1      15.989   6.664   0.824  1.00  0.00     0.173 A 
ATOM     66  C   UNL     1      14.212   8.121   0.119  1.00  0.00     0.173 A 
ATOM     67  F   UNL     1      16.724   5.551   0.681  1.00  0.00    -0.203 F 
ATOM     68  C   UNL     1      16.229   7.490   1.919  1.00  0.00     0.198 A 
ATOM     69  C   UNL     1      14.477   8.963   1.196  1.00  0.00     0.198 A 
ATOM     70  F   UNL     1      13.221   8.447  -0.724  1.00  0.00    -0.203 F 
ATOM     71  F   UNL     1      17.174   7.160   2.810  1.00  0.00    -0.200 F 
ATOM     72  C   UNL     1      15.476   8.640   2.101  1.00  0.00     0.200 A 
ATOM     73  F   UNL     1      13.757  10.080   1.364  1.00  0.00    -0.200 F 
ATOM     74  F   UNL     1      15.707   9.433   3.157  1.00  0.00    -0.200 F 
ENDBRANCH  50  64
BRANCH  51  75
ATOM     75  C   UNL     1      12.214   0.805  -7.460  1.00  0.00     0.064 A 
ATOM     76  C   UNL     1      13.118   0.122  -8.284  1.00  0.00     0.173 A 
ATOM     77  C   UNL     1      10.844   0.588  -7.670  1.00  0.00     0.173 A 
ATOM     78  F   UNL     1      14.436   0.312  -8.132  1.00  0.00    -0.203 F 
ATOM     79  C   UNL     1      12.670  -0.743  -9.281  1.00  0.00     0.198 A 
ATOM     80  C   UNL     1      10.398  -0.294  -8.652  1.00  0.00     0.198 A 
ATOM     81  F   UNL     1       9.939   1.212  -6.902  1.00  0.00    -0.203 F 
ATOM     82  F   UNL     1      13.555  -1.366 -10.071  1.00  0.00    -0.200 F 
ATOM     83  C   UNL     1      11.311  -0.957  -9.458  1.00  0.00     0.200 A 
ATOM     84  F   UNL     1       9.085  -0.511  -8.809  1.00  0.00    -0.200 F 
ATOM     85  F   UNL     1      10.882  -1.801 -10.406  1.00  0.00    -0.200 F 
ENDBRANCH  51  75
BRANCH  63  86
ATOM     86  C   UNL     1      15.306   7.067  -7.280  1.00  0.00     0.064 A 
ATOM     87  C   UNL     1      14.431   7.849  -8.046  1.00  0.00     0.173 A 
ATOM     88  C   UNL     1      16.686   7.237  -7.476  1.00  0.00     0.173 A 
ATOM     89  F   UNL     1      13.104   7.711  -7.905  1.00  0.00    -0.203 F 
ATOM     90  C   UNL     1      14.919   8.765  -8.975  1.00  0.00     0.198 A 
ATOM     91  C   UNL     1      17.170   8.170  -8.387  1.00  0.00     0.198 A 
ATOM     92  F   UNL     1      17.563   6.515  -6.762  1.00  0.00    -0.203 F 
ATOM     93  F   UNL     1      14.065   9.486  -9.714  1.00  0.00    -0.200 F 
ATOM     94  C   UNL     1      16.287   8.932  -9.136  1.00  0.00     0.200 A 
ATOM     95  F   UNL     1      18.492   8.340  -8.532  1.00  0.00    -0.200 F 
ATOM     96  F   UNL     1      16.754   9.829 -10.016  1.00  0.00    -0.200 F 
ENDBRANCH  63  86
ENDBRANCH  37  38
ENDBRANCH  29  32
ENDBRANCH  27  28
ENDBRANCH  26  27
ENDBRANCH  25  26
ENDBRANCH  24  25
ENDBRANCH   1  24
TORSDOF 17
