REMARK SMILES N#Cc1cc2c(nc1N(CC(=O)NCCCCCCNC(=O)c1ccc(-c3c4nc(c(-c5c(F)c(F)c(F)c(F)c5F)c5ccc([nH]5)c(-c5c(F)c(F)c(F)c(F)c5F)c5nc(c(-c6c(F)c(F)c(F)c(F)c6F)c6ccc3[nH]6)C=C5)C=C4)cc1)CC(F)(F)F)CCC2
REMARK SMILES IDX 16 1 15 2 14 3 13 4 11 5 12 6 10 8 9 9 8 10 3 11 4 12 5 13
REMARK SMILES IDX 7 14 6 15 93 16 91 17 92 18 2 19 1 20 86 21 87 22 88 23
REMARK SMILES IDX 89 24 90 25 17 26 18 27 19 28 20 29 21 30 22 32 23 33 24 34
REMARK SMILES IDX 85 35 25 36 84 37 26 38 27 39 28 40 78 41 29 42 83 43 77 44
REMARK SMILES IDX 79 45 30 46 82 47 76 48 75 49 31 51 63 52 43 53 62 54 44 55
REMARK SMILES IDX 47 56 61 57 80 58 45 59 46 60 60 62 81 63 48 64 32 65 33 66
REMARK SMILES IDX 41 67 34 68 35 69 39 70 42 71 36 72 37 73 40 74 38 75 64 76
REMARK SMILES IDX 65 77 73 78 66 79 67 80 71 81 74 82 68 83 69 84 72 85 70 86
REMARK SMILES IDX 49 87 50 88 58 89 51 90 52 91 56 92 59 93 53 94 54 95 57 96
REMARK SMILES IDX 55 97
REMARK H PARENT 13 7 20 31 79 50 47 61
REMARK Flexibility Score: inf
ROOT
ATOM      1  C   UNL     1       4.005  -2.678   4.891  1.00  0.00     0.002 C 
ENDROOT
BRANCH   1   2
ATOM      2  C   UNL     1       4.365  -2.068   3.532  1.00  0.00     0.021 C 
BRANCH   2   3
ATOM      3  C   UNL     1       5.332  -2.926   2.721  1.00  0.00     0.116 C 
BRANCH   3   4
ATOM      4  N   UNL     1       4.690  -4.135   2.247  1.00  0.00    -0.355 N 
ATOM      5  C   UNL     1       4.263  -4.429   0.985  1.00  0.00     0.239 C 
ATOM      6  O   UNL     1       3.634  -5.475   0.804  1.00  0.00    -0.273 OA
ATOM      7  H   UNL     1       4.543  -4.835   2.923  1.00  0.00     0.163 HD
BRANCH   5   8
ATOM      8  C   UNL     1       4.569  -3.477  -0.178  1.00  0.00     0.218 C 
BRANCH   8   9
ATOM      9  N   UNL     1       3.724  -2.251  -0.168  1.00  0.00    -0.337 N 
BRANCH   9  10
ATOM     10  C   UNL     1       4.363  -1.020  -0.232  1.00  0.00     0.147 A 
ATOM     11  C   UNL     1       3.756   0.254  -0.335  1.00  0.00     0.095 A 
ATOM     12  C   UNL     1       4.532   1.432  -0.242  1.00  0.00     0.029 A 
ATOM     13  C   UNL     1       5.895   1.319  -0.120  1.00  0.00    -0.025 A 
ATOM     14  N   UNL     1       5.724  -1.077  -0.152  1.00  0.00    -0.234 NA
ATOM     15  C   UNL     1       6.441   0.058  -0.110  1.00  0.00     0.046 A 
ATOM     16  C   UNL     1       6.941   2.369   0.037  1.00  0.00     0.038 C 
ATOM     17  C   UNL     1       7.938   0.117   0.015  1.00  0.00     0.057 C 
ATOM     18  C   UNL     1       8.203   1.584  -0.355  1.00  0.00     0.011 C 
BRANCH  11  19
ATOM     19  C   UNL     1       2.363   0.468  -0.581  1.00  0.00     0.103 C 
ATOM     20  N   UNL     1       1.241   0.658  -0.798  1.00  0.00    -0.192 NA
ENDBRANCH  11  19
ENDBRANCH   9  10
BRANCH   9  21
ATOM     21  C   UNL     1       2.253  -2.498  -0.213  1.00  0.00     0.234 C 
BRANCH  21  22
ATOM     22  C   UNL     1       1.461  -2.245   1.085  1.00  0.00     0.405 C 
ATOM     23  F   UNL     1       1.756  -1.053   1.651  1.00  0.00    -0.169 F 
ATOM     24  F   UNL     1       0.130  -2.257   0.841  1.00  0.00    -0.169 F 
ATOM     25  F   UNL     1       1.700  -3.200   2.013  1.00  0.00    -0.169 F 
ENDBRANCH  21  22
ENDBRANCH   9  21
ENDBRANCH   8   9
ENDBRANCH   5   8
ENDBRANCH   3   4
ENDBRANCH   2   3
ENDBRANCH   1   2
BRANCH   1  26
ATOM     26  C   UNL     1       5.194  -2.814   5.848  1.00  0.00     0.002 C 
BRANCH  26  27
ATOM     27  C   UNL     1       5.957  -1.511   6.092  1.00  0.00     0.021 C 
BRANCH  27  28
ATOM     28  C   UNL     1       5.087  -0.380   6.627  1.00  0.00     0.116 C 
BRANCH  28  29
ATOM     29  N   UNL     1       4.566  -0.688   7.950  1.00  0.00    -0.352 N 
ATOM     30  C   UNL     1       4.796  -0.037   9.135  1.00  0.00     0.251 C 
ATOM     31  H   UNL     1       3.969  -1.468   8.002  1.00  0.00     0.163 HD
ATOM     32  O   UNL     1       4.491  -0.552  10.205  1.00  0.00    -0.269 OA
BRANCH  30  33
ATOM     33  C   UNL     1       5.434   1.293   9.109  1.00  0.00     0.039 A 
ATOM     34  C   UNL     1       6.492   1.556   9.980  1.00  0.00     0.014 A 
ATOM     35  C   UNL     1       4.991   2.270   8.213  1.00  0.00     0.014 A 
ATOM     36  C   UNL     1       7.141   2.788   9.916  1.00  0.00     0.010 A 
ATOM     37  C   UNL     1       5.691   3.465   8.094  1.00  0.00     0.010 A 
ATOM     38  C   UNL     1       6.765   3.740   8.953  1.00  0.00    -0.014 A 
BRANCH  38  39
ATOM     39  C   UNL     1       7.468   5.042   8.853  1.00  0.00     0.031 A 
ATOM     40  C   UNL     1       6.731   6.316   9.153  1.00  0.00     0.074 A 
ATOM     41  C   UNL     1       8.757   5.076   8.465  1.00  0.00     0.049 A 
ATOM     42  N   UNL     1       7.160   7.551   9.097  1.00  0.00    -0.248 NA
ATOM     43  C   UNL     1       5.319   6.189   9.550  1.00  0.00     0.031 C 
ATOM     44  C   UNL     1       9.566   3.907   8.118  1.00  0.00     0.029 A 
ATOM     45  N   UNL     1       9.616   6.134   8.299  1.00  0.00    -0.354 N 
ATOM     46  C   UNL     1       6.075   8.341   9.452  1.00  0.00     0.074 A 
ATOM     47  C   UNL     1       4.950   7.457   9.655  1.00  0.00     0.031 C 
ATOM     48  C   UNL     1      10.811   4.307   7.817  1.00  0.00     0.029 A 
ATOM     49  C   UNL     1      10.879   5.763   7.907  1.00  0.00     0.049 A 
ATOM     50  H   UNL     1       9.351   7.071   8.448  1.00  0.00     0.167 HD
ATOM     51  C   UNL     1       6.033   9.683   9.626  1.00  0.00     0.037 A 
ATOM     52  C   UNL     1      11.967   6.514   7.647  1.00  0.00     0.037 A 
ATOM     53  C   UNL     1       7.162  10.555   9.441  1.00  0.00     0.049 A 
ATOM     54  C   UNL     1      11.880   8.008   7.805  1.00  0.00     0.074 A 
ATOM     55  C   UNL     1       7.230  11.924   9.632  1.00  0.00     0.029 A 
ATOM     56  N   UNL     1       8.419  10.145   9.023  1.00  0.00    -0.354 N 
ATOM     57  N   UNL     1      10.865   8.740   8.198  1.00  0.00    -0.248 NA
ATOM     58  C   UNL     1      13.088   8.782   7.488  1.00  0.00     0.031 C 
ATOM     59  C   UNL     1       8.510  12.350   9.270  1.00  0.00     0.029 A 
ATOM     60  C   UNL     1       9.261  11.240   8.918  1.00  0.00     0.049 A 
ATOM     61  H   UNL     1       8.675   9.214   8.829  1.00  0.00     0.167 HD
ATOM     62  C   UNL     1      11.318  10.053   8.199  1.00  0.00     0.074 A 
ATOM     63  C   UNL     1      12.705  10.016   7.787  1.00  0.00     0.031 C 
ATOM     64  C   UNL     1      10.643  11.186   8.511  1.00  0.00     0.037 A 
BRANCH  51  65
ATOM     65  C   UNL     1       4.730  10.295  10.053  1.00  0.00     0.064 A 
ATOM     66  C   UNL     1       4.210  10.090  11.340  1.00  0.00     0.173 A 
ATOM     67  C   UNL     1       4.032  11.157   9.194  1.00  0.00     0.173 A 
ATOM     68  F   UNL     1       4.832   9.265  12.196  1.00  0.00    -0.203 F 
ATOM     69  C   UNL     1       3.034  10.713  11.746  1.00  0.00     0.198 A 
ATOM     70  C   UNL     1       2.874  11.805   9.614  1.00  0.00     0.198 A 
ATOM     71  F   UNL     1       4.487  11.391   7.953  1.00  0.00    -0.203 F 
ATOM     72  F   UNL     1       2.537  10.473  12.967  1.00  0.00    -0.200 F 
ATOM     73  C   UNL     1       2.373  11.579  10.888  1.00  0.00     0.200 A 
ATOM     74  F   UNL     1       2.246  12.655   8.790  1.00  0.00    -0.200 F 
ATOM     75  F   UNL     1       1.253  12.197  11.288  1.00  0.00    -0.200 F 
ENDBRANCH  51  65
BRANCH  52  76
ATOM     76  C   UNL     1      13.238   5.857   7.239  1.00  0.00     0.064 A 
ATOM     77  C   UNL     1      14.356   5.867   8.085  1.00  0.00     0.173 A 
ATOM     78  C   UNL     1      13.358   5.193   6.009  1.00  0.00     0.173 A 
ATOM     79  F   UNL     1      14.300   6.505   9.262  1.00  0.00    -0.203 F 
ATOM     80  C   UNL     1      15.548   5.249   7.710  1.00  0.00     0.198 A 
ATOM     81  C   UNL     1      14.540   4.548   5.650  1.00  0.00     0.198 A 
ATOM     82  F   UNL     1      12.317   5.151   5.164  1.00  0.00    -0.203 F 
ATOM     83  F   UNL     1      16.614   5.308   8.521  1.00  0.00    -0.200 F 
ATOM     84  C   UNL     1      15.636   4.582   6.498  1.00  0.00     0.200 A 
ATOM     85  F   UNL     1      14.613   3.890   4.485  1.00  0.00    -0.200 F 
ATOM     86  F   UNL     1      16.778   3.977   6.144  1.00  0.00    -0.200 F 
ENDBRANCH  52  76
BRANCH  64  87
ATOM     87  C   UNL     1      11.388  12.488   8.436  1.00  0.00     0.064 A 
ATOM     88  C   UNL     1      11.760  13.051   7.206  1.00  0.00     0.173 A 
ATOM     89  C   UNL     1      11.656  13.223   9.602  1.00  0.00     0.173 A 
ATOM     90  F   UNL     1      11.537  12.384   6.064  1.00  0.00    -0.203 F 
ATOM     91  C   UNL     1      12.384  14.294   7.148  1.00  0.00     0.198 A 
ATOM     92  C   UNL     1      12.248  14.481   9.537  1.00  0.00     0.198 A 
ATOM     93  F   UNL     1      11.311  12.735  10.803  1.00  0.00    -0.203 F 
ATOM     94  F   UNL     1      12.763  14.795   5.964  1.00  0.00    -0.200 F 
ATOM     95  C   UNL     1      12.616  15.013   8.311  1.00  0.00     0.200 A 
ATOM     96  F   UNL     1      12.451  15.183  10.660  1.00  0.00    -0.200 F 
ATOM     97  F   UNL     1      13.195  16.220   8.249  1.00  0.00    -0.200 F 
ENDBRANCH  64  87
ENDBRANCH  38  39
ENDBRANCH  30  33
ENDBRANCH  28  29
ENDBRANCH  27  28
ENDBRANCH  26  27
ENDBRANCH   1  26
TORSDOF 18
