REMARK SMILES Cc1ccc(F)c(C(=O)Nc2cccc(C(=O)NCCCCCCNC(=O)c3ccc(-c4c5nc(c(-c6c(F)c(F)c(F)c(F)c6F)c6ccc([nH]6)c(-c6c(F)c(F)c(F)c(F)c6F)c6nc(c(-c7c(F)c(F)c(F)c(F)c7F)c7ccc4[nH]7)C=C6)C=C5)cc3)c2)c1
REMARK SMILES IDX 21 1 20 2 19 3 18 4 16 5 17 6 15 8 11 9 12 10 91 11 13 12
REMARK SMILES IDX 14 13 10 14 8 15 9 16 7 18 1 19 2 20 3 21 92 22 4 23 5 24
REMARK SMILES IDX 6 25 22 26 23 27 24 28 25 29 26 30 27 32 28 33 29 34 90 35
REMARK SMILES IDX 30 36 89 37 31 38 32 39 33 40 83 41 34 42 88 43 82 44 84 45
REMARK SMILES IDX 35 46 87 47 81 48 80 49 36 51 68 52 48 53 67 54 49 55 52 56
REMARK SMILES IDX 66 57 85 58 50 59 51 60 65 62 86 63 53 64 37 65 38 66 46 67
REMARK SMILES IDX 39 68 40 69 44 70 47 71 41 72 42 73 45 74 43 75 69 76 70 77
REMARK SMILES IDX 78 78 71 79 72 80 76 81 79 82 73 83 74 84 77 85 75 86 54 87
REMARK SMILES IDX 55 88 63 89 56 90 57 91 61 92 64 93 58 94 59 95 62 96 60 97
REMARK H PARENT 18 7 10 17 25 31 84 50 52 61
REMARK Flexibility Score: inf
ROOT
ATOM      1  C   UNL     1       1.583  -0.272   5.144  1.00  0.00     0.002 C 
ENDROOT
BRANCH   1   2
ATOM      2  C   UNL     1       1.138  -1.298   4.101  1.00  0.00     0.021 C 
BRANCH   2   3
ATOM      3  C   UNL     1       1.821  -1.073   2.759  1.00  0.00     0.116 C 
BRANCH   3   4
ATOM      4  N   UNL     1       3.128  -1.687   2.737  1.00  0.00    -0.352 N 
ATOM      5  C   UNL     1       3.637  -2.787   2.101  1.00  0.00     0.251 C 
ATOM      6  O   UNL     1       4.827  -3.041   2.290  1.00  0.00    -0.269 OA
ATOM      7  H   UNL     1       3.789  -1.217   3.294  1.00  0.00     0.163 HD
BRANCH   5   8
ATOM      8  C   UNL     1       2.862  -3.613   1.132  1.00  0.00     0.041 A 
ATOM      9  C   UNL     1       0.847  -4.181  -0.079  1.00  0.00     0.042 A 
ATOM     10  C   UNL     1       1.576  -4.961  -0.972  1.00  0.00     0.026 A 
ATOM     11  C   UNL     1       1.470  -3.646   1.048  1.00  0.00     0.040 A 
ATOM     12  C   UNL     1       2.960  -5.044  -0.836  1.00  0.00     0.003 A 
ATOM     13  C   UNL     1       3.602  -4.336   0.183  1.00  0.00     0.014 A 
BRANCH   9  14
ATOM     14  N   UNL     1      -0.481  -3.874  -0.395  1.00  0.00    -0.322 N 
ATOM     15  C   UNL     1      -1.159  -2.661  -0.371  1.00  0.00     0.258 C 
ATOM     16  O   UNL     1      -2.384  -2.708  -0.497  1.00  0.00    -0.269 OA
ATOM     17  H   UNL     1      -1.025  -4.643  -0.682  1.00  0.00     0.170 HD
BRANCH  15  18
ATOM     18  C   UNL     1      -0.478  -1.321  -0.323  1.00  0.00     0.076 A 
ATOM     19  C   UNL     1       2.990   0.267  -0.563  1.00  0.00     0.044 C 
ATOM     20  C   UNL     1       1.496   0.133  -0.466  1.00  0.00    -0.050 A 
ATOM     21  C   UNL     1       0.719   1.239  -0.119  1.00  0.00     0.006 A 
ATOM     22  C   UNL     1       0.872  -1.115  -0.656  1.00  0.00     0.020 A 
ATOM     23  C   UNL     1      -0.647   1.081   0.098  1.00  0.00     0.040 A 
ATOM     24  C   UNL     1      -1.228  -0.189   0.026  1.00  0.00     0.135 A 
ATOM     25  F   UNL     1      -2.532  -0.276   0.326  1.00  0.00    -0.206 F 
ENDBRANCH  15  18
ENDBRANCH   9  14
ENDBRANCH   5   8
ENDBRANCH   3   4
ENDBRANCH   2   3
ENDBRANCH   1   2
BRANCH   1  26
ATOM     26  C   UNL     1       1.478   1.196   4.686  1.00  0.00     0.002 C 
BRANCH  26  27
ATOM     27  C   UNL     1       0.161   1.585   3.992  1.00  0.00     0.021 C 
BRANCH  27  28
ATOM     28  C   UNL     1      -1.000   1.562   4.956  1.00  0.00     0.116 C 
BRANCH  28  29
ATOM     29  N   UNL     1      -0.889   2.654   5.920  1.00  0.00    -0.352 N 
ATOM     30  C   UNL     1      -1.854   3.135   6.778  1.00  0.00     0.251 C 
ATOM     31  H   UNL     1      -0.014   3.103   5.963  1.00  0.00     0.163 HD
ATOM     32  O   UNL     1      -1.794   4.263   7.235  1.00  0.00    -0.269 OA
BRANCH  30  33
ATOM     33  C   UNL     1      -2.935   2.220   7.169  1.00  0.00     0.039 A 
ATOM     34  C   UNL     1      -4.212   2.676   7.514  1.00  0.00     0.014 A 
ATOM     35  C   UNL     1      -2.605   0.874   7.267  1.00  0.00     0.014 A 
ATOM     36  C   UNL     1      -5.149   1.755   7.971  1.00  0.00     0.010 A 
ATOM     37  C   UNL     1      -3.577  -0.044   7.471  1.00  0.00     0.010 A 
ATOM     38  C   UNL     1      -4.800   0.404   7.953  1.00  0.00    -0.014 A 
BRANCH  38  39
ATOM     39  C   UNL     1      -5.596  -0.682   8.473  1.00  0.00     0.031 A 
ATOM     40  C   UNL     1      -6.827  -1.037   7.781  1.00  0.00     0.074 A 
ATOM     41  C   UNL     1      -4.999  -1.424   9.434  1.00  0.00     0.049 A 
ATOM     42  N   UNL     1      -7.831  -1.592   8.351  1.00  0.00    -0.248 NA
ATOM     43  C   UNL     1      -7.030  -0.766   6.359  1.00  0.00     0.031 C 
ATOM     44  C   UNL     1      -5.313  -2.741   9.955  1.00  0.00     0.029 A 
ATOM     45  N   UNL     1      -3.914  -1.007  10.227  1.00  0.00    -0.354 N 
ATOM     46  C   UNL     1      -8.620  -2.082   7.338  1.00  0.00     0.074 A 
ATOM     47  C   UNL     1      -8.185  -1.404   6.139  1.00  0.00     0.031 C 
ATOM     48  C   UNL     1      -4.710  -2.875  11.154  1.00  0.00     0.029 A 
ATOM     49  C   UNL     1      -4.099  -1.596  11.489  1.00  0.00     0.049 A 
ATOM     50  H   UNL     1      -3.173  -0.419   9.952  1.00  0.00     0.167 HD
ATOM     51  C   UNL     1      -9.394  -3.174   7.590  1.00  0.00     0.037 A 
ATOM     52  C   UNL     1      -4.458  -0.757  12.510  1.00  0.00     0.037 A 
ATOM     53  C   UNL     1      -9.172  -3.645   8.961  1.00  0.00     0.049 A 
ATOM     54  C   UNL     1      -5.914  -0.919  12.892  1.00  0.00     0.074 A 
ATOM     55  C   UNL     1      -8.364  -4.624   9.518  1.00  0.00     0.029 A 
ATOM     56  N   UNL     1      -9.491  -2.795  10.004  1.00  0.00    -0.354 N 
ATOM     57  N   UNL     1      -6.758  -1.674  12.243  1.00  0.00    -0.248 NA
ATOM     58  C   UNL     1      -6.543  -0.216  14.004  1.00  0.00     0.031 C 
ATOM     59  C   UNL     1      -8.181  -4.317  10.903  1.00  0.00     0.029 A 
ATOM     60  C   UNL     1      -8.885  -3.160  11.189  1.00  0.00     0.049 A 
ATOM     61  H   UNL     1     -10.086  -2.016   9.911  1.00  0.00     0.167 HD
ATOM     62  C   UNL     1      -7.994  -1.590  12.810  1.00  0.00     0.074 A 
ATOM     63  C   UNL     1      -7.816  -0.636  13.895  1.00  0.00     0.031 C 
ATOM     64  C   UNL     1      -9.069  -2.303  12.353  1.00  0.00     0.037 A 
BRANCH  51  65
ATOM     65  C   UNL     1     -10.094  -3.960   6.516  1.00  0.00     0.064 A 
ATOM     66  C   UNL     1     -10.267  -5.353   6.640  1.00  0.00     0.173 A 
ATOM     67  C   UNL     1     -10.624  -3.393   5.339  1.00  0.00     0.173 A 
ATOM     68  F   UNL     1      -9.868  -6.011   7.736  1.00  0.00    -0.203 F 
ATOM     69  C   UNL     1     -10.857  -6.126   5.639  1.00  0.00     0.198 A 
ATOM     70  C   UNL     1     -11.171  -4.174   4.315  1.00  0.00     0.198 A 
ATOM     71  F   UNL     1     -10.666  -2.064   5.167  1.00  0.00    -0.203 F 
ATOM     72  F   UNL     1     -11.000  -7.446   5.821  1.00  0.00    -0.200 F 
ATOM     73  C   UNL     1     -11.286  -5.542   4.465  1.00  0.00     0.200 A 
ATOM     74  F   UNL     1     -11.594  -3.591   3.184  1.00  0.00    -0.200 F 
ATOM     75  F   UNL     1     -11.828  -6.290   3.495  1.00  0.00    -0.200 F 
ENDBRANCH  51  65
BRANCH  52  76
ATOM     76  C   UNL     1      -3.687   0.534  12.425  1.00  0.00     0.064 A 
ATOM     77  C   UNL     1      -2.279   0.419  12.467  1.00  0.00     0.173 A 
ATOM     78  C   UNL     1      -4.217   1.660  11.779  1.00  0.00     0.173 A 
ATOM     79  F   UNL     1      -1.712  -0.615  13.110  1.00  0.00    -0.203 F 
ATOM     80  C   UNL     1      -1.464   1.242  11.691  1.00  0.00     0.198 A 
ATOM     81  C   UNL     1      -3.386   2.517  11.047  1.00  0.00     0.198 A 
ATOM     82  F   UNL     1      -5.542   1.858  11.737  1.00  0.00    -0.203 F 
ATOM     83  F   UNL     1      -0.154   0.972  11.581  1.00  0.00    -0.200 F 
ATOM     84  C   UNL     1      -2.025   2.262  10.946  1.00  0.00     0.200 A 
ATOM     85  F   UNL     1      -3.920   3.542  10.367  1.00  0.00    -0.200 F 
ATOM     86  F   UNL     1      -1.259   2.965  10.099  1.00  0.00    -0.200 F 
ENDBRANCH  52  76
BRANCH  64  87
ATOM     87  C   UNL     1     -10.423  -2.225  12.997  1.00  0.00     0.064 A 
ATOM     88  C   UNL     1     -10.583  -2.235  14.390  1.00  0.00     0.173 A 
ATOM     89  C   UNL     1     -11.616  -2.227  12.239  1.00  0.00     0.173 A 
ATOM     90  F   UNL     1      -9.524  -2.359  15.203  1.00  0.00    -0.203 F 
ATOM     91  C   UNL     1     -11.842  -2.132  14.981  1.00  0.00     0.198 A 
ATOM     92  C   UNL     1     -12.872  -2.204  12.832  1.00  0.00     0.198 A 
ATOM     93  F   UNL     1     -11.611  -2.218  10.900  1.00  0.00    -0.203 F 
ATOM     94  F   UNL     1     -11.941  -2.043  16.313  1.00  0.00    -0.200 F 
ATOM     95  C   UNL     1     -12.985  -2.120  14.202  1.00  0.00     0.200 A 
ATOM     96  F   UNL     1     -13.968  -2.244  12.061  1.00  0.00    -0.200 F 
ATOM     97  F   UNL     1     -14.194  -2.027  14.771  1.00  0.00    -0.200 F 
ENDBRANCH  64  87
ENDBRANCH  38  39
ENDBRANCH  30  33
ENDBRANCH  28  29
ENDBRANCH  27  28
ENDBRANCH  26  27
ENDBRANCH   1  26
TORSDOF 15
