REMARK SMILES CCOc1ccccc1-c1cc(C(=O)NCCCCCCNC(=O)c2ccc(-c3c4nc(c(-c5c(F)c(F)c(F)c(F)c5F)c5ccc([nH]5)c(-c5c(F)c(F)c(F)c(F)c5F)c5nc(c(-c6c(F)c(F)c(F)c(F)c6F)c6ccc3[nH]6)C=C5)C=C4)cc2)c2cc(C)cc(C)c2n1
REMARK SMILES IDX 18 1 17 2 16 3 15 4 13 5 14 6 12 8 10 9 11 10 96 11 95 12
REMARK SMILES IDX 88 13 93 14 89 15 92 16 94 17 90 18 91 19 9 20 4 21 5 22
REMARK SMILES IDX 6 23 8 24 7 25 3 26 2 27 1 28 19 29 20 30 21 31 22 32 23 33
REMARK SMILES IDX 24 35 25 36 26 37 87 38 27 39 86 40 28 41 29 42 30 43 80 44
REMARK SMILES IDX 31 45 85 46 79 47 81 48 32 49 84 50 78 51 77 52 33 54 65 55
REMARK SMILES IDX 45 56 64 57 46 58 49 59 63 60 82 61 47 62 48 63 62 65 83 66
REMARK SMILES IDX 50 67 34 68 35 69 43 70 36 71 37 72 41 73 44 74 38 75 39 76
REMARK SMILES IDX 42 77 40 78 66 79 67 80 75 81 68 82 69 83 73 84 76 85 70 86
REMARK SMILES IDX 71 87 74 88 72 89 51 90 52 91 60 92 53 93 54 94 58 95 61 96
REMARK SMILES IDX 55 97 56 98 59 99 57 100
REMARK H PARENT 15 7 22 34 81 53 49 64
REMARK Flexibility Score: inf
ROOT
ATOM      1  C   UNL     1      -2.542  -0.684   3.250  1.00  0.00     0.002 C 
ENDROOT
BRANCH   1   2
ATOM      2  C   UNL     1      -1.127  -0.556   2.682  1.00  0.00     0.021 C 
BRANCH   2   3
ATOM      3  C   UNL     1      -0.944  -1.082   1.256  1.00  0.00     0.116 C 
BRANCH   3   4
ATOM      4  N   UNL     1      -1.546  -0.202   0.271  1.00  0.00    -0.352 N 
ATOM      5  C   UNL     1      -1.223   0.324  -0.955  1.00  0.00     0.252 C 
ATOM      6  O   UNL     1      -2.148   0.949  -1.484  1.00  0.00    -0.269 OA
ATOM      7  H   UNL     1      -2.435   0.104   0.565  1.00  0.00     0.163 HD
BRANCH   5   8
ATOM      8  C   UNL     1       0.072   0.182  -1.698  1.00  0.00     0.051 A 
ATOM      9  C   UNL     1       2.320  -0.492  -1.964  1.00  0.00     0.075 A 
ATOM     10  C   UNL     1       1.147  -0.587  -1.251  1.00  0.00     0.043 A 
ATOM     11  N   UNL     1       2.192  -0.381  -3.292  1.00  0.00    -0.247 NA
ATOM     12  C   UNL     1       1.403   0.619  -3.669  1.00  0.00     0.075 A 
ATOM     13  C   UNL     1       0.338   1.017  -2.837  1.00  0.00     0.014 A 
ATOM     14  C   UNL     1       1.826   1.399  -4.744  1.00  0.00    -0.024 A 
ATOM     15  C   UNL     1      -0.183   2.320  -3.043  1.00  0.00     0.014 A 
ATOM     16  C   UNL     1       1.355   2.710  -4.862  1.00  0.00     0.009 A 
ATOM     17  C   UNL     1       2.976   0.960  -5.612  1.00  0.00     0.047 C 
ATOM     18  C   UNL     1       0.400   3.197  -3.970  1.00  0.00    -0.050 A 
ATOM     19  C   UNL     1       0.161   4.675  -3.853  1.00  0.00     0.044 C 
BRANCH   9  20
ATOM     20  C   UNL     1       3.446   0.415  -1.517  1.00  0.00     0.042 A 
ATOM     21  C   UNL     1       3.199   1.746  -1.077  1.00  0.00     0.128 A 
ATOM     22  C   UNL     1       4.115   2.768  -1.341  1.00  0.00     0.047 A 
ATOM     23  C   UNL     1       5.339   2.469  -1.930  1.00  0.00     0.004 A 
ATOM     24  C   UNL     1       4.740   0.123  -1.985  1.00  0.00     0.014 A 
ATOM     25  C   UNL     1       5.674   1.143  -2.196  1.00  0.00     0.001 A 
BRANCH  21  26
ATOM     26  O   UNL     1       1.949   2.112  -0.642  1.00  0.00    -0.493 OA
BRANCH  26  27
ATOM     27  C   UNL     1       1.886   2.585   0.703  1.00  0.00     0.226 C 
ATOM     28  C   UNL     1       2.039   1.445   1.693  1.00  0.00     0.049 C 
ENDBRANCH  26  27
ENDBRANCH  21  26
ENDBRANCH   9  20
ENDBRANCH   5   8
ENDBRANCH   3   4
ENDBRANCH   2   3
ENDBRANCH   1   2
BRANCH   1  29
ATOM     29  C   UNL     1      -3.122  -2.102   3.257  1.00  0.00     0.002 C 
BRANCH  29  30
ATOM     30  C   UNL     1      -2.243  -3.171   3.914  1.00  0.00     0.021 C 
BRANCH  30  31
ATOM     31  C   UNL     1      -1.882  -2.901   5.372  1.00  0.00     0.116 C 
BRANCH  31  32
ATOM     32  N   UNL     1      -3.057  -2.858   6.228  1.00  0.00    -0.352 N 
ATOM     33  C   UNL     1      -3.376  -3.626   7.315  1.00  0.00     0.251 C 
ATOM     34  H   UNL     1      -3.723  -2.174   5.990  1.00  0.00     0.163 HD
ATOM     35  O   UNL     1      -4.520  -3.585   7.781  1.00  0.00    -0.269 OA
BRANCH  33  36
ATOM     36  C   UNL     1      -2.373  -4.517   7.931  1.00  0.00     0.039 A 
ATOM     37  C   UNL     1      -2.763  -5.797   8.332  1.00  0.00     0.014 A 
ATOM     38  C   UNL     1      -1.059  -4.088   8.143  1.00  0.00     0.014 A 
ATOM     39  C   UNL     1      -1.825  -6.665   8.893  1.00  0.00     0.010 A 
ATOM     40  C   UNL     1      -0.107  -4.980   8.632  1.00  0.00     0.010 A 
ATOM     41  C   UNL     1      -0.481  -6.276   9.016  1.00  0.00    -0.014 A 
BRANCH  41  42
ATOM     42  C   UNL     1       0.540  -7.225   9.528  1.00  0.00     0.031 A 
ATOM     43  C   UNL     1       1.269  -6.951  10.812  1.00  0.00     0.074 A 
ATOM     44  C   UNL     1       0.847  -8.316   8.800  1.00  0.00     0.049 A 
ATOM     45  N   UNL     1       2.201  -7.658  11.403  1.00  0.00    -0.248 NA
ATOM     46  C   UNL     1       0.928  -5.705  11.512  1.00  0.00     0.031 C 
ATOM     47  C   UNL     1       0.256  -8.658   7.506  1.00  0.00     0.029 A 
ATOM     48  N   UNL     1       1.736  -9.333   9.040  1.00  0.00    -0.354 N 
ATOM     49  C   UNL     1       2.556  -6.942  12.538  1.00  0.00     0.074 A 
ATOM     50  C   UNL     1       1.790  -5.714  12.517  1.00  0.00     0.031 C 
ATOM     51  C   UNL     1       0.780  -9.816   7.076  1.00  0.00     0.029 A 
ATOM     52  C   UNL     1       1.768 -10.279   8.046  1.00  0.00     0.049 A 
ATOM     53  H   UNL     1       2.297  -9.380   9.848  1.00  0.00     0.167 HD
ATOM     54  C   UNL     1       3.422  -7.288  13.522  1.00  0.00     0.037 A 
ATOM     55  C   UNL     1       2.514 -11.393   7.924  1.00  0.00     0.037 A 
ATOM     56  C   UNL     1       4.181  -8.513  13.537  1.00  0.00     0.049 A 
ATOM     57  C   UNL     1       3.471 -11.758   9.024  1.00  0.00     0.074 A 
ATOM     58  C   UNL     1       5.042  -8.985  14.512  1.00  0.00     0.029 A 
ATOM     59  N   UNL     1       4.180  -9.456  12.517  1.00  0.00    -0.354 N 
ATOM     60  N   UNL     1       3.739 -11.115  10.135  1.00  0.00    -0.248 NA
ATOM     61  C   UNL     1       4.221 -13.011   8.859  1.00  0.00     0.031 C 
ATOM     62  C   UNL     1       5.605 -10.184  14.058  1.00  0.00     0.029 A 
ATOM     63  C   UNL     1       5.049 -10.492  12.826  1.00  0.00     0.049 A 
ATOM     64  H   UNL     1       3.641  -9.398  11.696  1.00  0.00     0.167 HD
ATOM     65  C   UNL     1       4.675 -11.888  10.808  1.00  0.00     0.074 A 
ATOM     66  C   UNL     1       4.909 -13.062   9.991  1.00  0.00     0.031 C 
ATOM     67  C   UNL     1       5.287 -11.646  11.995  1.00  0.00     0.037 A 
BRANCH  54  68
ATOM     68  C   UNL     1       3.594  -6.320  14.659  1.00  0.00     0.064 A 
ATOM     69  C   UNL     1       2.553  -6.051  15.564  1.00  0.00     0.173 A 
ATOM     70  C   UNL     1       4.813  -5.653  14.853  1.00  0.00     0.173 A 
ATOM     71  F   UNL     1       1.363  -6.654  15.421  1.00  0.00    -0.203 F 
ATOM     72  C   UNL     1       2.711  -5.119  16.587  1.00  0.00     0.198 A 
ATOM     73  C   UNL     1       4.980  -4.749  15.899  1.00  0.00     0.198 A 
ATOM     74  F   UNL     1       5.846  -5.876  14.026  1.00  0.00    -0.203 F 
ATOM     75  F   UNL     1       1.680  -4.830  17.392  1.00  0.00    -0.200 F 
ATOM     76  C   UNL     1       3.925  -4.473  16.756  1.00  0.00     0.200 A 
ATOM     77  F   UNL     1       6.159  -4.135  16.071  1.00  0.00    -0.200 F 
ATOM     78  F   UNL     1       4.076  -3.574  17.739  1.00  0.00    -0.200 F 
ENDBRANCH  54  68
BRANCH  55  79
ATOM     79  C   UNL     1       2.357 -12.249   6.720  1.00  0.00     0.064 A 
ATOM     80  C   UNL     1       1.747 -13.508   6.801  1.00  0.00     0.173 A 
ATOM     81  C   UNL     1       2.783 -11.809   5.457  1.00  0.00     0.173 A 
ATOM     82  F   UNL     1       1.340 -13.979   7.988  1.00  0.00    -0.203 F 
ATOM     83  C   UNL     1       1.576 -14.298   5.666  1.00  0.00     0.198 A 
ATOM     84  C   UNL     1       2.585 -12.587   4.319  1.00  0.00     0.198 A 
ATOM     85  F   UNL     1       3.365 -10.608   5.326  1.00  0.00    -0.203 F 
ATOM     86  F   UNL     1       1.019 -15.512   5.776  1.00  0.00    -0.200 F 
ATOM     87  C   UNL     1       1.987 -13.834   4.425  1.00  0.00     0.200 A 
ATOM     88  F   UNL     1       2.966 -12.126   3.120  1.00  0.00    -0.200 F 
ATOM     89  F   UNL     1       1.807 -14.588   3.332  1.00  0.00    -0.200 F 
ENDBRANCH  55  79
BRANCH  67  90
ATOM     90  C   UNL     1       6.264 -12.679  12.483  1.00  0.00     0.064 A 
ATOM     91  C   UNL     1       7.501 -12.879  11.851  1.00  0.00     0.173 A 
ATOM     92  C   UNL     1       5.968 -13.464  13.608  1.00  0.00     0.173 A 
ATOM     93  F   UNL     1       7.827 -12.166  10.762  1.00  0.00    -0.203 F 
ATOM     94  C   UNL     1       8.390 -13.850  12.307  1.00  0.00     0.198 A 
ATOM     95  C   UNL     1       6.874 -14.410  14.081  1.00  0.00     0.198 A 
ATOM     96  F   UNL     1       4.803 -13.309  14.254  1.00  0.00    -0.203 F 
ATOM     97  F   UNL     1       9.539 -14.063  11.651  1.00  0.00    -0.200 F 
ATOM     98  C   UNL     1       8.079 -14.609  13.425  1.00  0.00     0.200 A 
ATOM     99  F   UNL     1       6.579 -15.132  15.171  1.00  0.00    -0.200 F 
ATOM    100  F   UNL     1       8.937 -15.540  13.864  1.00  0.00    -0.200 F 
ENDBRANCH  67  90
ENDBRANCH  41  42
ENDBRANCH  33  36
ENDBRANCH  31  32
ENDBRANCH  30  31
ENDBRANCH  29  30
ENDBRANCH   1  29
TORSDOF 16
