REMARK SMILES CCC[C@@](C)(NC(=O)N1CCN(C)C(=O)C1(C)C)C(=O)NCCCCCCNC(=O)c1ccc(-c2c3nc(c(-c4c(F)c(F)c(F)c(F)c4F)c4ccc([nH]4)c(-c4c(F)c(F)c(F)c(F)c4F)c4nc(c(-c5c(F)c(F)c(F)c(F)c5F)c5ccc2[nH]5)C=C4)C=C3)cc1
REMARK SMILES IDX 24 1 23 2 22 3 21 4 19 5 20 6 4 8 5 9 3 10 2 11 1 12 6 13
REMARK SMILES IDX 7 14 8 16 9 17 10 18 16 19 11 20 14 21 17 22 18 23 12 24
REMARK SMILES IDX 15 25 13 26 25 27 26 28 27 29 28 30 29 31 30 33 31 34 32 35
REMARK SMILES IDX 93 36 33 37 92 38 34 39 35 40 36 41 86 42 37 43 91 44 85 45
REMARK SMILES IDX 87 46 38 47 90 48 84 49 83 50 39 52 71 53 51 54 70 55 52 56
REMARK SMILES IDX 55 57 69 58 88 59 53 60 54 61 68 63 89 64 56 65 40 66 41 67
REMARK SMILES IDX 49 68 42 69 43 70 47 71 50 72 44 73 45 74 48 75 46 76 72 77
REMARK SMILES IDX 73 78 81 79 74 80 75 81 79 82 82 83 76 84 77 85 80 86 78 87
REMARK SMILES IDX 57 88 58 89 66 90 59 91 60 92 64 93 67 94 61 95 62 96 65 97
REMARK SMILES IDX 63 98
REMARK H PARENT 21 7 6 15 28 32 87 51 55 62
REMARK Flexibility Score: inf
ROOT
ATOM      1  C   UNL     1       0.436   6.619  -1.515  1.00  0.00     0.002 C 
ENDROOT
BRANCH   1   2
ATOM      2  C   UNL     1      -0.004   6.433  -0.064  1.00  0.00     0.021 C 
BRANCH   2   3
ATOM      3  C   UNL     1      -1.053   5.393   0.391  1.00  0.00     0.116 C 
BRANCH   3   4
ATOM      4  N   UNL     1      -1.109   4.006  -0.085  1.00  0.00    -0.354 N 
ATOM      5  C   UNL     1      -0.658   2.783   0.385  1.00  0.00     0.245 C 
ATOM      6  O   UNL     1      -1.249   1.776  -0.019  1.00  0.00    -0.272 OA
ATOM      7  H   UNL     1      -1.581   3.925  -0.945  1.00  0.00     0.163 HD
BRANCH   5   8
ATOM      8  C   UNL     1       0.362   2.693   1.512  1.00  0.00     0.117 C 
ATOM      9  C   UNL     1      -0.539   2.913   2.769  1.00  0.00     0.045 C 
BRANCH   8  10
ATOM     10  C   UNL     1       1.206   1.423   1.821  1.00  0.00     0.038 C 
BRANCH  10  11
ATOM     11  C   UNL     1       0.555   0.039   1.804  1.00  0.00    -0.000 C 
ATOM     12  C   UNL     1       0.869  -0.712   0.520  1.00  0.00     0.004 C 
ENDBRANCH  10  11
ENDBRANCH   8  10
BRANCH   8  13
ATOM     13  N   UNL     1       1.305   3.792   1.298  1.00  0.00    -0.324 N 
ATOM     14  C   UNL     1       2.256   4.167   0.451  1.00  0.00     0.319 C 
ATOM     15  H   UNL     1       1.200   4.468   2.006  1.00  0.00     0.166 HD
ATOM     16  O   UNL     1       3.019   4.939   1.068  1.00  0.00    -0.249 OA
BRANCH  14  17
ATOM     17  N   UNL     1       2.494   3.888  -0.873  1.00  0.00    -0.309 N 
ATOM     18  C   UNL     1       3.921   4.170  -1.168  1.00  0.00     0.144 C 
ATOM     19  C   UNL     1       1.839   3.246  -2.159  1.00  0.00     0.118 C 
ATOM     20  C   UNL     1       4.638   2.875  -1.548  1.00  0.00     0.140 C 
ATOM     21  C   UNL     1       2.566   1.922  -2.495  1.00  0.00     0.247 C 
ATOM     22  C   UNL     1       0.347   3.005  -2.355  1.00  0.00     0.045 C 
ATOM     23  C   UNL     1       2.136   4.124  -3.464  1.00  0.00     0.045 C 
ATOM     24  N   UNL     1       3.944   2.100  -2.564  1.00  0.00    -0.342 N 
ATOM     25  O   UNL     1       2.007   0.959  -3.019  1.00  0.00    -0.272 OA
ATOM     26  C   UNL     1       4.617   1.740  -3.789  1.00  0.00     0.146 C 
ENDBRANCH  14  17
ENDBRANCH   8  13
ENDBRANCH   5   8
ENDBRANCH   3   4
ENDBRANCH   2   3
ENDBRANCH   1   2
BRANCH   1  27
ATOM     27  C   UNL     1      -0.618   6.567  -2.615  1.00  0.00     0.002 C 
BRANCH  27  28
ATOM     28  C   UNL     1      -1.601   7.723  -2.626  1.00  0.00     0.021 C 
BRANCH  28  29
ATOM     29  C   UNL     1      -0.975   9.082  -2.889  1.00  0.00     0.116 C 
BRANCH  29  30
ATOM     30  N   UNL     1      -0.345   9.209  -4.198  1.00  0.00    -0.352 N 
ATOM     31  C   UNL     1      -0.397  10.281  -5.070  1.00  0.00     0.251 C 
ATOM     32  H   UNL     1       0.184   8.434  -4.498  1.00  0.00     0.163 HD
ATOM     33  O   UNL     1       0.091  10.229  -6.176  1.00  0.00    -0.269 OA
BRANCH  31  34
ATOM     34  C   UNL     1      -1.119  11.492  -4.617  1.00  0.00     0.039 A 
ATOM     35  C   UNL     1      -2.141  12.009  -5.413  1.00  0.00     0.014 A 
ATOM     36  C   UNL     1      -0.861  12.018  -3.350  1.00  0.00     0.014 A 
ATOM     37  C   UNL     1      -2.967  13.004  -4.892  1.00  0.00     0.010 A 
ATOM     38  C   UNL     1      -1.756  12.919  -2.792  1.00  0.00     0.010 A 
ATOM     39  C   UNL     1      -2.813  13.428  -3.560  1.00  0.00    -0.014 A 
BRANCH  39  40
ATOM     40  C   UNL     1      -3.750  14.407  -2.958  1.00  0.00     0.031 A 
ATOM     41  C   UNL     1      -3.236  15.729  -2.463  1.00  0.00     0.074 A 
ATOM     42  C   UNL     1      -5.050  14.082  -2.815  1.00  0.00     0.049 A 
ATOM     43  N   UNL     1      -3.893  16.719  -1.915  1.00  0.00    -0.248 NA
ATOM     44  C   UNL     1      -1.786  15.960  -2.566  1.00  0.00     0.031 C 
ATOM     45  C   UNL     1      -5.647  12.795  -3.183  1.00  0.00     0.029 A 
ATOM     46  N   UNL     1      -6.107  14.807  -2.326  1.00  0.00    -0.354 N 
ATOM     47  C   UNL     1      -2.937  17.678  -1.606  1.00  0.00     0.074 A 
ATOM     48  C   UNL     1      -1.649  17.124  -1.951  1.00  0.00     0.031 C 
ATOM     49  C   UNL     1      -6.968  12.840  -2.953  1.00  0.00     0.029 A 
ATOM     50  C   UNL     1      -7.308  14.142  -2.388  1.00  0.00     0.049 A 
ATOM     51  H   UNL     1      -6.014  15.718  -1.965  1.00  0.00     0.167 HD
ATOM     52  C   UNL     1      -3.122  18.926  -1.115  1.00  0.00     0.037 A 
ATOM     53  C   UNL     1      -8.543  14.544  -2.033  1.00  0.00     0.037 A 
ATOM     54  C   UNL     1      -4.412  19.476  -0.795  1.00  0.00     0.049 A 
ATOM     55  C   UNL     1      -8.723  15.938  -1.494  1.00  0.00     0.074 A 
ATOM     56  C   UNL     1      -4.722  20.749  -0.353  1.00  0.00     0.029 A 
ATOM     57  N   UNL     1      -5.609  18.777  -0.880  1.00  0.00    -0.354 N 
ATOM     58  N   UNL     1      -7.824  16.872  -1.297  1.00  0.00    -0.248 NA
ATOM     59  C   UNL     1     -10.091  16.337  -1.140  1.00  0.00     0.031 C 
ATOM     60  C   UNL     1      -6.099  20.802  -0.114  1.00  0.00     0.029 A 
ATOM     61  C   UNL     1      -6.657  19.584  -0.468  1.00  0.00     0.049 A 
ATOM     62  H   UNL     1      -5.699  17.846  -1.188  1.00  0.00     0.167 HD
ATOM     63  C   UNL     1      -8.517  17.975  -0.817  1.00  0.00     0.074 A 
ATOM     64  C   UNL     1      -9.916  17.601  -0.782  1.00  0.00     0.031 C 
ATOM     65  C   UNL     1      -8.042  19.187  -0.436  1.00  0.00     0.037 A 
BRANCH  52  66
ATOM     66  C   UNL     1      -1.902  19.776  -0.901  1.00  0.00     0.064 A 
ATOM     67  C   UNL     1      -1.133  20.246  -1.978  1.00  0.00     0.173 A 
ATOM     68  C   UNL     1      -1.509  20.146   0.393  1.00  0.00     0.173 A 
ATOM     69  F   UNL     1      -1.454  19.910  -3.237  1.00  0.00    -0.203 F 
ATOM     70  C   UNL     1       0.001  21.026  -1.764  1.00  0.00     0.198 A 
ATOM     71  C   UNL     1      -0.395  20.955   0.601  1.00  0.00     0.198 A 
ATOM     72  F   UNL     1      -2.207  19.726   1.459  1.00  0.00    -0.203 F 
ATOM     73  F   UNL     1       0.752  21.413  -2.805  1.00  0.00    -0.200 F 
ATOM     74  C   UNL     1       0.364  21.387  -0.476  1.00  0.00     0.200 A 
ATOM     75  F   UNL     1      -0.052  21.314   1.846  1.00  0.00    -0.200 F 
ATOM     76  F   UNL     1       1.451  22.144  -0.272  1.00  0.00    -0.200 F 
ENDBRANCH  52  66
BRANCH  53  77
ATOM     77  C   UNL     1      -9.706  13.632  -2.208  1.00  0.00     0.064 A 
ATOM     78  C   UNL     1     -10.709  13.911  -3.148  1.00  0.00     0.173 A 
ATOM     79  C   UNL     1      -9.843  12.468  -1.438  1.00  0.00     0.173 A 
ATOM     80  F   UNL     1     -10.634  15.020  -3.898  1.00  0.00    -0.203 F 
ATOM     81  C   UNL     1     -11.815  13.075  -3.292  1.00  0.00     0.198 A 
ATOM     82  C   UNL     1     -10.933  11.616  -1.606  1.00  0.00     0.198 A 
ATOM     83  F   UNL     1      -8.909  12.149  -0.530  1.00  0.00    -0.203 F 
ATOM     84  F   UNL     1     -12.784  13.394  -4.162  1.00  0.00    -0.200 F 
ATOM     85  C   UNL     1     -11.924  11.926  -2.526  1.00  0.00     0.200 A 
ATOM     86  F   UNL     1     -11.025  10.497  -0.875  1.00  0.00    -0.200 F 
ATOM     87  F   UNL     1     -12.985  11.120  -2.667  1.00  0.00    -0.200 F 
ENDBRANCH  53  77
BRANCH  65  88
ATOM     88  C   UNL     1      -9.048  20.199   0.031  1.00  0.00     0.064 A 
ATOM     89  C   UNL     1      -9.736  20.048   1.245  1.00  0.00     0.173 A 
ATOM     90  C   UNL     1      -9.308  21.347  -0.732  1.00  0.00     0.173 A 
ATOM     91  F   UNL     1      -9.533  18.961   2.005  1.00  0.00    -0.203 F 
ATOM     92  C   UNL     1     -10.674  20.989   1.657  1.00  0.00     0.198 A 
ATOM     93  C   UNL     1     -10.219  22.305  -0.298  1.00  0.00     0.198 A 
ATOM     94  F   UNL     1      -8.670  21.546  -1.895  1.00  0.00    -0.203 F 
ATOM     95  F   UNL     1     -11.365  20.792   2.789  1.00  0.00    -0.200 F 
ATOM     96  C   UNL     1     -10.910  22.120   0.890  1.00  0.00     0.200 A 
ATOM     97  F   UNL     1     -10.431  23.407  -1.032  1.00  0.00    -0.200 F 
ATOM     98  F   UNL     1     -11.810  23.028   1.291  1.00  0.00    -0.200 F 
ENDBRANCH  65  88
ENDBRANCH  39  40
ENDBRANCH  31  34
ENDBRANCH  29  30
ENDBRANCH  28  29
ENDBRANCH  27  28
ENDBRANCH   1  27
TORSDOF 17
