REMARK SMILES O=C(NCCCCCCNC(=O)[C@@H]1CCC(=O)N(CCCOC2CCCCC2)[C@H]1c1ccco1)c1ccc(-c2c3nc(c(-c4c(F)c(F)c(F)c(F)c4F)c4ccc([nH]4)c(-c4c(F)c(F)c(F)c(F)c4F)c4nc(c(-c5c(F)c(F)c(F)c(F)c5F)c5ccc2[nH]5)C=C4)C=C3)cc1
REMARK SMILES IDX 8 1 7 2 6 3 5 4 4 5 3 6 1 7 2 8 35 10 36 11 97 12 37 13
REMARK SMILES IDX 96 14 38 15 39 16 40 17 90 18 41 19 95 20 89 21 91 22 42 23
REMARK SMILES IDX 94 24 88 25 87 26 43 28 75 29 55 30 74 31 56 32 59 33 73 34
REMARK SMILES IDX 92 35 57 36 58 37 72 39 93 40 60 41 44 42 45 43 53 44 46 45
REMARK SMILES IDX 47 46 51 47 54 48 48 49 49 50 52 51 50 52 76 53 77 54 85 55
REMARK SMILES IDX 78 56 79 57 83 58 86 59 80 60 81 61 84 62 82 63 61 64 62 65
REMARK SMILES IDX 70 66 63 67 64 68 68 69 71 70 65 71 66 72 69 73 67 74 9 75
REMARK SMILES IDX 10 76 11 77 12 79 13 80 14 81 29 82 15 83 18 84 16 85 17 86
REMARK SMILES IDX 30 87 31 88 34 89 32 90 33 91 19 92 20 93 21 94 22 95 23 96
REMARK SMILES IDX 24 97 28 98 25 99 27 100 26 101
REMARK H PARENT 3 9 91 27 59 38 10 78
REMARK Flexibility Score: inf
ROOT
ATOM      1  C   UNL     1       6.596   0.752   4.005  1.00  0.00     0.021 C 
ENDROOT
BRANCH   1   2
ATOM      2  C   UNL     1       5.065   0.891   4.099  1.00  0.00     0.002 C 
BRANCH   2   3
ATOM      3  C   UNL     1       4.435   1.985   3.230  1.00  0.00     0.002 C 
BRANCH   3   4
ATOM      4  C   UNL     1       4.757   1.901   1.739  1.00  0.00     0.021 C 
BRANCH   4   5
ATOM      5  C   UNL     1       4.439   0.562   1.086  1.00  0.00     0.116 C 
BRANCH   5   6
ATOM      6  N   UNL     1       3.013   0.297   1.000  1.00  0.00    -0.352 N 
ATOM      7  O   UNL     1       1.053  -0.124  -0.044  1.00  0.00    -0.269 OA
ATOM      8  C   UNL     1       2.270  -0.076  -0.100  1.00  0.00     0.251 C 
ATOM      9  H   UNL     1       2.510   0.396   1.840  1.00  0.00     0.163 HD
BRANCH   8  10
ATOM     10  C   UNL     1       2.969  -0.395  -1.366  1.00  0.00     0.039 A 
ATOM     11  C   UNL     1       4.091  -1.227  -1.368  1.00  0.00     0.014 A 
ATOM     12  C   UNL     1       2.494   0.149  -2.562  1.00  0.00     0.014 A 
ATOM     13  C   UNL     1       4.816  -1.406  -2.540  1.00  0.00     0.010 A 
ATOM     14  C   UNL     1       3.174  -0.105  -3.757  1.00  0.00     0.010 A 
ATOM     15  C   UNL     1       4.353  -0.867  -3.751  1.00  0.00    -0.014 A 
BRANCH  15  16
ATOM     16  C   UNL     1       5.067  -1.191  -5.012  1.00  0.00     0.031 A 
ATOM     17  C   UNL     1       5.740  -0.124  -5.826  1.00  0.00     0.074 A 
ATOM     18  C   UNL     1       5.104  -2.476  -5.413  1.00  0.00     0.049 A 
ATOM     19  N   UNL     1       6.390  -0.238  -6.958  1.00  0.00    -0.248 NA
ATOM     20  C   UNL     1       5.672   1.252  -5.311  1.00  0.00     0.031 C 
ATOM     21  C   UNL     1       4.475  -3.594  -4.706  1.00  0.00     0.029 A 
ATOM     22  N   UNL     1       5.694  -3.063  -6.502  1.00  0.00    -0.354 N 
ATOM     23  C   UNL     1       6.792   1.046  -7.300  1.00  0.00     0.074 A 
ATOM     24  C   UNL     1       6.293   1.931  -6.267  1.00  0.00     0.031 C 
ATOM     25  C   UNL     1       4.739  -4.734  -5.359  1.00  0.00     0.029 A 
ATOM     26  C   UNL     1       5.494  -4.420  -6.566  1.00  0.00     0.049 A 
ATOM     27  H   UNL     1       6.211  -2.561  -7.173  1.00  0.00     0.167 HD
ATOM     28  C   UNL     1       7.516   1.444  -8.374  1.00  0.00     0.037 A 
ATOM     29  C   UNL     1       5.850  -5.313  -7.508  1.00  0.00     0.037 A 
ATOM     30  C   UNL     1       8.013   0.551  -9.392  1.00  0.00     0.049 A 
ATOM     31  C   UNL     1       6.612  -4.834  -8.710  1.00  0.00     0.074 A 
ATOM     32  C   UNL     1       8.795   0.850 -10.495  1.00  0.00     0.029 A 
ATOM     33  N   UNL     1       7.765  -0.814  -9.439  1.00  0.00    -0.354 N 
ATOM     34  N   UNL     1       7.030  -3.625  -8.996  1.00  0.00    -0.248 NA
ATOM     35  C   UNL     1       6.950  -5.843  -9.722  1.00  0.00     0.031 C 
ATOM     36  C   UNL     1       8.969  -0.321 -11.240  1.00  0.00     0.029 A 
ATOM     37  C   UNL     1       8.349  -1.364 -10.570  1.00  0.00     0.049 A 
ATOM     38  H   UNL     1       7.250  -1.318  -8.768  1.00  0.00     0.167 HD
ATOM     39  C   UNL     1       7.695  -3.730 -10.209  1.00  0.00     0.074 A 
ATOM     40  C   UNL     1       7.644  -5.125 -10.593  1.00  0.00     0.031 C 
ATOM     41  C   UNL     1       8.290  -2.756 -10.939  1.00  0.00     0.037 A 
BRANCH  28  42
ATOM     42  C   UNL     1       7.801   2.911  -8.527  1.00  0.00     0.064 A 
ATOM     43  C   UNL     1       8.693   3.585  -7.679  1.00  0.00     0.173 A 
ATOM     44  C   UNL     1       7.218   3.642  -9.575  1.00  0.00     0.173 A 
ATOM     45  F   UNL     1       9.272   2.937  -6.656  1.00  0.00    -0.203 F 
ATOM     46  C   UNL     1       8.972   4.938  -7.859  1.00  0.00     0.198 A 
ATOM     47  C   UNL     1       7.523   4.987  -9.771  1.00  0.00     0.198 A 
ATOM     48  F   UNL     1       6.365   3.046 -10.422  1.00  0.00    -0.203 F 
ATOM     49  F   UNL     1       9.796   5.569  -7.011  1.00  0.00    -0.200 F 
ATOM     50  C   UNL     1       8.394   5.635  -8.909  1.00  0.00     0.200 A 
ATOM     51  F   UNL     1       6.975   5.654 -10.796  1.00  0.00    -0.200 F 
ATOM     52  F   UNL     1       8.672   6.934  -9.088  1.00  0.00    -0.200 F 
ENDBRANCH  28  42
BRANCH  29  53
ATOM     53  C   UNL     1       5.468  -6.740  -7.354  1.00  0.00     0.064 A 
ATOM     54  C   UNL     1       6.437  -7.729  -7.141  1.00  0.00     0.173 A 
ATOM     55  C   UNL     1       4.125  -7.143  -7.406  1.00  0.00     0.173 A 
ATOM     56  F   UNL     1       7.736  -7.396  -7.100  1.00  0.00    -0.203 F 
ATOM     57  C   UNL     1       6.079  -9.069  -7.005  1.00  0.00     0.198 A 
ATOM     58  C   UNL     1       3.765  -8.477  -7.235  1.00  0.00     0.198 A 
ATOM     59  F   UNL     1       3.158  -6.234  -7.599  1.00  0.00    -0.203 F 
ATOM     60  F   UNL     1       7.029 -10.000  -6.848  1.00  0.00    -0.200 F 
ATOM     61  C   UNL     1       4.744  -9.440  -7.045  1.00  0.00     0.200 A 
ATOM     62  F   UNL     1       2.472  -8.828  -7.254  1.00  0.00    -0.200 F 
ATOM     63  F   UNL     1       4.400 -10.728  -6.906  1.00  0.00    -0.200 F 
ENDBRANCH  29  53
BRANCH  41  64
ATOM     64  C   UNL     1       8.962  -3.173 -12.216  1.00  0.00     0.064 A 
ATOM     65  C   UNL     1       8.224  -3.570 -13.341  1.00  0.00     0.173 A 
ATOM     66  C   UNL     1      10.361  -3.143 -12.324  1.00  0.00     0.173 A 
ATOM     67  F   UNL     1       6.885  -3.634 -13.282  1.00  0.00    -0.203 F 
ATOM     68  C   UNL     1       8.863  -3.945 -14.519  1.00  0.00     0.198 A 
ATOM     69  C   UNL     1      10.995  -3.487 -13.514  1.00  0.00     0.198 A 
ATOM     70  F   UNL     1      11.112  -2.767 -11.278  1.00  0.00    -0.203 F 
ATOM     71  F   UNL     1       8.141  -4.369 -15.565  1.00  0.00    -0.200 F 
ATOM     72  C   UNL     1      10.246  -3.895 -14.608  1.00  0.00     0.200 A 
ATOM     73  F   UNL     1      12.330  -3.425 -13.602  1.00  0.00    -0.200 F 
ATOM     74  F   UNL     1      10.860  -4.248 -15.746  1.00  0.00    -0.200 F 
ENDBRANCH  41  64
ENDBRANCH  15  16
ENDBRANCH   8  10
ENDBRANCH   5   6
ENDBRANCH   4   5
ENDBRANCH   3   4
ENDBRANCH   2   3
ENDBRANCH   1   2
BRANCH   1  75
ATOM     75  C   UNL     1       7.391   1.959   4.512  1.00  0.00     0.116 C 
BRANCH  75  76
ATOM     76  N   UNL     1       7.127   2.183   5.918  1.00  0.00    -0.356 N 
ATOM     77  C   UNL     1       7.909   2.111   7.025  1.00  0.00     0.225 C 
ATOM     78  H   UNL     1       6.195   2.437   6.110  1.00  0.00     0.163 HD
ATOM     79  O   UNL     1       7.312   2.148   8.101  1.00  0.00    -0.275 OA
BRANCH  77  80
ATOM     80  C   UNL     1       9.434   2.026   6.929  1.00  0.00     0.109 C 
ATOM     81  C   UNL     1      10.049   1.442   8.195  1.00  0.00     0.026 C 
ATOM     82  C   UNL     1      10.042   3.415   6.662  1.00  0.00     0.164 C 
ATOM     83  C   UNL     1       9.885   2.354   9.395  1.00  0.00     0.101 C 
ATOM     84  N   UNL     1      10.106   4.317   7.834  1.00  0.00    -0.332 N 
ATOM     85  C   UNL     1       9.980   3.842   9.141  1.00  0.00     0.223 C 
ATOM     86  O   UNL     1       9.908   4.603  10.112  1.00  0.00    -0.275 OA
BRANCH  82  87
ATOM     87  C   UNL     1      11.381   3.325   5.982  1.00  0.00     0.127 A 
ATOM     88  C   UNL     1      11.737   3.022   4.681  1.00  0.00     0.048 A 
ATOM     89  O   UNL     1      12.491   3.694   6.685  1.00  0.00    -0.467 OA
ATOM     90  C   UNL     1      13.122   3.287   4.571  1.00  0.00     0.042 A 
ATOM     91  C   UNL     1      13.532   3.701   5.815  1.00  0.00     0.195 A 
ENDBRANCH  82  87
BRANCH  84  92
ATOM     92  C   UNL     1      10.145   5.796   7.713  1.00  0.00     0.122 C 
BRANCH  92  93
ATOM     93  C   UNL     1      10.855   6.531   6.568  1.00  0.00     0.050 C 
BRANCH  93  94
ATOM     94  C   UNL     1      10.248   6.562   5.162  1.00  0.00     0.162 C 
BRANCH  94  95
ATOM     95  O   UNL     1       9.215   7.519   4.928  1.00  0.00    -0.378 OA
BRANCH  95  96
ATOM     96  C   UNL     1       7.867   7.291   5.361  1.00  0.00     0.118 C 
ATOM     97  C   UNL     1       7.476   5.830   5.577  1.00  0.00     0.032 C 
ATOM     98  C   UNL     1       7.577   8.221   6.542  1.00  0.00     0.032 C 
ATOM     99  C   UNL     1       6.230   5.569   6.408  1.00  0.00     0.003 C 
ATOM    100  C   UNL     1       6.247   7.924   7.223  1.00  0.00     0.003 C 
ATOM    101  C   UNL     1       6.155   6.465   7.635  1.00  0.00     0.000 C 
ENDBRANCH  95  96
ENDBRANCH  94  95
ENDBRANCH  93  94
ENDBRANCH  92  93
ENDBRANCH  84  92
ENDBRANCH  77  80
ENDBRANCH  75  76
ENDBRANCH   1  75
TORSDOF 19
