REMARK SMILES O=C(CCC(=O)N1N=C(c2ccc(F)cc2)C[C@@H]1c1ccc2nccnc2c1)NCCCCCCNC(=O)c1ccc(-c2c3nc(c(-c4c(F)c(F)c(F)c(F)c4F)c4ccc([nH]4)c(-c4c(F)c(F)c(F)c(F)c4F)c4nc(c(-c5c(F)c(F)c(F)c(F)c5F)c5ccc2[nH]5)C=C4)C=C3)cc1
REMARK SMILES IDX 31 1 30 2 29 3 1 4 2 5 3 7 4 8 5 9 6 10 7 11 8 12 18 13 9 14
REMARK SMILES IDX 17 15 19 16 20 17 28 18 21 19 27 20 22 21 26 22 23 23 25 24
REMARK SMILES IDX 24 25 10 26 11 27 16 28 12 29 15 30 13 31 14 32 32 33 33 34
REMARK SMILES IDX 34 35 35 36 36 37 37 38 38 40 39 41 40 42 101 43 41 44
REMARK SMILES IDX 100 45 42 46 43 47 44 48 94 49 45 50 99 51 93 52 95 53 46 54
REMARK SMILES IDX 98 55 92 56 91 57 47 59 79 60 59 61 78 62 60 63 63 64 77 65
REMARK SMILES IDX 96 66 61 67 62 68 76 70 97 71 64 72 48 73 49 74 57 75 50 76
REMARK SMILES IDX 51 77 55 78 58 79 52 80 53 81 56 82 54 83 80 84 81 85 89 86
REMARK SMILES IDX 82 87 83 88 87 89 90 90 84 91 85 92 88 93 86 94 65 95 66 96
REMARK SMILES IDX 74 97 67 98 68 99 72 100 75 101 69 102 70 103 73 104 71 105
REMARK H PARENT 29 6 36 39 95 58 63 69
REMARK Flexibility Score: inf
ROOT
ATOM      1  C   UNL     1       1.082   2.887  -2.553  1.00  0.00     0.021 C 
ENDROOT
BRANCH   1   2
ATOM      2  C   UNL     1       0.843   1.383  -2.192  1.00  0.00     0.116 C 
BRANCH   2   3
ATOM      3  N   UNL     1       1.153   0.842  -0.860  1.00  0.00    -0.356 N 
ATOM      4  O   UNL     1       0.993  -1.364  -1.490  1.00  0.00    -0.275 OA
ATOM      5  C   UNL     1       1.331  -0.534  -0.652  1.00  0.00     0.220 C 
ATOM      6  H   UNL     1       1.238   1.459  -0.097  1.00  0.00     0.163 HD
BRANCH   5   7
ATOM      7  C   UNL     1       2.136  -0.940   0.618  1.00  0.00     0.110 C 
BRANCH   7   8
ATOM      8  C   UNL     1       3.217  -2.027   0.333  1.00  0.00     0.112 C 
BRANCH   8   9
ATOM      9  C   UNL     1       4.722  -1.799  -0.058  1.00  0.00     0.243 C 
ATOM     10  O   UNL     1       5.557  -2.623   0.335  1.00  0.00    -0.273 OA
BRANCH   9  11
ATOM     11  N   UNL     1       5.053  -0.839  -1.008  1.00  0.00    -0.225 N 
ATOM     12  N   UNL     1       5.672  -1.258  -2.217  1.00  0.00    -0.174 NA
ATOM     13  C   UNL     1       4.306   0.372  -1.224  1.00  0.00     0.147 C 
ATOM     14  C   UNL     1       5.059  -0.598  -3.158  1.00  0.00     0.071 C 
ATOM     15  C   UNL     1       3.904   0.198  -2.670  1.00  0.00     0.091 C 
BRANCH  13  16
ATOM     16  C   UNL     1       4.766   1.605  -0.452  1.00  0.00    -0.021 A 
ATOM     17  C   UNL     1       3.773   2.469   0.036  1.00  0.00     0.008 A 
ATOM     18  C   UNL     1       6.056   1.853   0.028  1.00  0.00     0.036 A 
ATOM     19  C   UNL     1       4.011   3.522   0.910  1.00  0.00     0.031 A 
ATOM     20  C   UNL     1       6.330   2.900   0.941  1.00  0.00     0.089 A 
ATOM     21  C   UNL     1       5.274   3.747   1.374  1.00  0.00     0.089 A 
ATOM     22  N   UNL     1       7.566   3.097   1.440  1.00  0.00    -0.253 NA
ATOM     23  N   UNL     1       5.431   4.755   2.248  1.00  0.00    -0.253 NA
ATOM     24  C   UNL     1       7.714   4.105   2.339  1.00  0.00     0.132 A 
ATOM     25  C   UNL     1       6.672   4.920   2.730  1.00  0.00     0.132 A 
ENDBRANCH  13  16
BRANCH  14  26
ATOM     26  C   UNL     1       5.195  -0.713  -4.618  1.00  0.00    -0.002 A 
ATOM     27  C   UNL     1       5.765   0.337  -5.347  1.00  0.00     0.013 A 
ATOM     28  C   UNL     1       4.466  -1.712  -5.278  1.00  0.00     0.013 A 
ATOM     29  C   UNL     1       5.627   0.371  -6.740  1.00  0.00     0.040 A 
ATOM     30  C   UNL     1       4.331  -1.673  -6.670  1.00  0.00     0.040 A 
ATOM     31  C   UNL     1       4.911  -0.632  -7.388  1.00  0.00     0.123 A 
ATOM     32  F   UNL     1       4.751  -0.576  -8.717  1.00  0.00    -0.207 F 
ENDBRANCH  14  26
ENDBRANCH   9  11
ENDBRANCH   8   9
ENDBRANCH   7   8
ENDBRANCH   5   7
ENDBRANCH   2   3
ENDBRANCH   1   2
BRANCH   1  33
ATOM     33  C   UNL     1       2.368   3.768  -2.529  1.00  0.00     0.002 C 
BRANCH  33  34
ATOM     34  C   UNL     1       3.689   3.523  -3.280  1.00  0.00     0.002 C 
BRANCH  34  35
ATOM     35  C   UNL     1       3.607   3.548  -4.804  1.00  0.00     0.021 C 
BRANCH  35  36
ATOM     36  C   UNL     1       3.939   4.933  -5.345  1.00  0.00     0.116 C 
BRANCH  36  37
ATOM     37  N   UNL     1       5.372   5.229  -5.334  1.00  0.00    -0.352 N 
ATOM     38  C   UNL     1       6.064   6.049  -6.207  1.00  0.00     0.251 C 
ATOM     39  H   UNL     1       5.903   4.797  -4.626  1.00  0.00     0.163 HD
ATOM     40  O   UNL     1       7.274   6.153  -6.177  1.00  0.00    -0.269 OA
BRANCH  38  41
ATOM     41  C   UNL     1       5.267   6.765  -7.224  1.00  0.00     0.039 A 
ATOM     42  C   UNL     1       5.531   6.551  -8.577  1.00  0.00     0.014 A 
ATOM     43  C   UNL     1       4.157   7.505  -6.814  1.00  0.00     0.014 A 
ATOM     44  C   UNL     1       4.615   7.005  -9.527  1.00  0.00     0.010 A 
ATOM     45  C   UNL     1       3.199   7.860  -7.749  1.00  0.00     0.010 A 
ATOM     46  C   UNL     1       3.418   7.614  -9.114  1.00  0.00    -0.014 A 
BRANCH  46  47
ATOM     47  C   UNL     1       2.375   8.024 -10.084  1.00  0.00     0.031 A 
ATOM     48  C   UNL     1       1.986   9.471 -10.175  1.00  0.00     0.074 A 
ATOM     49  C   UNL     1       1.717   7.091 -10.799  1.00  0.00     0.049 A 
ATOM     50  N   UNL     1       1.018  10.027 -10.856  1.00  0.00    -0.248 NA
ATOM     51  C   UNL     1       2.757  10.415  -9.348  1.00  0.00     0.031 C 
ATOM     52  C   UNL     1       1.960   5.649 -10.740  1.00  0.00     0.029 A 
ATOM     53  N   UNL     1       0.697   7.218 -11.709  1.00  0.00    -0.354 N 
ATOM     54  C   UNL     1       1.046  11.371 -10.511  1.00  0.00     0.074 A 
ATOM     55  C   UNL     1       2.078  11.539  -9.515  1.00  0.00     0.031 C 
ATOM     56  C   UNL     1       1.141   5.029 -11.604  1.00  0.00     0.029 A 
ATOM     57  C   UNL     1       0.288   6.023 -12.249  1.00  0.00     0.049 A 
ATOM     58  H   UNL     1       0.297   8.084 -11.952  1.00  0.00     0.167 HD
ATOM     59  C   UNL     1       0.297  12.382 -11.009  1.00  0.00     0.037 A 
ATOM     60  C   UNL     1      -0.666   5.763 -13.164  1.00  0.00     0.037 A 
ATOM     61  C   UNL     1      -0.678  12.213 -12.050  1.00  0.00     0.049 A 
ATOM     62  C   UNL     1      -1.456   6.906 -13.738  1.00  0.00     0.074 A 
ATOM     63  C   UNL     1      -1.417  13.183 -12.703  1.00  0.00     0.029 A 
ATOM     64  N   UNL     1      -1.042  10.991 -12.598  1.00  0.00    -0.354 N 
ATOM     65  N   UNL     1      -1.377   8.185 -13.457  1.00  0.00    -0.248 NA
ATOM     66  C   UNL     1      -2.466   6.576 -14.753  1.00  0.00     0.031 C 
ATOM     67  C   UNL     1      -2.257  12.544 -13.618  1.00  0.00     0.029 A 
ATOM     68  C   UNL     1      -2.012  11.180 -13.567  1.00  0.00     0.049 A 
ATOM     69  H   UNL     1      -0.666  10.120 -12.336  1.00  0.00     0.167 HD
ATOM     70  C   UNL     1      -2.311   8.814 -14.267  1.00  0.00     0.074 A 
ATOM     71  C   UNL     1      -2.939   7.777 -15.061  1.00  0.00     0.031 C 
ATOM     72  C   UNL     1      -2.622  10.131 -14.343  1.00  0.00     0.037 A 
BRANCH  59  73
ATOM     73  C   UNL     1       0.522  13.755 -10.451  1.00  0.00     0.064 A 
ATOM     74  C   UNL     1      -0.471  14.382  -9.684  1.00  0.00     0.173 A 
ATOM     75  C   UNL     1       1.707  14.466 -10.698  1.00  0.00     0.173 A 
ATOM     76  F   UNL     1      -1.623  13.747  -9.419  1.00  0.00    -0.203 F 
ATOM     77  C   UNL     1      -0.286  15.669  -9.185  1.00  0.00     0.198 A 
ATOM     78  C   UNL     1       1.901  15.740 -10.171  1.00  0.00     0.198 A 
ATOM     79  F   UNL     1       2.694  13.906 -11.413  1.00  0.00    -0.203 F 
ATOM     80  F   UNL     1      -1.256  16.255  -8.471  1.00  0.00    -0.200 F 
ATOM     81  C   UNL     1       0.902  16.343  -9.423  1.00  0.00     0.200 A 
ATOM     82  F   UNL     1       3.063  16.377 -10.376  1.00  0.00    -0.200 F 
ATOM     83  F   UNL     1       1.088  17.573  -8.923  1.00  0.00    -0.200 F 
ENDBRANCH  59  73
BRANCH  60  84
ATOM     84  C   UNL     1      -0.876   4.366 -13.621  1.00  0.00     0.064 A 
ATOM     85  C   UNL     1      -1.459   3.401 -12.787  1.00  0.00     0.173 A 
ATOM     86  C   UNL     1      -0.437   3.955 -14.887  1.00  0.00     0.173 A 
ATOM     87  F   UNL     1      -1.889   3.742 -11.563  1.00  0.00    -0.203 F 
ATOM     88  C   UNL     1      -1.572   2.072 -13.194  1.00  0.00     0.198 A 
ATOM     89  C   UNL     1      -0.570   2.631 -15.301  1.00  0.00     0.198 A 
ATOM     90  F   UNL     1       0.111   4.846 -15.726  1.00  0.00    -0.203 F 
ATOM     91  F   UNL     1      -2.099   1.162 -12.363  1.00  0.00    -0.200 F 
ATOM     92  C   UNL     1      -1.128   1.688 -14.450  1.00  0.00     0.200 A 
ATOM     93  F   UNL     1      -0.155   2.268 -16.522  1.00  0.00    -0.200 F 
ATOM     94  F   UNL     1      -1.236   0.411 -14.841  1.00  0.00    -0.200 F 
ENDBRANCH  60  84
BRANCH  72  95
ATOM     95  C   UNL     1      -3.685  10.539 -15.317  1.00  0.00     0.064 A 
ATOM     96  C   UNL     1      -3.350  11.257 -16.475  1.00  0.00     0.173 A 
ATOM     97  C   UNL     1      -5.042  10.316 -15.047  1.00  0.00     0.173 A 
ATOM     98  F   UNL     1      -2.064  11.504 -16.769  1.00  0.00    -0.203 F 
ATOM     99  C   UNL     1      -4.338  11.757 -17.317  1.00  0.00     0.198 A 
ATOM    100  C   UNL     1      -6.027  10.796 -15.905  1.00  0.00     0.198 A 
ATOM    101  F   UNL     1      -5.408   9.626 -13.957  1.00  0.00    -0.203 F 
ATOM    102  F   UNL     1      -3.998  12.476 -18.395  1.00  0.00    -0.200 F 
ATOM    103  C   UNL     1      -5.676  11.526 -17.031  1.00  0.00     0.200 A 
ATOM    104  F   UNL     1      -7.319  10.557 -15.638  1.00  0.00    -0.200 F 
ATOM    105  F   UNL     1      -6.628  12.009 -17.841  1.00  0.00    -0.200 F 
ENDBRANCH  72  95
ENDBRANCH  46  47
ENDBRANCH  38  41
ENDBRANCH  36  37
ENDBRANCH  35  36
ENDBRANCH  34  35
ENDBRANCH  33  34
ENDBRANCH   1  33
TORSDOF 18
