REMARK SMILES CCN(C(=O)c1ccc(C)cc1F)[C@@H]1COC[C@@H]1C(=O)NCCCCCCNC(=O)c1ccc(-c2c3nc(c(-c4c(F)c(F)c(F)c(F)c4F)c4ccc([nH]4)c(-c4c(F)c(F)c(F)c(F)c4F)c4nc(c(-c5c(F)c(F)c(F)c(F)c5F)c5ccc2[nH]5)C=C4)C=C3)cc1
REMARK SMILES IDX 24 1 23 2 22 3 21 4 19 5 20 6 18 8 14 9 15 10 16 11 17 12
REMARK SMILES IDX 3 13 2 14 1 15 4 16 5 17 6 18 7 19 12 20 8 21 11 22 13 23
REMARK SMILES IDX 9 24 10 25 25 26 26 27 27 28 28 29 29 30 30 32 31 33 32 34
REMARK SMILES IDX 93 35 33 36 92 37 34 38 35 39 36 40 86 41 37 42 91 43 85 44
REMARK SMILES IDX 87 45 38 46 90 47 84 48 83 49 39 51 71 52 51 53 70 54 52 55
REMARK SMILES IDX 55 56 69 57 88 58 53 59 54 60 68 62 89 63 56 64 40 65 41 66
REMARK SMILES IDX 49 67 42 68 43 69 47 70 50 71 44 72 45 73 48 74 46 75 72 76
REMARK SMILES IDX 73 77 81 78 74 79 75 80 79 81 82 82 76 83 77 84 80 85 78 86
REMARK SMILES IDX 57 87 58 88 66 89 59 90 60 91 64 92 67 93 61 94 62 95 65 96
REMARK SMILES IDX 63 97
REMARK H PARENT 21 7 28 31 87 50 55 61
REMARK Flexibility Score: inf
ROOT
ATOM      1  C   UNL     1      -1.446   2.443  -0.595  1.00  0.00     0.002 C 
ENDROOT
BRANCH   1   2
ATOM      2  C   UNL     1      -0.715   2.230  -1.926  1.00  0.00     0.021 C 
BRANCH   2   3
ATOM      3  C   UNL     1       0.721   2.749  -1.993  1.00  0.00     0.116 C 
BRANCH   3   4
ATOM      4  N   UNL     1       1.529   2.286  -0.878  1.00  0.00    -0.356 N 
ATOM      5  C   UNL     1       2.484   1.315  -0.783  1.00  0.00     0.227 C 
ATOM      6  O   UNL     1       2.942   1.107   0.341  1.00  0.00    -0.275 OA
ATOM      7  H   UNL     1       1.355   2.760  -0.033  1.00  0.00     0.163 HD
BRANCH   5   8
ATOM      8  C   UNL     1       2.971   0.585  -2.021  1.00  0.00     0.129 C 
ATOM      9  C   UNL     1       2.328  -0.732  -2.458  1.00  0.00     0.126 C 
ATOM     10  C   UNL     1       3.295  -1.845  -2.062  1.00  0.00     0.186 C 
ATOM     11  O   UNL     1       4.480  -1.234  -1.552  1.00  0.00    -0.378 OA
ATOM     12  C   UNL     1       4.432   0.169  -1.837  1.00  0.00     0.176 C 
BRANCH   9  13
ATOM     13  N   UNL     1       0.905  -1.039  -2.205  1.00  0.00    -0.333 N 
BRANCH  13  14
ATOM     14  C   UNL     1       0.341  -0.966  -0.834  1.00  0.00     0.117 C 
ATOM     15  C   UNL     1       1.113  -1.614   0.301  1.00  0.00     0.027 C 
ENDBRANCH  13  14
BRANCH  13  16
ATOM     16  C   UNL     1       0.134  -1.350  -3.350  1.00  0.00     0.257 C 
ATOM     17  O   UNL     1       0.584  -1.415  -4.492  1.00  0.00    -0.269 OA
BRANCH  16  18
ATOM     18  C   UNL     1      -1.323  -1.474  -3.231  1.00  0.00     0.075 A 
ATOM     19  C   UNL     1      -2.120  -0.415  -3.674  1.00  0.00     0.017 A 
ATOM     20  C   UNL     1      -1.902  -2.592  -2.649  1.00  0.00     0.136 A 
ATOM     21  C   UNL     1      -3.479  -0.406  -3.366  1.00  0.00     0.004 A 
ATOM     22  C   UNL     1      -3.260  -2.594  -2.356  1.00  0.00     0.043 A 
ATOM     23  F   UNL     1      -1.156  -3.644  -2.288  1.00  0.00    -0.206 F 
ATOM     24  C   UNL     1      -4.043  -1.470  -2.646  1.00  0.00    -0.048 A 
ATOM     25  C   UNL     1      -5.465  -1.421  -2.177  1.00  0.00     0.044 C 
ENDBRANCH  16  18
ENDBRANCH  13  16
ENDBRANCH   9  13
ENDBRANCH   5   8
ENDBRANCH   3   4
ENDBRANCH   2   3
ENDBRANCH   1   2
BRANCH   1  26
ATOM     26  C   UNL     1      -1.888   3.885  -0.314  1.00  0.00     0.002 C 
BRANCH  26  27
ATOM     27  C   UNL     1      -2.719   4.548  -1.419  1.00  0.00     0.021 C 
BRANCH  27  28
ATOM     28  C   UNL     1      -4.019   3.817  -1.710  1.00  0.00     0.116 C 
BRANCH  28  29
ATOM     29  N   UNL     1      -5.084   4.173  -0.787  1.00  0.00    -0.352 N 
ATOM     30  C   UNL     1      -6.451   4.139  -0.965  1.00  0.00     0.251 C 
ATOM     31  H   UNL     1      -4.785   4.485   0.098  1.00  0.00     0.163 HD
ATOM     32  O   UNL     1      -7.175   4.743  -0.183  1.00  0.00    -0.269 OA
BRANCH  30  33
ATOM     33  C   UNL     1      -7.065   3.326  -2.045  1.00  0.00     0.039 A 
ATOM     34  C   UNL     1      -8.396   3.550  -2.440  1.00  0.00     0.014 A 
ATOM     35  C   UNL     1      -6.385   2.229  -2.554  1.00  0.00     0.014 A 
ATOM     36  C   UNL     1      -9.046   2.636  -3.280  1.00  0.00     0.010 A 
ATOM     37  C   UNL     1      -6.983   1.391  -3.454  1.00  0.00     0.010 A 
ATOM     38  C   UNL     1      -8.333   1.537  -3.740  1.00  0.00    -0.014 A 
BRANCH  38  39
ATOM     39  C   UNL     1      -8.855   0.373  -4.429  1.00  0.00     0.031 A 
ATOM     40  C   UNL     1      -8.761   0.286  -5.893  1.00  0.00     0.074 A 
ATOM     41  C   UNL     1      -9.049  -0.725  -3.663  1.00  0.00     0.049 A 
ATOM     42  N   UNL     1      -9.402  -0.568  -6.606  1.00  0.00    -0.248 NA
ATOM     43  C   UNL     1      -7.909   1.168  -6.679  1.00  0.00     0.031 C 
ATOM     44  C   UNL     1      -9.130  -2.121  -4.076  1.00  0.00     0.029 A 
ATOM     45  N   UNL     1      -9.322  -0.762  -2.285  1.00  0.00    -0.354 N 
ATOM     46  C   UNL     1      -8.862  -0.552  -7.874  1.00  0.00     0.074 A 
ATOM     47  C   UNL     1      -7.994   0.602  -7.889  1.00  0.00     0.031 C 
ATOM     48  C   UNL     1      -9.733  -2.824  -3.101  1.00  0.00     0.029 A 
ATOM     49  C   UNL     1     -10.177  -1.869  -2.099  1.00  0.00     0.049 A 
ATOM     50  H   UNL     1      -8.988  -0.145  -1.594  1.00  0.00     0.167 HD
ATOM     51  C   UNL     1      -9.123  -1.607  -8.701  1.00  0.00     0.037 A 
ATOM     52  C   UNL     1     -11.482  -1.651  -1.756  1.00  0.00     0.037 A 
ATOM     53  C   UNL     1      -9.993  -2.569  -8.019  1.00  0.00     0.049 A 
ATOM     54  C   UNL     1     -12.444  -2.063  -2.841  1.00  0.00     0.074 A 
ATOM     55  C   UNL     1      -9.716  -3.738  -7.328  1.00  0.00     0.029 A 
ATOM     56  N   UNL     1     -11.288  -2.199  -7.671  1.00  0.00    -0.354 N 
ATOM     57  N   UNL     1     -12.119  -2.156  -4.102  1.00  0.00    -0.248 NA
ATOM     58  C   UNL     1     -13.829  -2.444  -2.588  1.00  0.00     0.031 C 
ATOM     59  C   UNL     1     -10.825  -4.021  -6.492  1.00  0.00     0.029 A 
ATOM     60  C   UNL     1     -11.785  -3.045  -6.698  1.00  0.00     0.049 A 
ATOM     61  H   UNL     1     -11.780  -1.441  -8.062  1.00  0.00     0.167 HD
ATOM     62  C   UNL     1     -13.190  -2.624  -4.815  1.00  0.00     0.074 A 
ATOM     63  C   UNL     1     -14.238  -2.783  -3.824  1.00  0.00     0.031 C 
ATOM     64  C   UNL     1     -13.125  -2.869  -6.158  1.00  0.00     0.037 A 
BRANCH  51  65
ATOM     65  C   UNL     1      -8.403  -1.933  -9.996  1.00  0.00     0.064 A 
ATOM     66  C   UNL     1      -8.399  -3.256 -10.501  1.00  0.00     0.173 A 
ATOM     67  C   UNL     1      -7.680  -1.014 -10.780  1.00  0.00     0.173 A 
ATOM     68  F   UNL     1      -9.120  -4.228  -9.926  1.00  0.00    -0.203 F 
ATOM     69  C   UNL     1      -7.658  -3.638 -11.623  1.00  0.00     0.198 A 
ATOM     70  C   UNL     1      -6.907  -1.403 -11.882  1.00  0.00     0.198 A 
ATOM     71  F   UNL     1      -7.740   0.301 -10.553  1.00  0.00    -0.203 F 
ATOM     72  F   UNL     1      -7.692  -4.911 -12.041  1.00  0.00    -0.200 F 
ATOM     73  C   UNL     1      -6.888  -2.716 -12.298  1.00  0.00     0.200 A 
ATOM     74  F   UNL     1      -6.186  -0.484 -12.543  1.00  0.00    -0.200 F 
ATOM     75  F   UNL     1      -6.157  -3.084 -13.359  1.00  0.00    -0.200 F 
ENDBRANCH  51  65
BRANCH  52  76
ATOM     76  C   UNL     1     -11.623  -0.497  -0.822  1.00  0.00     0.064 A 
ATOM     77  C   UNL     1     -11.089  -0.667   0.472  1.00  0.00     0.173 A 
ATOM     78  C   UNL     1     -11.764   0.817  -1.293  1.00  0.00     0.173 A 
ATOM     79  F   UNL     1     -10.943  -1.904   0.974  1.00  0.00    -0.203 F 
ATOM     80  C   UNL     1     -10.565   0.407   1.188  1.00  0.00     0.198 A 
ATOM     81  C   UNL     1     -11.254   1.895  -0.560  1.00  0.00     0.198 A 
ATOM     82  F   UNL     1     -12.260   1.049  -2.517  1.00  0.00    -0.203 F 
ATOM     83  F   UNL     1      -9.932   0.189   2.349  1.00  0.00    -0.200 F 
ATOM     84  C   UNL     1     -10.612   1.682   0.652  1.00  0.00     0.200 A 
ATOM     85  F   UNL     1     -11.305   3.134  -1.072  1.00  0.00    -0.200 F 
ATOM     86  F   UNL     1     -10.007   2.696   1.286  1.00  0.00    -0.200 F 
ENDBRANCH  52  76
BRANCH  64  87
ATOM     87  C   UNL     1     -14.308  -3.099  -7.065  1.00  0.00     0.064 A 
ATOM     88  C   UNL     1     -15.595  -2.601  -6.805  1.00  0.00     0.173 A 
ATOM     89  C   UNL     1     -14.140  -3.719  -8.328  1.00  0.00     0.173 A 
ATOM     90  F   UNL     1     -15.853  -1.869  -5.713  1.00  0.00    -0.203 F 
ATOM     91  C   UNL     1     -16.653  -2.787  -7.697  1.00  0.00     0.198 A 
ATOM     92  C   UNL     1     -15.182  -3.842  -9.245  1.00  0.00     0.198 A 
ATOM     93  F   UNL     1     -12.953  -4.198  -8.728  1.00  0.00    -0.203 F 
ATOM     94  F   UNL     1     -17.876  -2.343  -7.373  1.00  0.00    -0.200 F 
ATOM     95  C   UNL     1     -16.446  -3.399  -8.918  1.00  0.00     0.200 A 
ATOM     96  F   UNL     1     -14.947  -4.375 -10.452  1.00  0.00    -0.200 F 
ATOM     97  F   UNL     1     -17.455  -3.537  -9.788  1.00  0.00    -0.200 F 
ENDBRANCH  64  87
ENDBRANCH  38  39
ENDBRANCH  30  33
ENDBRANCH  28  29
ENDBRANCH  27  28
ENDBRANCH  26  27
ENDBRANCH   1  26
TORSDOF 17
