REMARK SMILES O=C(NCCCCCCNC(=O)[C@@H]1[C@@H](C(=O)N2CC[NH+](C/C=C/c3ccccc3)CC2)[C@@H]2C=C[C@H]1C2)c1ccc(-c2c3nc(c(-c4c(F)c(F)c(F)c(F)c4F)c4ccc([nH]4)c(-c4c(F)c(F)c(F)c(F)c4F)c4nc(c(-c5c(F)c(F)c(F)c(F)c5F)c5ccc2[nH]5)C=C4)C=C3)cc1
REMARK SMILES IDX 7 1 6 2 5 3 4 4 3 5 1 6 2 7 37 9 38 10 99 11 39 12 98 13
REMARK SMILES IDX 40 14 41 15 42 16 92 17 43 18 97 19 91 20 93 21 44 22 96 23
REMARK SMILES IDX 90 24 89 25 45 27 77 28 57 29 76 30 58 31 61 32 75 33 94 34
REMARK SMILES IDX 59 35 60 36 74 38 95 39 62 40 46 41 47 42 55 43 48 44 49 45
REMARK SMILES IDX 53 46 56 47 50 48 51 49 54 50 52 51 78 52 79 53 87 54 80 55
REMARK SMILES IDX 81 56 85 57 88 58 82 59 83 60 86 61 84 62 63 63 64 64 72 65
REMARK SMILES IDX 65 66 66 67 70 68 73 69 67 70 68 71 71 72 69 73 8 74 9 75
REMARK SMILES IDX 10 76 11 77 12 79 13 80 14 81 35 82 32 83 34 84 36 85 33 86
REMARK SMILES IDX 15 87 16 88 17 89 18 90 31 91 19 92 30 93 20 94 21 96 22 97
REMARK SMILES IDX 23 98 24 99 25 100 29 101 26 102 28 103 27 104
REMARK H PARENT 3 8 93 26 61 37 10 78 20 95
REMARK Flexibility Score: inf
ROOT
ATOM      1  C   UNL     1       4.827  -3.092  -3.018  1.00  0.00     0.002 C 
ENDROOT
BRANCH   1   2
ATOM      2  C   UNL     1       4.122  -3.499  -1.720  1.00  0.00     0.002 C 
BRANCH   2   3
ATOM      3  C   UNL     1       4.565  -2.725  -0.479  1.00  0.00     0.021 C 
BRANCH   3   4
ATOM      4  C   UNL     1       4.418  -1.214  -0.595  1.00  0.00     0.116 C 
BRANCH   4   5
ATOM      5  N   UNL     1       3.031  -0.797  -0.730  1.00  0.00    -0.352 N 
ATOM      6  O   UNL     1       1.122   0.258  -0.140  1.00  0.00    -0.269 OA
ATOM      7  C   UNL     1       2.336   0.138  -0.004  1.00  0.00     0.251 C 
ATOM      8  H   UNL     1       2.521  -1.249  -1.440  1.00  0.00     0.163 HD
BRANCH   7   9
ATOM      9  C   UNL     1       3.058   0.982   0.971  1.00  0.00     0.039 A 
ATOM     10  C   UNL     1       4.273   1.578   0.627  1.00  0.00     0.014 A 
ATOM     11  C   UNL     1       2.525   1.155   2.250  1.00  0.00     0.014 A 
ATOM     12  C   UNL     1       5.030   2.207   1.607  1.00  0.00     0.010 A 
ATOM     13  C   UNL     1       3.247   1.868   3.211  1.00  0.00     0.010 A 
ATOM     14  C   UNL     1       4.526   2.362   2.909  1.00  0.00    -0.014 A 
BRANCH  14  15
ATOM     15  C   UNL     1       5.351   3.067   3.923  1.00  0.00     0.031 A 
ATOM     16  C   UNL     1       5.870   2.350   5.139  1.00  0.00     0.074 A 
ATOM     17  C   UNL     1       5.672   4.358   3.712  1.00  0.00     0.049 A 
ATOM     18  N   UNL     1       6.648   2.800   6.093  1.00  0.00    -0.248 NA
ATOM     19  C   UNL     1       5.458   0.950   5.317  1.00  0.00     0.031 C 
ATOM     20  C   UNL     1       5.215   5.162   2.576  1.00  0.00     0.029 A 
ATOM     21  N   UNL     1       6.474   5.213   4.423  1.00  0.00    -0.354 N 
ATOM     22  C   UNL     1       6.795   1.752   6.992  1.00  0.00     0.074 A 
ATOM     23  C   UNL     1       6.009   0.648   6.484  1.00  0.00     0.031 C 
ATOM     24  C   UNL     1       5.789   6.372   2.635  1.00  0.00     0.029 A 
ATOM     25  C   UNL     1       6.608   6.449   3.840  1.00  0.00     0.049 A 
ATOM     26  H   UNL     1       6.912   4.964   5.268  1.00  0.00     0.167 HD
ATOM     27  C   UNL     1       7.527   1.715   8.132  1.00  0.00     0.037 A 
ATOM     28  C   UNL     1       7.309   7.527   4.233  1.00  0.00     0.037 A 
ATOM     29  C   UNL     1       8.332   2.807   8.619  1.00  0.00     0.049 A 
ATOM     30  C   UNL     1       8.114   7.453   5.498  1.00  0.00     0.074 A 
ATOM     31  C   UNL     1       9.143   2.850   9.739  1.00  0.00     0.029 A 
ATOM     32  N   UNL     1       8.424   4.051   8.012  1.00  0.00    -0.354 N 
ATOM     33  N   UNL     1       8.277   6.443   6.317  1.00  0.00    -0.248 NA
ATOM     34  C   UNL     1       8.832   8.671   5.894  1.00  0.00     0.031 C 
ATOM     35  C   UNL     1       9.694   4.133   9.834  1.00  0.00     0.029 A 
ATOM     36  C   UNL     1       9.265   4.875   8.746  1.00  0.00     0.049 A 
ATOM     37  H   UNL     1       7.962   4.311   7.183  1.00  0.00     0.167 HD
ATOM     38  C   UNL     1       9.133   6.894   7.311  1.00  0.00     0.074 A 
ATOM     39  C   UNL     1       9.470   8.264   6.982  1.00  0.00     0.031 C 
ATOM     40  C   UNL     1       9.596   6.233   8.400  1.00  0.00     0.037 A 
BRANCH  27  41
ATOM     41  C   UNL     1       7.481   0.455   8.950  1.00  0.00     0.064 A 
ATOM     42  C   UNL     1       8.114  -0.723   8.530  1.00  0.00     0.173 A 
ATOM     43  C   UNL     1       6.834   0.443  10.195  1.00  0.00     0.173 A 
ATOM     44  F   UNL     1       8.737  -0.769   7.342  1.00  0.00    -0.203 F 
ATOM     45  C   UNL     1       8.080  -1.874   9.314  1.00  0.00     0.198 A 
ATOM     46  C   UNL     1       6.825  -0.701  10.989  1.00  0.00     0.198 A 
ATOM     47  F   UNL     1       6.218   1.546  10.649  1.00  0.00    -0.203 F 
ATOM     48  F   UNL     1       8.656  -3.001   8.873  1.00  0.00    -0.200 F 
ATOM     49  C   UNL     1       7.442  -1.860  10.546  1.00  0.00     0.200 A 
ATOM     50  F   UNL     1       6.219  -0.681  12.185  1.00  0.00    -0.200 F 
ATOM     51  F   UNL     1       7.418  -2.966  11.303  1.00  0.00    -0.200 F 
ENDBRANCH  27  41
BRANCH  28  52
ATOM     52  C   UNL     1       7.291   8.760   3.406  1.00  0.00     0.064 A 
ATOM     53  C   UNL     1       8.434   9.175   2.709  1.00  0.00     0.173 A 
ATOM     54  C   UNL     1       6.130   9.538   3.283  1.00  0.00     0.173 A 
ATOM     55  F   UNL     1       9.572   8.473   2.810  1.00  0.00    -0.203 F 
ATOM     56  C   UNL     1       8.421  10.332   1.934  1.00  0.00     0.198 A 
ATOM     57  C   UNL     1       6.111  10.678   2.483  1.00  0.00     0.198 A 
ATOM     58  F   UNL     1       5.009   9.178   3.924  1.00  0.00    -0.203 F 
ATOM     59  F   UNL     1       9.538  10.730   1.310  1.00  0.00    -0.200 F 
ATOM     60  C   UNL     1       7.258  11.078   1.815  1.00  0.00     0.200 A 
ATOM     61  F   UNL     1       4.980  11.386   2.358  1.00  0.00    -0.200 F 
ATOM     62  F   UNL     1       7.244  12.186   1.062  1.00  0.00    -0.200 F 
ENDBRANCH  28  52
BRANCH  40  63
ATOM     63  C   UNL     1      10.549   6.974   9.291  1.00  0.00     0.064 A 
ATOM     64  C   UNL     1      10.119   8.021  10.120  1.00  0.00     0.173 A 
ATOM     65  C   UNL     1      11.906   6.621   9.325  1.00  0.00     0.173 A 
ATOM     66  F   UNL     1       8.835   8.407  10.109  1.00  0.00    -0.203 F 
ATOM     67  C   UNL     1      11.021   8.709  10.928  1.00  0.00     0.198 A 
ATOM     68  C   UNL     1      12.799   7.292  10.156  1.00  0.00     0.198 A 
ATOM     69  F   UNL     1      12.366   5.624   8.555  1.00  0.00    -0.203 F 
ATOM     70  F   UNL     1      10.599   9.741  11.671  1.00  0.00    -0.200 F 
ATOM     71  C   UNL     1      12.358   8.340  10.949  1.00  0.00     0.200 A 
ATOM     72  F   UNL     1      14.089   6.928  10.184  1.00  0.00    -0.200 F 
ATOM     73  F   UNL     1      13.225   9.004  11.727  1.00  0.00    -0.200 F 
ENDBRANCH  40  63
ENDBRANCH  14  15
ENDBRANCH   7   9
ENDBRANCH   4   5
ENDBRANCH   3   4
ENDBRANCH   2   3
ENDBRANCH   1   2
BRANCH   1  74
ATOM     74  C   UNL     1       6.359  -3.139  -2.963  1.00  0.00     0.021 C 
BRANCH  74  75
ATOM     75  C   UNL     1       6.920  -4.493  -2.532  1.00  0.00     0.116 C 
BRANCH  75  76
ATOM     76  N   UNL     1       6.584  -5.515  -3.506  1.00  0.00    -0.356 N 
ATOM     77  C   UNL     1       7.403  -6.311  -4.250  1.00  0.00     0.224 C 
ATOM     78  H   UNL     1       5.620  -5.655  -3.651  1.00  0.00     0.163 HD
ATOM     79  O   UNL     1       6.907  -6.979  -5.154  1.00  0.00    -0.275 OA
BRANCH  77  80
ATOM     80  C   UNL     1       8.863  -6.367  -3.869  1.00  0.00     0.098 C 
ATOM     81  C   UNL     1       9.817  -6.919  -4.967  1.00  0.00     0.098 C 
ATOM     82  C   UNL     1       9.076  -7.355  -2.689  1.00  0.00     0.025 C 
ATOM     83  C   UNL     1      10.656  -7.945  -4.167  1.00  0.00     0.025 C 
ATOM     84  C   UNL     1       8.781  -8.776  -3.112  1.00  0.00    -0.027 C 
ATOM     85  C   UNL     1      10.596  -7.456  -2.708  1.00  0.00     0.017 C 
ATOM     86  C   UNL     1       9.738  -9.143  -3.980  1.00  0.00    -0.027 C 
BRANCH  81  87
ATOM     87  C   UNL     1      10.523  -5.809  -5.750  1.00  0.00     0.227 C 
ATOM     88  O   UNL     1      10.471  -5.791  -6.982  1.00  0.00    -0.275 OA
ATOM     89  N   UNL     1      11.063  -4.745  -5.058  1.00  0.00    -0.331 N 
ATOM     90  C   UNL     1      10.910  -3.405  -5.624  1.00  0.00     0.181 C 
ATOM     91  C   UNL     1      12.235  -4.890  -4.209  1.00  0.00     0.181 C 
ATOM     92  C   UNL     1      11.001  -2.309  -4.541  1.00  0.00     0.284 C 
ATOM     93  C   UNL     1      12.238  -3.833  -3.089  1.00  0.00     0.284 C 
ATOM     94  N   UNL     1      12.087  -2.440  -3.548  1.00  0.00    -0.329 N 
ATOM     95  H   UNL     1      11.795  -1.907  -2.729  1.00  0.00     0.348 HD
BRANCH  94  96
ATOM     96  C   UNL     1      13.339  -1.773  -3.926  1.00  0.00     0.291 C 
BRANCH  96  97
ATOM     97  C   UNL     1      14.147  -2.457  -4.986  1.00  0.00     0.034 C 
ATOM     98  C   UNL     1      14.190  -2.084  -6.274  1.00  0.00     0.009 C 
BRANCH  98  99
ATOM     99  C   UNL     1      14.809  -2.931  -7.297  1.00  0.00    -0.026 A 
ATOM    100  C   UNL     1      15.933  -2.494  -7.999  1.00  0.00     0.008 A 
ATOM    101  C   UNL     1      14.236  -4.167  -7.630  1.00  0.00     0.008 A 
ATOM    102  C   UNL     1      16.470  -3.284  -9.021  1.00  0.00     0.001 A 
ATOM    103  C   UNL     1      14.769  -4.953  -8.650  1.00  0.00     0.001 A 
ATOM    104  C   UNL     1      15.886  -4.508  -9.348  1.00  0.00     0.000 A 
ENDBRANCH  98  99
ENDBRANCH  96  97
ENDBRANCH  94  96
ENDBRANCH  81  87
ENDBRANCH  77  80
ENDBRANCH  75  76
ENDBRANCH  74  75
ENDBRANCH   1  74
TORSDOF 17
