REMARK SMILES C[C@H]1SCCC[C@@]1(C(=O)NCCCCCCNC(=O)c1ccc(-c2c3nc(c(-c4c(F)c(F)c(F)c(F)c4F)c4ccc([nH]4)c(-c4c(F)c(F)c(F)c(F)c4F)c4nc(c(-c5c(F)c(F)c(F)c(F)c5F)c5ccc2[nH]5)C=C4)C=C3)cc1)[NH+]1CCCC1
REMARK SMILES IDX 14 1 13 2 12 3 11 4 10 5 8 6 9 7 7 9 1 10 2 11 3 12 4 13
REMARK SMILES IDX 6 14 5 15 83 16 84 17 87 18 85 20 86 21 15 22 16 23 17 24
REMARK SMILES IDX 18 25 19 27 20 28 21 29 82 30 22 31 81 32 23 33 24 34 25 35
REMARK SMILES IDX 75 36 26 37 80 38 74 39 76 40 27 41 79 42 73 43 72 44 28 46
REMARK SMILES IDX 60 47 40 48 59 49 41 50 44 51 58 52 77 53 42 54 43 55 57 57
REMARK SMILES IDX 78 58 45 59 29 60 30 61 38 62 31 63 32 64 36 65 39 66 33 67
REMARK SMILES IDX 34 68 37 69 35 70 61 71 62 72 70 73 63 74 64 75 68 76 71 77
REMARK SMILES IDX 65 78 66 79 69 80 67 81 46 82 47 83 55 84 48 85 49 86 53 87
REMARK SMILES IDX 56 88 50 89 51 90 54 91 52 92
REMARK H PARENT 10 8 83 19 17 26 76 45 44 56
REMARK Flexibility Score: inf
ROOT
ATOM      1  C   UNL     1       5.445   5.711  -0.485  1.00  0.00     0.002 C 
ENDROOT
BRANCH   1   2
ATOM      2  C   UNL     1       5.070   5.465   0.978  1.00  0.00     0.002 C 
BRANCH   2   3
ATOM      3  C   UNL     1       3.570   5.418   1.272  1.00  0.00     0.021 C 
BRANCH   3   4
ATOM      4  C   UNL     1       2.781   4.373   0.485  1.00  0.00     0.116 C 
BRANCH   4   5
ATOM      5  N   UNL     1       3.073   3.026   0.920  1.00  0.00    -0.351 N 
ATOM      6  C   UNL     1       2.311   1.970   1.317  1.00  0.00     0.282 C 
ATOM      7  O   UNL     1       2.995   0.979   1.607  1.00  0.00    -0.268 OA
ATOM      8  H   UNL     1       4.038   2.829   0.932  1.00  0.00     0.163 HD
BRANCH   6   9
ATOM      9  C   UNL     1       0.703   1.959   1.410  1.00  0.00     0.188 C 
ATOM     10  C   UNL     1       0.670  -0.356   2.699  1.00  0.00     0.027 C 
ATOM     11  C   UNL     1       0.373   0.390   1.382  1.00  0.00     0.115 C 
ATOM     12  S   UNL     1      -1.328  -0.138   0.898  1.00  0.00    -0.152 SA
ATOM     13  C   UNL     1      -1.497   0.798  -0.627  1.00  0.00     0.070 C 
ATOM     14  C   UNL     1       0.126   2.628   0.123  1.00  0.00     0.081 C 
ATOM     15  C   UNL     1      -1.277   2.272  -0.370  1.00  0.00     0.018 C 
BRANCH   9  16
ATOM     16  N   UNL     1       0.261   2.524   2.729  1.00  0.00    -0.321 N 
ATOM     17  C   UNL     1      -1.165   2.770   2.945  1.00  0.00     0.263 C 
ATOM     18  C   UNL     1       0.902   3.714   3.276  1.00  0.00     0.263 C 
ATOM     19  H   UNL     1       0.590   1.690   3.216  1.00  0.00     0.349 HD
ATOM     20  C   UNL     1      -1.371   4.257   2.691  1.00  0.00     0.067 C 
ATOM     21  C   UNL     1      -0.015   4.888   2.967  1.00  0.00     0.067 C 
ENDBRANCH   9  16
ENDBRANCH   6   9
ENDBRANCH   4   5
ENDBRANCH   3   4
ENDBRANCH   2   3
ENDBRANCH   1   2
BRANCH   1  22
ATOM     22  C   UNL     1       4.727   6.883  -1.156  1.00  0.00     0.021 C 
BRANCH  22  23
ATOM     23  C   UNL     1       4.829   8.208  -0.412  1.00  0.00     0.116 C 
BRANCH  23  24
ATOM     24  N   UNL     1       6.199   8.674  -0.297  1.00  0.00    -0.352 N 
ATOM     25  C   UNL     1       6.740   9.869  -0.705  1.00  0.00     0.251 C 
ATOM     26  H   UNL     1       6.826   8.047   0.131  1.00  0.00     0.163 HD
ATOM     27  O   UNL     1       7.950  10.041  -0.706  1.00  0.00    -0.269 OA
BRANCH  25  28
ATOM     28  C   UNL     1       5.837  10.943  -1.165  1.00  0.00     0.039 A 
ATOM     29  C   UNL     1       6.114  11.590  -2.371  1.00  0.00     0.014 A 
ATOM     30  C   UNL     1       4.709  11.290  -0.416  1.00  0.00     0.014 A 
ATOM     31  C   UNL     1       5.225  12.550  -2.857  1.00  0.00     0.010 A 
ATOM     32  C   UNL     1       3.786  12.188  -0.939  1.00  0.00     0.010 A 
ATOM     33  C   UNL     1       4.038  12.831  -2.161  1.00  0.00    -0.014 A 
BRANCH  33  34
ATOM     34  C   UNL     1       3.045  13.803  -2.683  1.00  0.00     0.031 A 
ATOM     35  C   UNL     1       2.735  15.046  -1.900  1.00  0.00     0.074 A 
ATOM     36  C   UNL     1       2.360  13.521  -3.807  1.00  0.00     0.049 A 
ATOM     37  N   UNL     1       1.822  15.958  -2.119  1.00  0.00    -0.248 NA
ATOM     38  C   UNL     1       3.536  15.275  -0.688  1.00  0.00     0.031 C 
ATOM     39  C   UNL     1       2.538  12.321  -4.625  1.00  0.00     0.029 A 
ATOM     40  N   UNL     1       1.357  14.211  -4.440  1.00  0.00    -0.354 N 
ATOM     41  C   UNL     1       1.924  16.852  -1.062  1.00  0.00     0.074 A 
ATOM     42  C   UNL     1       2.947  16.345  -0.174  1.00  0.00     0.031 C 
ATOM     43  C   UNL     1       1.677  12.360  -5.653  1.00  0.00     0.029 A 
ATOM     44  C   UNL     1       0.856  13.563  -5.543  1.00  0.00     0.049 A 
ATOM     45  H   UNL     1       1.028  15.087  -4.134  1.00  0.00     0.167 HD
ATOM     46  C   UNL     1       1.237  18.002  -0.860  1.00  0.00     0.037 A 
ATOM     47  C   UNL     1      -0.165  13.889  -6.358  1.00  0.00     0.037 A 
ATOM     48  C   UNL     1       0.235  18.509  -1.761  1.00  0.00     0.049 A 
ATOM     49  C   UNL     1      -0.917  15.169  -6.117  1.00  0.00     0.074 A 
ATOM     50  C   UNL     1      -0.461  19.702  -1.694  1.00  0.00     0.029 A 
ATOM     51  N   UNL     1      -0.222  17.841  -2.889  1.00  0.00    -0.354 N 
ATOM     52  N   UNL     1      -0.759  16.052  -5.161  1.00  0.00    -0.248 NA
ATOM     53  C   UNL     1      -1.984  15.504  -7.071  1.00  0.00     0.031 C 
ATOM     54  C   UNL     1      -1.386  19.726  -2.742  1.00  0.00     0.029 A 
ATOM     55  C   UNL     1      -1.219  18.581  -3.505  1.00  0.00     0.049 A 
ATOM     56  H   UNL     1       0.113  16.971  -3.205  1.00  0.00     0.167 HD
ATOM     57  C   UNL     1      -1.685  17.057  -5.409  1.00  0.00     0.074 A 
ATOM     58  C   UNL     1      -2.397  16.678  -6.612  1.00  0.00     0.031 C 
ATOM     59  C   UNL     1      -1.918  18.192  -4.705  1.00  0.00     0.037 A 
BRANCH  46  60
ATOM     60  C   UNL     1       1.534  18.776   0.394  1.00  0.00     0.064 A 
ATOM     61  C   UNL     1       2.775  19.397   0.609  1.00  0.00     0.173 A 
ATOM     62  C   UNL     1       0.558  18.903   1.395  1.00  0.00     0.173 A 
ATOM     63  F   UNL     1       3.747  19.300  -0.311  1.00  0.00    -0.203 F 
ATOM     64  C   UNL     1       3.044  20.071   1.797  1.00  0.00     0.198 A 
ATOM     65  C   UNL     1       0.818  19.612   2.565  1.00  0.00     0.198 A 
ATOM     66  F   UNL     1      -0.649  18.339   1.240  1.00  0.00    -0.203 F 
ATOM     67  F   UNL     1       4.260  20.593   2.008  1.00  0.00    -0.200 F 
ATOM     68  C   UNL     1       2.064  20.183   2.772  1.00  0.00     0.200 A 
ATOM     69  F   UNL     1      -0.136  19.732   3.499  1.00  0.00    -0.200 F 
ATOM     70  F   UNL     1       2.325  20.831   3.915  1.00  0.00    -0.200 F 
ENDBRANCH  46  60
BRANCH  47  71
ATOM     71  C   UNL     1      -0.522  12.981  -7.479  1.00  0.00     0.064 A 
ATOM     72  C   UNL     1      -0.269  13.337  -8.810  1.00  0.00     0.173 A 
ATOM     73  C   UNL     1      -1.089  11.720  -7.238  1.00  0.00     0.173 A 
ATOM     74  F   UNL     1       0.257  14.538  -9.092  1.00  0.00    -0.203 F 
ATOM     75  C   UNL     1      -0.578  12.472  -9.858  1.00  0.00     0.198 A 
ATOM     76  C   UNL     1      -1.371  10.844  -8.284  1.00  0.00     0.198 A 
ATOM     77  F   UNL     1      -1.344  11.327  -5.981  1.00  0.00    -0.203 F 
ATOM     78  F   UNL     1      -0.354  12.850 -11.124  1.00  0.00    -0.200 F 
ATOM     79  C   UNL     1      -1.120  11.223  -9.594  1.00  0.00     0.200 A 
ATOM     80  F   UNL     1      -1.876   9.631  -8.022  1.00  0.00    -0.200 F 
ATOM     81  F   UNL     1      -1.401  10.385 -10.601  1.00  0.00    -0.200 F 
ENDBRANCH  47  71
BRANCH  59  82
ATOM     82  C   UNL     1      -2.964  19.133  -5.229  1.00  0.00     0.064 A 
ATOM     83  C   UNL     1      -4.332  18.836  -5.150  1.00  0.00     0.173 A 
ATOM     84  C   UNL     1      -2.592  20.384  -5.746  1.00  0.00     0.173 A 
ATOM     85  F   UNL     1      -4.739  17.648  -4.677  1.00  0.00    -0.203 F 
ATOM     86  C   UNL     1      -5.289  19.752  -5.581  1.00  0.00     0.198 A 
ATOM     87  C   UNL     1      -3.552  21.309  -6.146  1.00  0.00     0.198 A 
ATOM     88  F   UNL     1      -1.297  20.720  -5.838  1.00  0.00    -0.203 F 
ATOM     89  F   UNL     1      -6.590  19.434  -5.528  1.00  0.00    -0.200 F 
ATOM     90  C   UNL     1      -4.899  20.991  -6.067  1.00  0.00     0.200 A 
ATOM     91  F   UNL     1      -3.173  22.512  -6.599  1.00  0.00    -0.200 F 
ATOM     92  F   UNL     1      -5.822  21.879  -6.462  1.00  0.00    -0.200 F 
ENDBRANCH  59  82
ENDBRANCH  33  34
ENDBRANCH  25  28
ENDBRANCH  23  24
ENDBRANCH  22  23
ENDBRANCH   1  22
TORSDOF 14
