REMARK SMILES Cc1c(CC(=O)N[C@H](CO)C(=O)NCCCCCCNC(=O)c2ccc(-c3c4nc(c(-c5c(F)c(F)c(F)c(F)c5F)c5ccc([nH]5)c(-c5c(F)c(F)c(F)c(F)c5F)c5nc(c(-c6c(F)c(F)c(F)c(F)c6F)c6ccc3[nH]6)C=C5)C=C4)cc2)cc(-c2ccc(S(C)(=O)=O)cc2)n1-c1cccc(F)c1
REMARK SMILES IDX 15 1 14 2 13 3 11 4 12 5 8 7 7 8 5 9 6 10 4 12 3 13 1 14
REMARK SMILES IDX 2 15 98 16 86 17 87 18 99 19 100 20 105 21 101 22 103 23
REMARK SMILES IDX 102 24 104 25 88 26 89 27 97 28 90 29 96 30 91 31 92 32
REMARK SMILES IDX 93 33 94 34 95 35 9 36 10 37 16 39 17 40 18 41 19 42 20 43
REMARK SMILES IDX 21 44 22 46 23 47 24 48 85 49 25 50 84 51 26 52 27 53 28 54
REMARK SMILES IDX 78 55 29 56 83 57 77 58 79 59 30 60 82 61 76 62 75 63 31 65
REMARK SMILES IDX 63 66 43 67 62 68 44 69 47 70 61 71 80 72 45 73 46 74 60 76
REMARK SMILES IDX 81 77 48 78 32 79 33 80 41 81 34 82 35 83 39 84 42 85 36 86
REMARK SMILES IDX 37 87 40 88 38 89 64 90 65 91 73 92 66 93 67 94 71 95 74 96
REMARK SMILES IDX 68 97 69 98 72 99 70 100 49 101 50 102 58 103 51 104 52 105
REMARK SMILES IDX 56 106 59 107 53 108 54 109 57 110 55 111
REMARK H PARENT 13 6 7 11 10 38 20 45 79 64 47 75
REMARK Flexibility Score: inf
ROOT
ATOM      1  C   UNL     1       6.826  -2.942  -0.963  1.00  0.00     0.021 C 
ENDROOT
BRANCH   1   2
ATOM      2  C   UNL     1       5.290  -2.905  -1.276  1.00  0.00     0.116 C 
BRANCH   2   3
ATOM      3  N   UNL     1       4.602  -4.193  -1.317  1.00  0.00    -0.354 N 
ATOM      4  C   UNL     1       3.313  -4.401  -1.693  1.00  0.00     0.244 C 
ATOM      5  O   UNL     1       2.835  -5.526  -1.756  1.00  0.00    -0.273 OA
ATOM      6  H   UNL     1       5.121  -4.985  -1.048  1.00  0.00     0.163 HD
BRANCH   4   7
ATOM      7  C   UNL     1       2.612  -3.142  -2.075  1.00  0.00     0.197 C 
BRANCH   7   8
ATOM      8  N   UNL     1       3.288  -2.640  -3.354  1.00  0.00    -0.342 N 
ATOM      9  C   UNL     1       4.465  -2.788  -4.085  1.00  0.00     0.225 C 
ATOM     10  O   UNL     1       4.497  -2.028  -5.071  1.00  0.00    -0.275 OA
ATOM     11  H   UNL     1       2.694  -2.003  -3.812  1.00  0.00     0.164 HD
BRANCH   9  12
ATOM     12  C   UNL     1       5.718  -3.801  -3.914  1.00  0.00     0.137 C 
BRANCH  12  13
ATOM     13  C   UNL     1       6.907  -3.546  -2.841  1.00  0.00    -0.017 A 
ATOM     14  C   UNL     1       7.531  -0.696  -3.106  1.00  0.00     0.065 C 
ATOM     15  C   UNL     1       7.712  -1.992  -2.394  1.00  0.00     0.024 A 
ATOM     16  N   UNL     1       8.571  -2.242  -0.736  1.00  0.00    -0.313 N 
ATOM     17  C   UNL     1       7.303  -4.805  -1.390  1.00  0.00     0.033 A 
ATOM     18  C   UNL     1       8.269  -3.982  -0.127  1.00  0.00     0.053 A 
BRANCH  16  19
ATOM     19  C   UNL     1       8.932  -1.282   0.240  1.00  0.00     0.049 A 
ATOM     20  C   UNL     1       9.871  -1.706   1.193  1.00  0.00     0.027 A 
ATOM     21  C   UNL     1       8.347  -0.026   0.293  1.00  0.00     0.065 A 
ATOM     22  C   UNL     1      10.087  -0.951   2.324  1.00  0.00     0.005 A 
ATOM     23  C   UNL     1       8.566   0.714   1.440  1.00  0.00     0.125 A 
ATOM     24  C   UNL     1       9.365   0.226   2.478  1.00  0.00     0.039 A 
ATOM     25  F   UNL     1       7.996   1.919   1.554  1.00  0.00    -0.207 F 
ENDBRANCH  16  19
BRANCH  18  26
ATOM     26  C   UNL     1       8.361  -4.404   1.286  1.00  0.00    -0.001 A 
ATOM     27  C   UNL     1       7.852  -3.627   2.349  1.00  0.00     0.011 A 
ATOM     28  C   UNL     1       8.940  -5.636   1.561  1.00  0.00     0.011 A 
ATOM     29  C   UNL     1       8.057  -4.008   3.675  1.00  0.00     0.021 A 
ATOM     30  C   UNL     1       9.136  -6.033   2.881  1.00  0.00     0.021 A 
ATOM     31  C   UNL     1       8.736  -5.198   3.927  1.00  0.00     0.067 A 
BRANCH  31  32
ATOM     32  S   UNL     1       9.121  -5.651   5.599  1.00  0.00     0.175 S 
ATOM     33  C   UNL     1      10.265  -4.396   6.117  1.00  0.00     0.163 C 
ATOM     34  O   UNL     1       7.902  -5.514   6.370  1.00  0.00    -0.224 OA
ATOM     35  O   UNL     1       9.847  -6.906   5.553  1.00  0.00    -0.224 OA
ENDBRANCH  31  32
ENDBRANCH  18  26
ENDBRANCH  12  13
ENDBRANCH   9  12
ENDBRANCH   7   8
BRANCH   7  36
ATOM     36  C   UNL     1       2.541  -2.219  -0.797  1.00  0.00     0.191 C 
BRANCH  36  37
ATOM     37  O   UNL     1       1.215  -2.109  -0.274  1.00  0.00    -0.394 OA
ATOM     38  H   UNL     1       0.637  -1.707  -0.941  1.00  0.00     0.210 HD
ENDBRANCH  36  37
ENDBRANCH   7  36
ENDBRANCH   4   7
ENDBRANCH   2   3
ENDBRANCH   1   2
BRANCH   1  39
ATOM     39  C   UNL     1       8.727  -3.608  -2.031  1.00  0.00     0.002 C 
BRANCH  39  40
ATOM     40  C   UNL     1       9.979  -2.852  -3.015  1.00  0.00     0.002 C 
BRANCH  40  41
ATOM     41  C   UNL     1      10.720  -1.453  -3.063  1.00  0.00     0.021 C 
BRANCH  41  42
ATOM     42  C   UNL     1      11.074  -0.518  -1.866  1.00  0.00     0.116 C 
BRANCH  42  43
ATOM     43  N   UNL     1      12.418  -0.322  -1.338  1.00  0.00    -0.352 N 
ATOM     44  C   UNL     1      12.844   0.546  -0.291  1.00  0.00     0.251 C 
ATOM     45  H   UNL     1      13.126  -0.860  -1.762  1.00  0.00     0.163 HD
ATOM     46  O   UNL     1      14.015   0.412   0.079  1.00  0.00    -0.269 OA
BRANCH  44  47
ATOM     47  C   UNL     1      11.962   1.624   0.439  1.00  0.00     0.039 A 
ATOM     48  C   UNL     1      11.426   2.740  -0.182  1.00  0.00     0.014 A 
ATOM     49  C   UNL     1      11.847   1.748   1.846  1.00  0.00     0.014 A 
ATOM     50  C   UNL     1      10.600   3.760   0.544  1.00  0.00     0.010 A 
ATOM     51  C   UNL     1      11.025   2.811   2.592  1.00  0.00     0.010 A 
ATOM     52  C   UNL     1      10.247   3.832   1.972  1.00  0.00    -0.014 A 
BRANCH  52  53
ATOM     53  C   UNL     1       9.677   5.381   2.671  1.00  0.00     0.031 A 
ATOM     54  C   UNL     1      10.805   6.160   2.091  1.00  0.00     0.074 A 
ATOM     55  C   UNL     1       8.840   6.148   3.618  1.00  0.00     0.049 A 
ATOM     56  N   UNL     1      11.976   5.723   2.465  1.00  0.00    -0.248 NA
ATOM     57  C   UNL     1      10.838   6.922   0.847  1.00  0.00     0.031 C 
ATOM     58  C   UNL     1       7.890   5.669   4.674  1.00  0.00     0.029 A 
ATOM     59  N   UNL     1       8.639   7.622   3.930  1.00  0.00    -0.354 N 
ATOM     60  C   UNL     1      12.934   6.364   1.737  1.00  0.00     0.074 A 
ATOM     61  C   UNL     1      12.168   6.948   0.633  1.00  0.00     0.031 C 
ATOM     62  C   UNL     1       7.156   6.660   5.304  1.00  0.00     0.029 A 
ATOM     63  C   UNL     1       7.505   8.026   4.875  1.00  0.00     0.049 A 
ATOM     64  H   UNL     1       9.226   8.304   3.531  1.00  0.00     0.167 HD
ATOM     65  C   UNL     1      13.835   6.933   2.592  1.00  0.00     0.037 A 
ATOM     66  C   UNL     1       7.015   9.305   5.372  1.00  0.00     0.037 A 
ATOM     67  C   UNL     1      13.318   8.197   3.057  1.00  0.00     0.049 A 
ATOM     68  C   UNL     1       8.226  10.108   5.485  1.00  0.00     0.074 A 
ATOM     69  C   UNL     1      12.649   9.201   2.377  1.00  0.00     0.029 A 
ATOM     70  N   UNL     1      12.941   8.295   4.377  1.00  0.00    -0.354 N 
ATOM     71  N   UNL     1       9.102   9.950   6.424  1.00  0.00    -0.248 NA
ATOM     72  C   UNL     1       8.504  11.119   4.486  1.00  0.00     0.031 C 
ATOM     73  C   UNL     1      11.504   9.413   3.159  1.00  0.00     0.029 A 
ATOM     74  C   UNL     1      11.838   9.105   4.468  1.00  0.00     0.049 A 
ATOM     75  H   UNL     1      13.390   7.855   5.134  1.00  0.00     0.167 HD
ATOM     76  C   UNL     1      10.232  10.265   5.742  1.00  0.00     0.074 A 
ATOM     77  C   UNL     1       9.819  11.173   4.672  1.00  0.00     0.031 C 
ATOM     78  C   UNL     1      11.195   9.312   5.726  1.00  0.00     0.037 A 
BRANCH  65  79
ATOM     79  C   UNL     1      14.440   5.861   3.493  1.00  0.00     0.064 A 
ATOM     80  C   UNL     1      15.731   5.418   3.207  1.00  0.00     0.173 A 
ATOM     81  C   UNL     1      13.713   5.124   4.467  1.00  0.00     0.173 A 
ATOM     82  F   UNL     1      16.486   6.088   2.324  1.00  0.00    -0.203 F 
ATOM     83  C   UNL     1      16.252   4.272   3.813  1.00  0.00     0.198 A 
ATOM     84  C   UNL     1      14.204   3.939   5.006  1.00  0.00     0.198 A 
ATOM     85  F   UNL     1      12.507   5.532   4.900  1.00  0.00    -0.203 F 
ATOM     86  F   UNL     1      17.505   3.887   3.539  1.00  0.00    -0.200 F 
ATOM     87  C   UNL     1      15.477   3.515   4.682  1.00  0.00     0.200 A 
ATOM     88  F   UNL     1      13.434   3.205   5.825  1.00  0.00    -0.200 F 
ATOM     89  F   UNL     1      15.964   2.388   5.220  1.00  0.00    -0.200 F 
ENDBRANCH  65  79
BRANCH  66  90
ATOM     90  C   UNL     1       5.868  10.299   6.078  1.00  0.00     0.064 A 
ATOM     91  C   UNL     1       6.193  11.515   6.838  1.00  0.00     0.173 A 
ATOM     92  C   UNL     1       4.558  10.377   5.569  1.00  0.00     0.173 A 
ATOM     93  F   UNL     1       7.390  11.673   7.424  1.00  0.00    -0.203 F 
ATOM     94  C   UNL     1       5.348  12.661   6.972  1.00  0.00     0.198 A 
ATOM     95  C   UNL     1       3.705  11.527   5.720  1.00  0.00     0.198 A 
ATOM     96  F   UNL     1       4.089   9.373   4.821  1.00  0.00    -0.203 F 
ATOM     97  F   UNL     1       5.779  13.772   7.600  1.00  0.00    -0.200 F 
ATOM     98  C   UNL     1       4.107  12.673   6.389  1.00  0.00     0.200 A 
ATOM     99  F   UNL     1       2.497  11.541   5.134  1.00  0.00    -0.200 F 
ATOM    100  F   UNL     1       3.331  13.772   6.432  1.00  0.00    -0.200 F 
ENDBRANCH  66  90
BRANCH  78 101
ATOM    101  C   UNL     1      11.432   8.532   6.998  1.00  0.00     0.064 A 
ATOM    102  C   UNL     1      10.473   7.798   7.731  1.00  0.00     0.173 A 
ATOM    103  C   UNL     1      12.709   8.618   7.568  1.00  0.00     0.173 A 
ATOM    104  F   UNL     1       9.258   7.534   7.234  1.00  0.00    -0.203 F 
ATOM    105  C   UNL     1      10.752   7.292   9.005  1.00  0.00     0.198 A 
ATOM    106  C   UNL     1      13.001   8.068   8.813  1.00  0.00     0.198 A 
ATOM    107  F   UNL     1      13.697   9.234   6.902  1.00  0.00    -0.203 F 
ATOM    108  F   UNL     1       9.798   6.654   9.701  1.00  0.00    -0.200 F 
ATOM    109  C   UNL     1      12.014   7.439   9.550  1.00  0.00     0.200 A 
ATOM    110  F   UNL     1      14.249   8.149   9.293  1.00  0.00    -0.200 F 
ATOM    111  F   UNL     1      12.287   6.959  10.771  1.00  0.00    -0.200 F 
ENDBRANCH  78 101
ENDBRANCH  52  53
ENDBRANCH  44  47
ENDBRANCH  42  43
ENDBRANCH  41  42
ENDBRANCH  40  41
ENDBRANCH  39  40
ENDBRANCH   1  39
TORSDOF 21
