REMARK SMILES O=C(CC[P@TB4](=O)(O)C[NH+]1CCCCC1)NCCCCCCNC(=O)c1ccc(-c2c3nc(c(-c4c(F)c(F)c(F)c(F)c4F)c4ccc([nH]4)c(-c4c(F)c(F)c(F)c(F)c4F)c4nc(c(-c5c(F)c(F)c(F)c(F)c5F)c5ccc2[nH]5)C=C4)C=C3)cc1
REMARK SMILES IDX 17 1 16 2 15 3 1 4 2 5 3 7 4 8 5 9 6 10 7 11 8 13 9 14 10 15
REMARK SMILES IDX 14 16 11 18 13 19 12 20 18 21 19 22 20 23 21 24 22 25 23 26
REMARK SMILES IDX 24 28 25 29 26 30 87 31 27 32 86 33 28 34 29 35 30 36 80 37
REMARK SMILES IDX 31 38 85 39 79 40 81 41 32 42 84 43 78 44 77 45 33 47 65 48
REMARK SMILES IDX 45 49 64 50 46 51 49 52 63 53 82 54 47 55 48 56 62 58 83 59
REMARK SMILES IDX 50 60 34 61 35 62 43 63 36 64 37 65 41 66 44 67 38 68 39 69
REMARK SMILES IDX 42 70 40 71 66 72 67 73 75 74 68 75 69 76 73 77 76 78 70 79
REMARK SMILES IDX 71 80 74 81 72 82 51 83 52 84 60 85 53 86 54 87 58 88 61 89
REMARK SMILES IDX 55 90 56 91 59 92 57 93
REMARK H PARENT 15 6 7 12 9 17 22 27 81 46 49 57
REMARK Flexibility Score: inf
ROOT
ATOM      1  C   UNL     1       1.009   0.702   3.179  1.00  0.00       nan C 
ENDROOT
BRANCH   1   2
ATOM      2  C   UNL     1       1.102   1.043   1.691  1.00  0.00       nan C 
BRANCH   2   3
ATOM      3  N   UNL     1       2.024   0.219   0.929  1.00  0.00       nan N 
ATOM      4  O   UNL     1       0.874   0.489  -1.044  1.00  0.00       nan OA
ATOM      5  C   UNL     1       1.859   0.077  -0.438  1.00  0.00       nan C 
ATOM      6  H   UNL     1       2.767  -0.238   1.385  1.00  0.00       nan HD
BRANCH   5   7
ATOM      7  C   UNL     1       3.001  -0.605  -1.176  1.00  0.00       nan C 
BRANCH   7   8
ATOM      8  C   UNL     1       3.959   0.401  -1.835  1.00  0.00       nan C 
BRANCH   8   9
ATOM      9  P   UNL     1       5.148   1.027  -0.592  1.00  0.00       nan P 
ATOM     10  O   UNL     1       5.757   1.940  -1.666  1.00  0.00       nan OA
BRANCH   9  11
ATOM     11  O   UNL     1       3.970   1.957   0.092  1.00  0.00       nan OA
ATOM     12  H   UNL     1       3.138   1.832  -0.391  1.00  0.00       nan HD
ENDBRANCH   9  11
BRANCH   9  13
ATOM     13  C   UNL     1       6.337   1.652   0.650  1.00  0.00       nan C 
BRANCH  13  14
ATOM     14  N   UNL     1       6.541   0.692   1.754  1.00  0.00       nan N 
ATOM     15  C   UNL     1       5.747   1.039   2.919  1.00  0.00       nan C 
ATOM     16  C   UNL     1       6.465  -0.723   1.394  1.00  0.00       nan C 
ATOM     17  H   UNL     1       7.523   0.797   2.010  1.00  0.00       nan HD
ATOM     18  C   UNL     1       6.066   0.163   4.129  1.00  0.00       nan C 
ATOM     19  C   UNL     1       6.817  -1.633   2.574  1.00  0.00       nan C 
ATOM     20  C   UNL     1       5.954  -1.315   3.789  1.00  0.00       nan C 
ENDBRANCH  13  14
ENDBRANCH   9  13
ENDBRANCH   8   9
ENDBRANCH   7   8
ENDBRANCH   5   7
ENDBRANCH   2   3
ENDBRANCH   1   2
BRANCH   1  21
ATOM     21  C   UNL     1       2.227   1.010   4.062  1.00  0.00       nan C 
BRANCH  21  22
ATOM     22  C   UNL     1       2.697   2.474   4.058  1.00  0.00       nan C 
BRANCH  22  23
ATOM     23  C   UNL     1       2.685   3.180   5.415  1.00  0.00       nan C 
BRANCH  23  24
ATOM     24  C   UNL     1       3.417   2.510   6.573  1.00  0.00       nan C 
BRANCH  24  25
ATOM     25  N   UNL     1       4.868   2.624   6.567  1.00  0.00       nan N 
ATOM     26  C   UNL     1       5.720   2.757   7.650  1.00  0.00       inf C 
ATOM     27  H   UNL     1       5.298   2.604   5.682  1.00  0.00       inf HD
ATOM     28  O   UNL     1       6.936   2.788   7.488  1.00  0.00    -0.269 OA
BRANCH  26  29
ATOM     29  C   UNL     1       5.150   2.970   9.004  1.00  0.00     0.039 A 
ATOM     30  C   UNL     1       5.576   4.083   9.734  1.00  0.00     0.014 A 
ATOM     31  C   UNL     1       4.108   2.176   9.485  1.00  0.00     0.014 A 
ATOM     32  C   UNL     1       4.855   4.487  10.860  1.00  0.00     0.010 A 
ATOM     33  C   UNL     1       3.331   2.636  10.546  1.00  0.00     0.010 A 
ATOM     34  C   UNL     1       3.674   3.817  11.222  1.00  0.00    -0.014 A 
BRANCH  34  35
ATOM     35  C   UNL     1       2.751   4.385  12.241  1.00  0.00     0.031 A 
ATOM     36  C   UNL     1       2.409   3.615  13.485  1.00  0.00     0.074 A 
ATOM     37  C   UNL     1       2.140   5.564  11.999  1.00  0.00     0.049 A 
ATOM     38  N   UNL     1       1.586   3.929  14.454  1.00  0.00    -0.248 NA
ATOM     39  C   UNL     1       3.047   2.300  13.643  1.00  0.00     0.031 C 
ATOM     40  C   UNL     1       2.312   6.375  10.791  1.00  0.00     0.029 A 
ATOM     41  N   UNL     1       1.249   6.286  12.754  1.00  0.00    -0.354 N 
ATOM     42  C   UNL     1       1.584   2.841  15.316  1.00  0.00     0.074 A 
ATOM     43  C   UNL     1       2.450   1.839  14.732  1.00  0.00     0.031 C 
ATOM     44  C   UNL     1       1.593   7.503  10.909  1.00  0.00     0.029 A 
ATOM     45  C   UNL     1       0.882   7.481  12.183  1.00  0.00     0.049 A 
ATOM     46  H   UNL     1       0.905   5.977  13.623  1.00  0.00     0.167 HD
ATOM     47  C   UNL     1       0.939   2.699  16.499  1.00  0.00     0.037 A 
ATOM     48  C   UNL     1       0.074   8.457  12.640  1.00  0.00     0.037 A 
ATOM     49  C   UNL     1       0.121   3.715  17.106  1.00  0.00     0.049 A 
ATOM     50  C   UNL     1      -0.586   8.299  13.981  1.00  0.00     0.074 A 
ATOM     51  C   UNL     1      -0.491   3.705  18.348  1.00  0.00     0.029 A 
ATOM     52  N   UNL     1      -0.197   4.929  16.514  1.00  0.00    -0.354 N 
ATOM     53  N   UNL     1      -0.505   7.304  14.830  1.00  0.00    -0.248 NA
ATOM     54  C   UNL     1      -1.446   9.404  14.429  1.00  0.00     0.031 C 
ATOM     55  C   UNL     1      -1.204   4.900  18.494  1.00  0.00     0.029 A 
ATOM     56  C   UNL     1      -1.010   5.669  17.358  1.00  0.00     0.049 A 
ATOM     57  H   UNL     1       0.109   5.221  15.625  1.00  0.00     0.167 HD
ATOM     58  C   UNL     1      -1.280   7.671  15.921  1.00  0.00     0.074 A 
ATOM     59  C   UNL     1      -1.813   8.987  15.632  1.00  0.00     0.031 C 
ATOM     60  C   UNL     1      -1.526   6.979  17.060  1.00  0.00     0.037 A 
BRANCH  47  61
ATOM     61  C   UNL     1       1.105   1.393  17.217  1.00  0.00     0.064 A 
ATOM     62  C   UNL     1       2.322   1.034  17.817  1.00  0.00     0.173 A 
ATOM     63  C   UNL     1       0.035   0.491  17.311  1.00  0.00     0.173 A 
ATOM     64  F   UNL     1       3.379   1.856  17.743  1.00  0.00    -0.203 F 
ATOM     65  C   UNL     1       2.472  -0.196  18.451  1.00  0.00     0.198 A 
ATOM     66  C   UNL     1       0.180  -0.726  17.971  1.00  0.00     0.198 A 
ATOM     67  F   UNL     1      -1.151   0.788  16.759  1.00  0.00    -0.203 F 
ATOM     68  F   UNL     1       3.661  -0.542  18.965  1.00  0.00    -0.200 F 
ATOM     69  C   UNL     1       1.401  -1.073  18.531  1.00  0.00     0.200 A 
ATOM     70  F   UNL     1      -0.858  -1.570  18.056  1.00  0.00    -0.200 F 
ATOM     71  F   UNL     1       1.549  -2.259  19.138  1.00  0.00    -0.200 F 
ENDBRANCH  47  61
BRANCH  48  72
ATOM     72  C   UNL     1      -0.106   9.702  11.851  1.00  0.00     0.064 A 
ATOM     73  C   UNL     1       0.492  10.900  12.271  1.00  0.00     0.173 A 
ATOM     74  C   UNL     1      -0.868   9.728  10.676  1.00  0.00     0.173 A 
ATOM     75  F   UNL     1       1.212  10.928  13.402  1.00  0.00    -0.203 F 
ATOM     76  C   UNL     1       0.321  12.080  11.551  1.00  0.00     0.198 A 
ATOM     77  C   UNL     1      -1.020  10.905   9.945  1.00  0.00     0.198 A 
ATOM     78  F   UNL     1      -1.456   8.607  10.232  1.00  0.00    -0.203 F 
ATOM     79  F   UNL     1       0.872  13.218  11.994  1.00  0.00    -0.200 F 
ATOM     80  C   UNL     1      -0.431  12.081  10.386  1.00  0.00     0.200 A 
ATOM     81  F   UNL     1      -1.739  10.900   8.814  1.00  0.00    -0.200 F 
ATOM     82  F   UNL     1      -0.594  13.216   9.692  1.00  0.00    -0.200 F 
ENDBRANCH  48  72
BRANCH  60  83
ATOM     83  C   UNL     1      -2.387   7.646  18.090  1.00  0.00     0.064 A 
ATOM     84  C   UNL     1      -3.773   7.771  17.918  1.00  0.00     0.173 A 
ATOM     85  C   UNL     1      -1.821   8.142  19.274  1.00  0.00     0.173 A 
ATOM     86  F   UNL     1      -4.356   7.328  16.794  1.00  0.00    -0.203 F 
ATOM     87  C   UNL     1      -4.559   8.389  18.887  1.00  0.00     0.198 A 
ATOM     88  C   UNL     1      -2.614   8.738  20.251  1.00  0.00     0.198 A 
ATOM     89  F   UNL     1      -0.500   8.043  19.486  1.00  0.00    -0.203 F 
ATOM     90  F   UNL     1      -5.876   8.537  18.683  1.00  0.00    -0.200 F 
ATOM     91  C   UNL     1      -3.981   8.867  20.053  1.00  0.00     0.200 A 
ATOM     92  F   UNL     1      -2.055   9.191  21.381  1.00  0.00    -0.200 F 
ATOM     93  F   UNL     1      -4.740   9.459  20.985  1.00  0.00    -0.200 F 
ENDBRANCH  60  83
ENDBRANCH  34  35
ENDBRANCH  26  29
ENDBRANCH  24  25
ENDBRANCH  23  24
ENDBRANCH  22  23
ENDBRANCH  21  22
ENDBRANCH   1  21
TORSDOF 18
