REMARK SMILES O=C(NCCCCCCNC(=O)c1oc2cccc3c2c1CCC3)c1ccc(-c2c3nc(c(-c4c(F)c(F)c(F)c(F)c4F)c4ccc([nH]4)c(-c4c(F)c(F)c(F)c(F)c4F)c4nc(c(-c5c(F)c(F)c(F)c(F)c5F)c5ccc2[nH]5)C=C4)C=C3)cc1
REMARK SMILES IDX 5 1 4 2 3 3 1 4 2 5 25 7 26 8 87 9 27 10 86 11 28 12 29 13
REMARK SMILES IDX 30 14 80 15 31 16 85 17 79 18 81 19 32 20 84 21 78 22 77 23
REMARK SMILES IDX 33 25 65 26 45 27 64 28 46 29 49 30 63 31 82 32 47 33 48 34
REMARK SMILES IDX 62 36 83 37 50 38 34 39 35 40 43 41 36 42 37 43 41 44 44 45
REMARK SMILES IDX 38 46 39 47 42 48 40 49 66 50 67 51 75 52 68 53 69 54 73 55
REMARK SMILES IDX 76 56 70 57 71 58 74 59 72 60 51 61 52 62 60 63 53 64 54 65
REMARK SMILES IDX 58 66 61 67 55 68 56 69 59 70 57 71 6 72 7 73 8 74 9 75
REMARK SMILES IDX 10 76 11 77 12 79 13 80 14 81 21 82 15 83 20 84 22 85 16 86
REMARK SMILES IDX 19 87 23 88 17 89 18 90 24 91
REMARK H PARENT 3 6 81 24 49 35 10 78
REMARK Flexibility Score: inf
ROOT
ATOM      1  C   UNL     1       4.796  -2.183  -0.910  1.00  0.00     0.021 C 
ENDROOT
BRANCH   1   2
ATOM      2  C   UNL     1       4.691  -0.681  -1.173  1.00  0.00     0.116 C 
BRANCH   2   3
ATOM      3  N   UNL     1       3.339  -0.160  -1.236  1.00  0.00    -0.352 N 
ATOM      4  O   UNL     1       1.319   0.582  -0.633  1.00  0.00    -0.269 OA
ATOM      5  C   UNL     1       2.392   0.095  -0.281  1.00  0.00     0.251 C 
ATOM      6  H   UNL     1       3.043   0.053  -2.151  1.00  0.00     0.163 HD
BRANCH   5   7
ATOM      7  C   UNL     1       2.579  -0.270   1.140  1.00  0.00     0.039 A 
ATOM      8  C   UNL     1       3.801  -0.186   1.804  1.00  0.00     0.014 A 
ATOM      9  C   UNL     1       1.441  -0.700   1.841  1.00  0.00     0.014 A 
ATOM     10  C   UNL     1       3.919  -0.659   3.103  1.00  0.00     0.010 A 
ATOM     11  C   UNL     1       1.543  -1.123   3.162  1.00  0.00     0.010 A 
ATOM     12  C   UNL     1       2.794  -1.143   3.778  1.00  0.00    -0.014 A 
BRANCH  12  13
ATOM     13  C   UNL     1       2.976  -1.536   5.173  1.00  0.00     0.031 A 
ATOM     14  C   UNL     1       3.419  -0.455   6.105  1.00  0.00     0.074 A 
ATOM     15  C   UNL     1       2.658  -2.750   5.659  1.00  0.00     0.049 A 
ATOM     16  N   UNL     1       4.449  -0.432   6.893  1.00  0.00    -0.248 NA
ATOM     17  C   UNL     1       2.623   0.783   6.121  1.00  0.00     0.031 C 
ATOM     18  C   UNL     1       1.928  -3.830   4.995  1.00  0.00     0.029 A 
ATOM     19  N   UNL     1       2.850  -3.228   6.922  1.00  0.00    -0.354 N 
ATOM     20  C   UNL     1       4.363   0.765   7.604  1.00  0.00     0.074 A 
ATOM     21  C   UNL     1       3.268   1.509   7.034  1.00  0.00     0.031 C 
ATOM     22  C   UNL     1       1.555  -4.743   5.920  1.00  0.00     0.029 A 
ATOM     23  C   UNL     1       2.129  -4.375   7.205  1.00  0.00     0.049 A 
ATOM     24  H   UNL     1       3.447  -2.795   7.575  1.00  0.00     0.167 HD
ATOM     25  C   UNL     1       5.100   1.017   8.720  1.00  0.00     0.037 A 
ATOM     26  C   UNL     1       1.953  -4.931   8.426  1.00  0.00     0.037 A 
ATOM     27  C   UNL     1       6.248   0.165   8.827  1.00  0.00     0.049 A 
ATOM     28  C   UNL     1       3.018  -4.422   9.323  1.00  0.00     0.074 A 
ATOM     29  C   UNL     1       7.391  -0.028   8.076  1.00  0.00     0.029 A 
ATOM     30  N   UNL     1       6.210  -0.883   9.709  1.00  0.00    -0.354 N 
ATOM     31  N   UNL     1       4.280  -4.732   9.229  1.00  0.00    -0.248 NA
ATOM     32  C   UNL     1       2.721  -3.260  10.148  1.00  0.00     0.031 C 
ATOM     33  C   UNL     1       7.702  -1.412   8.218  1.00  0.00     0.029 A 
ATOM     34  C   UNL     1       6.733  -1.967   9.053  1.00  0.00     0.049 A 
ATOM     35  H   UNL     1       5.873  -0.862  10.634  1.00  0.00     0.167 HD
ATOM     36  C   UNL     1       4.956  -3.594   9.639  1.00  0.00     0.074 A 
ATOM     37  C   UNL     1       3.953  -2.773  10.304  1.00  0.00     0.031 C 
ATOM     38  C   UNL     1       6.200  -3.304   9.162  1.00  0.00     0.037 A 
BRANCH  25  39
ATOM     39  C   UNL     1       4.626   1.872   9.864  1.00  0.00     0.064 A 
ATOM     40  C   UNL     1       5.540   2.335  10.830  1.00  0.00     0.173 A 
ATOM     41  C   UNL     1       3.261   2.015  10.190  1.00  0.00     0.173 A 
ATOM     42  F   UNL     1       6.861   2.206  10.638  1.00  0.00    -0.203 F 
ATOM     43  C   UNL     1       5.113   2.869  12.050  1.00  0.00     0.198 A 
ATOM     44  C   UNL     1       2.839   2.595  11.385  1.00  0.00     0.198 A 
ATOM     45  F   UNL     1       2.297   1.504   9.412  1.00  0.00    -0.203 F 
ATOM     46  F   UNL     1       6.016   3.202  12.983  1.00  0.00    -0.200 F 
ATOM     47  C   UNL     1       3.764   3.000  12.325  1.00  0.00     0.200 A 
ATOM     48  F   UNL     1       1.527   2.690  11.645  1.00  0.00    -0.200 F 
ATOM     49  F   UNL     1       3.354   3.466  13.512  1.00  0.00    -0.200 F 
ENDBRANCH  25  39
BRANCH  26  50
ATOM     50  C   UNL     1       0.756  -5.631   8.944  1.00  0.00     0.064 A 
ATOM     51  C   UNL     1       0.830  -6.429  10.096  1.00  0.00     0.173 A 
ATOM     52  C   UNL     1      -0.535  -5.310   8.482  1.00  0.00     0.173 A 
ATOM     53  F   UNL     1       2.021  -6.742  10.626  1.00  0.00    -0.203 F 
ATOM     54  C   UNL     1      -0.322  -6.858  10.763  1.00  0.00     0.198 A 
ATOM     55  C   UNL     1      -1.683  -5.749   9.141  1.00  0.00     0.198 A 
ATOM     56  F   UNL     1      -0.710  -4.484   7.441  1.00  0.00    -0.203 F 
ATOM     57  F   UNL     1      -0.213  -7.561  11.899  1.00  0.00    -0.200 F 
ATOM     58  C   UNL     1      -1.576  -6.510  10.290  1.00  0.00     0.200 A 
ATOM     59  F   UNL     1      -2.890  -5.376   8.692  1.00  0.00    -0.200 F 
ATOM     60  F   UNL     1      -2.678  -6.869  10.963  1.00  0.00    -0.200 F 
ENDBRANCH  26  50
BRANCH  38  61
ATOM     61  C   UNL     1       6.938  -4.387   8.432  1.00  0.00     0.064 A 
ATOM     62  C   UNL     1       6.503  -4.935   7.213  1.00  0.00     0.173 A 
ATOM     63  C   UNL     1       8.200  -4.773   8.903  1.00  0.00     0.173 A 
ATOM     64  F   UNL     1       5.359  -4.533   6.646  1.00  0.00    -0.203 F 
ATOM     65  C   UNL     1       7.279  -5.865   6.524  1.00  0.00     0.198 A 
ATOM     66  C   UNL     1       8.989  -5.674   8.194  1.00  0.00     0.198 A 
ATOM     67  F   UNL     1       8.693  -4.232  10.029  1.00  0.00    -0.203 F 
ATOM     68  F   UNL     1       6.841  -6.380   5.366  1.00  0.00    -0.200 F 
ATOM     69  C   UNL     1       8.524  -6.228   7.011  1.00  0.00     0.200 A 
ATOM     70  F   UNL     1      10.215  -5.982   8.639  1.00  0.00    -0.200 F 
ATOM     71  F   UNL     1       9.291  -7.085   6.323  1.00  0.00    -0.200 F 
ENDBRANCH  38  61
ENDBRANCH  12  13
ENDBRANCH   5   7
ENDBRANCH   2   3
ENDBRANCH   1   2
BRANCH   1  72
ATOM     72  C   UNL     1       4.249  -3.075  -2.030  1.00  0.00     0.002 C 
BRANCH  72  73
ATOM     73  C   UNL     1       4.724  -2.733  -3.447  1.00  0.00     0.002 C 
BRANCH  73  74
ATOM     74  C   UNL     1       6.240  -2.608  -3.632  1.00  0.00     0.021 C 
BRANCH  74  75
ATOM     75  C   UNL     1       7.029  -3.881  -3.352  1.00  0.00     0.116 C 
BRANCH  75  76
ATOM     76  N   UNL     1       6.795  -4.902  -4.353  1.00  0.00    -0.349 N 
ATOM     77  C   UNL     1       7.724  -5.637  -5.056  1.00  0.00     0.287 C 
ATOM     78  H   UNL     1       5.852  -5.095  -4.557  1.00  0.00     0.163 HD
ATOM     79  O   UNL     1       7.317  -6.311  -6.004  1.00  0.00    -0.266 OA
BRANCH  77  80
ATOM     80  C   UNL     1       9.110  -5.567  -4.656  1.00  0.00     0.195 A 
ATOM     81  O   UNL     1      10.054  -5.313  -5.638  1.00  0.00    -0.451 OA
ATOM     82  C   UNL     1       9.748  -5.696  -3.433  1.00  0.00     0.012 A 
ATOM     83  C   UNL     1      11.270  -5.220  -5.025  1.00  0.00     0.135 A 
ATOM     84  C   UNL     1      11.107  -5.446  -3.681  1.00  0.00     0.028 A 
ATOM     85  C   UNL     1       9.317  -5.992  -2.036  1.00  0.00     0.041 C 
ATOM     86  C   UNL     1      12.507  -4.936  -5.587  1.00  0.00     0.048 A 
ATOM     87  C   UNL     1      12.166  -5.417  -2.775  1.00  0.00    -0.037 A 
ATOM     88  C   UNL     1      10.523  -6.497  -1.186  1.00  0.00     0.010 C 
ATOM     89  C   UNL     1      13.586  -4.879  -4.681  1.00  0.00     0.004 A 
ATOM     90  C   UNL     1      13.423  -5.106  -3.300  1.00  0.00     0.004 A 
ATOM     91  C   UNL     1      11.826  -5.649  -1.327  1.00  0.00     0.036 C 
ENDBRANCH  77  80
ENDBRANCH  75  76
ENDBRANCH  74  75
ENDBRANCH  73  74
ENDBRANCH  72  73
ENDBRANCH   1  72
TORSDOF 13
