REMARK SMILES O=C(NCCCCCCNC(=O)c1nn(Cc2ccc(F)cc2)c2c1CN(C(=O)[C@H]1CC1(F)F)CC2)c1ccc(-c2c3nc(c(-c4c(F)c(F)c(F)c(F)c4F)c4ccc([nH]4)c(-c4c(F)c(F)c(F)c(F)c4F)c4nc(c(-c5c(F)c(F)c(F)c(F)c5F)c5ccc2[nH]5)C=C4)C=C3)cc1
REMARK SMILES IDX 6 1 5 2 4 3 3 4 1 5 2 6 37 8 38 9 99 10 39 11 98 12 40 13
REMARK SMILES IDX 41 14 42 15 92 16 43 17 97 18 91 19 93 20 44 21 96 22 90 23
REMARK SMILES IDX 89 24 45 26 77 27 57 28 76 29 58 30 61 31 75 32 94 33 59 34
REMARK SMILES IDX 60 35 74 37 95 38 62 39 46 40 47 41 55 42 48 43 49 44 53 45
REMARK SMILES IDX 56 46 50 47 51 48 54 49 52 50 78 51 79 52 87 53 80 54 81 55
REMARK SMILES IDX 85 56 88 57 82 58 83 59 86 60 84 61 63 62 64 63 72 64 65 65
REMARK SMILES IDX 66 66 70 67 73 68 67 69 68 70 71 71 69 72 7 73 8 74 9 75
REMARK SMILES IDX 10 76 11 77 12 79 13 80 14 81 25 82 15 83 24 84 26 85 36 86
REMARK SMILES IDX 27 87 35 88 16 89 17 90 18 91 23 92 19 93 22 94 20 95 21 96
REMARK SMILES IDX 28 97 29 98 30 99 31 100 32 101 33 102 34 103
REMARK H PARENT 3 7 93 25 61 36 10 78
REMARK Flexibility Score: inf
ROOT
ATOM      1  C   UNL     1       9.871  19.883  11.218  1.00  0.00     0.002 C 
ENDROOT
BRANCH   1   2
ATOM      2  C   UNL     1       9.727  21.038  10.214  1.00  0.00     0.021 C 
BRANCH   2   3
ATOM      3  C   UNL     1       8.306  21.286   9.709  1.00  0.00     0.116 C 
BRANCH   3   4
ATOM      4  N   UNL     1       7.367  21.654  10.749  1.00  0.00    -0.352 N 
ATOM      5  O   UNL     1       6.021  22.727  12.125  1.00  0.00    -0.269 OA
ATOM      6  C   UNL     1       6.966  22.822  11.336  1.00  0.00     0.251 C 
ATOM      7  H   UNL     1       6.905  20.871  11.126  1.00  0.00     0.163 HD
BRANCH   6   8
ATOM      8  C   UNL     1       7.591  24.162  11.143  1.00  0.00     0.039 A 
ATOM      9  C   UNL     1       8.544  24.501  10.183  1.00  0.00     0.014 A 
ATOM     10  C   UNL     1       7.171  25.165  12.043  1.00  0.00     0.014 A 
ATOM     11  C   UNL     1       9.101  25.783  10.160  1.00  0.00     0.010 A 
ATOM     12  C   UNL     1       7.718  26.446  12.020  1.00  0.00     0.010 A 
ATOM     13  C   UNL     1       8.710  26.749  11.095  1.00  0.00    -0.014 A 
BRANCH  13  14
ATOM     14  C   UNL     1       9.286  28.093  10.999  1.00  0.00     0.031 A 
ATOM     15  C   UNL     1       8.982  28.845   9.741  1.00  0.00     0.074 A 
ATOM     16  C   UNL     1       9.934  28.714  12.006  1.00  0.00     0.049 A 
ATOM     17  N   UNL     1       9.807  29.355   8.882  1.00  0.00    -0.248 NA
ATOM     18  C   UNL     1       7.566  29.010   9.376  1.00  0.00     0.031 C 
ATOM     19  C   UNL     1      10.073  28.296  13.403  1.00  0.00     0.029 A 
ATOM     20  N   UNL     1      10.552  29.931  11.988  1.00  0.00    -0.354 N 
ATOM     21  C   UNL     1       9.027  30.004   7.923  1.00  0.00     0.074 A 
ATOM     22  C   UNL     1       7.654  29.698   8.237  1.00  0.00     0.031 C 
ATOM     23  C   UNL     1      10.552  29.330  14.135  1.00  0.00     0.029 A 
ATOM     24  C   UNL     1      10.889  30.425  13.240  1.00  0.00     0.049 A 
ATOM     25  H   UNL     1      10.742  30.419  11.155  1.00  0.00     0.167 HD
ATOM     26  C   UNL     1       9.550  30.858   6.998  1.00  0.00     0.037 A 
ATOM     27  C   UNL     1      11.362  31.665  13.517  1.00  0.00     0.037 A 
ATOM     28  C   UNL     1      10.967  30.689   6.849  1.00  0.00     0.049 A 
ATOM     29  C   UNL     1      11.925  32.221  12.264  1.00  0.00     0.074 A 
ATOM     30  C   UNL     1      11.774  29.663   6.398  1.00  0.00     0.029 A 
ATOM     31  N   UNL     1      11.809  31.557   7.495  1.00  0.00    -0.354 N 
ATOM     32  N   UNL     1      12.997  31.773  11.675  1.00  0.00    -0.248 NA
ATOM     33  C   UNL     1      11.052  33.042  11.440  1.00  0.00     0.031 C 
ATOM     34  C   UNL     1      12.929  29.711   7.231  1.00  0.00     0.029 A 
ATOM     35  C   UNL     1      12.770  30.790   8.101  1.00  0.00     0.049 A 
ATOM     36  H   UNL     1      11.737  32.539   7.519  1.00  0.00     0.167 HD
ATOM     37  C   UNL     1      12.731  31.897  10.321  1.00  0.00     0.074 A 
ATOM     38  C   UNL     1      11.562  32.766  10.238  1.00  0.00     0.031 C 
ATOM     39  C   UNL     1      13.315  31.069   9.408  1.00  0.00     0.037 A 
BRANCH  26  40
ATOM     40  C   UNL     1       8.810  32.012   6.380  1.00  0.00     0.064 A 
ATOM     41  C   UNL     1       7.763  32.685   7.043  1.00  0.00     0.173 A 
ATOM     42  C   UNL     1       9.309  32.645   5.225  1.00  0.00     0.173 A 
ATOM     43  F   UNL     1       7.283  32.250   8.216  1.00  0.00    -0.203 F 
ATOM     44  C   UNL     1       7.240  33.891   6.577  1.00  0.00     0.198 A 
ATOM     45  C   UNL     1       8.816  33.878   4.787  1.00  0.00     0.198 A 
ATOM     46  F   UNL     1      10.331  32.110   4.540  1.00  0.00    -0.203 F 
ATOM     47  F   UNL     1       6.254  34.491   7.259  1.00  0.00    -0.200 F 
ATOM     48  C   UNL     1       7.782  34.500   5.463  1.00  0.00     0.200 A 
ATOM     49  F   UNL     1       9.384  34.490   3.739  1.00  0.00    -0.200 F 
ATOM     50  F   UNL     1       7.338  35.702   5.072  1.00  0.00    -0.200 F 
ENDBRANCH  26  40
BRANCH  27  51
ATOM     51  C   UNL     1      11.055  32.532  14.681  1.00  0.00     0.064 A 
ATOM     52  C   UNL     1       9.814  32.448  15.339  1.00  0.00     0.173 A 
ATOM     53  C   UNL     1      11.839  33.664  14.965  1.00  0.00     0.173 A 
ATOM     54  F   UNL     1       8.964  31.445  15.077  1.00  0.00    -0.203 F 
ATOM     55  C   UNL     1       9.369  33.450  16.203  1.00  0.00     0.198 A 
ATOM     56  C   UNL     1      11.389  34.670  15.826  1.00  0.00     0.198 A 
ATOM     57  F   UNL     1      13.016  33.842  14.347  1.00  0.00    -0.203 F 
ATOM     58  F   UNL     1       8.150  33.359  16.753  1.00  0.00    -0.200 F 
ATOM     59  C   UNL     1      10.148  34.569  16.433  1.00  0.00     0.200 A 
ATOM     60  F   UNL     1      12.132  35.770  16.016  1.00  0.00    -0.200 F 
ATOM     61  F   UNL     1       9.685  35.565  17.201  1.00  0.00    -0.200 F 
ENDBRANCH  27  51
BRANCH  39  62
ATOM     62  C   UNL     1      14.438  30.183   9.872  1.00  0.00     0.064 A 
ATOM     63  C   UNL     1      15.665  30.255   9.200  1.00  0.00     0.173 A 
ATOM     64  C   UNL     1      14.282  29.160  10.825  1.00  0.00     0.173 A 
ATOM     65  F   UNL     1      15.853  31.176   8.241  1.00  0.00    -0.203 F 
ATOM     66  C   UNL     1      16.685  29.343   9.458  1.00  0.00     0.198 A 
ATOM     67  C   UNL     1      15.318  28.271  11.108  1.00  0.00     0.198 A 
ATOM     68  F   UNL     1      13.110  28.962  11.441  1.00  0.00    -0.203 F 
ATOM     69  F   UNL     1      17.821  29.397   8.748  1.00  0.00    -0.200 F 
ATOM     70  C   UNL     1      16.514  28.356  10.415  1.00  0.00     0.200 A 
ATOM     71  F   UNL     1      15.143  27.302  12.018  1.00  0.00    -0.200 F 
ATOM     72  F   UNL     1      17.490  27.466  10.645  1.00  0.00    -0.200 F 
ENDBRANCH  39  62
ENDBRANCH  13  14
ENDBRANCH   6   8
ENDBRANCH   3   4
ENDBRANCH   2   3
ENDBRANCH   1   2
BRANCH   1  73
ATOM     73  C   UNL     1       9.361  18.511  10.759  1.00  0.00     0.002 C 
BRANCH  73  74
ATOM     74  C   UNL     1       9.963  17.971   9.456  1.00  0.00     0.021 C 
BRANCH  74  75
ATOM     75  C   UNL     1      11.464  17.667   9.501  1.00  0.00     0.116 C 
BRANCH  75  76
ATOM     76  N   UNL     1      11.753  16.498  10.318  1.00  0.00    -0.351 N 
ATOM     77  C   UNL     1      12.304  15.286   9.956  1.00  0.00     0.272 C 
ATOM     78  H   UNL     1      11.522  16.586  11.271  1.00  0.00     0.163 HD
ATOM     79  O   UNL     1      12.235  14.355  10.761  1.00  0.00    -0.267 OA
BRANCH  77  80
ATOM     80  C   UNL     1      12.912  15.108   8.626  1.00  0.00     0.155 A 
ATOM     81  N   UNL     1      13.593  16.085   7.991  1.00  0.00    -0.167 NA
ATOM     82  C   UNL     1      12.927  13.914   7.851  1.00  0.00     0.026 A 
ATOM     83  N   UNL     1      13.927  15.563   6.790  1.00  0.00    -0.264 N 
ATOM     84  C   UNL     1      13.501  14.279   6.649  1.00  0.00     0.046 A 
ATOM     85  C   UNL     1      12.387  12.550   8.142  1.00  0.00     0.159 C 
ATOM     86  C   UNL     1      13.609  13.389   5.465  1.00  0.00     0.078 C 
ATOM     87  N   UNL     1      12.682  11.658   6.994  1.00  0.00    -0.337 N 
ATOM     88  C   UNL     1      12.577  12.253   5.646  1.00  0.00     0.126 C 
BRANCH  83  89
ATOM     89  C   UNL     1      14.732  16.347   5.862  1.00  0.00     0.180 C 
BRANCH  89  90
ATOM     90  C   UNL     1      13.957  17.502   5.274  1.00  0.00    -0.026 A 
ATOM     91  C   UNL     1      13.760  18.673   6.028  1.00  0.00     0.008 A 
ATOM     92  C   UNL     1      13.418  17.426   3.980  1.00  0.00     0.008 A 
ATOM     93  C   UNL     1      13.041  19.744   5.501  1.00  0.00     0.039 A 
ATOM     94  C   UNL     1      12.702  18.503   3.453  1.00  0.00     0.039 A 
ATOM     95  C   UNL     1      12.520  19.650   4.217  1.00  0.00     0.123 A 
ATOM     96  F   UNL     1      11.829  20.679   3.709  1.00  0.00    -0.207 F 
ENDBRANCH  89  90
ENDBRANCH  83  89
BRANCH  87  97
ATOM     97  C   UNL     1      13.001  10.332   7.246  1.00  0.00     0.232 C 
ATOM     98  O   UNL     1      13.044   9.848   8.376  1.00  0.00    -0.274 OA
BRANCH  97  99
ATOM     99  C   UNL     1      13.227   9.454   6.080  1.00  0.00     0.154 C 
ATOM    100  C   UNL     1      14.485   9.573   5.236  1.00  0.00     0.097 C 
ATOM    101  C   UNL     1      14.272   8.403   6.120  1.00  0.00     0.260 C 
ATOM    102  F   UNL     1      15.131   8.216   7.175  1.00  0.00    -0.206 F 
ATOM    103  F   UNL     1      14.056   7.172   5.543  1.00  0.00    -0.206 F 
ENDBRANCH  97  99
ENDBRANCH  87  97
ENDBRANCH  77  80
ENDBRANCH  75  76
ENDBRANCH  74  75
ENDBRANCH  73  74
ENDBRANCH   1  73
TORSDOF 17
