REMARK SMILES Cc1cc2c(=O)cc(-c3ccc(F)cc3)oc2c(C(=O)NCCCCCCNC(=O)c2ccc(-c3c4nc(c(-c5c(F)c(F)c(F)c(F)c5F)c5ccc([nH]5)c(-c5c(F)c(F)c(F)c(F)c5F)c5nc(c(-c6c(F)c(F)c(F)c(F)c6F)c6ccc3[nH]6)C=C5)C=C4)cc2)c1C
REMARK SMILES IDX 25 1 24 2 23 3 22 4 21 5 19 6 20 7 18 9 1 10 2 11 3 12 94 13
REMARK SMILES IDX 4 14 95 15 5 16 17 17 6 18 7 19 16 20 8 21 9 22 10 23 15 24
REMARK SMILES IDX 11 25 14 26 12 27 13 28 26 29 27 30 28 31 29 32 30 34 31 35
REMARK SMILES IDX 32 36 93 37 33 38 92 39 34 40 35 41 36 42 86 43 37 44 91 45
REMARK SMILES IDX 85 46 87 47 38 48 90 49 84 50 83 51 39 53 71 54 51 55 70 56
REMARK SMILES IDX 52 57 55 58 69 59 88 60 53 61 54 62 68 64 89 65 56 66 40 67
REMARK SMILES IDX 41 68 49 69 42 70 43 71 47 72 50 73 44 74 45 75 48 76 46 77
REMARK SMILES IDX 72 78 73 79 81 80 74 81 75 82 79 83 82 84 76 85 77 86 80 87
REMARK SMILES IDX 78 88 57 89 58 90 66 91 59 92 60 93 64 94 67 95 61 96 62 97
REMARK SMILES IDX 65 98 63 99
REMARK H PARENT 21 8 28 33 87 52 55 63
REMARK Flexibility Score: inf
ROOT
ATOM      1  C   UNL     1       0.697   7.083   1.865  1.00  0.00     0.002 C 
ENDROOT
BRANCH   1   2
ATOM      2  C   UNL     1      -0.732   6.613   2.164  1.00  0.00     0.002 C 
BRANCH   2   3
ATOM      3  C   UNL     1      -1.179   5.221   1.698  1.00  0.00     0.021 C 
BRANCH   3   4
ATOM      4  C   UNL     1      -0.280   4.023   2.002  1.00  0.00     0.116 C 
BRANCH   4   5
ATOM      5  N   UNL     1      -0.160   3.639   3.392  1.00  0.00    -0.352 N 
ATOM      6  C   UNL     1       0.162   2.433   3.990  1.00  0.00     0.255 C 
ATOM      7  O   UNL     1       0.416   2.476   5.196  1.00  0.00    -0.269 OA
ATOM      8  H   UNL     1      -0.338   4.369   4.028  1.00  0.00     0.163 HD
BRANCH   6   9
ATOM      9  C   UNL     1       0.178   1.096   3.289  1.00  0.00     0.086 A 
ATOM     10  C   UNL     1       1.111  -0.682  -0.012  1.00  0.00     0.044 C 
ATOM     11  C   UNL     1       0.643  -0.416   1.397  1.00  0.00    -0.046 A 
ATOM     12  C   UNL     1       0.112  -1.484   2.118  1.00  0.00     0.019 A 
ATOM     13  C   UNL     1       0.787   0.853   2.024  1.00  0.00    -0.032 A 
ATOM     14  C   UNL     1      -0.326  -1.293   3.424  1.00  0.00     0.066 A 
ATOM     15  C   UNL     1       1.693   1.845   1.341  1.00  0.00     0.045 C 
ATOM     16  C   UNL     1      -0.729  -2.472   4.205  1.00  0.00     0.193 A 
ATOM     17  C   UNL     1      -0.344  -0.019   4.003  1.00  0.00     0.151 A 
ATOM     18  O   UNL     1      -0.730  -3.604   3.740  1.00  0.00    -0.289 OA
ATOM     19  C   UNL     1      -1.095  -2.237   5.600  1.00  0.00     0.100 A 
ATOM     20  O   UNL     1      -0.851   0.148   5.282  1.00  0.00    -0.455 OA
ATOM     21  C   UNL     1      -1.125  -0.976   6.049  1.00  0.00     0.138 A 
BRANCH  21  22
ATOM     22  C   UNL     1      -1.532  -0.726   7.441  1.00  0.00     0.018 A 
ATOM     23  C   UNL     1      -2.640   0.088   7.715  1.00  0.00     0.015 A 
ATOM     24  C   UNL     1      -0.863  -1.349   8.511  1.00  0.00     0.015 A 
ATOM     25  C   UNL     1      -3.086   0.255   9.029  1.00  0.00     0.040 A 
ATOM     26  C   UNL     1      -1.308  -1.178   9.824  1.00  0.00     0.040 A 
ATOM     27  C   UNL     1      -2.418  -0.381  10.069  1.00  0.00     0.123 A 
ATOM     28  F   UNL     1      -2.857  -0.230  11.326  1.00  0.00    -0.207 F 
ENDBRANCH  21  22
ENDBRANCH   6   9
ENDBRANCH   4   5
ENDBRANCH   3   4
ENDBRANCH   2   3
ENDBRANCH   1   2
BRANCH   1  29
ATOM     29  C   UNL     1       1.238   6.909   0.446  1.00  0.00     0.021 C 
BRANCH  29  30
ATOM     30  C   UNL     1       0.385   7.449  -0.694  1.00  0.00     0.116 C 
BRANCH  30  31
ATOM     31  N   UNL     1       0.202   8.890  -0.664  1.00  0.00    -0.352 N 
ATOM     32  C   UNL     1       0.474   9.839  -1.626  1.00  0.00     0.251 C 
ATOM     33  H   UNL     1      -0.175   9.243   0.174  1.00  0.00     0.163 HD
ATOM     34  O   UNL     1       0.320  11.027  -1.378  1.00  0.00    -0.269 OA
BRANCH  32  35
ATOM     35  C   UNL     1       0.997   9.431  -2.951  1.00  0.00     0.039 A 
ATOM     36  C   UNL     1       0.423   8.379  -3.668  1.00  0.00     0.014 A 
ATOM     37  C   UNL     1       2.093  10.120  -3.482  1.00  0.00     0.014 A 
ATOM     38  C   UNL     1       1.043   7.909  -4.824  1.00  0.00     0.010 A 
ATOM     39  C   UNL     1       2.669   9.695  -4.684  1.00  0.00     0.010 A 
ATOM     40  C   UNL     1       2.179   8.555  -5.339  1.00  0.00    -0.014 A 
BRANCH  40  41
ATOM     41  C   UNL     1       2.845   8.024  -6.557  1.00  0.00     0.031 A 
ATOM     42  C   UNL     1       4.237   7.455  -6.483  1.00  0.00     0.074 A 
ATOM     43  C   UNL     1       2.178   8.015  -7.727  1.00  0.00     0.049 A 
ATOM     44  N   UNL     1       4.986   6.971  -7.443  1.00  0.00    -0.248 NA
ATOM     45  C   UNL     1       4.873   7.422  -5.157  1.00  0.00     0.031 C 
ATOM     46  C   UNL     1       0.818   8.517  -7.922  1.00  0.00     0.029 A 
ATOM     47  N   UNL     1       2.545   7.555  -8.967  1.00  0.00    -0.354 N 
ATOM     48  C   UNL     1       6.181   6.595  -6.843  1.00  0.00     0.074 A 
ATOM     49  C   UNL     1       6.070   6.926  -5.439  1.00  0.00     0.031 C 
ATOM     50  C   UNL     1       0.448   8.300  -9.193  1.00  0.00     0.029 A 
ATOM     51  C   UNL     1       1.565   7.703  -9.918  1.00  0.00     0.049 A 
ATOM     52  H   UNL     1       3.425   7.158  -9.156  1.00  0.00     0.167 HD
ATOM     53  C   UNL     1       7.266   6.017  -7.413  1.00  0.00     0.037 A 
ATOM     54  C   UNL     1       1.571   7.410 -11.232  1.00  0.00     0.037 A 
ATOM     55  C   UNL     1       7.367   5.673  -8.808  1.00  0.00     0.049 A 
ATOM     56  C   UNL     1       2.806   6.815 -11.846  1.00  0.00     0.074 A 
ATOM     57  C   UNL     1       8.426   5.081  -9.476  1.00  0.00     0.029 A 
ATOM     58  N   UNL     1       6.371   5.886  -9.749  1.00  0.00    -0.354 N 
ATOM     59  N   UNL     1       3.935   6.479 -11.271  1.00  0.00    -0.248 NA
ATOM     60  C   UNL     1       2.772   6.567 -13.294  1.00  0.00     0.031 C 
ATOM     61  C   UNL     1       8.085   4.970 -10.827  1.00  0.00     0.029 A 
ATOM     62  C   UNL     1       6.796   5.449 -10.994  1.00  0.00     0.049 A 
ATOM     63  H   UNL     1       5.492   6.287  -9.561  1.00  0.00     0.167 HD
ATOM     64  C   UNL     1       4.740   5.970 -12.279  1.00  0.00     0.074 A 
ATOM     65  C   UNL     1       3.963   6.021 -13.501  1.00  0.00     0.031 C 
ATOM     66  C   UNL     1       6.011   5.507 -12.200  1.00  0.00     0.037 A 
BRANCH  53  67
ATOM     67  C   UNL     1       8.446   5.720  -6.533  1.00  0.00     0.064 A 
ATOM     68  C   UNL     1       8.427   4.663  -5.612  1.00  0.00     0.173 A 
ATOM     69  C   UNL     1       9.636   6.452  -6.667  1.00  0.00     0.173 A 
ATOM     70  F   UNL     1       7.310   3.940  -5.437  1.00  0.00    -0.203 F 
ATOM     71  C   UNL     1       9.552   4.356  -4.851  1.00  0.00     0.198 A 
ATOM     72  C   UNL     1      10.766   6.127  -5.923  1.00  0.00     0.198 A 
ATOM     73  F   UNL     1       9.708   7.470  -7.538  1.00  0.00    -0.203 F 
ATOM     74  F   UNL     1       9.502   3.358  -3.957  1.00  0.00    -0.200 F 
ATOM     75  C   UNL     1      10.723   5.081  -5.013  1.00  0.00     0.200 A 
ATOM     76  F   UNL     1      11.901   6.821  -6.090  1.00  0.00    -0.200 F 
ATOM     77  F   UNL     1      11.810   4.773  -4.292  1.00  0.00    -0.200 F 
ENDBRANCH  53  67
BRANCH  54  78
ATOM     78  C   UNL     1       0.360   7.678 -12.047  1.00  0.00     0.064 A 
ATOM     79  C   UNL     1      -0.419   6.625 -12.546  1.00  0.00     0.173 A 
ATOM     80  C   UNL     1      -0.062   8.988 -12.318  1.00  0.00     0.173 A 
ATOM     81  F   UNL     1      -0.044   5.355 -12.332  1.00  0.00    -0.203 F 
ATOM     82  C   UNL     1      -1.572   6.873 -13.287  1.00  0.00     0.198 A 
ATOM     83  C   UNL     1      -1.230   9.235 -13.034  1.00  0.00     0.198 A 
ATOM     84  F   UNL     1       0.649  10.030 -11.860  1.00  0.00    -0.203 F 
ATOM     85  F   UNL     1      -2.284   5.849 -13.777  1.00  0.00    -0.200 F 
ATOM     86  C   UNL     1      -1.982   8.177 -13.522  1.00  0.00     0.200 A 
ATOM     87  F   UNL     1      -1.631  10.496 -13.244  1.00  0.00    -0.200 F 
ATOM     88  F   UNL     1      -3.101   8.415 -14.220  1.00  0.00    -0.200 F 
ENDBRANCH  54  78
BRANCH  66  89
ATOM     89  C   UNL     1       6.637   4.998 -13.465  1.00  0.00     0.064 A 
ATOM     90  C   UNL     1       7.056   5.873 -14.477  1.00  0.00     0.173 A 
ATOM     91  C   UNL     1       6.863   3.625 -13.644  1.00  0.00     0.173 A 
ATOM     92  F   UNL     1       6.849   7.193 -14.358  1.00  0.00    -0.203 F 
ATOM     93  C   UNL     1       7.662   5.389 -15.634  1.00  0.00     0.198 A 
ATOM     94  C   UNL     1       7.493   3.147 -14.789  1.00  0.00     0.198 A 
ATOM     95  F   UNL     1       6.487   2.749 -12.700  1.00  0.00    -0.203 F 
ATOM     96  F   UNL     1       8.018   6.238 -16.607  1.00  0.00    -0.200 F 
ATOM     97  C   UNL     1       7.886   4.028 -15.786  1.00  0.00     0.200 A 
ATOM     98  F   UNL     1       7.720   1.834 -14.929  1.00  0.00    -0.200 F 
ATOM     99  F   UNL     1       8.476   3.565 -16.896  1.00  0.00    -0.200 F 
ENDBRANCH  66  89
ENDBRANCH  40  41
ENDBRANCH  32  35
ENDBRANCH  30  31
ENDBRANCH  29  30
ENDBRANCH   1  29
TORSDOF 14
