REMARK SMILES CC[C@H](Oc1cccc(/C=C2\SC(=S)N(NC(=O)c3cccc(O)c3)C2=O)c1)C(=O)NCCCCCCNC(=O)c1ccc(-c2c3nc(c(-c4c(F)c(F)c(F)c(F)c4F)c4ccc([nH]4)c(-c4c(F)c(F)c(F)c(F)c4F)c4nc(c(-c5c(F)c(F)c(F)c(F)c5F)c5ccc2[nH]5)C=C4)C=C3)cc1
REMARK SMILES IDX 32 1 31 2 29 3 30 4 3 6 2 7 1 8 4 9 5 10 6 11 28 12 7 13
REMARK SMILES IDX 9 14 8 15 10 16 11 17 12 18 26 19 13 20 15 21 27 22 14 23
REMARK SMILES IDX 16 24 17 25 18 27 19 28 20 29 25 30 21 31 23 32 22 33 24 34
REMARK SMILES IDX 33 36 34 37 35 38 36 39 37 40 38 41 39 42 40 44 41 45 42 46
REMARK SMILES IDX 103 47 43 48 102 49 44 50 45 51 46 52 96 53 47 54 101 55
REMARK SMILES IDX 95 56 97 57 48 58 100 59 94 60 93 61 49 63 81 64 61 65 80 66
REMARK SMILES IDX 62 67 65 68 79 69 98 70 63 71 64 72 78 74 99 75 66 76 50 77
REMARK SMILES IDX 51 78 59 79 52 80 53 81 57 82 60 83 54 84 55 85 58 86 56 87
REMARK SMILES IDX 82 88 83 89 91 90 84 91 85 92 89 93 92 94 86 95 87 96 90 97
REMARK SMILES IDX 88 98 67 99 68 100 76 101 69 102 70 103 74 104 77 105 71 106
REMARK SMILES IDX 72 107 75 108 73 109
REMARK H PARENT 31 5 16 26 24 35 38 43 97 62 65 73
REMARK Flexibility Score: inf
ROOT
ATOM      1  C   UNL     1      -1.715  -0.300  -2.961  1.00  0.00     0.116 C 
ENDROOT
BRANCH   1   2
ATOM      2  N   UNL     1      -0.560  -0.248  -3.836  1.00  0.00    -0.353 N 
ATOM      3  C   UNL     1       0.744  -0.568  -3.559  1.00  0.00     0.261 C 
ATOM      4  O   UNL     1       1.559  -0.519  -4.485  1.00  0.00    -0.271 OA
ATOM      5  H   UNL     1      -0.737   0.058  -4.755  1.00  0.00     0.163 HD
BRANCH   3   6
ATOM      6  C   UNL     1       1.167  -1.033  -2.147  1.00  0.00     0.261 C 
BRANCH   6   7
ATOM      7  C   UNL     1       0.586  -2.448  -1.896  1.00  0.00     0.052 C 
ATOM      8  C   UNL     1      -0.321  -2.683  -0.696  1.00  0.00     0.008 C 
ENDBRANCH   6   7
BRANCH   6   9
ATOM      9  O   UNL     1       0.786   0.022  -1.267  1.00  0.00    -0.481 OA
BRANCH   9  10
ATOM     10  C   UNL     1       1.123  -0.030   0.050  1.00  0.00     0.121 A 
ATOM     11  C   UNL     1       2.126  -0.806   0.615  1.00  0.00     0.046 A 
ATOM     12  C   UNL     1       0.296   0.747   0.869  1.00  0.00     0.054 A 
ATOM     13  C   UNL     1       2.244  -0.863   2.004  1.00  0.00     0.004 A 
ATOM     14  C   UNL     1       0.349   0.647   2.261  1.00  0.00    -0.021 A 
ATOM     15  C   UNL     1       1.353  -0.154   2.819  1.00  0.00     0.008 A 
BRANCH  14  16
ATOM     16  C   UNL     1      -0.576   1.353   3.167  1.00  0.00     0.029 C 
ATOM     17  C   UNL     1      -1.861   1.696   2.981  1.00  0.00     0.082 C 
ATOM     18  S   UNL     1      -2.866   1.486   1.597  1.00  0.00    -0.052 SA
ATOM     19  C   UNL     1      -2.621   2.428   4.036  1.00  0.00     0.285 C 
ATOM     20  C   UNL     1      -4.059   2.638   2.173  1.00  0.00     0.168 C 
ATOM     21  N   UNL     1      -3.700   3.062   3.438  1.00  0.00    -0.198 N 
ATOM     22  O   UNL     1      -2.320   2.416   5.223  1.00  0.00    -0.266 OA
ATOM     23  S   UNL     1      -5.396   3.087   1.281  1.00  0.00    -0.050 S 
BRANCH  21  24
ATOM     24  N   UNL     1      -4.511   3.969   4.136  1.00  0.00    -0.255 N 
ATOM     25  C   UNL     1      -4.098   5.106   4.798  1.00  0.00     0.270 C 
ATOM     26  H   UNL     1      -5.475   3.773   4.155  1.00  0.00     0.192 HD
ATOM     27  O   UNL     1      -4.933   5.889   5.247  1.00  0.00    -0.267 OA
BRANCH  25  28
ATOM     28  C   UNL     1      -2.667   5.373   5.052  1.00  0.00     0.045 A 
ATOM     29  C   UNL     1      -2.276   5.497   6.392  1.00  0.00     0.014 A 
ATOM     30  C   UNL     1      -1.724   5.465   4.023  1.00  0.00     0.060 A 
ATOM     31  C   UNL     1      -0.928   5.646   6.713  1.00  0.00     0.005 A 
ATOM     32  C   UNL     1      -0.380   5.601   4.364  1.00  0.00     0.116 A 
ATOM     33  C   UNL     1       0.023   5.682   5.695  1.00  0.00     0.046 A 
BRANCH  32  34
ATOM     34  O   UNL     1       0.598   5.639   3.414  1.00  0.00    -0.508 OA
ATOM     35  H   UNL     1       1.495   5.731   3.669  1.00  0.00     0.293 HD
ENDBRANCH  32  34
ENDBRANCH  25  28
ENDBRANCH  21  24
ENDBRANCH  14  16
ENDBRANCH   9  10
ENDBRANCH   6   9
ENDBRANCH   3   6
ENDBRANCH   1   2
BRANCH   1  36
ATOM     36  C   UNL     1      -2.655   0.887  -3.142  1.00  0.00     0.021 C 
BRANCH  36  37
ATOM     37  C   UNL     1      -3.422   0.918  -4.466  1.00  0.00     0.002 C 
BRANCH  37  38
ATOM     38  C   UNL     1      -4.271  -0.319  -4.776  1.00  0.00     0.002 C 
BRANCH  38  39
ATOM     39  C   UNL     1      -5.255  -0.751  -3.685  1.00  0.00     0.021 C 
BRANCH  39  40
ATOM     40  C   UNL     1      -6.223   0.323  -3.198  1.00  0.00     0.116 C 
BRANCH  40  41
ATOM     41  N   UNL     1      -7.079   0.835  -4.254  1.00  0.00    -0.352 N 
ATOM     42  C   UNL     1      -8.434   1.052  -4.258  1.00  0.00     0.251 C 
ATOM     43  H   UNL     1      -6.617   1.061  -5.094  1.00  0.00     0.163 HD
ATOM     44  O   UNL     1      -8.997   1.383  -5.298  1.00  0.00    -0.269 OA
BRANCH  42  45
ATOM     45  C   UNL     1      -9.232   0.859  -3.026  1.00  0.00     0.039 A 
ATOM     46  C   UNL     1     -10.458   0.192  -3.125  1.00  0.00     0.014 A 
ATOM     47  C   UNL     1      -8.804   1.349  -1.790  1.00  0.00     0.014 A 
ATOM     48  C   UNL     1     -11.225  -0.033  -1.980  1.00  0.00     0.010 A 
ATOM     49  C   UNL     1      -9.540   1.072  -0.638  1.00  0.00     0.010 A 
ATOM     50  C   UNL     1     -10.758   0.380  -0.722  1.00  0.00    -0.014 A 
BRANCH  50  51
ATOM     51  C   UNL     1     -11.536   0.100   0.511  1.00  0.00     0.031 A 
ATOM     52  C   UNL     1     -12.142   1.229   1.297  1.00  0.00     0.074 A 
ATOM     53  C   UNL     1     -11.650  -1.166   0.954  1.00  0.00     0.049 A 
ATOM     54  N   UNL     1     -12.799   1.190   2.430  1.00  0.00    -0.248 NA
ATOM     55  C   UNL     1     -11.966   2.583   0.751  1.00  0.00     0.031 C 
ATOM     56  C   UNL     1     -11.074  -2.344   0.305  1.00  0.00     0.029 A 
ATOM     57  N   UNL     1     -12.281  -1.673   2.063  1.00  0.00    -0.354 N 
ATOM     58  C   UNL     1     -13.098   2.510   2.738  1.00  0.00     0.074 A 
ATOM     59  C   UNL     1     -12.516   3.330   1.697  1.00  0.00     0.031 C 
ATOM     60  C   UNL     1     -11.390  -3.437   1.017  1.00  0.00     0.029 A 
ATOM     61  C   UNL     1     -12.165  -3.036   2.187  1.00  0.00     0.049 A 
ATOM     62  H   UNL     1     -12.771  -1.113   2.708  1.00  0.00     0.167 HD
ATOM     63  C   UNL     1     -13.811   2.993   3.784  1.00  0.00     0.037 A 
ATOM     64  C   UNL     1     -12.628  -3.867   3.140  1.00  0.00     0.037 A 
ATOM     65  C   UNL     1     -14.416   2.176   4.802  1.00  0.00     0.049 A 
ATOM     66  C   UNL     1     -13.426  -3.306   4.285  1.00  0.00     0.074 A 
ATOM     67  C   UNL     1     -15.206   2.569   5.869  1.00  0.00     0.029 A 
ATOM     68  N   UNL     1     -14.299   0.796   4.879  1.00  0.00    -0.354 N 
ATOM     69  N   UNL     1     -13.753  -2.062   4.533  1.00  0.00    -0.248 NA
ATOM     70  C   UNL     1     -13.927  -4.268   5.277  1.00  0.00     0.031 C 
ATOM     71  C   UNL     1     -15.539   1.431   6.611  1.00  0.00     0.029 A 
ATOM     72  C   UNL     1     -14.989   0.324   5.984  1.00  0.00     0.049 A 
ATOM     73  H   UNL     1     -13.800   0.235   4.243  1.00  0.00     0.167 HD
ATOM     74  C   UNL     1     -14.517  -2.092   5.692  1.00  0.00     0.074 A 
ATOM     75  C   UNL     1     -14.615  -3.480   6.092  1.00  0.00     0.031 C 
ATOM     76  C   UNL     1     -15.084  -1.062   6.364  1.00  0.00     0.037 A 
BRANCH  63  77
ATOM     77  C   UNL     1     -13.980   4.481   3.877  1.00  0.00     0.064 A 
ATOM     78  C   UNL     1     -14.815   5.182   2.994  1.00  0.00     0.173 A 
ATOM     79  C   UNL     1     -13.329   5.210   4.884  1.00  0.00     0.173 A 
ATOM     80  F   UNL     1     -15.450   4.532   2.007  1.00  0.00    -0.203 F 
ATOM     81  C   UNL     1     -14.971   6.561   3.099  1.00  0.00     0.198 A 
ATOM     82  C   UNL     1     -13.509   6.586   5.002  1.00  0.00     0.198 A 
ATOM     83  F   UNL     1     -12.525   4.587   5.758  1.00  0.00    -0.203 F 
ATOM     84  F   UNL     1     -15.740   7.215   2.216  1.00  0.00    -0.200 F 
ATOM     85  C   UNL     1     -14.324   7.261   4.106  1.00  0.00     0.200 A 
ATOM     86  F   UNL     1     -12.893   7.259   5.984  1.00  0.00    -0.200 F 
ATOM     87  F   UNL     1     -14.481   8.588   4.209  1.00  0.00    -0.200 F 
ENDBRANCH  63  77
BRANCH  64  88
ATOM     88  C   UNL     1     -12.370  -5.326   3.038  1.00  0.00     0.064 A 
ATOM     89  C   UNL     1     -13.406  -6.217   2.726  1.00  0.00     0.173 A 
ATOM     90  C   UNL     1     -11.090  -5.858   3.247  1.00  0.00     0.173 A 
ATOM     91  F   UNL     1     -14.651  -5.756   2.539  1.00  0.00    -0.203 F 
ATOM     92  C   UNL     1     -13.174  -7.588   2.644  1.00  0.00     0.198 A 
ATOM     93  C   UNL     1     -10.854  -7.227   3.141  1.00  0.00     0.198 A 
ATOM     94  F   UNL     1     -10.065  -5.045   3.544  1.00  0.00    -0.203 F 
ATOM     95  F   UNL     1     -14.190  -8.423   2.385  1.00  0.00    -0.200 F 
ATOM     96  C   UNL     1     -11.898  -8.092   2.847  1.00  0.00     0.200 A 
ATOM     97  F   UNL     1      -9.618  -7.708   3.326  1.00  0.00    -0.200 F 
ATOM     98  F   UNL     1     -11.675  -9.410   2.765  1.00  0.00    -0.200 F 
ENDBRANCH  64  88
BRANCH  76  99
ATOM     99  C   UNL     1     -15.889  -1.399   7.584  1.00  0.00     0.064 A 
ATOM    100  C   UNL     1     -15.276  -1.788   8.783  1.00  0.00     0.173 A 
ATOM    101  C   UNL     1     -17.288  -1.295   7.562  1.00  0.00     0.173 A 
ATOM    102  F   UNL     1     -13.943  -1.918   8.848  1.00  0.00    -0.203 F 
ATOM    103  C   UNL     1     -16.037  -2.084   9.911  1.00  0.00     0.198 A 
ATOM    104  C   UNL     1     -18.044  -1.566   8.699  1.00  0.00     0.198 A 
ATOM    105  F   UNL     1     -17.921  -0.921   6.439  1.00  0.00    -0.203 F 
ATOM    106  F   UNL     1     -15.434  -2.496  11.034  1.00  0.00    -0.200 F 
ATOM    107  C   UNL     1     -17.419  -1.966   9.870  1.00  0.00     0.200 A 
ATOM    108  F   UNL     1     -19.378  -1.443   8.660  1.00  0.00    -0.200 F 
ATOM    109  F   UNL     1     -18.148  -2.246  10.958  1.00  0.00    -0.200 F 
ENDBRANCH  76  99
ENDBRANCH  50  51
ENDBRANCH  42  45
ENDBRANCH  40  41
ENDBRANCH  39  40
ENDBRANCH  38  39
ENDBRANCH  37  38
ENDBRANCH  36  37
ENDBRANCH   1  36
TORSDOF 20
