REMARK SMILES COc1ccc(C2=NN(C(=O)CCC(=O)NCCCCCCNC(=O)c3ccc(-c4c5nc(c(-c6c(F)c(F)c(F)c(F)c6F)c6ccc([nH]6)c(-c6c(F)c(F)c(F)c(F)c6F)c6nc(c(-c7c(F)c(F)c(F)c(F)c7F)c7ccc4[nH]7)C=C6)C=C5)cc3)[C@H](c3ccc(Cl)cc3Cl)C2)cc1
REMARK SMILES IDX 18 1 17 2 16 3 14 4 15 5 13 7 12 8 10 9 11 10 9 11 7 12 8 13
REMARK SMILES IDX 98 14 89 15 6 16 3 17 4 18 100 19 5 20 99 21 2 22 1 23 90 24
REMARK SMILES IDX 91 25 96 26 92 27 95 28 97 29 93 30 94 31 19 32 20 33 21 34
REMARK SMILES IDX 22 35 23 36 24 37 25 39 26 40 27 41 88 42 28 43 87 44 29 45
REMARK SMILES IDX 30 46 31 47 81 48 32 49 86 50 80 51 82 52 33 53 85 54 79 55
REMARK SMILES IDX 78 56 34 58 66 59 46 60 65 61 47 62 50 63 64 64 83 65 48 66
REMARK SMILES IDX 49 67 63 69 84 70 51 71 35 72 36 73 44 74 37 75 38 76 42 77
REMARK SMILES IDX 45 78 39 79 40 80 43 81 41 82 67 83 68 84 76 85 69 86 70 87
REMARK SMILES IDX 74 88 77 89 71 90 72 91 75 92 73 93 52 94 53 95 61 96 54 97
REMARK SMILES IDX 55 98 59 99 62 100 56 101 57 102 60 103 58 104
REMARK H PARENT 16 6 23 38 82 57 50 68
REMARK Flexibility Score: inf
ROOT
ATOM      1  C   UNL     1       2.304   6.479  -3.758  1.00  0.00     0.021 C 
ENDROOT
BRANCH   1   2
ATOM      2  C   UNL     1       4.348   7.213  -3.262  1.00  0.00     0.116 C 
BRANCH   2   3
ATOM      3  N   UNL     1       5.243   8.407  -3.687  1.00  0.00    -0.356 N 
ATOM      4  C   UNL     1       5.291   9.745  -3.422  1.00  0.00     0.220 C 
ATOM      5  O   UNL     1       6.320  10.307  -3.819  1.00  0.00    -0.275 OA
ATOM      6  H   UNL     1       5.958   8.129  -4.303  1.00  0.00     0.163 HD
BRANCH   4   7
ATOM      7  C   UNL     1       4.256  10.569  -2.651  1.00  0.00     0.110 C 
BRANCH   7   8
ATOM      8  C   UNL     1       2.762  10.442  -2.907  1.00  0.00     0.112 C 
BRANCH   8   9
ATOM      9  C   UNL     1       2.315   9.174  -2.280  1.00  0.00     0.243 C 
ATOM     10  O   UNL     1       1.747   9.128  -1.196  1.00  0.00    -0.273 OA
BRANCH   9  11
ATOM     11  N   UNL     1       2.733   8.099  -3.026  1.00  0.00    -0.225 N 
ATOM     12  C   UNL     1       3.678   5.312  -3.069  1.00  0.00     0.071 C 
ATOM     13  N   UNL     1       3.140   6.463  -2.086  1.00  0.00    -0.174 NA
ATOM     14  C   UNL     1       4.017   6.003  -4.879  1.00  0.00     0.091 C 
ATOM     15  C   UNL     1       3.277   7.830  -4.898  1.00  0.00     0.149 C 
BRANCH  12  16
ATOM     16  C   UNL     1       3.521   3.813  -2.961  1.00  0.00    -0.002 A 
ATOM     17  C   UNL     1       2.795   1.135  -2.468  1.00  0.00     0.118 A 
ATOM     18  C   UNL     1       2.091   1.863  -3.416  1.00  0.00     0.047 A 
ATOM     19  C   UNL     1       3.912   1.703  -1.849  1.00  0.00     0.047 A 
ATOM     20  C   UNL     1       2.457   3.190  -3.667  1.00  0.00     0.014 A 
ATOM     21  C   UNL     1       4.268   3.047  -2.077  1.00  0.00     0.014 A 
BRANCH  17  22
ATOM     22  O   UNL     1       2.346  -0.128  -2.194  1.00  0.00    -0.497 OA
ATOM     23  C   UNL     1       2.176  -0.374  -0.795  1.00  0.00     0.278 C 
ENDBRANCH  17  22
ENDBRANCH  12  16
BRANCH  15  24
ATOM     24  C   UNL     1       2.469   8.171  -6.194  1.00  0.00    -0.004 A 
ATOM     25  C   UNL     1       2.009   7.116  -7.013  1.00  0.00     0.009 A 
ATOM     26  C   UNL     1       2.563   9.442  -6.833  1.00  0.00     0.047 A 
ATOM     27  C   UNL     1       1.699   7.301  -8.370  1.00  0.00     0.021 A 
ATOM     28  C   UNL     1       2.159   9.641  -8.164  1.00  0.00     0.041 A 
ATOM     29  Cl  UNL     1       3.424  10.803  -6.193  1.00  0.00    -0.084 Cl
ATOM     30  C   UNL     1       1.760   8.565  -8.935  1.00  0.00     0.042 A 
ATOM     31  Cl  UNL     1       1.435   8.784 -10.608  1.00  0.00    -0.084 Cl
ENDBRANCH  15  24
ENDBRANCH   9  11
ENDBRANCH   8   9
ENDBRANCH   7   8
ENDBRANCH   4   7
ENDBRANCH   2   3
ENDBRANCH   1   2
BRANCH   1  32
ATOM     32  C   UNL     1       1.064   5.876  -2.448  1.00  0.00     0.002 C 
BRANCH  32  33
ATOM     33  C   UNL     1       1.520   5.175  -1.054  1.00  0.00     0.002 C 
BRANCH  33  34
ATOM     34  C   UNL     1       0.567   4.965   0.086  1.00  0.00     0.021 C 
BRANCH  34  35
ATOM     35  C   UNL     1      -0.498   3.965  -0.215  1.00  0.00     0.116 C 
BRANCH  35  36
ATOM     36  N   UNL     1      -0.061   2.741  -0.895  1.00  0.00    -0.352 N 
ATOM     37  C   UNL     1      -0.759   1.562  -0.977  1.00  0.00     0.251 C 
ATOM     38  H   UNL     1       0.819   2.768  -1.337  1.00  0.00     0.163 HD
ATOM     39  O   UNL     1      -0.499   0.644  -1.736  1.00  0.00    -0.269 OA
BRANCH  37  40
ATOM     40  C   UNL     1      -1.836   1.434  -0.014  1.00  0.00     0.039 A 
ATOM     41  C   UNL     1      -1.577   0.680   1.133  1.00  0.00     0.014 A 
ATOM     42  C   UNL     1      -2.844   2.393  -0.104  1.00  0.00     0.014 A 
ATOM     43  C   UNL     1      -2.350   0.919   2.248  1.00  0.00     0.010 A 
ATOM     44  C   UNL     1      -3.459   2.765   1.062  1.00  0.00     0.010 A 
ATOM     45  C   UNL     1      -3.260   1.984   2.211  1.00  0.00    -0.014 A 
BRANCH  45  46
ATOM     46  C   UNL     1      -4.182   2.209   3.316  1.00  0.00     0.031 A 
ATOM     47  C   UNL     1      -5.630   1.995   3.008  1.00  0.00     0.074 A 
ATOM     48  C   UNL     1      -3.700   2.637   4.491  1.00  0.00     0.049 A 
ATOM     49  N   UNL     1      -6.674   2.277   3.729  1.00  0.00    -0.248 NA
ATOM     50  C   UNL     1      -5.954   1.459   1.667  1.00  0.00     0.031 C 
ATOM     51  C   UNL     1      -2.285   2.882   4.793  1.00  0.00     0.029 A 
ATOM     52  N   UNL     1      -4.347   2.942   5.649  1.00  0.00    -0.354 N 
ATOM     53  C   UNL     1      -7.760   1.992   2.915  1.00  0.00     0.074 A 
ATOM     54  C   UNL     1      -7.263   1.620   1.617  1.00  0.00     0.031 C 
ATOM     55  C   UNL     1      -2.171   3.262   6.076  1.00  0.00     0.029 A 
ATOM     56  C   UNL     1      -3.506   3.344   6.654  1.00  0.00     0.049 A 
ATOM     57  H   UNL     1      -5.324   2.880   5.754  1.00  0.00     0.167 HD
ATOM     58  C   UNL     1      -9.062   2.003   3.259  1.00  0.00     0.037 A 
ATOM     59  C   UNL     1      -3.818   3.745   7.896  1.00  0.00     0.037 A 
ATOM     60  C   UNL     1      -9.483   2.342   4.587  1.00  0.00     0.049 A 
ATOM     61  C   UNL     1      -5.280   3.748   8.254  1.00  0.00     0.074 A 
ATOM     62  C   UNL     1     -10.755   2.363   5.114  1.00  0.00     0.029 A 
ATOM     63  N   UNL     1      -8.608   2.717   5.604  1.00  0.00    -0.354 N 
ATOM     64  N   UNL     1      -6.315   3.434   7.505  1.00  0.00    -0.248 NA
ATOM     65  C   UNL     1      -5.623   4.148   9.619  1.00  0.00     0.031 C 
ATOM     66  C   UNL     1     -10.656   2.819   6.432  1.00  0.00     0.029 A 
ATOM     67  C   UNL     1      -9.316   3.001   6.753  1.00  0.00     0.049 A 
ATOM     68  H   UNL     1      -7.629   2.773   5.515  1.00  0.00     0.167 HD
ATOM     69  C   UNL     1      -7.432   3.572   8.313  1.00  0.00     0.074 A 
ATOM     70  C   UNL     1      -6.937   3.974   9.618  1.00  0.00     0.031 C 
ATOM     71  C   UNL     1      -8.746   3.392   8.020  1.00  0.00     0.037 A 
BRANCH  58  72
ATOM     72  C   UNL     1     -10.066   1.660   2.200  1.00  0.00     0.064 A 
ATOM     73  C   UNL     1     -10.127   0.386   1.609  1.00  0.00     0.173 A 
ATOM     74  C   UNL     1     -10.967   2.632   1.744  1.00  0.00     0.173 A 
ATOM     75  F   UNL     1      -9.265  -0.575   1.978  1.00  0.00    -0.203 F 
ATOM     76  C   UNL     1     -11.031   0.110   0.586  1.00  0.00     0.198 A 
ATOM     77  C   UNL     1     -11.897   2.341   0.750  1.00  0.00     0.198 A 
ATOM     78  F   UNL     1     -10.940   3.872   2.255  1.00  0.00    -0.203 F 
ATOM     79  F   UNL     1     -11.021  -1.091  -0.009  1.00  0.00    -0.200 F 
ATOM     80  C   UNL     1     -11.923   1.083   0.165  1.00  0.00     0.200 A 
ATOM     81  F   UNL     1     -12.761   3.283   0.347  1.00  0.00    -0.200 F 
ATOM     82  F   UNL     1     -12.799   0.815  -0.812  1.00  0.00    -0.200 F 
ENDBRANCH  58  72
BRANCH  59  83
ATOM     83  C   UNL     1      -2.753   4.139   8.854  1.00  0.00     0.064 A 
ATOM     84  C   UNL     1      -2.507   3.389  10.011  1.00  0.00     0.173 A 
ATOM     85  C   UNL     1      -1.941   5.261   8.625  1.00  0.00     0.173 A 
ATOM     86  F   UNL     1      -3.249   2.304  10.277  1.00  0.00    -0.203 F 
ATOM     87  C   UNL     1      -1.517   3.764  10.919  1.00  0.00     0.198 A 
ATOM     88  C   UNL     1      -0.928   5.615   9.515  1.00  0.00     0.198 A 
ATOM     89  F   UNL     1      -2.116   6.004   7.522  1.00  0.00    -0.203 F 
ATOM     90  F   UNL     1      -1.339   3.055  12.043  1.00  0.00    -0.200 F 
ATOM     91  C   UNL     1      -0.726   4.875  10.668  1.00  0.00     0.200 A 
ATOM     92  F   UNL     1      -0.148   6.673   9.252  1.00  0.00    -0.200 F 
ATOM     93  F   UNL     1       0.227   5.232  11.539  1.00  0.00    -0.200 F 
ENDBRANCH  59  83
BRANCH  71  94
ATOM     94  C   UNL     1      -9.709   3.589   9.149  1.00  0.00     0.064 A 
ATOM     95  C   UNL     1      -9.964   4.858   9.685  1.00  0.00     0.173 A 
ATOM     96  C   UNL     1     -10.419   2.493   9.662  1.00  0.00     0.173 A 
ATOM     97  F   UNL     1      -9.300   5.931   9.230  1.00  0.00    -0.203 F 
ATOM     98  C   UNL     1     -10.867   5.017  10.729  1.00  0.00     0.198 A 
ATOM     99  C   UNL     1     -11.356   2.664  10.671  1.00  0.00     0.198 A 
ATOM    100  F   UNL     1     -10.218   1.263   9.166  1.00  0.00    -0.203 F 
ATOM    101  F   UNL     1     -11.044   6.226  11.278  1.00  0.00    -0.200 F 
ATOM    102  C   UNL     1     -11.569   3.922  11.214  1.00  0.00     0.200 A 
ATOM    103  F   UNL     1     -12.054   1.611  11.118  1.00  0.00    -0.200 F 
ATOM    104  F   UNL     1     -12.448   4.080  12.212  1.00  0.00    -0.200 F 
ENDBRANCH  71  94
ENDBRANCH  45  46
ENDBRANCH  37  40
ENDBRANCH  35  36
ENDBRANCH  34  35
ENDBRANCH  33  34
ENDBRANCH  32  33
ENDBRANCH   1  32
TORSDOF 19
