REMARK SMILES CC1=C(C(=O)NCCCCCCNC(=O)c2ccc(-c3c4nc(c(-c5c(F)c(F)c(F)c(F)c5F)c5ccc([nH]5)c(-c5c(F)c(F)c(F)c(F)c5F)c5nc(c(-c6c(F)c(F)c(F)c(F)c6F)c6ccc3[nH]6)C=C5)C=C4)cc2)N2C(=O)[C@H](NC(=O)c3c(Cl)c(C(F)(F)F)nn3C)[C@@H]2SC1
REMARK SMILES IDX 9 1 8 2 7 3 6 4 4 5 5 6 3 8 1 9 2 10 99 11 79 12 98 13 80 14
REMARK SMILES IDX 97 15 81 16 82 17 83 18 84 19 85 21 86 22 87 23 95 24 88 25
REMARK SMILES IDX 89 26 94 27 96 28 90 29 91 30 92 31 93 32 10 33 11 34 12 35
REMARK SMILES IDX 13 36 14 37 15 39 16 40 17 41 78 42 18 43 77 44 19 45 20 46
REMARK SMILES IDX 21 47 71 48 22 49 76 50 70 51 72 52 23 53 75 54 69 55 68 56
REMARK SMILES IDX 24 58 56 59 36 60 55 61 37 62 40 63 54 64 73 65 38 66 39 67
REMARK SMILES IDX 53 69 74 70 41 71 25 72 26 73 34 74 27 75 28 76 32 77 35 78
REMARK SMILES IDX 29 79 30 80 33 81 31 82 57 83 58 84 66 85 59 86 60 87 64 88
REMARK SMILES IDX 67 89 61 90 62 91 65 92 63 93 42 94 43 95 51 96 44 97 45 98
REMARK SMILES IDX 49 99 52 100 46 101 47 102 50 103 48 104
REMARK H PARENT 6 7 83 20 13 38 72 57 40 68
REMARK Flexibility Score: inf
ROOT
ATOM      1  C   UNL     1       0.851  -3.154   2.696  1.00  0.00     0.002 C 
ENDROOT
BRANCH   1   2
ATOM      2  C   UNL     1       0.707  -1.976   1.731  1.00  0.00     0.021 C 
BRANCH   2   3
ATOM      3  C   UNL     1       1.558  -2.096   0.458  1.00  0.00     0.116 C 
BRANCH   3   4
ATOM      4  N   UNL     1       0.740  -2.660  -0.591  1.00  0.00    -0.351 N 
ATOM      5  C   UNL     1      -0.014  -2.100  -1.567  1.00  0.00     0.268 C 
ATOM      6  O   UNL     1      -0.892  -2.809  -2.070  1.00  0.00    -0.268 OA
ATOM      7  H   UNL     1       0.727  -3.644  -0.596  1.00  0.00     0.163 HD
BRANCH   5   8
ATOM      8  C   UNL     1       0.189  -0.709  -2.130  1.00  0.00     0.110 C 
ATOM      9  C   UNL     1       0.066   0.703  -0.011  1.00  0.00     0.043 C 
ATOM     10  C   UNL     1       0.238   0.489  -1.488  1.00  0.00    -0.034 C 
ATOM     11  C   UNL     1       0.410   1.839  -2.185  1.00  0.00     0.104 C 
ATOM     12  N   UNL     1       0.114  -0.683  -3.492  1.00  0.00    -0.290 N 
ATOM     13  S   UNL     1       0.610   1.810  -3.982  1.00  0.00    -0.129 SA
ATOM     14  C   UNL     1       0.273  -1.519  -4.540  1.00  0.00     0.253 C 
ATOM     15  C   UNL     1      -0.508   0.401  -4.200  1.00  0.00     0.181 C 
ATOM     16  O   UNL     1       0.773  -2.611  -4.655  1.00  0.00    -0.272 OA
ATOM     17  C   UNL     1      -0.364  -0.450  -5.498  1.00  0.00     0.206 C 
BRANCH  17  18
ATOM     18  N   UNL     1       0.505   0.121  -6.552  1.00  0.00    -0.336 N 
ATOM     19  C   UNL     1       0.169   0.648  -7.774  1.00  0.00     0.271 C 
ATOM     20  H   UNL     1       1.467   0.123  -6.345  1.00  0.00     0.164 HD
ATOM     21  O   UNL     1       1.070   1.109  -8.468  1.00  0.00    -0.267 OA
BRANCH  19  22
ATOM     22  C   UNL     1      -1.201   0.611  -8.209  1.00  0.00     0.145 A 
ATOM     23  C   UNL     1      -1.697   0.062  -9.378  1.00  0.00     0.104 A 
ATOM     24  N   UNL     1      -2.281   1.235  -7.642  1.00  0.00    -0.261 N 
ATOM     25  Cl  UNL     1      -0.832  -0.759 -10.588  1.00  0.00    -0.079 Cl
ATOM     26  C   UNL     1      -3.091   0.305  -9.376  1.00  0.00     0.185 A 
ATOM     27  N   UNL     1      -3.447   0.987  -8.268  1.00  0.00    -0.166 NA
ATOM     28  C   UNL     1      -2.312   2.146  -6.522  1.00  0.00     0.174 C 
BRANCH  26  29
ATOM     29  C   UNL     1      -4.069  -0.105 -10.439  1.00  0.00     0.436 C 
ATOM     30  F   UNL     1      -3.828   0.529 -11.618  1.00  0.00    -0.164 F 
ATOM     31  F   UNL     1      -4.012  -1.440 -10.695  1.00  0.00    -0.164 F 
ATOM     32  F   UNL     1      -5.362   0.166 -10.113  1.00  0.00    -0.164 F 
ENDBRANCH  26  29
ENDBRANCH  19  22
ENDBRANCH  17  18
ENDBRANCH   5   8
ENDBRANCH   3   4
ENDBRANCH   2   3
ENDBRANCH   1   2
BRANCH   1  33
ATOM     33  C   UNL     1       2.204  -3.217   3.407  1.00  0.00     0.002 C 
BRANCH  33  34
ATOM     34  C   UNL     1       2.576  -1.961   4.202  1.00  0.00     0.021 C 
BRANCH  34  35
ATOM     35  C   UNL     1       1.571  -1.571   5.282  1.00  0.00     0.116 C 
BRANCH  35  36
ATOM     36  N   UNL     1       1.438  -2.613   6.287  1.00  0.00    -0.352 N 
ATOM     37  C   UNL     1       1.762  -2.591   7.618  1.00  0.00     0.251 C 
ATOM     38  H   UNL     1       1.060  -3.462   5.962  1.00  0.00     0.163 HD
ATOM     39  O   UNL     1       1.854  -3.643   8.244  1.00  0.00    -0.269 OA
BRANCH  37  40
ATOM     40  C   UNL     1       1.993  -1.305   8.309  1.00  0.00     0.039 A 
ATOM     41  C   UNL     1       3.008  -1.227   9.266  1.00  0.00     0.014 A 
ATOM     42  C   UNL     1       1.174  -0.198   8.066  1.00  0.00     0.014 A 
ATOM     43  C   UNL     1       3.217  -0.033   9.958  1.00  0.00     0.010 A 
ATOM     44  C   UNL     1       1.436   1.015   8.697  1.00  0.00     0.010 A 
ATOM     45  C   UNL     1       2.444   1.103   9.667  1.00  0.00    -0.014 A 
BRANCH  45  46
ATOM     46  C   UNL     1       2.662   2.377  10.399  1.00  0.00     0.031 A 
ATOM     47  C   UNL     1       1.584   2.934  11.288  1.00  0.00     0.074 A 
ATOM     48  C   UNL     1       3.821   3.044  10.240  1.00  0.00     0.049 A 
ATOM     49  N   UNL     1       1.586   4.031  12.005  1.00  0.00    -0.248 NA
ATOM     50  C   UNL     1       0.326   2.175  11.363  1.00  0.00     0.031 C 
ATOM     51  C   UNL     1       4.919   2.631   9.365  1.00  0.00     0.029 A 
ATOM     52  N   UNL     1       4.269   4.209  10.809  1.00  0.00    -0.354 N 
ATOM     53  C   UNL     1       0.334   4.093  12.604  1.00  0.00     0.074 A 
ATOM     54  C   UNL     1      -0.424   2.962  12.117  1.00  0.00     0.031 C 
ATOM     55  C   UNL     1       5.927   3.510   9.481  1.00  0.00     0.029 A 
ATOM     56  C   UNL     1       5.534   4.564  10.411  1.00  0.00     0.049 A 
ATOM     57  H   UNL     1       3.734   4.740  11.442  1.00  0.00     0.167 HD
ATOM     58  C   UNL     1      -0.131   4.996  13.502  1.00  0.00     0.037 A 
ATOM     59  C   UNL     1       6.291   5.620  10.760  1.00  0.00     0.037 A 
ATOM     60  C   UNL     1       0.636   6.108  13.999  1.00  0.00     0.049 A 
ATOM     61  C   UNL     1       5.752   6.606  11.761  1.00  0.00     0.074 A 
ATOM     62  C   UNL     1       0.279   7.049  14.949  1.00  0.00     0.029 A 
ATOM     63  N   UNL     1       1.919   6.431  13.580  1.00  0.00    -0.354 N 
ATOM     64  N   UNL     1       4.595   6.614  12.378  1.00  0.00    -0.248 NA
ATOM     65  C   UNL     1       6.633   7.724  12.125  1.00  0.00     0.031 C 
ATOM     66  C   UNL     1       1.325   7.971  15.067  1.00  0.00     0.029 A 
ATOM     67  C   UNL     1       2.359   7.571  14.235  1.00  0.00     0.049 A 
ATOM     68  H   UNL     1       2.441   5.925  12.916  1.00  0.00     0.167 HD
ATOM     69  C   UNL     1       4.618   7.718  13.220  1.00  0.00     0.074 A 
ATOM     70  C   UNL     1       5.916   8.340  13.053  1.00  0.00     0.031 C 
ATOM     71  C   UNL     1       3.653   8.179  14.054  1.00  0.00     0.037 A 
BRANCH  58  72
ATOM     72  C   UNL     1      -1.536   4.814  14.005  1.00  0.00     0.064 A 
ATOM     73  C   UNL     1      -1.890   3.737  14.833  1.00  0.00     0.173 A 
ATOM     74  C   UNL     1      -2.535   5.744  13.680  1.00  0.00     0.173 A 
ATOM     75  F   UNL     1      -0.977   2.812  15.164  1.00  0.00    -0.203 F 
ATOM     76  C   UNL     1      -3.197   3.579  15.288  1.00  0.00     0.198 A 
ATOM     77  C   UNL     1      -3.833   5.602  14.165  1.00  0.00     0.198 A 
ATOM     78  F   UNL     1      -2.253   6.796  12.897  1.00  0.00    -0.203 F 
ATOM     79  F   UNL     1      -3.522   2.512  16.029  1.00  0.00    -0.200 F 
ATOM     80  C   UNL     1      -4.165   4.516  14.960  1.00  0.00     0.200 A 
ATOM     81  F   UNL     1      -4.765   6.516  13.858  1.00  0.00    -0.200 F 
ATOM     82  F   UNL     1      -5.421   4.367  15.403  1.00  0.00    -0.200 F 
ENDBRANCH  58  72
BRANCH  59  83
ATOM     83  C   UNL     1       7.653   5.783  10.186  1.00  0.00     0.064 A 
ATOM     84  C   UNL     1       8.795   5.647  10.987  1.00  0.00     0.173 A 
ATOM     85  C   UNL     1       7.840   6.087   8.829  1.00  0.00     0.173 A 
ATOM     86  F   UNL     1       8.668   5.374  12.294  1.00  0.00    -0.203 F 
ATOM     87  C   UNL     1      10.072   5.835  10.460  1.00  0.00     0.198 A 
ATOM     88  C   UNL     1       9.118   6.244   8.297  1.00  0.00     0.198 A 
ATOM     89  F   UNL     1       6.781   6.221   8.018  1.00  0.00    -0.203 F 
ATOM     90  F   UNL     1      11.143   5.751  11.260  1.00  0.00    -0.200 F 
ATOM     91  C   UNL     1      10.232   6.128   9.114  1.00  0.00     0.200 A 
ATOM     92  F   UNL     1       9.270   6.510   6.992  1.00  0.00    -0.200 F 
ATOM     93  F   UNL     1      11.460   6.307   8.607  1.00  0.00    -0.200 F 
ENDBRANCH  59  83
BRANCH  71  94
ATOM     94  C   UNL     1       3.981   9.398  14.870  1.00  0.00     0.064 A 
ATOM     95  C   UNL     1       4.132  10.662  14.280  1.00  0.00     0.173 A 
ATOM     96  C   UNL     1       4.138   9.301  16.261  1.00  0.00     0.173 A 
ATOM     97  F   UNL     1       4.005  10.807  12.952  1.00  0.00    -0.203 F 
ATOM     98  C   UNL     1       4.471  11.774  15.046  1.00  0.00     0.198 A 
ATOM     99  C   UNL     1       4.440  10.422  17.029  1.00  0.00     0.198 A 
ATOM    100  F   UNL     1       3.995   8.118  16.878  1.00  0.00    -0.203 F 
ATOM    101  F   UNL     1       4.676  12.957  14.451  1.00  0.00    -0.200 F 
ATOM    102  C   UNL     1       4.619  11.654  16.419  1.00  0.00     0.200 A 
ATOM    103  F   UNL     1       4.567  10.307  18.358  1.00  0.00    -0.200 F 
ATOM    104  F   UNL     1       4.946  12.726  17.155  1.00  0.00    -0.200 F 
ENDBRANCH  71  94
ENDBRANCH  45  46
ENDBRANCH  37  40
ENDBRANCH  35  36
ENDBRANCH  34  35
ENDBRANCH  33  34
ENDBRANCH   1  33
TORSDOF 16
