REMARK SMILES [NH3+][C@@]1(C(=O)NCCCCCCNC(=O)c2ccc(-c3c4nc(c(-c5c(F)c(F)c(F)c(F)c5F)c5ccc([nH]5)c(-c5c(F)c(F)c(F)c(F)c5F)c5nc(c(-c6c(F)c(F)c(F)c(F)c6F)c6ccc3[nH]6)C=C5)C=C4)cc2)CC[C@H](SC2CCOCC2)C1
REMARK SMILES IDX 8 1 7 2 6 3 5 4 3 5 4 6 2 8 78 9 88 10 79 11 80 12 1 13
REMARK SMILES IDX 81 17 82 18 83 19 87 20 84 21 86 22 85 23 9 24 10 25 11 26
REMARK SMILES IDX 12 27 13 28 14 30 15 31 16 32 77 33 17 34 76 35 18 36 19 37
REMARK SMILES IDX 20 38 70 39 21 40 75 41 69 42 71 43 22 44 74 45 68 46 67 47
REMARK SMILES IDX 23 49 55 50 35 51 54 52 36 53 39 54 53 55 72 56 37 57 38 58
REMARK SMILES IDX 52 60 73 61 40 62 24 63 25 64 33 65 26 66 27 67 31 68 34 69
REMARK SMILES IDX 28 70 29 71 32 72 30 73 56 74 57 75 65 76 58 77 59 78 63 79
REMARK SMILES IDX 66 80 60 81 61 82 64 83 62 84 41 85 42 86 50 87 43 88 44 89
REMARK SMILES IDX 48 90 51 91 45 92 46 93 49 94 47 95
REMARK H PARENT 5 7 1 14 1 15 1 16 12 29 71 48 39 59
REMARK Flexibility Score: inf
ROOT
ATOM      1  C   UNL     1      -0.111   4.204  -5.139  1.00  0.00     0.002 C 
ENDROOT
BRANCH   1   2
ATOM      2  C   UNL     1       0.394   4.067  -3.703  1.00  0.00     0.021 C 
BRANCH   2   3
ATOM      3  C   UNL     1      -0.452   3.171  -2.805  1.00  0.00     0.116 C 
BRANCH   3   4
ATOM      4  N   UNL     1      -0.072   1.781  -2.839  1.00  0.00    -0.351 N 
ATOM      5  C   UNL     1       0.310   0.922  -1.858  1.00  0.00     0.281 C 
ATOM      6  O   UNL     1       0.477  -0.251  -2.227  1.00  0.00    -0.268 OA
ATOM      7  H   UNL     1      -0.093   1.381  -3.738  1.00  0.00     0.163 HD
BRANCH   5   8
ATOM      8  C   UNL     1       0.526   1.295  -0.333  1.00  0.00     0.175 C 
ATOM      9  C   UNL     1      -0.769   1.544   0.439  1.00  0.00     0.080 C 
ATOM     10  C   UNL     1       1.413   2.516  -0.059  1.00  0.00     0.093 C 
ATOM     11  C   UNL     1      -0.889   3.055   0.593  1.00  0.00     0.022 C 
ATOM     12  C   UNL     1       0.540   3.597   0.638  1.00  0.00     0.054 C 
BRANCH   8  13
ATOM     13  N   UNL     1       1.179   0.103   0.286  1.00  0.00    -0.345 N 
ATOM     14  H   UNL     1       0.607  -0.724   0.117  1.00  0.00     0.345 HD
ATOM     15  H   UNL     1       1.275   0.251   1.290  1.00  0.00     0.345 HD
ATOM     16  H   UNL     1       2.102  -0.032  -0.128  1.00  0.00     0.345 HD
ENDBRANCH   8  13
BRANCH  12  17
ATOM     17  S   UNL     1       0.991   5.201  -0.159  1.00  0.00    -0.155 SA
BRANCH  17  18
ATOM     18  C   UNL     1      -0.351   6.417   0.105  1.00  0.00     0.051 C 
ATOM     19  C   UNL     1      -0.201   7.183   1.416  1.00  0.00     0.043 C 
ATOM     20  C   UNL     1      -1.797   5.985  -0.101  1.00  0.00     0.043 C 
ATOM     21  C   UNL     1      -1.205   8.335   1.431  1.00  0.00     0.161 C 
ATOM     22  C   UNL     1      -2.705   7.206  -0.025  1.00  0.00     0.161 C 
ATOM     23  O   UNL     1      -2.537   7.862   1.230  1.00  0.00    -0.381 OA
ENDBRANCH  17  18
ENDBRANCH  12  17
ENDBRANCH   5   8
ENDBRANCH   3   4
ENDBRANCH   2   3
ENDBRANCH   1   2
BRANCH   1  24
ATOM     24  C   UNL     1      -1.546   4.724  -5.296  1.00  0.00     0.002 C 
BRANCH  24  25
ATOM     25  C   UNL     1      -1.900   5.999  -4.522  1.00  0.00     0.021 C 
BRANCH  25  26
ATOM     26  C   UNL     1      -1.025   7.218  -4.806  1.00  0.00     0.116 C 
BRANCH  26  27
ATOM     27  N   UNL     1      -1.058   7.609  -6.203  1.00  0.00    -0.352 N 
ATOM     28  C   UNL     1      -1.365   8.808  -6.789  1.00  0.00     0.251 C 
ATOM     29  H   UNL     1      -0.821   6.893  -6.836  1.00  0.00     0.163 HD
ATOM     30  O   UNL     1      -1.495   8.863  -8.013  1.00  0.00    -0.269 OA
BRANCH  28  31
ATOM     31  C   UNL     1      -1.554  10.039  -5.988  1.00  0.00     0.039 A 
ATOM     32  C   UNL     1      -2.550  10.939  -6.383  1.00  0.00     0.014 A 
ATOM     33  C   UNL     1      -0.722  10.360  -4.911  1.00  0.00     0.014 A 
ATOM     34  C   UNL     1      -2.734  12.135  -5.685  1.00  0.00     0.010 A 
ATOM     35  C   UNL     1      -0.947  11.525  -4.174  1.00  0.00     0.010 A 
ATOM     36  C   UNL     1      -1.945  12.432  -4.563  1.00  0.00    -0.014 A 
BRANCH  36  37
ATOM     37  C   UNL     1      -2.144  13.698  -3.811  1.00  0.00     0.031 A 
ATOM     38  C   UNL     1      -1.076  14.758  -3.805  1.00  0.00     0.074 A 
ATOM     39  C   UNL     1      -3.277  13.884  -3.107  1.00  0.00     0.049 A 
ATOM     40  N   UNL     1      -1.062  15.918  -3.196  1.00  0.00    -0.248 NA
ATOM     41  C   UNL     1       0.149  14.467  -4.565  1.00  0.00     0.031 C 
ATOM     42  C   UNL     1      -4.369  12.916  -2.995  1.00  0.00     0.029 A 
ATOM     43  N   UNL     1      -3.698  14.950  -2.351  1.00  0.00    -0.354 N 
ATOM     44  C   UNL     1       0.172  16.485  -3.487  1.00  0.00     0.074 A 
ATOM     45  C   UNL     1       0.900  15.524  -4.287  1.00  0.00     0.031 C 
ATOM     46  C   UNL     1      -5.343  13.440  -2.235  1.00  0.00     0.029 A 
ATOM     47  C   UNL     1      -4.936  14.769  -1.786  1.00  0.00     0.049 A 
ATOM     48  H   UNL     1      -3.162  15.767  -2.226  1.00  0.00     0.167 HD
ATOM     49  C   UNL     1       0.647  17.706  -3.138  1.00  0.00     0.037 A 
ATOM     50  C   UNL     1      -5.663  15.584  -0.998  1.00  0.00     0.037 A 
ATOM     51  C   UNL     1      -0.090  18.675  -2.369  1.00  0.00     0.049 A 
ATOM     52  C   UNL     1      -5.124  16.944  -0.647  1.00  0.00     0.074 A 
ATOM     53  C   UNL     1       0.285  19.958  -2.008  1.00  0.00     0.029 A 
ATOM     54  N   UNL     1      -1.356  18.467  -1.843  1.00  0.00    -0.354 N 
ATOM     55  N   UNL     1      -3.982  17.493  -0.983  1.00  0.00    -0.248 NA
ATOM     56  C   UNL     1      -5.983  17.803   0.179  1.00  0.00     0.031 C 
ATOM     57  C   UNL     1      -0.740  20.514  -1.234  1.00  0.00     0.029 A 
ATOM     58  C   UNL     1      -1.772  19.594  -1.151  1.00  0.00     0.049 A 
ATOM     59  H   UNL     1      -1.882  17.641  -1.945  1.00  0.00     0.167 HD
ATOM     60  C   UNL     1      -3.999  18.770  -0.437  1.00  0.00     0.074 A 
ATOM     61  C   UNL     1      -5.270  18.918   0.240  1.00  0.00     0.031 C 
ATOM     62  C   UNL     1      -3.046  19.732  -0.493  1.00  0.00     0.037 A 
BRANCH  49  63
ATOM     63  C   UNL     1       2.032  18.067  -3.591  1.00  0.00     0.064 A 
ATOM     64  C   UNL     1       2.318  18.333  -4.939  1.00  0.00     0.173 A 
ATOM     65  C   UNL     1       3.077  18.188  -2.663  1.00  0.00     0.173 A 
ATOM     66  F   UNL     1       1.357  18.221  -5.868  1.00  0.00    -0.203 F 
ATOM     67  C   UNL     1       3.605  18.679  -5.344  1.00  0.00     0.198 A 
ATOM     68  C   UNL     1       4.356  18.562  -3.067  1.00  0.00     0.198 A 
ATOM     69  F   UNL     1       2.856  17.951  -1.361  1.00  0.00    -0.203 F 
ATOM     70  F   UNL     1       3.865  18.882  -6.643  1.00  0.00    -0.200 F 
ATOM     71  C   UNL     1       4.620  18.800  -4.407  1.00  0.00     0.200 A 
ATOM     72  F   UNL     1       5.333  18.692  -2.160  1.00  0.00    -0.200 F 
ATOM     73  F   UNL     1       5.857  19.140  -4.798  1.00  0.00    -0.200 F 
ENDBRANCH  49  63
BRANCH  50  74
ATOM     74  C   UNL     1      -7.001  15.150  -0.520  1.00  0.00     0.064 A 
ATOM     75  C   UNL     1      -8.170  15.743  -1.019  1.00  0.00     0.173 A 
ATOM     76  C   UNL     1      -7.140  14.140   0.442  1.00  0.00     0.173 A 
ATOM     77  F   UNL     1      -8.085  16.728  -1.925  1.00  0.00    -0.203 F 
ATOM     78  C   UNL     1      -9.426  15.356  -0.558  1.00  0.00     0.198 A 
ATOM     79  C   UNL     1      -8.399  13.735   0.882  1.00  0.00     0.198 A 
ATOM     80  F   UNL     1      -6.053  13.538   0.946  1.00  0.00    -0.203 F 
ATOM     81  F   UNL     1     -10.524  15.970  -1.019  1.00  0.00    -0.200 F 
ATOM     82  C   UNL     1      -9.540  14.349   0.388  1.00  0.00     0.200 A 
ATOM     83  F   UNL     1      -8.506  12.752   1.786  1.00  0.00    -0.200 F 
ATOM     84  F   UNL     1     -10.749  13.974   0.827  1.00  0.00    -0.200 F 
ENDBRANCH  50  74
BRANCH  62  85
ATOM     85  C   UNL     1      -3.360  21.047   0.158  1.00  0.00     0.064 A 
ATOM     86  C   UNL     1      -3.398  21.189   1.553  1.00  0.00     0.173 A 
ATOM     87  C   UNL     1      -3.600  22.186  -0.626  1.00  0.00     0.173 A 
ATOM     88  F   UNL     1      -3.189  20.127   2.345  1.00  0.00    -0.203 F 
ATOM     89  C   UNL     1      -3.694  22.417   2.139  1.00  0.00     0.198 A 
ATOM     90  C   UNL     1      -3.867  23.418  -0.036  1.00  0.00     0.198 A 
ATOM     91  F   UNL     1      -3.568  22.105  -1.965  1.00  0.00    -0.203 F 
ATOM     92  F   UNL     1      -3.775  22.518   3.473  1.00  0.00    -0.200 F 
ATOM     93  C   UNL     1      -3.923  23.531   1.344  1.00  0.00     0.200 A 
ATOM     94  F   UNL     1      -4.077  24.496  -0.805  1.00  0.00    -0.200 F 
ATOM     95  F   UNL     1      -4.205  24.712   1.910  1.00  0.00    -0.200 F 
ENDBRANCH  62  85
ENDBRANCH  36  37
ENDBRANCH  28  31
ENDBRANCH  26  27
ENDBRANCH  25  26
ENDBRANCH  24  25
ENDBRANCH   1  24
TORSDOF 16
