REMARK SMILES Cc1ccc(NC(=O)C[C@H]2C(=O)NCCN2C(=O)CCC(=O)NCCCCCCNC(=O)c2ccc(-c3c4nc(c(-c5c(F)c(F)c(F)c(F)c5F)c5ccc([nH]5)c(-c5c(F)c(F)c(F)c(F)c5F)c5nc(c(-c6c(F)c(F)c(F)c(F)c6F)c6ccc3[nH]6)C=C5)C=C4)cc2)c(C)c1
REMARK SMILES IDX 24 1 23 2 21 3 22 4 20 6 19 7 17 8 18 9 16 10 10 11 11 12
REMARK SMILES IDX 12 13 13 14 15 15 14 16 9 18 7 19 6 20 8 22 5 23 1 24 2 25
REMARK SMILES IDX 3 26 98 27 4 28 96 29 97 30 25 31 26 32 27 33 28 34 29 35
REMARK SMILES IDX 30 36 31 37 32 39 33 40 34 41 95 42 35 43 94 44 36 45 37 46
REMARK SMILES IDX 38 47 88 48 39 49 93 50 87 51 89 52 40 53 92 54 86 55 85 56
REMARK SMILES IDX 41 58 73 59 53 60 72 61 54 62 57 63 71 64 90 65 55 66 56 67
REMARK SMILES IDX 70 69 91 70 58 71 42 72 43 73 51 74 44 75 45 76 49 77 52 78
REMARK SMILES IDX 46 79 47 80 50 81 48 82 74 83 75 84 83 85 76 86 77 87 81 88
REMARK SMILES IDX 84 89 78 90 79 91 82 92 80 93 59 94 60 95 68 96 61 97 62 98
REMARK SMILES IDX 66 99 69 100 63 101 64 102 67 103 65 104
REMARK H PARENT 23 5 13 17 6 21 30 38 89 57 57 68
REMARK Flexibility Score: inf
ROOT
ATOM      1  C   UNL     1      -3.402   3.194   0.705  1.00  0.00     0.116 C 
ENDROOT
BRANCH   1   2
ATOM      2  N   UNL     1      -2.725   2.156  -0.082  1.00  0.00    -0.356 N 
ATOM      3  C   UNL     1      -2.966   1.421  -1.205  1.00  0.00     0.220 C 
ATOM      4  O   UNL     1      -2.062   0.731  -1.684  1.00  0.00    -0.275 OA
ATOM      5  H   UNL     1      -1.852   1.927   0.311  1.00  0.00     0.163 HD
BRANCH   3   6
ATOM      6  C   UNL     1      -4.325   1.296  -1.775  1.00  0.00     0.110 C 
BRANCH   6   7
ATOM      7  C   UNL     1      -5.054   0.272  -0.933  1.00  0.00     0.110 C 
BRANCH   7   8
ATOM      8  C   UNL     1      -5.428   0.934   0.349  1.00  0.00     0.223 C 
ATOM      9  O   UNL     1      -6.405   1.701   0.301  1.00  0.00    -0.275 OA
BRANCH   8  10
ATOM     10  N   UNL     1      -4.672   0.786   1.526  1.00  0.00    -0.328 N 
ATOM     11  C   UNL     1      -3.390  -0.059   1.793  1.00  0.00     0.183 C 
ATOM     12  C   UNL     1      -3.492  -0.793   3.168  1.00  0.00     0.243 C 
ATOM     13  O   UNL     1      -2.761  -1.736   3.468  1.00  0.00    -0.273 OA
ATOM     14  N   UNL     1      -4.424  -0.406   4.089  1.00  0.00    -0.353 N 
ATOM     15  C   UNL     1      -5.475   1.313   2.650  1.00  0.00     0.141 C 
ATOM     16  C   UNL     1      -5.262   0.754   4.033  1.00  0.00     0.137 C 
ATOM     17  H   UNL     1      -4.532  -0.988   4.875  1.00  0.00     0.163 HD
BRANCH  11  18
ATOM     18  C   UNL     1      -1.736   0.172   1.335  1.00  0.00     0.135 C 
BRANCH  18  19
ATOM     19  C   UNL     1      -0.448   1.201   1.635  1.00  0.00     0.227 C 
ATOM     20  N   UNL     1       0.022   2.427   1.162  1.00  0.00    -0.326 N 
ATOM     21  H   UNL     1       0.854   2.627   1.649  1.00  0.00     0.169 HD
ATOM     22  O   UNL     1       0.319   0.795   2.541  1.00  0.00    -0.275 OA
BRANCH  20  23
ATOM     23  C   UNL     1      -0.213   3.521   0.251  1.00  0.00     0.044 A 
ATOM     24  C   UNL     1      -2.795   6.306  -1.717  1.00  0.00     0.044 C 
ATOM     25  C   UNL     1      -1.619   5.546  -1.156  1.00  0.00    -0.051 A 
ATOM     26  C   UNL     1      -1.155   5.785   0.137  1.00  0.00     0.005 A 
ATOM     27  C   UNL     1      -1.106   4.431  -1.824  1.00  0.00     0.009 A 
ATOM     28  C   UNL     1      -0.406   4.798   0.815  1.00  0.00     0.026 A 
ATOM     29  C   UNL     1      -0.365   3.434  -1.136  1.00  0.00    -0.027 A 
ATOM     30  C   UNL     1       0.300   2.362  -1.944  1.00  0.00     0.046 C 
ENDBRANCH  20  23
ENDBRANCH  18  19
ENDBRANCH  11  18
ENDBRANCH   8  10
ENDBRANCH   7   8
ENDBRANCH   6   7
ENDBRANCH   3   6
ENDBRANCH   1   2
BRANCH   1  31
ATOM     31  C   UNL     1      -2.986   3.558   2.199  1.00  0.00     0.021 C 
BRANCH  31  32
ATOM     32  C   UNL     1      -2.480   2.627   3.327  1.00  0.00     0.002 C 
BRANCH  32  33
ATOM     33  C   UNL     1      -1.263   3.075   4.169  1.00  0.00     0.002 C 
BRANCH  33  34
ATOM     34  C   UNL     1      -1.447   4.364   4.946  1.00  0.00     0.021 C 
BRANCH  34  35
ATOM     35  C   UNL     1      -2.691   4.385   5.813  1.00  0.00     0.116 C 
BRANCH  35  36
ATOM     36  N   UNL     1      -2.655   3.419   6.902  1.00  0.00    -0.352 N 
ATOM     37  C   UNL     1      -2.771   3.645   8.262  1.00  0.00     0.251 C 
ATOM     38  H   UNL     1      -2.532   2.479   6.634  1.00  0.00     0.163 HD
ATOM     39  O   UNL     1      -2.621   2.763   9.070  1.00  0.00    -0.269 OA
BRANCH  37  40
ATOM     40  C   UNL     1      -3.043   5.034   8.698  1.00  0.00     0.039 A 
ATOM     41  C   UNL     1      -2.171   5.641   9.601  1.00  0.00     0.014 A 
ATOM     42  C   UNL     1      -4.081   5.756   8.106  1.00  0.00     0.014 A 
ATOM     43  C   UNL     1      -2.286   7.011   9.840  1.00  0.00     0.010 A 
ATOM     44  C   UNL     1      -4.120   7.133   8.257  1.00  0.00     0.010 A 
ATOM     45  C   UNL     1      -3.226   7.775   9.129  1.00  0.00    -0.014 A 
BRANCH  45  46
ATOM     46  C   UNL     1      -3.310   9.247   9.288  1.00  0.00     0.031 A 
ATOM     47  C   UNL     1      -4.582   9.865   9.798  1.00  0.00     0.074 A 
ATOM     48  C   UNL     1      -2.284  10.027   8.895  1.00  0.00     0.049 A 
ATOM     49  N   UNL     1      -4.896  11.128   9.926  1.00  0.00    -0.248 NA
ATOM     50  C   UNL     1      -5.662   8.938  10.173  1.00  0.00     0.031 C 
ATOM     51  C   UNL     1      -1.027   9.549   8.315  1.00  0.00     0.029 A 
ATOM     52  N   UNL     1      -2.139  11.392   8.917  1.00  0.00    -0.354 N 
ATOM     53  C   UNL     1      -6.213  11.143  10.367  1.00  0.00     0.074 A 
ATOM     54  C   UNL     1      -6.660   9.770  10.422  1.00  0.00     0.031 C 
ATOM     55  C   UNL     1      -0.228  10.601   8.067  1.00  0.00     0.029 A 
ATOM     56  C   UNL     1      -0.926  11.826   8.441  1.00  0.00     0.049 A 
ATOM     57  H   UNL     1      -2.840  12.002   9.244  1.00  0.00     0.167 HD
ATOM     58  C   UNL     1      -6.970  12.205  10.728  1.00  0.00     0.037 A 
ATOM     59  C   UNL     1      -0.435  13.075   8.326  1.00  0.00     0.037 A 
ATOM     60  C   UNL     1      -6.502  13.564  10.722  1.00  0.00     0.049 A 
ATOM     61  C   UNL     1      -1.279  14.236   8.779  1.00  0.00     0.074 A 
ATOM     62  C   UNL     1      -7.161  14.706  11.139  1.00  0.00     0.029 A 
ATOM     63  N   UNL     1      -5.247  13.961  10.283  1.00  0.00    -0.354 N 
ATOM     64  N   UNL     1      -2.497  14.233   9.265  1.00  0.00    -0.248 NA
ATOM     65  C   UNL     1      -0.677  15.572   8.677  1.00  0.00     0.031 C 
ATOM     66  C   UNL     1      -6.316  15.800  10.923  1.00  0.00     0.029 A 
ATOM     67  C   UNL     1      -5.116  15.333  10.409  1.00  0.00     0.049 A 
ATOM     68  H   UNL     1      -4.553  13.356   9.934  1.00  0.00     0.167 HD
ATOM     69  C   UNL     1      -2.796  15.557   9.552  1.00  0.00     0.074 A 
ATOM     70  C   UNL     1      -1.627  16.335   9.198  1.00  0.00     0.031 C 
ATOM     71  C   UNL     1      -3.937  16.083  10.061  1.00  0.00     0.037 A 
BRANCH  58  72
ATOM     72  C   UNL     1      -8.376  11.930  11.175  1.00  0.00     0.064 A 
ATOM     73  C   UNL     1      -8.646  11.282  12.390  1.00  0.00     0.173 A 
ATOM     74  C   UNL     1      -9.465  12.331  10.388  1.00  0.00     0.173 A 
ATOM     75  F   UNL     1      -7.639  10.862  13.170  1.00  0.00    -0.203 F 
ATOM     76  C   UNL     1      -9.954  11.015  12.784  1.00  0.00     0.198 A 
ATOM     77  C   UNL     1     -10.773  12.091  10.801  1.00  0.00     0.198 A 
ATOM     78  F   UNL     1      -9.262  12.955   9.218  1.00  0.00    -0.203 F 
ATOM     79  F   UNL     1     -10.186  10.344  13.921  1.00  0.00    -0.200 F 
ATOM     80  C   UNL     1     -11.016  11.426  11.993  1.00  0.00     0.200 A 
ATOM     81  F   UNL     1     -11.799  12.496  10.040  1.00  0.00    -0.200 F 
ATOM     82  F   UNL     1     -12.275  11.172  12.376  1.00  0.00    -0.200 F 
ENDBRANCH  58  72
BRANCH  59  83
ATOM     83  C   UNL     1       0.940  13.289   7.807  1.00  0.00     0.064 A 
ATOM     84  C   UNL     1       1.972  13.702   8.662  1.00  0.00     0.173 A 
ATOM     85  C   UNL     1       1.254  13.085   6.456  1.00  0.00     0.173 A 
ATOM     86  F   UNL     1       1.716  13.927   9.959  1.00  0.00    -0.203 F 
ATOM     87  C   UNL     1       3.261  13.923   8.181  1.00  0.00     0.198 A 
ATOM     88  C   UNL     1       2.549  13.283   5.981  1.00  0.00     0.198 A 
ATOM     89  F   UNL     1       0.304  12.684   5.599  1.00  0.00    -0.203 F 
ATOM     90  F   UNL     1       4.218  14.358   9.012  1.00  0.00    -0.200 F 
ATOM     91  C   UNL     1       3.550  13.709   6.842  1.00  0.00     0.200 A 
ATOM     92  F   UNL     1       2.828  13.062   4.689  1.00  0.00    -0.200 F 
ATOM     93  F   UNL     1       4.790  13.918   6.380  1.00  0.00    -0.200 F 
ENDBRANCH  59  83
BRANCH  71  94
ATOM     94  C   UNL     1      -3.963  17.563  10.298  1.00  0.00     0.064 A 
ATOM     95  C   UNL     1      -4.060  18.474   9.237  1.00  0.00     0.173 A 
ATOM     96  C   UNL     1      -3.936  18.072  11.605  1.00  0.00     0.173 A 
ATOM     97  F   UNL     1      -4.074  18.035   7.970  1.00  0.00    -0.203 F 
ATOM     98  C   UNL     1      -4.105  19.845   9.476  1.00  0.00     0.198 A 
ATOM     99  C   UNL     1      -4.009  19.441  11.841  1.00  0.00     0.198 A 
ATOM    100  F   UNL     1      -3.851  17.239  12.654  1.00  0.00    -0.203 F 
ATOM    101  F   UNL     1      -4.155  20.701   8.446  1.00  0.00    -0.200 F 
ATOM    102  C   UNL     1      -4.087  20.326  10.777  1.00  0.00     0.200 A 
ATOM    103  F   UNL     1      -4.003  19.904  13.099  1.00  0.00    -0.200 F 
ATOM    104  F   UNL     1      -4.138  21.646  11.004  1.00  0.00    -0.200 F 
ENDBRANCH  71  94
ENDBRANCH  45  46
ENDBRANCH  37  40
ENDBRANCH  35  36
ENDBRANCH  34  35
ENDBRANCH  33  34
ENDBRANCH  32  33
ENDBRANCH  31  32
ENDBRANCH   1  31
TORSDOF 19
