REMARK SMILES O=C(NCCCCCCNC(=O)c1ccc(-c2c3nc(c(-c4c(F)c(F)c(F)c(F)c4F)c4ccc([nH]4)c(-c4c(F)c(F)c(F)c(F)c4F)c4nc(c(-c5c(F)c(F)c(F)c(F)c5F)c5ccc2[nH]5)C=C4)C=C3)cc1)C1=C[C@H]2C=C[C@@H]1[C@@H]1C=C[C@H]21
REMARK SMILES IDX 7 1 6 2 5 3 4 4 3 5 1 6 2 7 76 9 77 10 81 11 78 12 80 13
REMARK SMILES IDX 82 14 79 15 85 16 83 17 84 18 8 19 9 20 10 21 11 22 12 24
REMARK SMILES IDX 13 25 14 26 75 27 15 28 74 29 16 30 17 31 18 32 68 33 19 34
REMARK SMILES IDX 73 35 67 36 69 37 20 38 72 39 66 40 65 41 21 43 53 44 33 45
REMARK SMILES IDX 52 46 34 47 37 48 51 49 70 50 35 51 36 52 50 54 71 55 38 56
REMARK SMILES IDX 22 57 23 58 31 59 24 60 25 61 29 62 32 63 26 64 27 65 30 66
REMARK SMILES IDX 28 67 54 68 55 69 63 70 56 71 57 72 61 73 64 74 58 75 59 76
REMARK SMILES IDX 62 77 60 78 39 79 40 80 48 81 41 82 42 83 46 84 49 85 43 86
REMARK SMILES IDX 44 87 47 88 45 89
REMARK H PARENT 3 8 10 23 69 42 37 53
REMARK Flexibility Score: inf
ROOT
ATOM      1  C   UNL     1       4.783   2.251  -3.598  1.00  0.00     0.002 C 
ENDROOT
BRANCH   1   2
ATOM      2  C   UNL     1       4.472   0.752  -3.657  1.00  0.00     0.002 C 
BRANCH   2   3
ATOM      3  C   UNL     1       4.982  -0.074  -2.466  1.00  0.00     0.021 C 
BRANCH   3   4
ATOM      4  C   UNL     1       4.388   0.323  -1.115  1.00  0.00     0.116 C 
BRANCH   4   5
ATOM      5  N   UNL     1       2.947   0.155  -1.115  1.00  0.00    -0.352 N 
ATOM      6  O   UNL     1       0.921  -0.466  -0.378  1.00  0.00    -0.270 OA
ATOM      7  C   UNL     1       2.140  -0.490  -0.238  1.00  0.00     0.247 C 
ATOM      8  H   UNL     1       2.481   0.576  -1.873  1.00  0.00     0.163 HD
BRANCH   7   9
ATOM      9  C   UNL     1       2.732  -1.153   0.929  1.00  0.00     0.021 C 
ATOM     10  C   UNL     1       3.477  -2.284   0.922  1.00  0.00    -0.009 C 
ATOM     11  C   UNL     1       2.336  -0.645   2.314  1.00  0.00     0.054 C 
ATOM     12  C   UNL     1       3.785  -2.815   2.331  1.00  0.00     0.042 C 
ATOM     13  C   UNL     1       3.627  -0.537   3.131  1.00  0.00    -0.022 C 
ATOM     14  C   UNL     1       1.490  -1.823   2.888  1.00  0.00     0.031 C 
ATOM     15  C   UNL     1       4.379  -1.657   3.133  1.00  0.00    -0.022 C 
ATOM     16  C   UNL     1       2.369  -3.127   2.927  1.00  0.00     0.030 C 
ATOM     17  C   UNL     1       1.344  -2.005   4.389  1.00  0.00    -0.026 C 
ATOM     18  C   UNL     1       2.129  -3.100   4.433  1.00  0.00    -0.026 C 
ENDBRANCH   7   9
ENDBRANCH   4   5
ENDBRANCH   3   4
ENDBRANCH   2   3
ENDBRANCH   1   2
BRANCH   1  19
ATOM     19  C   UNL     1       6.269   2.607  -3.515  1.00  0.00     0.021 C 
BRANCH  19  20
ATOM     20  C   UNL     1       7.140   2.022  -4.624  1.00  0.00     0.116 C 
BRANCH  20  21
ATOM     21  N   UNL     1       6.772   2.500  -5.946  1.00  0.00    -0.352 N 
ATOM     22  C   UNL     1       7.584   2.888  -6.984  1.00  0.00     0.251 C 
ATOM     23  H   UNL     1       5.805   2.553  -6.123  1.00  0.00     0.163 HD
ATOM     24  O   UNL     1       7.101   3.384  -7.996  1.00  0.00    -0.269 OA
BRANCH  22  25
ATOM     25  C   UNL     1       9.051   2.736  -6.870  1.00  0.00     0.039 A 
ATOM     26  C   UNL     1       9.867   3.812  -7.235  1.00  0.00     0.014 A 
ATOM     27  C   UNL     1       9.623   1.546  -6.412  1.00  0.00     0.014 A 
ATOM     28  C   UNL     1      11.252   3.717  -7.080  1.00  0.00     0.010 A 
ATOM     29  C   UNL     1      10.999   1.472  -6.206  1.00  0.00     0.010 A 
ATOM     30  C   UNL     1      11.825   2.557  -6.535  1.00  0.00    -0.014 A 
BRANCH  30  31
ATOM     31  C   UNL     1      13.287   2.464  -6.294  1.00  0.00     0.031 A 
ATOM     32  C   UNL     1      14.121   1.493  -7.080  1.00  0.00     0.074 A 
ATOM     33  C   UNL     1      13.850   3.205  -5.321  1.00  0.00     0.049 A 
ATOM     34  N   UNL     1      15.391   1.200  -6.951  1.00  0.00    -0.248 NA
ATOM     35  C   UNL     1      13.432   0.734  -8.133  1.00  0.00     0.031 C 
ATOM     36  C   UNL     1      13.139   4.150  -4.459  1.00  0.00     0.029 A 
ATOM     37  N   UNL     1      15.149   3.265  -4.881  1.00  0.00    -0.354 N 
ATOM     38  C   UNL     1      15.649   0.216  -7.896  1.00  0.00     0.074 A 
ATOM     39  C   UNL     1      14.395  -0.069  -8.562  1.00  0.00     0.031 C 
ATOM     40  C   UNL     1      14.011   4.701  -3.599  1.00  0.00     0.029 A 
ATOM     41  C   UNL     1      15.334   4.128  -3.829  1.00  0.00     0.049 A 
ATOM     42  H   UNL     1      15.879   2.740  -5.282  1.00  0.00     0.167 HD
ATOM     43  C   UNL     1      16.827  -0.381  -8.193  1.00  0.00     0.037 A 
ATOM     44  C   UNL     1      16.443   4.417  -3.123  1.00  0.00     0.037 A 
ATOM     45  C   UNL     1      18.078  -0.081  -7.548  1.00  0.00     0.049 A 
ATOM     46  C   UNL     1      17.743   3.753  -3.486  1.00  0.00     0.074 A 
ATOM     47  C   UNL     1      19.332  -0.606  -7.808  1.00  0.00     0.029 A 
ATOM     48  N   UNL     1      18.233   0.832  -6.516  1.00  0.00    -0.354 N 
ATOM     49  N   UNL     1      17.982   2.856  -4.411  1.00  0.00    -0.248 NA
ATOM     50  C   UNL     1      18.928   4.147  -2.712  1.00  0.00     0.031 C 
ATOM     51  C   UNL     1      20.242  -0.030  -6.915  1.00  0.00     0.029 A 
ATOM     52  C   UNL     1      19.561   0.880  -6.123  1.00  0.00     0.049 A 
ATOM     53  H   UNL     1      17.507   1.367  -6.121  1.00  0.00     0.167 HD
ATOM     54  C   UNL     1      19.343   2.595  -4.346  1.00  0.00     0.074 A 
ATOM     55  C   UNL     1      19.882   3.438  -3.299  1.00  0.00     0.031 C 
ATOM     56  C   UNL     1      20.080   1.731  -5.085  1.00  0.00     0.037 A 
BRANCH  43  57
ATOM     57  C   UNL     1      16.820  -1.418  -9.277  1.00  0.00     0.064 A 
ATOM     58  C   UNL     1      16.678  -1.063 -10.626  1.00  0.00     0.173 A 
ATOM     59  C   UNL     1      16.994  -2.775  -8.968  1.00  0.00     0.173 A 
ATOM     60  F   UNL     1      16.497   0.221 -10.970  1.00  0.00    -0.203 F 
ATOM     61  C   UNL     1      16.687  -2.031 -11.626  1.00  0.00     0.198 A 
ATOM     62  C   UNL     1      17.027  -3.739  -9.973  1.00  0.00     0.198 A 
ATOM     63  F   UNL     1      17.138  -3.166  -7.693  1.00  0.00    -0.203 F 
ATOM     64  F   UNL     1      16.509  -1.673 -12.905  1.00  0.00    -0.200 F 
ATOM     65  C   UNL     1      16.868  -3.367 -11.300  1.00  0.00     0.200 A 
ATOM     66  F   UNL     1      17.212  -5.028  -9.657  1.00  0.00    -0.200 F 
ATOM     67  F   UNL     1      16.882  -4.298 -12.264  1.00  0.00    -0.200 F 
ENDBRANCH  43  57
BRANCH  44  68
ATOM     68  C   UNL     1      16.376   5.397  -2.011  1.00  0.00     0.064 A 
ATOM     69  C   UNL     1      16.947   6.671  -2.140  1.00  0.00     0.173 A 
ATOM     70  C   UNL     1      15.742   5.083  -0.801  1.00  0.00     0.173 A 
ATOM     71  F   UNL     1      17.582   7.007  -3.272  1.00  0.00    -0.203 F 
ATOM     72  C   UNL     1      16.901   7.588  -1.092  1.00  0.00     0.198 A 
ATOM     73  C   UNL     1      15.676   6.009   0.237  1.00  0.00     0.198 A 
ATOM     74  F   UNL     1      15.177   3.878  -0.632  1.00  0.00    -0.203 F 
ATOM     75  F   UNL     1      17.490   8.784  -1.226  1.00  0.00    -0.200 F 
ATOM     76  C   UNL     1      16.262   7.258   0.093  1.00  0.00     0.200 A 
ATOM     77  F   UNL     1      15.047   5.692   1.377  1.00  0.00    -0.200 F 
ATOM     78  F   UNL     1      16.216   8.142   1.100  1.00  0.00    -0.200 F 
ENDBRANCH  44  68
BRANCH  56  79
ATOM     79  C   UNL     1      21.552   1.674  -4.807  1.00  0.00     0.064 A 
ATOM     80  C   UNL     1      22.057   1.037  -3.664  1.00  0.00     0.173 A 
ATOM     81  C   UNL     1      22.468   2.228  -5.713  1.00  0.00     0.173 A 
ATOM     82  F   UNL     1      21.219   0.506  -2.762  1.00  0.00    -0.203 F 
ATOM     83  C   UNL     1      23.428   0.974  -3.430  1.00  0.00     0.198 A 
ATOM     84  C   UNL     1      23.838   2.144  -5.486  1.00  0.00     0.198 A 
ATOM     85  F   UNL     1      22.033   2.845  -6.822  1.00  0.00    -0.203 F 
ATOM     86  F   UNL     1      23.888   0.394  -2.313  1.00  0.00    -0.200 F 
ATOM     87  C   UNL     1      24.317   1.521  -4.343  1.00  0.00     0.200 A 
ATOM     88  F   UNL     1      24.697   2.666  -6.373  1.00  0.00    -0.200 F 
ATOM     89  F   UNL     1      25.636   1.456  -4.117  1.00  0.00    -0.200 F 
ENDBRANCH  56  79
ENDBRANCH  30  31
ENDBRANCH  22  25
ENDBRANCH  20  21
ENDBRANCH  19  20
ENDBRANCH   1  19
TORSDOF 13
