REMARK SMILES C=CCN(CC(=O)NCCCCCCNC(=O)c1ccc(-c2c3nc(c(-c4c(F)c(F)c(F)c(F)c4F)c4ccc([nH]4)c(-c4c(F)c(F)c(F)c(F)c4F)c4nc(c(-c5c(F)c(F)c(F)c(F)c5F)c5ccc2[nH]5)C=C4)C=C3)cc1)C(=O)N1CC[C@@H](C(=O)OC)C1
REMARK SMILES IDX 10 1 9 2 8 3 6 4 7 5 5 7 4 8 3 9 2 10 1 11 81 12 82 13 83 14
REMARK SMILES IDX 84 15 91 16 85 17 86 18 87 19 88 20 89 21 90 22 11 23 12 24
REMARK SMILES IDX 13 25 14 26 15 27 16 28 17 30 18 31 19 32 80 33 20 34 79 35
REMARK SMILES IDX 21 36 22 37 23 38 73 39 24 40 78 41 72 42 74 43 25 44 77 45
REMARK SMILES IDX 71 46 70 47 26 49 58 50 38 51 57 52 39 53 42 54 56 55 75 56
REMARK SMILES IDX 40 57 41 58 55 60 76 61 43 62 27 63 28 64 36 65 29 66 30 67
REMARK SMILES IDX 34 68 37 69 31 70 32 71 35 72 33 73 59 74 60 75 68 76 61 77
REMARK SMILES IDX 62 78 66 79 69 80 63 81 64 82 67 83 65 84 44 85 45 86 53 87
REMARK SMILES IDX 46 88 47 89 51 90 54 91 48 92 49 93 52 94 50 95
REMARK H PARENT 8 6 15 29 74 48 42 59
REMARK Flexibility Score: inf
ROOT
ATOM      1  C   UNL     1      -4.379  -0.194  -0.667  1.00  0.00     0.021 C 
ENDROOT
BRANCH   1   2
ATOM      2  C   UNL     1      -4.400  -0.904   0.684  1.00  0.00     0.116 C 
BRANCH   2   3
ATOM      3  N   UNL     1      -4.673  -2.318   0.602  1.00  0.00    -0.355 N 
ATOM      4  C   UNL     1      -3.832  -3.384   0.704  1.00  0.00     0.239 C 
ATOM      5  O   UNL     1      -4.357  -4.472   0.971  1.00  0.00    -0.273 OA
ATOM      6  H   UNL     1      -5.617  -2.550   0.448  1.00  0.00     0.163 HD
BRANCH   4   7
ATOM      7  C   UNL     1      -2.296  -3.277   0.617  1.00  0.00     0.221 C 
BRANCH   7   8
ATOM      8  N   UNL     1      -1.687  -2.333  -0.330  1.00  0.00    -0.312 N 
BRANCH   8   9
ATOM      9  C   UNL     1      -1.072  -1.135   0.238  1.00  0.00     0.149 C 
BRANCH   9  10
ATOM     10  C   UNL     1       0.403  -1.318   0.443  1.00  0.00    -0.013 C 
ATOM     11  C   UNL     1       1.311  -0.409   0.059  1.00  0.00     0.006 C 
ENDBRANCH   9  10
ENDBRANCH   8   9
BRANCH   8  12
ATOM     12  C   UNL     1      -1.408  -2.606  -1.667  1.00  0.00     0.320 C 
ATOM     13  O   UNL     1      -0.720  -1.849  -2.353  1.00  0.00    -0.248 OA
BRANCH  12  14
ATOM     14  N   UNL     1      -1.807  -3.816  -2.174  1.00  0.00    -0.324 N 
ATOM     15  C   UNL     1      -3.162  -4.298  -2.304  1.00  0.00     0.122 C 
ATOM     16  C   UNL     1      -0.969  -4.539  -3.127  1.00  0.00     0.136 C 
ATOM     17  C   UNL     1      -2.941  -5.784  -2.490  1.00  0.00     0.039 C 
ATOM     18  C   UNL     1      -1.758  -5.814  -3.474  1.00  0.00     0.120 C 
BRANCH  18  19
ATOM     19  C   UNL     1      -2.166  -5.809  -4.938  1.00  0.00     0.310 C 
ATOM     20  O   UNL     1      -1.424  -5.486  -5.855  1.00  0.00    -0.252 OA
BRANCH  19  21
ATOM     21  O   UNL     1      -3.434  -6.275  -5.104  1.00  0.00    -0.469 OA
ATOM     22  C   UNL     1      -3.895  -6.306  -6.455  1.00  0.00     0.282 C 
ENDBRANCH  19  21
ENDBRANCH  18  19
ENDBRANCH  12  14
ENDBRANCH   8  12
ENDBRANCH   7   8
ENDBRANCH   4   7
ENDBRANCH   2   3
ENDBRANCH   1   2
BRANCH   1  23
ATOM     23  C   UNL     1      -5.742  -0.062  -1.357  1.00  0.00     0.002 C 
BRANCH  23  24
ATOM     24  C   UNL     1      -6.875   0.521  -0.506  1.00  0.00     0.002 C 
BRANCH  24  25
ATOM     25  C   UNL     1      -6.568   1.843   0.202  1.00  0.00     0.021 C 
BRANCH  25  26
ATOM     26  C   UNL     1      -6.245   3.014  -0.719  1.00  0.00     0.116 C 
BRANCH  26  27
ATOM     27  N   UNL     1      -7.389   3.418  -1.517  1.00  0.00    -0.352 N 
ATOM     28  C   UNL     1      -7.954   4.658  -1.677  1.00  0.00     0.251 C 
ATOM     29  H   UNL     1      -7.826   2.692  -2.019  1.00  0.00     0.163 HD
ATOM     30  O   UNL     1      -9.032   4.767  -2.255  1.00  0.00    -0.269 OA
BRANCH  28  31
ATOM     31  C   UNL     1      -7.285   5.870  -1.149  1.00  0.00     0.039 A 
ATOM     32  C   UNL     1      -8.069   6.866  -0.559  1.00  0.00     0.014 A 
ATOM     33  C   UNL     1      -5.906   6.060  -1.282  1.00  0.00     0.014 A 
ATOM     34  C   UNL     1      -7.471   8.032  -0.072  1.00  0.00     0.010 A 
ATOM     35  C   UNL     1      -5.302   7.192  -0.737  1.00  0.00     0.010 A 
ATOM     36  C   UNL     1      -6.080   8.198  -0.144  1.00  0.00    -0.014 A 
BRANCH  36  37
ATOM     37  C   UNL     1      -5.426   9.437   0.350  1.00  0.00     0.031 A 
ATOM     38  C   UNL     1      -4.739  10.359  -0.621  1.00  0.00     0.074 A 
ATOM     39  C   UNL     1      -5.402   9.708   1.669  1.00  0.00     0.049 A 
ATOM     40  N   UNL     1      -4.043  11.444  -0.386  1.00  0.00    -0.248 NA
ATOM     41  C   UNL     1      -4.822   9.999  -2.045  1.00  0.00     0.031 C 
ATOM     42  C   UNL     1      -5.998   8.876   2.715  1.00  0.00     0.029 A 
ATOM     43  N   UNL     1      -4.844  10.757   2.357  1.00  0.00    -0.354 N 
ATOM     44  C   UNL     1      -3.590  11.878  -1.625  1.00  0.00     0.074 A 
ATOM     45  C   UNL     1      -4.050  10.919  -2.605  1.00  0.00     0.031 C 
ATOM     46  C   UNL     1      -5.785   9.453   3.909  1.00  0.00     0.029 A 
ATOM     47  C   UNL     1      -5.013  10.678   3.717  1.00  0.00     0.049 A 
ATOM     48  H   UNL     1      -4.367  11.497   1.916  1.00  0.00     0.167 HD
ATOM     49  C   UNL     1      -2.873  12.988  -1.922  1.00  0.00     0.037 A 
ATOM     50  C   UNL     1      -4.588  11.497   4.698  1.00  0.00     0.037 A 
ATOM     51  C   UNL     1      -2.451  13.964  -0.952  1.00  0.00     0.049 A 
ATOM     52  C   UNL     1      -3.813  12.737   4.337  1.00  0.00     0.074 A 
ATOM     53  C   UNL     1      -1.769  15.150  -1.161  1.00  0.00     0.029 A 
ATOM     54  N   UNL     1      -2.682  13.870   0.412  1.00  0.00    -0.354 N 
ATOM     55  N   UNL     1      -3.439  13.166   3.156  1.00  0.00    -0.248 NA
ATOM     56  C   UNL     1      -3.410  13.613   5.447  1.00  0.00     0.031 C 
ATOM     57  C   UNL     1      -1.557  15.758   0.081  1.00  0.00     0.029 A 
ATOM     58  C   UNL     1      -2.147  14.972   1.058  1.00  0.00     0.049 A 
ATOM     59  H   UNL     1      -3.155  13.129   0.855  1.00  0.00     0.167 HD
ATOM     60  C   UNL     1      -2.793  14.375   3.376  1.00  0.00     0.074 A 
ATOM     61  C   UNL     1      -2.832  14.617   4.802  1.00  0.00     0.031 C 
ATOM     62  C   UNL     1      -2.218  15.210   2.476  1.00  0.00     0.037 A 
BRANCH  49  63
ATOM     63  C   UNL     1      -2.503  13.215  -3.358  1.00  0.00     0.064 A 
ATOM     64  C   UNL     1      -3.462  13.580  -4.315  1.00  0.00     0.173 A 
ATOM     65  C   UNL     1      -1.167  13.112  -3.774  1.00  0.00     0.173 A 
ATOM     66  F   UNL     1      -4.754  13.681  -3.971  1.00  0.00    -0.203 F 
ATOM     67  C   UNL     1      -3.100  13.810  -5.640  1.00  0.00     0.198 A 
ATOM     68  C   UNL     1      -0.805  13.371  -5.094  1.00  0.00     0.198 A 
ATOM     69  F   UNL     1      -0.209  12.772  -2.898  1.00  0.00    -0.203 F 
ATOM     70  F   UNL     1      -4.040  14.116  -6.545  1.00  0.00    -0.200 F 
ATOM     71  C   UNL     1      -1.772  13.714  -6.026  1.00  0.00     0.200 A 
ATOM     72  F   UNL     1       0.481  13.290  -5.463  1.00  0.00    -0.200 F 
ATOM     73  F   UNL     1      -1.425  13.946  -7.300  1.00  0.00    -0.200 F 
ENDBRANCH  49  63
BRANCH  50  74
ATOM     74  C   UNL     1      -4.908  11.192   6.116  1.00  0.00     0.064 A 
ATOM     75  C   UNL     1      -5.813  11.985   6.836  1.00  0.00     0.173 A 
ATOM     76  C   UNL     1      -4.303  10.120   6.787  1.00  0.00     0.173 A 
ATOM     77  F   UNL     1      -6.401  13.035   6.243  1.00  0.00    -0.203 F 
ATOM     78  C   UNL     1      -6.081  11.734   8.180  1.00  0.00     0.198 A 
ATOM     79  C   UNL     1      -4.593   9.852   8.124  1.00  0.00     0.198 A 
ATOM     80  F   UNL     1      -3.434   9.328   6.143  1.00  0.00    -0.203 F 
ATOM     81  F   UNL     1      -6.910  12.539   8.857  1.00  0.00    -0.200 F 
ATOM     82  C   UNL     1      -5.474  10.665   8.822  1.00  0.00     0.200 A 
ATOM     83  F   UNL     1      -4.014   8.811   8.737  1.00  0.00    -0.200 F 
ATOM     84  F   UNL     1      -5.730  10.425  10.115  1.00  0.00    -0.200 F 
ENDBRANCH  50  74
BRANCH  62  85
ATOM     85  C   UNL     1      -1.635  16.489   2.998  1.00  0.00     0.064 A 
ATOM     86  C   UNL     1      -0.442  16.511   3.734  1.00  0.00     0.173 A 
ATOM     87  C   UNL     1      -2.260  17.715   2.721  1.00  0.00     0.173 A 
ATOM     88  F   UNL     1       0.185  15.364   4.037  1.00  0.00    -0.203 F 
ATOM     89  C   UNL     1       0.091  17.711   4.196  1.00  0.00     0.198 A 
ATOM     90  C   UNL     1      -1.709  18.915   3.160  1.00  0.00     0.198 A 
ATOM     91  F   UNL     1      -3.400  17.748   2.014  1.00  0.00    -0.203 F 
ATOM     92  F   UNL     1       1.208  17.705   4.936  1.00  0.00    -0.200 F 
ATOM     93  C   UNL     1      -0.538  18.912   3.902  1.00  0.00     0.200 A 
ATOM     94  F   UNL     1      -2.312  20.075   2.865  1.00  0.00    -0.200 F 
ATOM     95  F   UNL     1      -0.020  20.067   4.342  1.00  0.00    -0.200 F 
ENDBRANCH  62  85
ENDBRANCH  36  37
ENDBRANCH  28  31
ENDBRANCH  26  27
ENDBRANCH  25  26
ENDBRANCH  24  25
ENDBRANCH  23  24
ENDBRANCH   1  23
TORSDOF 20
