REMARK SMILES O=C(NCCCCCCNC(=O)[C@H]1Cc2c([nH]c3ccccc23)[C@H](c2c[nH]c3ccccc23)[NH2+]1)c1ccc(-c2c3nc(c(-c4c(F)c(F)c(F)c(F)c4F)c4ccc([nH]4)c(-c4c(F)c(F)c(F)c(F)c4F)c4nc(c(-c5c(F)c(F)c(F)c(F)c5F)c5ccc2[nH]5)C=C4)C=C3)cc1
REMARK SMILES IDX 6 1 5 2 4 3 3 4 1 5 2 6 35 8 36 9 97 10 37 11 96 12 38 13
REMARK SMILES IDX 39 14 40 15 90 16 41 17 95 18 89 19 91 20 42 21 94 22 88 23
REMARK SMILES IDX 87 24 43 26 75 27 55 28 74 29 56 30 59 31 73 32 92 33 57 34
REMARK SMILES IDX 58 35 72 37 93 38 60 39 44 40 45 41 53 42 46 43 47 44 51 45
REMARK SMILES IDX 54 46 48 47 49 48 52 49 50 50 76 51 77 52 85 53 78 54 79 55
REMARK SMILES IDX 83 56 86 57 80 58 81 59 84 60 82 61 61 62 62 63 70 64 63 65
REMARK SMILES IDX 64 66 68 67 71 68 65 69 66 70 69 71 67 72 7 73 8 74 9 75
REMARK SMILES IDX 10 76 11 77 12 79 13 80 14 81 34 82 15 83 24 84 16 87 23 88
REMARK SMILES IDX 17 89 18 90 22 91 19 93 21 94 20 95 25 96 26 97 33 98 27 99
REMARK SMILES IDX 28 100 32 101 29 103 31 104 30 105
REMARK H PARENT 3 7 91 25 59 36 10 78 34 85 34 86 17 92 27 102
REMARK Flexibility Score: inf
ROOT
ATOM      1  C   UNL     1       4.152   2.828  -2.846  1.00  0.00     0.002 C 
ENDROOT
BRANCH   1   2
ATOM      2  C   UNL     1       4.614   1.417  -2.484  1.00  0.00     0.021 C 
BRANCH   2   3
ATOM      3  C   UNL     1       4.358   0.995  -1.044  1.00  0.00     0.116 C 
BRANCH   3   4
ATOM      4  N   UNL     1       2.946   0.894  -0.716  1.00  0.00    -0.352 N 
ATOM      5  O   UNL     1       1.062  -0.099   0.042  1.00  0.00    -0.269 OA
ATOM      6  C   UNL     1       2.285  -0.117  -0.057  1.00  0.00     0.251 C 
ATOM      7  H   UNL     1       2.386   1.651  -1.003  1.00  0.00     0.163 HD
BRANCH   6   8
ATOM      8  C   UNL     1       3.053  -1.248   0.509  1.00  0.00     0.039 A 
ATOM      9  C   UNL     1       4.225  -1.021   1.234  1.00  0.00     0.014 A 
ATOM     10  C   UNL     1       2.595  -2.554   0.311  1.00  0.00     0.014 A 
ATOM     11  C   UNL     1       5.009  -2.096   1.633  1.00  0.00     0.010 A 
ATOM     12  C   UNL     1       3.340  -3.636   0.793  1.00  0.00     0.010 A 
ATOM     13  C   UNL     1       4.567  -3.416   1.436  1.00  0.00    -0.014 A 
BRANCH  13  14
ATOM     14  C   UNL     1       5.375  -4.531   1.992  1.00  0.00     0.031 A 
ATOM     15  C   UNL     1       6.050  -5.535   1.101  1.00  0.00     0.074 A 
ATOM     16  C   UNL     1       5.538  -4.592   3.328  1.00  0.00     0.049 A 
ATOM     17  N   UNL     1       6.838  -6.529   1.432  1.00  0.00    -0.248 NA
ATOM     18  C   UNL     1       5.808  -5.420  -0.345  1.00  0.00     0.031 C 
ATOM     19  C   UNL     1       4.910  -3.684   4.291  1.00  0.00     0.029 A 
ATOM     20  N   UNL     1       6.294  -5.429   4.106  1.00  0.00    -0.354 N 
ATOM     21  C   UNL     1       7.178  -7.160   0.242  1.00  0.00     0.074 A 
ATOM     22  C   UNL     1       6.490  -6.455  -0.819  1.00  0.00     0.031 C 
ATOM     23  C   UNL     1       5.350  -3.976   5.523  1.00  0.00     0.029 A 
ATOM     24  C   UNL     1       6.241  -5.127   5.445  1.00  0.00     0.049 A 
ATOM     25  H   UNL     1       6.824  -6.175   3.741  1.00  0.00     0.167 HD
ATOM     26  C   UNL     1       7.998  -8.223   0.057  1.00  0.00     0.037 A 
ATOM     27  C   UNL     1       6.835  -5.717   6.498  1.00  0.00     0.037 A 
ATOM     28  C   UNL     1       8.687  -8.915   1.118  1.00  0.00     0.049 A 
ATOM     29  C   UNL     1       7.734  -6.895   6.258  1.00  0.00     0.074 A 
ATOM     30  C   UNL     1       9.553  -9.992   1.028  1.00  0.00     0.029 A 
ATOM     31  N   UNL     1       8.590  -8.595   2.465  1.00  0.00    -0.354 N 
ATOM     32  N   UNL     1       8.068  -7.462   5.124  1.00  0.00    -0.248 NA
ATOM     33  C   UNL     1       8.337  -7.516   7.444  1.00  0.00     0.031 C 
ATOM     34  C   UNL     1       9.949 -10.348   2.322  1.00  0.00     0.029 A 
ATOM     35  C   UNL     1       9.367  -9.465   3.216  1.00  0.00     0.049 A 
ATOM     36  H   UNL     1       8.049  -7.860   2.833  1.00  0.00     0.167 HD
ATOM     37  C   UNL     1       8.921  -8.503   5.458  1.00  0.00     0.074 A 
ATOM     38  C   UNL     1       9.083  -8.465   6.897  1.00  0.00     0.031 C 
ATOM     39  C   UNL     1       9.508  -9.416   4.648  1.00  0.00     0.037 A 
BRANCH  26  40
ATOM     40  C   UNL     1       8.201  -8.718  -1.346  1.00  0.00     0.064 A 
ATOM     41  C   UNL     1       8.990  -8.011  -2.264  1.00  0.00     0.173 A 
ATOM     42  C   UNL     1       7.666  -9.950  -1.752  1.00  0.00     0.173 A 
ATOM     43  F   UNL     1       9.517  -6.823  -1.929  1.00  0.00    -0.203 F 
ATOM     44  C   UNL     1       9.228  -8.514  -3.541  1.00  0.00     0.198 A 
ATOM     45  C   UNL     1       7.926 -10.462  -3.021  1.00  0.00     0.198 A 
ATOM     46  F   UNL     1       6.910 -10.670  -0.909  1.00  0.00    -0.203 F 
ATOM     47  F   UNL     1       9.965  -7.809  -4.411  1.00  0.00    -0.200 F 
ATOM     48  C   UNL     1       8.704  -9.743  -3.915  1.00  0.00     0.200 A 
ATOM     49  F   UNL     1       7.429 -11.655  -3.376  1.00  0.00    -0.200 F 
ATOM     50  F   UNL     1       8.948 -10.233  -5.138  1.00  0.00    -0.200 F 
ENDBRANCH  26  40
BRANCH  27  51
ATOM     51  C   UNL     1       6.588  -5.205   7.870  1.00  0.00     0.064 A 
ATOM     52  C   UNL     1       7.607  -4.588   8.607  1.00  0.00     0.173 A 
ATOM     53  C   UNL     1       5.325  -5.322   8.470  1.00  0.00     0.173 A 
ATOM     54  F   UNL     1       8.836  -4.470   8.083  1.00  0.00    -0.203 F 
ATOM     55  C   UNL     1       7.377  -4.126   9.901  1.00  0.00     0.198 A 
ATOM     56  C   UNL     1       5.088  -4.830   9.750  1.00  0.00     0.198 A 
ATOM     57  F   UNL     1       4.315  -5.899   7.802  1.00  0.00    -0.203 F 
ATOM     58  F   UNL     1       8.381  -3.582  10.603  1.00  0.00    -0.200 F 
ATOM     59  C   UNL     1       6.117  -4.241  10.469  1.00  0.00     0.200 A 
ATOM     60  F   UNL     1       3.865  -4.927  10.287  1.00  0.00    -0.200 F 
ATOM     61  F   UNL     1       5.896  -3.790  11.711  1.00  0.00    -0.200 F 
ENDBRANCH  27  51
BRANCH  39  62
ATOM     62  C   UNL     1      10.384 -10.439   5.309  1.00  0.00     0.064 A 
ATOM     63  C   UNL     1       9.840 -11.473   6.086  1.00  0.00     0.173 A 
ATOM     64  C   UNL     1      11.778 -10.385   5.164  1.00  0.00     0.173 A 
ATOM     65  F   UNL     1       8.514 -11.554   6.268  1.00  0.00    -0.203 F 
ATOM     66  C   UNL     1      10.664 -12.396   6.723  1.00  0.00     0.198 A 
ATOM     67  C   UNL     1      12.596 -11.328   5.780  1.00  0.00     0.198 A 
ATOM     68  F   UNL     1      12.345  -9.418   4.428  1.00  0.00    -0.203 F 
ATOM     69  F   UNL     1      10.127 -13.341   7.508  1.00  0.00    -0.200 F 
ATOM     70  C   UNL     1      12.040 -12.325   6.566  1.00  0.00     0.200 A 
ATOM     71  F   UNL     1      13.925 -11.264   5.621  1.00  0.00    -0.200 F 
ATOM     72  F   UNL     1      12.832 -13.213   7.184  1.00  0.00    -0.200 F 
ENDBRANCH  39  62
ENDBRANCH  13  14
ENDBRANCH   6   8
ENDBRANCH   3   4
ENDBRANCH   2   3
ENDBRANCH   1   2
BRANCH   1  73
ATOM     73  C   UNL     1       4.672   3.951  -1.944  1.00  0.00     0.002 C 
BRANCH  73  74
ATOM     74  C   UNL     1       6.191   4.016  -1.748  1.00  0.00     0.021 C 
BRANCH  74  75
ATOM     75  C   UNL     1       7.023   4.070  -3.027  1.00  0.00     0.116 C 
BRANCH  75  76
ATOM     76  N   UNL     1       6.699   5.213  -3.856  1.00  0.00    -0.351 N 
ATOM     77  C   UNL     1       7.524   6.015  -4.592  1.00  0.00     0.278 C 
ATOM     78  H   UNL     1       5.743   5.447  -3.893  1.00  0.00     0.163 HD
ATOM     79  O   UNL     1       7.000   6.957  -5.192  1.00  0.00    -0.268 OA
BRANCH  77  80
ATOM     80  C   UNL     1       9.046   5.768  -4.582  1.00  0.00     0.277 C 
ATOM     81  C   UNL     1       9.389   4.432  -5.282  1.00  0.00     0.114 C 
ATOM     82  N   UNL     1       9.739   6.903  -5.255  1.00  0.00    -0.324 N 
ATOM     83  C   UNL     1      10.869   4.306  -5.365  1.00  0.00    -0.006 A 
ATOM     84  C   UNL     1      11.202   6.859  -5.171  1.00  0.00     0.264 C 
ATOM     85  H   UNL     1       9.422   7.771  -4.823  1.00  0.00     0.347 HD
ATOM     86  H   UNL     1       9.504   6.840  -6.245  1.00  0.00     0.347 HD
ATOM     87  C   UNL     1      11.668   5.433  -5.324  1.00  0.00     0.083 A 
ATOM     88  C   UNL     1      11.707   3.167  -5.461  1.00  0.00     0.003 A 
ATOM     89  N   UNL     1      12.963   5.019  -5.483  1.00  0.00    -0.353 N 
ATOM     90  C   UNL     1      13.019   3.642  -5.538  1.00  0.00     0.046 A 
ATOM     91  C   UNL     1      11.486   1.777  -5.487  1.00  0.00     0.010 A 
ATOM     92  H   UNL     1      13.742   5.618  -5.549  1.00  0.00     0.166 HD
ATOM     93  C   UNL     1      14.123   2.789  -5.649  1.00  0.00     0.026 A 
ATOM     94  C   UNL     1      12.581   0.911  -5.584  1.00  0.00     0.001 A 
ATOM     95  C   UNL     1      13.878   1.412  -5.667  1.00  0.00     0.002 A 
BRANCH  84  96
ATOM     96  C   UNL     1      11.772   7.558  -3.943  1.00  0.00     0.041 A 
ATOM     97  C   UNL     1      13.129   7.839  -3.806  1.00  0.00     0.093 A 
ATOM     98  C   UNL     1      11.145   8.128  -2.763  1.00  0.00     0.009 A 
ATOM     99  N   UNL     1      13.349   8.453  -2.609  1.00  0.00    -0.361 N 
ATOM    100  C   UNL     1      12.162   8.654  -1.956  1.00  0.00     0.046 A 
ATOM    101  C   UNL     1       9.821   8.275  -2.282  1.00  0.00     0.011 A 
ATOM    102  H   UNL     1      14.233   8.713  -2.264  1.00  0.00     0.166 HD
ATOM    103  C   UNL     1      11.931   9.278  -0.722  1.00  0.00     0.026 A 
ATOM    104  C   UNL     1       9.570   8.900  -1.052  1.00  0.00     0.001 A 
ATOM    105  C   UNL     1      10.614   9.390  -0.281  1.00  0.00     0.002 A 
ENDBRANCH  84  96
ENDBRANCH  77  80
ENDBRANCH  75  76
ENDBRANCH  74  75
ENDBRANCH  73  74
ENDBRANCH   1  73
TORSDOF 14
