REMARK SMILES O=C(C[C@H]1CN(S(=O)(=O)c2cc(F)cc(F)c2)CCO1)NCCCCCCNC(=O)c1ccc(-c2c3nc(c(-c4c(F)c(F)c(F)c(F)c4F)c4ccc([nH]4)c(-c4c(F)c(F)c(F)c(F)c4F)c4nc(c(-c5c(F)c(F)c(F)c(F)c5F)c5ccc2[nH]5)C=C4)C=C3)cc1
REMARK SMILES IDX 24 1 23 2 22 3 21 4 1 5 2 6 3 8 4 9 5 10 20 11 6 12 19 13
REMARK SMILES IDX 18 14 7 15 8 16 9 17 10 18 11 19 17 20 12 21 15 22 13 23
REMARK SMILES IDX 14 24 16 25 25 26 26 27 27 28 28 29 29 30 30 32 31 33 32 34
REMARK SMILES IDX 93 35 33 36 92 37 34 38 35 39 36 40 86 41 37 42 91 43 85 44
REMARK SMILES IDX 87 45 38 46 90 47 84 48 83 49 39 51 71 52 51 53 70 54 52 55
REMARK SMILES IDX 55 56 69 57 88 58 53 59 54 60 68 62 89 63 56 64 40 65 41 66
REMARK SMILES IDX 49 67 42 68 43 69 47 70 50 71 44 72 45 73 48 74 46 75 72 76
REMARK SMILES IDX 73 77 81 78 74 79 75 80 79 81 82 82 76 83 77 84 80 85 78 86
REMARK SMILES IDX 57 87 58 88 66 89 59 90 60 91 64 92 67 93 61 94 62 95 65 96
REMARK SMILES IDX 63 97
REMARK H PARENT 21 7 28 31 87 50 55 61
REMARK Flexibility Score: inf
ROOT
ATOM      1  C   UNL     1       7.423   6.466   2.394  1.00  0.00     0.002 C 
ENDROOT
BRANCH   1   2
ATOM      2  C   UNL     1       7.778   5.471   1.277  1.00  0.00     0.021 C 
BRANCH   2   3
ATOM      3  C   UNL     1       6.490   4.820   0.813  1.00  0.00     0.116 C 
BRANCH   3   4
ATOM      4  N   UNL     1       6.165   4.698  -0.581  1.00  0.00    -0.356 N 
ATOM      5  O   UNL     1       7.224   2.834  -1.296  1.00  0.00    -0.275 OA
ATOM      6  C   UNL     1       6.179   3.454  -1.165  1.00  0.00     0.222 C 
ATOM      7  H   UNL     1       5.935   5.495  -1.111  1.00  0.00     0.163 HD
BRANCH   6   8
ATOM      8  C   UNL     1       4.838   2.945  -1.682  1.00  0.00     0.133 C 
BRANCH   8   9
ATOM      9  C   UNL     1       3.936   2.034  -0.807  1.00  0.00     0.142 C 
ATOM     10  C   UNL     1       4.518   0.783  -0.134  1.00  0.00     0.135 C 
ATOM     11  O   UNL     1       3.090   2.728   0.130  1.00  0.00    -0.375 OA
ATOM     12  N   UNL     1       5.334   1.155   1.029  1.00  0.00    -0.193 NA
ATOM     13  C   UNL     1       3.732   3.074   1.357  1.00  0.00     0.177 C 
ATOM     14  C   UNL     1       4.622   1.988   2.022  1.00  0.00     0.131 C 
BRANCH  12  15
ATOM     15  S   UNL     1       6.987   0.873   1.012  1.00  0.00     0.243 S 
ATOM     16  O   UNL     1       7.362   0.436  -0.320  1.00  0.00    -0.207 OA
ATOM     17  O   UNL     1       7.640   1.953   1.709  1.00  0.00    -0.207 OA
BRANCH  15  18
ATOM     18  C   UNL     1       7.326  -0.586   1.968  1.00  0.00     0.088 A 
ATOM     19  C   UNL     1       6.796  -1.806   1.546  1.00  0.00     0.061 A 
ATOM     20  C   UNL     1       8.457  -0.546   2.796  1.00  0.00     0.061 A 
ATOM     21  C   UNL     1       7.447  -2.979   1.916  1.00  0.00     0.127 A 
ATOM     22  C   UNL     1       9.090  -1.734   3.134  1.00  0.00     0.127 A 
ATOM     23  F   UNL     1       6.997  -4.151   1.450  1.00  0.00    -0.207 F 
ATOM     24  C   UNL     1       8.602  -2.954   2.690  1.00  0.00     0.078 A 
ATOM     25  F   UNL     1      10.234  -1.691   3.828  1.00  0.00    -0.207 F 
ENDBRANCH  15  18
ENDBRANCH  12  15
ENDBRANCH   8   9
ENDBRANCH   6   8
ENDBRANCH   3   4
ENDBRANCH   2   3
ENDBRANCH   1   2
BRANCH   1  26
ATOM     26  C   UNL     1       6.655   5.851   3.589  1.00  0.00     0.002 C 
BRANCH  26  27
ATOM     27  C   UNL     1       7.517   5.337   4.739  1.00  0.00     0.021 C 
BRANCH  27  28
ATOM     28  C   UNL     1       8.561   6.328   5.226  1.00  0.00     0.116 C 
BRANCH  28  29
ATOM     29  N   UNL     1       8.027   7.676   5.375  1.00  0.00    -0.352 N 
ATOM     30  C   UNL     1       8.347   8.642   6.287  1.00  0.00     0.251 C 
ATOM     31  H   UNL     1       7.333   7.928   4.723  1.00  0.00     0.163 HD
ATOM     32  O   UNL     1       7.709   9.687   6.343  1.00  0.00    -0.269 OA
BRANCH  30  33
ATOM     33  C   UNL     1       9.460   8.399   7.215  1.00  0.00     0.039 A 
ATOM     34  C   UNL     1       9.284   8.706   8.564  1.00  0.00     0.014 A 
ATOM     35  C   UNL     1      10.664   7.865   6.749  1.00  0.00     0.014 A 
ATOM     36  C   UNL     1      10.319   8.453   9.457  1.00  0.00     0.010 A 
ATOM     37  C   UNL     1      11.658   7.526   7.652  1.00  0.00     0.010 A 
ATOM     38  C   UNL     1      11.504   7.849   9.007  1.00  0.00    -0.014 A 
BRANCH  38  39
ATOM     39  C   UNL     1      12.626   7.602   9.934  1.00  0.00     0.031 A 
ATOM     40  C   UNL     1      13.916   8.342   9.744  1.00  0.00     0.074 A 
ATOM     41  C   UNL     1      12.488   6.684  10.907  1.00  0.00     0.049 A 
ATOM     42  N   UNL     1      15.026   8.257  10.431  1.00  0.00    -0.248 NA
ATOM     43  C   UNL     1      13.985   9.278   8.609  1.00  0.00     0.031 C 
ATOM     44  C   UNL     1      11.294   5.869  11.132  1.00  0.00     0.029 A 
ATOM     45  N   UNL     1      13.359   6.283  11.885  1.00  0.00    -0.354 N 
ATOM     46  C   UNL     1      15.921   9.109   9.799  1.00  0.00     0.074 A 
ATOM     47  C   UNL     1      15.254   9.650   8.638  1.00  0.00     0.031 C 
ATOM     48  C   UNL     1      11.494   5.090  12.206  1.00  0.00     0.029 A 
ATOM     49  C   UNL     1      12.839   5.329  12.722  1.00  0.00     0.049 A 
ATOM     50  H   UNL     1      14.270   6.645  11.978  1.00  0.00     0.167 HD
ATOM     51  C   UNL     1      17.177   9.434  10.180  1.00  0.00     0.037 A 
ATOM     52  C   UNL     1      13.389   4.722  13.790  1.00  0.00     0.037 A 
ATOM     53  C   UNL     1      17.805   8.920  11.366  1.00  0.00     0.049 A 
ATOM     54  C   UNL     1      14.780   5.109  14.206  1.00  0.00     0.074 A 
ATOM     55  C   UNL     1      19.032   9.257  11.905  1.00  0.00     0.029 A 
ATOM     56  N   UNL     1      17.248   7.956  12.195  1.00  0.00    -0.354 N 
ATOM     57  N   UNL     1      15.588   5.986  13.661  1.00  0.00    -0.248 NA
ATOM     58  C   UNL     1      15.337   4.428  15.382  1.00  0.00     0.031 C 
ATOM     59  C   UNL     1      19.242   8.455  13.031  1.00  0.00     0.029 A 
ATOM     60  C   UNL     1      18.125   7.656  13.223  1.00  0.00     0.049 A 
ATOM     61  H   UNL     1      16.362   7.546  12.071  1.00  0.00     0.167 HD
ATOM     62  C   UNL     1      16.744   5.971  14.427  1.00  0.00     0.074 A 
ATOM     63  C   UNL     1      16.525   5.010  15.490  1.00  0.00     0.031 C 
ATOM     64  C   UNL     1      17.885   6.685  14.263  1.00  0.00     0.037 A 
BRANCH  51  65
ATOM     65  C   UNL     1      17.944  10.390   9.314  1.00  0.00     0.064 A 
ATOM     66  C   UNL     1      19.077   9.957   8.608  1.00  0.00     0.173 A 
ATOM     67  C   UNL     1      17.577  11.740   9.198  1.00  0.00     0.173 A 
ATOM     68  F   UNL     1      19.475   8.678   8.685  1.00  0.00    -0.203 F 
ATOM     69  C   UNL     1      19.812  10.840   7.821  1.00  0.00     0.198 A 
ATOM     70  C   UNL     1      18.295  12.612   8.384  1.00  0.00     0.198 A 
ATOM     71  F   UNL     1      16.495  12.203   9.842  1.00  0.00    -0.203 F 
ATOM     72  F   UNL     1      20.903  10.408   7.174  1.00  0.00    -0.200 F 
ATOM     73  C   UNL     1      19.416  12.163   7.702  1.00  0.00     0.200 A 
ATOM     74  F   UNL     1      17.891  13.882   8.246  1.00  0.00    -0.200 F 
ATOM     75  F   UNL     1      20.110  13.005   6.925  1.00  0.00    -0.200 F 
ENDBRANCH  51  65
BRANCH  52  76
ATOM     76  C   UNL     1      12.586   3.732  14.550  1.00  0.00     0.064 A 
ATOM     77  C   UNL     1      12.260   2.482  14.002  1.00  0.00     0.173 A 
ATOM     78  C   UNL     1      12.054   4.053  15.805  1.00  0.00     0.173 A 
ATOM     79  F   UNL     1      12.735   2.133  12.797  1.00  0.00    -0.203 F 
ATOM     80  C   UNL     1      11.410   1.603  14.670  1.00  0.00     0.198 A 
ATOM     81  C   UNL     1      11.222   3.164  16.483  1.00  0.00     0.198 A 
ATOM     82  F   UNL     1      12.347   5.232  16.374  1.00  0.00    -0.203 F 
ATOM     83  F   UNL     1      11.077   0.436  14.103  1.00  0.00    -0.200 F 
ATOM     84  C   UNL     1      10.892   1.945  15.909  1.00  0.00     0.200 A 
ATOM     85  F   UNL     1      10.734   3.492  17.687  1.00  0.00    -0.200 F 
ATOM     86  F   UNL     1      10.069   1.103  16.549  1.00  0.00    -0.200 F 
ENDBRANCH  52  76
BRANCH  64  87
ATOM     87  C   UNL     1      18.998   6.452  15.240  1.00  0.00     0.064 A 
ATOM     88  C   UNL     1      19.356   7.445  16.164  1.00  0.00     0.173 A 
ATOM     89  C   UNL     1      19.781   5.291  15.182  1.00  0.00     0.173 A 
ATOM     90  F   UNL     1      18.642   8.578  16.249  1.00  0.00    -0.203 F 
ATOM     91  C   UNL     1      20.477   7.296  16.974  1.00  0.00     0.198 A 
ATOM     92  C   UNL     1      20.885   5.133  16.014  1.00  0.00     0.198 A 
ATOM     93  F   UNL     1      19.469   4.308  14.323  1.00  0.00    -0.203 F 
ATOM     94  F   UNL     1      20.829   8.278  17.815  1.00  0.00    -0.200 F 
ATOM     95  C   UNL     1      21.240   6.140  16.899  1.00  0.00     0.200 A 
ATOM     96  F   UNL     1      21.610   4.007  15.956  1.00  0.00    -0.200 F 
ATOM     97  F   UNL     1      22.320   5.998  17.679  1.00  0.00    -0.200 F 
ENDBRANCH  64  87
ENDBRANCH  38  39
ENDBRANCH  30  33
ENDBRANCH  28  29
ENDBRANCH  27  28
ENDBRANCH  26  27
ENDBRANCH   1  26
TORSDOF 16
