REMARK SMILES CC(C)[C@H]([NH2+]C[C@H]1CC[C@@H](C(=O)NCCCCCCNC(=O)c2ccc(-c3c4nc(c(-c5c(F)c(F)c(F)c(F)c5F)c5ccc([nH]5)c(-c5c(F)c(F)c(F)c(F)c5F)c5nc(c(-c6c(F)c(F)c(F)c(F)c6F)c6ccc3[nH]6)C=C5)C=C4)cc2)CC1)c1ccccc1
REMARK SMILES IDX 15 1 14 2 13 3 11 4 12 5 10 7 7 8 8 9 87 10 9 11 86 12 6 13
REMARK SMILES IDX 5 14 4 17 2 18 1 19 3 20 88 21 89 22 93 23 90 24 92 25 91 26
REMARK SMILES IDX 16 27 17 28 18 29 19 30 20 31 21 32 22 34 23 35 24 36 85 37
REMARK SMILES IDX 25 38 84 39 26 40 27 41 28 42 78 43 29 44 83 45 77 46 79 47
REMARK SMILES IDX 30 48 82 49 76 50 75 51 31 53 63 54 43 55 62 56 44 57 47 58
REMARK SMILES IDX 61 59 80 60 45 61 46 62 60 64 81 65 48 66 32 67 33 68 41 69
REMARK SMILES IDX 34 70 35 71 39 72 42 73 36 74 37 75 40 76 38 77 64 78 65 79
REMARK SMILES IDX 73 80 66 81 67 82 71 83 74 84 68 85 69 86 72 87 70 88 49 89
REMARK SMILES IDX 50 90 58 91 51 92 52 93 56 94 59 95 53 96 54 97 57 98 55 99
REMARK H PARENT 13 6 5 15 5 16 20 33 79 52 47 63
REMARK Flexibility Score: inf
ROOT
ATOM      1  C   UNL     1       1.878   2.308   0.589  1.00  0.00     0.021 C 
ENDROOT
BRANCH   1   2
ATOM      2  C   UNL     1       2.541   2.279  -0.794  1.00  0.00     0.116 C 
BRANCH   2   3
ATOM      3  N   UNL     1       3.953   2.593  -0.772  1.00  0.00    -0.356 N 
ATOM      4  C   UNL     1       5.071   1.865  -1.020  1.00  0.00     0.223 C 
ATOM      5  O   UNL     1       6.127   2.514  -1.045  1.00  0.00    -0.275 OA
ATOM      6  H   UNL     1       4.141   3.528  -0.527  1.00  0.00     0.163 HD
BRANCH   4   7
ATOM      7  C   UNL     1       5.135   0.347  -1.272  1.00  0.00     0.078 C 
ATOM      8  C   UNL     1       2.817  -1.488  -1.804  1.00  0.00     0.044 C 
ATOM      9  C   UNL     1       3.352  -0.545  -2.894  1.00  0.00     0.010 C 
ATOM     10  C   UNL     1       3.163  -1.069  -0.366  1.00  0.00     0.010 C 
ATOM     11  C   UNL     1       4.793  -0.117  -2.687  1.00  0.00     0.014 C 
ATOM     12  C   UNL     1       4.589  -0.565  -0.176  1.00  0.00     0.014 C 
BRANCH   8  13
ATOM     13  C   UNL     1       1.298  -1.737  -1.975  1.00  0.00     0.264 C 
BRANCH  13  14
ATOM     14  N   UNL     1       0.527  -0.511  -2.208  1.00  0.00    -0.340 N 
ATOM     15  H   UNL     1       0.612   0.089  -1.387  1.00  0.00     0.346 HD
ATOM     16  H   UNL     1       0.904  -0.064  -3.044  1.00  0.00     0.346 HD
BRANCH  14  17
ATOM     17  C   UNL     1      -0.897  -0.772  -2.451  1.00  0.00     0.216 C 
BRANCH  17  18
ATOM     18  C   UNL     1      -1.847  -0.438  -1.245  1.00  0.00     0.046 C 
ATOM     19  C   UNL     1      -1.214  -0.497   0.163  1.00  0.00     0.014 C 
ATOM     20  C   UNL     1      -2.659   0.849  -1.431  1.00  0.00     0.014 C 
ENDBRANCH  17  18
BRANCH  17  21
ATOM     21  C   UNL     1      -1.355  -0.071  -3.737  1.00  0.00     0.009 A 
ATOM     22  C   UNL     1      -0.904   1.217  -4.087  1.00  0.00     0.010 A 
ATOM     23  C   UNL     1      -2.364  -0.657  -4.517  1.00  0.00     0.010 A 
ATOM     24  C   UNL     1      -1.482   1.915  -5.150  1.00  0.00     0.001 A 
ATOM     25  C   UNL     1      -2.927   0.035  -5.591  1.00  0.00     0.001 A 
ATOM     26  C   UNL     1      -2.497   1.325  -5.899  1.00  0.00     0.000 A 
ENDBRANCH  17  21
ENDBRANCH  14  17
ENDBRANCH  13  14
ENDBRANCH   8  13
ENDBRANCH   4   7
ENDBRANCH   2   3
ENDBRANCH   1   2
BRANCH   1  27
ATOM     27  C   UNL     1       1.295   3.658   1.045  1.00  0.00     0.002 C 
BRANCH  27  28
ATOM     28  C   UNL     1       0.148   4.261   0.211  1.00  0.00     0.002 C 
BRANCH  28  29
ATOM     29  C   UNL     1      -1.115   3.401   0.023  1.00  0.00     0.021 C 
BRANCH  29  30
ATOM     30  C   UNL     1      -2.038   3.206   1.245  1.00  0.00     0.116 C 
BRANCH  30  31
ATOM     31  N   UNL     1      -3.313   3.911   1.127  1.00  0.00    -0.352 N 
ATOM     32  C   UNL     1      -4.631   3.590   0.885  1.00  0.00     0.251 C 
ATOM     33  H   UNL     1      -3.200   4.880   1.257  1.00  0.00     0.163 HD
ATOM     34  O   UNL     1      -5.412   4.545   0.856  1.00  0.00    -0.269 OA
BRANCH  32  35
ATOM     35  C   UNL     1      -5.216   2.234   0.616  1.00  0.00     0.039 A 
ATOM     36  C   UNL     1      -6.331   2.199  -0.245  1.00  0.00     0.014 A 
ATOM     37  C   UNL     1      -4.826   1.024   1.196  1.00  0.00     0.014 A 
ATOM     38  C   UNL     1      -7.012   1.004  -0.544  1.00  0.00     0.010 A 
ATOM     39  C   UNL     1      -5.474  -0.193   0.844  1.00  0.00     0.010 A 
ATOM     40  C   UNL     1      -6.584  -0.225  -0.025  1.00  0.00    -0.014 A 
BRANCH  40  41
ATOM     41  C   UNL     1      -7.327  -1.491  -0.375  1.00  0.00     0.031 A 
ATOM     42  C   UNL     1      -8.069  -2.288   0.677  1.00  0.00     0.074 A 
ATOM     43  C   UNL     1      -7.397  -1.934  -1.651  1.00  0.00     0.049 A 
ATOM     44  N   UNL     1      -8.795  -3.377   0.544  1.00  0.00    -0.248 NA
ATOM     45  C   UNL     1      -7.980  -1.801   2.058  1.00  0.00     0.031 C 
ATOM     46  C   UNL     1      -6.751  -1.304  -2.801  1.00  0.00     0.029 A 
ATOM     47  N   UNL     1      -8.053  -3.020  -2.198  1.00  0.00    -0.354 N 
ATOM     48  C   UNL     1      -9.248  -3.701   1.818  1.00  0.00     0.074 A 
ATOM     49  C   UNL     1      -8.670  -2.722   2.718  1.00  0.00     0.031 C 
ATOM     50  C   UNL     1      -7.056  -1.996  -3.912  1.00  0.00     0.029 A 
ATOM     51  C   UNL     1      -7.889  -3.145  -3.558  1.00  0.00     0.049 A 
ATOM     52  H   UNL     1      -8.589  -3.648  -1.662  1.00  0.00     0.167 HD
ATOM     53  C   UNL     1     -10.080  -4.699   2.213  1.00  0.00     0.037 A 
ATOM     54  C   UNL     1      -8.340  -4.074  -4.430  1.00  0.00     0.037 A 
ATOM     55  C   UNL     1     -10.680  -5.684   1.345  1.00  0.00     0.049 A 
ATOM     56  C   UNL     1      -9.213  -5.212  -3.962  1.00  0.00     0.074 A 
ATOM     57  C   UNL     1     -11.569  -6.696   1.674  1.00  0.00     0.029 A 
ATOM     58  N   UNL     1     -10.448  -5.795  -0.016  1.00  0.00    -0.354 N 
ATOM     59  N   UNL     1      -9.673  -5.465  -2.762  1.00  0.00    -0.248 NA
ATOM     60  C   UNL     1      -9.633  -6.195  -4.976  1.00  0.00     0.031 C 
ATOM     61  C   UNL     1     -11.825  -7.455   0.528  1.00  0.00     0.029 A 
ATOM     62  C   UNL     1     -11.145  -6.881  -0.531  1.00  0.00     0.049 A 
ATOM     63  H   UNL     1      -9.873  -5.193  -0.542  1.00  0.00     0.167 HD
ATOM     64  C   UNL     1     -10.447  -6.615  -2.881  1.00  0.00     0.074 A 
ATOM     65  C   UNL     1     -10.416  -7.001  -4.274  1.00  0.00     0.031 C 
ATOM     66  C   UNL     1     -11.120  -7.285  -1.914  1.00  0.00     0.037 A 
BRANCH  53  67
ATOM     67  C   UNL     1     -10.401  -4.792   3.681  1.00  0.00     0.064 A 
ATOM     68  C   UNL     1     -11.209  -3.839   4.319  1.00  0.00     0.173 A 
ATOM     69  C   UNL     1      -9.937  -5.874   4.445  1.00  0.00     0.173 A 
ATOM     70  F   UNL     1     -11.679  -2.785   3.636  1.00  0.00    -0.203 F 
ATOM     71  C   UNL     1     -11.509  -3.946   5.676  1.00  0.00     0.198 A 
ATOM     72  C   UNL     1     -10.267  -5.996   5.793  1.00  0.00     0.198 A 
ATOM     73  F   UNL     1      -9.176  -6.824   3.881  1.00  0.00    -0.203 F 
ATOM     74  F   UNL     1     -12.238  -2.995   6.275  1.00  0.00    -0.200 F 
ATOM     75  C   UNL     1     -11.043  -5.026   6.409  1.00  0.00     0.200 A 
ATOM     76  F   UNL     1      -9.833  -7.052   6.495  1.00  0.00    -0.200 F 
ATOM     77  F   UNL     1     -11.338  -5.130   7.712  1.00  0.00    -0.200 F 
ENDBRANCH  53  67
BRANCH  54  78
ATOM     78  C   UNL     1      -7.958  -3.982  -5.868  1.00  0.00     0.064 A 
ATOM     79  C   UNL     1      -8.911  -3.708  -6.860  1.00  0.00     0.173 A 
ATOM     80  C   UNL     1      -6.635  -4.201  -6.280  1.00  0.00     0.173 A 
ATOM     81  F   UNL     1     -10.197  -3.529  -6.523  1.00  0.00    -0.203 F 
ATOM     82  C   UNL     1      -8.557  -3.669  -8.208  1.00  0.00     0.198 A 
ATOM     83  C   UNL     1      -6.277  -4.130  -7.624  1.00  0.00     0.198 A 
ATOM     84  F   UNL     1      -5.686  -4.477  -5.373  1.00  0.00    -0.203 F 
ATOM     85  F   UNL     1      -9.497  -3.456  -9.139  1.00  0.00    -0.200 F 
ATOM     86  C   UNL     1      -7.239  -3.872  -8.588  1.00  0.00     0.200 A 
ATOM     87  F   UNL     1      -5.000  -4.316  -7.985  1.00  0.00    -0.200 F 
ATOM     88  F   UNL     1      -6.898  -3.829  -9.883  1.00  0.00    -0.200 F 
ENDBRANCH  54  78
BRANCH  66  89
ATOM     89  C   UNL     1     -11.901  -8.508  -2.317  1.00  0.00     0.064 A 
ATOM     90  C   UNL     1     -11.264  -9.695  -2.712  1.00  0.00     0.173 A 
ATOM     91  C   UNL     1     -13.305  -8.509  -2.274  1.00  0.00     0.173 A 
ATOM     92  F   UNL     1      -9.925  -9.749  -2.785  1.00  0.00    -0.203 F 
ATOM     93  C   UNL     1     -11.999 -10.824  -3.069  1.00  0.00     0.198 A 
ATOM     94  C   UNL     1     -14.037  -9.648  -2.603  1.00  0.00     0.198 A 
ATOM     95  F   UNL     1     -13.970  -7.406  -1.900  1.00  0.00    -0.203 F 
ATOM     96  F   UNL     1     -11.367 -11.930  -3.487  1.00  0.00    -0.200 F 
ATOM     97  C   UNL     1     -13.384 -10.802  -3.008  1.00  0.00     0.200 A 
ATOM     98  F   UNL     1     -15.375  -9.629  -2.530  1.00  0.00    -0.200 F 
ATOM     99  F   UNL     1     -14.090 -11.891  -3.345  1.00  0.00    -0.200 F 
ENDBRANCH  66  89
ENDBRANCH  40  41
ENDBRANCH  32  35
ENDBRANCH  30  31
ENDBRANCH  29  30
ENDBRANCH  28  29
ENDBRANCH  27  28
ENDBRANCH   1  27
TORSDOF 18
