REMARK SMILES C/C(=N\Nc1nc(-c2ccc(Cl)cc2)cs1)c1nnn(-c2ccc(C(=O)NCCCCCCNC(=O)c3ccc(-c4c5nc(c(-c6c(F)c(F)c(F)c(F)c6F)c6ccc([nH]6)c(-c6c(F)c(F)c(F)c(F)c6F)c6nc(c(-c7c(F)c(F)c(F)c(F)c7F)c7ccc4[nH]7)C=C6)C=C5)cc3)cc2)c1C
REMARK SMILES IDX 29 1 28 2 27 3 25 4 26 5 24 7 21 8 22 9 101 10 23 11 100 12
REMARK SMILES IDX 20 13 17 14 18 15 102 16 19 17 103 18 2 19 1 20 3 21 4 22
REMARK SMILES IDX 5 24 6 25 16 26 7 27 15 28 8 29 9 30 14 31 10 32 13 33 11 34
REMARK SMILES IDX 12 35 30 36 31 37 32 38 33 39 34 40 35 41 36 43 37 44 38 45
REMARK SMILES IDX 99 46 39 47 98 48 40 49 41 50 42 51 92 52 43 53 97 54 91 55
REMARK SMILES IDX 93 56 44 57 96 58 90 59 89 60 45 62 77 63 57 64 76 65 58 66
REMARK SMILES IDX 61 67 75 68 94 69 59 70 60 71 74 73 95 74 62 75 46 76 47 77
REMARK SMILES IDX 55 78 48 79 49 80 53 81 56 82 50 83 51 84 54 85 52 86 78 87
REMARK SMILES IDX 79 88 87 89 80 90 81 91 85 92 88 93 82 94 83 95 86 96 84 97
REMARK SMILES IDX 63 98 64 99 72 100 65 101 66 102 70 103 73 104 67 105 68 106
REMARK SMILES IDX 71 107 69 108
REMARK H PARENT 27 6 4 23 34 42 93 61 61 72
REMARK Flexibility Score: inf
ROOT
ATOM      1  C   UNL     1       8.794  -6.546   1.909  1.00  0.00     0.021 C 
ENDROOT
BRANCH   1   2
ATOM      2  C   UNL     1       8.391  -5.763   0.656  1.00  0.00     0.116 C 
BRANCH   2   3
ATOM      3  N   UNL     1       8.046  -6.674  -0.421  1.00  0.00    -0.352 N 
ATOM      4  C   UNL     1       6.851  -7.068  -0.970  1.00  0.00     0.251 C 
ATOM      5  O   UNL     1       6.888  -7.856  -1.914  1.00  0.00    -0.269 OA
ATOM      6  H   UNL     1       8.829  -7.095  -0.844  1.00  0.00     0.163 HD
BRANCH   4   7
ATOM      7  C   UNL     1       5.535  -6.522  -0.534  1.00  0.00     0.039 A 
ATOM      8  C   UNL     1       3.148  -5.194   0.025  1.00  0.00     0.067 A 
ATOM      9  C   UNL     1       3.296  -5.818  -1.212  1.00  0.00     0.029 A 
ATOM     10  C   UNL     1       4.114  -5.341   1.024  1.00  0.00     0.029 A 
ATOM     11  C   UNL     1       4.508  -6.458  -1.494  1.00  0.00     0.016 A 
ATOM     12  C   UNL     1       5.280  -6.053   0.756  1.00  0.00     0.016 A 
BRANCH   8  13
ATOM     13  N   UNL     1       2.102  -4.279   0.227  1.00  0.00    -0.217 N 
ATOM     14  C   UNL     1       0.931  -2.472   0.539  1.00  0.00     0.132 A 
ATOM     15  N   UNL     1       0.076  -3.524   0.343  1.00  0.00    -0.128 NA
ATOM     16  C   UNL     1       2.239  -2.926   0.467  1.00  0.00     0.071 A 
ATOM     17  N   UNL     1       0.804  -4.599   0.058  1.00  0.00    -0.061 NA
ATOM     18  C   UNL     1       3.535  -2.197   0.454  1.00  0.00     0.069 C 
BRANCH  14  19
ATOM     19  C   UNL     1       0.516  -1.080   0.650  1.00  0.00     0.087 C 
ATOM     20  C   UNL     1       1.125  -0.153  -0.373  1.00  0.00     0.071 C 
ATOM     21  N   UNL     1      -0.268  -0.791   1.651  1.00  0.00    -0.176 NA
BRANCH  21  22
ATOM     22  N   UNL     1      -0.632   0.489   2.001  1.00  0.00    -0.252 N 
ATOM     23  H   UNL     1      -0.996   0.574   2.912  1.00  0.00     0.193 HD
BRANCH  22  24
ATOM     24  C   UNL     1      -0.575   1.655   1.308  1.00  0.00     0.203 A 
ATOM     25  N   UNL     1      -0.758   1.801   0.017  1.00  0.00    -0.219 NA
ATOM     26  S   UNL     1      -0.133   3.122   2.113  1.00  0.00    -0.103 S 
ATOM     27  C   UNL     1      -0.240   3.003  -0.416  1.00  0.00     0.084 A 
ATOM     28  C   UNL     1       0.155   3.861   0.588  1.00  0.00     0.097 A 
BRANCH  27  29
ATOM     29  C   UNL     1      -0.079   3.246  -1.838  1.00  0.00     0.001 A 
ATOM     30  C   UNL     1      -1.137   2.952  -2.708  1.00  0.00     0.012 A 
ATOM     31  C   UNL     1       1.149   3.666  -2.368  1.00  0.00     0.012 A 
ATOM     32  C   UNL     1      -0.984   3.109  -4.088  1.00  0.00     0.021 A 
ATOM     33  C   UNL     1       1.306   3.812  -3.751  1.00  0.00     0.021 A 
ATOM     34  C   UNL     1       0.236   3.540  -4.603  1.00  0.00     0.041 A 
ATOM     35  Cl  UNL     1       0.430   3.726  -6.302  1.00  0.00    -0.084 Cl
ENDBRANCH  27  29
ENDBRANCH  22  24
ENDBRANCH  21  22
ENDBRANCH  14  19
ENDBRANCH   8  13
ENDBRANCH   4   7
ENDBRANCH   2   3
ENDBRANCH   1   2
BRANCH   1  36
ATOM     36  C   UNL     1      10.222  -7.107   1.848  1.00  0.00     0.002 C 
BRANCH  36  37
ATOM     37  C   UNL     1      11.338  -6.069   1.634  1.00  0.00     0.002 C 
BRANCH  37  38
ATOM     38  C   UNL     1      11.338  -4.854   2.575  1.00  0.00     0.021 C 
BRANCH  38  39
ATOM     39  C   UNL     1      11.635  -5.200   4.024  1.00  0.00     0.116 C 
BRANCH  39  40
ATOM     40  N   UNL     1      13.001  -5.700   4.217  1.00  0.00    -0.352 N 
ATOM     41  C   UNL     1      13.602  -6.204   5.360  1.00  0.00     0.251 C 
ATOM     42  H   UNL     1      13.575  -5.673   3.418  1.00  0.00     0.163 HD
ATOM     43  O   UNL     1      14.816  -6.221   5.480  1.00  0.00    -0.269 OA
BRANCH  41  44
ATOM     44  C   UNL     1      12.742  -6.738   6.431  1.00  0.00     0.039 A 
ATOM     45  C   UNL     1      13.070  -6.652   7.788  1.00  0.00     0.014 A 
ATOM     46  C   UNL     1      11.552  -7.330   6.035  1.00  0.00     0.014 A 
ATOM     47  C   UNL     1      12.156  -7.139   8.722  1.00  0.00     0.010 A 
ATOM     48  C   UNL     1      10.553  -7.508   6.939  1.00  0.00     0.010 A 
ATOM     49  C   UNL     1      10.896  -7.566   8.275  1.00  0.00    -0.014 A 
BRANCH  49  50
ATOM     50  C   UNL     1       9.847  -8.022   9.169  1.00  0.00     0.031 A 
ATOM     51  C   UNL     1       9.438  -7.002  10.156  1.00  0.00     0.074 A 
ATOM     52  C   UNL     1       9.142  -9.155   8.942  1.00  0.00     0.049 A 
ATOM     53  N   UNL     1       9.661  -7.012  11.426  1.00  0.00    -0.248 NA
ATOM     54  C   UNL     1       8.876  -5.736   9.656  1.00  0.00     0.031 C 
ATOM     55  C   UNL     1       9.224 -10.077   7.800  1.00  0.00     0.029 A 
ATOM     56  N   UNL     1       8.112  -9.676   9.660  1.00  0.00    -0.354 N 
ATOM     57  C   UNL     1       9.064  -5.859  11.919  1.00  0.00     0.074 A 
ATOM     58  C   UNL     1       8.812  -5.019  10.779  1.00  0.00     0.031 C 
ATOM     59  C   UNL     1       8.152 -10.901   7.796  1.00  0.00     0.029 A 
ATOM     60  C   UNL     1       7.397 -10.683   9.015  1.00  0.00     0.049 A 
ATOM     61  H   UNL     1       7.888  -9.365  10.567  1.00  0.00     0.167 HD
ATOM     62  C   UNL     1       8.566  -5.835  13.186  1.00  0.00     0.037 A 
ATOM     63  C   UNL     1       6.253 -11.265   9.456  1.00  0.00     0.037 A 
ATOM     64  C   UNL     1       9.083  -6.944  13.957  1.00  0.00     0.049 A 
ATOM     65  C   UNL     1       6.163 -10.992  10.914  1.00  0.00     0.074 A 
ATOM     66  C   UNL     1      10.348  -7.367  14.319  1.00  0.00     0.029 A 
ATOM     67  N   UNL     1       8.266  -8.035  14.129  1.00  0.00    -0.354 N 
ATOM     68  N   UNL     1       6.985 -11.495  11.793  1.00  0.00    -0.248 NA
ATOM     69  C   UNL     1       5.473  -9.779  11.325  1.00  0.00     0.031 C 
ATOM     70  C   UNL     1      10.307  -8.790  14.212  1.00  0.00     0.029 A 
ATOM     71  C   UNL     1       9.005  -9.162  13.876  1.00  0.00     0.049 A 
ATOM     72  H   UNL     1       7.316  -8.012  14.388  1.00  0.00     0.167 HD
ATOM     73  C   UNL     1       7.252 -10.448  12.663  1.00  0.00     0.074 A 
ATOM     74  C   UNL     1       6.235  -9.440  12.368  1.00  0.00     0.031 C 
ATOM     75  C   UNL     1       8.448 -10.372  13.319  1.00  0.00     0.037 A 
BRANCH  62  76
ATOM     76  C   UNL     1       7.317  -5.090  13.597  1.00  0.00     0.064 A 
ATOM     77  C   UNL     1       6.954  -5.090  14.959  1.00  0.00     0.173 A 
ATOM     78  C   UNL     1       6.314  -4.648  12.705  1.00  0.00     0.173 A 
ATOM     79  F   UNL     1       7.823  -5.492  15.898  1.00  0.00    -0.203 F 
ATOM     80  C   UNL     1       5.659  -4.776  15.379  1.00  0.00     0.198 A 
ATOM     81  C   UNL     1       5.040  -4.283  13.134  1.00  0.00     0.198 A 
ATOM     82  F   UNL     1       6.473  -4.655  11.378  1.00  0.00    -0.203 F 
ATOM     83  F   UNL     1       5.324  -4.928  16.667  1.00  0.00    -0.200 F 
ATOM     84  C   UNL     1       4.700  -4.383  14.465  1.00  0.00     0.200 A 
ATOM     85  F   UNL     1       4.122  -3.918  12.228  1.00  0.00    -0.200 F 
ATOM     86  F   UNL     1       3.441  -4.148  14.854  1.00  0.00    -0.200 F 
ENDBRANCH  62  76
BRANCH  63  87
ATOM     87  C   UNL     1       5.089 -11.754   8.674  1.00  0.00     0.064 A 
ATOM     88  C   UNL     1       4.111 -12.574   9.262  1.00  0.00     0.173 A 
ATOM     89  C   UNL     1       4.757 -11.184   7.430  1.00  0.00     0.173 A 
ATOM     90  F   UNL     1       4.326 -13.121  10.468  1.00  0.00    -0.203 F 
ATOM     91  C   UNL     1       2.864 -12.784   8.659  1.00  0.00     0.198 A 
ATOM     92  C   UNL     1       3.515 -11.396   6.827  1.00  0.00     0.198 A 
ATOM     93  F   UNL     1       5.591 -10.327   6.823  1.00  0.00    -0.203 F 
ATOM     94  F   UNL     1       1.932 -13.517   9.284  1.00  0.00    -0.200 F 
ATOM     95  C   UNL     1       2.563 -12.184   7.448  1.00  0.00     0.200 A 
ATOM     96  F   UNL     1       3.222 -10.776   5.675  1.00  0.00    -0.200 F 
ATOM     97  F   UNL     1       1.347 -12.326   6.903  1.00  0.00    -0.200 F 
ENDBRANCH  63  87
BRANCH  75  98
ATOM     98  C   UNL     1       9.345 -11.581  13.278  1.00  0.00     0.064 A 
ATOM     99  C   UNL     1       9.912 -12.112  12.105  1.00  0.00     0.173 A 
ATOM    100  C   UNL     1       9.749 -12.145  14.495  1.00  0.00     0.173 A 
ATOM    101  F   UNL     1       9.658 -11.569  10.909  1.00  0.00    -0.203 F 
ATOM    102  C   UNL     1      10.802 -13.185  12.150  1.00  0.00     0.198 A 
ATOM    103  C   UNL     1      10.666 -13.191  14.540  1.00  0.00     0.198 A 
ATOM    104  F   UNL     1       9.285 -11.646  15.652  1.00  0.00    -0.203 F 
ATOM    105  F   UNL     1      11.315 -13.682  11.014  1.00  0.00    -0.200 F 
ATOM    106  C   UNL     1      11.182 -13.719  13.368  1.00  0.00     0.200 A 
ATOM    107  F   UNL     1      11.068 -13.671  15.725  1.00  0.00    -0.200 F 
ATOM    108  F   UNL     1      12.066 -14.726  13.416  1.00  0.00    -0.200 F 
ENDBRANCH  75  98
ENDBRANCH  49  50
ENDBRANCH  41  44
ENDBRANCH  39  40
ENDBRANCH  38  39
ENDBRANCH  37  38
ENDBRANCH  36  37
ENDBRANCH   1  36
TORSDOF 18
