REMARK SMILES C[C@]1(C(=O)NCc2ccc(C(=O)NCCCCCCNC(=O)c3ccc(-c4c5nc(c(-c6c(F)c(F)c(F)c(F)c6F)c6ccc([nH]6)c(-c6c(F)c(F)c(F)c(F)c6F)c6nc(c(-c7c(F)c(F)c(F)c(F)c7F)c7ccc4[nH]7)C=C6)C=C5)cc3)o2)CCC[NH2+]C1
REMARK SMILES IDX 16 1 15 2 14 3 13 4 11 5 12 6 10 8 7 9 8 10 86 11 9 12 6 13
REMARK SMILES IDX 5 14 3 15 4 16 2 18 1 19 87 20 91 21 88 22 90 23 89 24 17 27
REMARK SMILES IDX 18 28 19 29 20 30 21 31 22 33 23 34 24 35 85 36 25 37 84 38
REMARK SMILES IDX 26 39 27 40 28 41 78 42 29 43 83 44 77 45 79 46 30 47 82 48
REMARK SMILES IDX 76 49 75 50 31 52 63 53 43 54 62 55 44 56 47 57 61 58 80 59
REMARK SMILES IDX 45 60 46 61 60 63 81 64 48 65 32 66 33 67 41 68 34 69 35 70
REMARK SMILES IDX 39 71 42 72 36 73 37 74 40 75 38 76 64 77 65 78 73 79 66 80
REMARK SMILES IDX 67 81 71 82 74 83 68 84 69 85 72 86 70 87 49 88 50 89 58 90
REMARK SMILES IDX 51 91 52 92 56 93 59 94 53 95 54 96 57 97 55 98
REMARK H PARENT 13 7 5 17 90 25 90 26 20 32 79 51 47 62
REMARK Flexibility Score: inf
ROOT
ATOM      1  C   UNL     1      -4.593  -0.259  -8.744  1.00  0.00     0.002 C 
ENDROOT
BRANCH   1   2
ATOM      2  C   UNL     1      -3.590   0.164  -7.663  1.00  0.00     0.021 C 
BRANCH   2   3
ATOM      3  C   UNL     1      -3.985  -0.288  -6.258  1.00  0.00     0.116 C 
BRANCH   3   4
ATOM      4  N   UNL     1      -3.513  -1.623  -5.976  1.00  0.00    -0.349 N 
ATOM      5  C   UNL     1      -2.462  -2.105  -5.229  1.00  0.00     0.286 C 
ATOM      6  O   UNL     1      -2.336  -3.333  -5.257  1.00  0.00    -0.266 OA
ATOM      7  H   UNL     1      -4.049  -2.329  -6.403  1.00  0.00     0.163 HD
BRANCH   5   8
ATOM      8  C   UNL     1      -1.573  -1.242  -4.464  1.00  0.00     0.191 A 
ATOM      9  C   UNL     1       0.169  -0.946  -3.108  1.00  0.00     0.124 A 
ATOM     10  C   UNL     1      -0.370   0.300  -3.326  1.00  0.00     0.048 A 
ATOM     11  O   UNL     1      -0.536  -1.877  -3.808  1.00  0.00    -0.454 OA
ATOM     12  C   UNL     1      -1.482   0.110  -4.180  1.00  0.00     0.056 A 
BRANCH   9  13
ATOM     13  C   UNL     1       1.318  -1.428  -2.298  1.00  0.00     0.191 C 
BRANCH  13  14
ATOM     14  N   UNL     1       1.598  -0.460  -1.251  1.00  0.00    -0.348 N 
ATOM     15  C   UNL     1       1.202  -0.274   0.024  1.00  0.00     0.232 C 
ATOM     16  O   UNL     1       1.508   0.845   0.470  1.00  0.00    -0.274 OA
ATOM     17  H   UNL     1       2.234   0.231  -1.546  1.00  0.00     0.163 HD
BRANCH  15  18
ATOM     18  C   UNL     1       0.417  -1.254   0.932  1.00  0.00     0.095 C 
ATOM     19  C   UNL     1       1.100  -1.106   2.325  1.00  0.00     0.028 C 
ATOM     20  C   UNL     1      -1.043  -0.781   1.097  1.00  0.00     0.028 C 
ATOM     21  C   UNL     1       0.443  -2.751   0.583  1.00  0.00     0.277 C 
ATOM     22  C   UNL     1      -1.909  -1.181  -0.088  1.00  0.00     0.063 C 
ATOM     23  N   UNL     1      -0.462  -3.160  -0.490  1.00  0.00    -0.345 N 
ATOM     24  C   UNL     1      -1.829  -2.678  -0.357  1.00  0.00     0.260 C 
ATOM     25  H   UNL     1      -0.087  -2.809  -1.371  1.00  0.00     0.346 HD
ATOM     26  H   UNL     1      -0.512  -4.178  -0.449  1.00  0.00     0.346 HD
ENDBRANCH  15  18
ENDBRANCH  13  14
ENDBRANCH   9  13
ENDBRANCH   5   8
ENDBRANCH   3   4
ENDBRANCH   2   3
ENDBRANCH   1   2
BRANCH   1  27
ATOM     27  C   UNL     1      -6.031   0.231  -8.524  1.00  0.00     0.002 C 
BRANCH  27  28
ATOM     28  C   UNL     1      -6.173   1.732  -8.257  1.00  0.00     0.021 C 
BRANCH  28  29
ATOM     29  C   UNL     1      -5.670   2.619  -9.391  1.00  0.00     0.116 C 
BRANCH  29  30
ATOM     30  N   UNL     1      -6.430   2.411 -10.613  1.00  0.00    -0.352 N 
ATOM     31  C   UNL     1      -7.139   3.313 -11.365  1.00  0.00     0.251 C 
ATOM     32  H   UNL     1      -6.436   1.486 -10.951  1.00  0.00     0.163 HD
ATOM     33  O   UNL     1      -7.911   2.923 -12.233  1.00  0.00    -0.269 OA
BRANCH  31  34
ATOM     34  C   UNL     1      -6.977   4.761 -11.120  1.00  0.00     0.039 A 
ATOM     35  C   UNL     1      -8.111   5.577 -11.116  1.00  0.00     0.014 A 
ATOM     36  C   UNL     1      -5.710   5.315 -10.918  1.00  0.00     0.014 A 
ATOM     37  C   UNL     1      -7.978   6.942 -10.859  1.00  0.00     0.010 A 
ATOM     38  C   UNL     1      -5.587   6.659 -10.584  1.00  0.00     0.010 A 
ATOM     39  C   UNL     1      -6.718   7.489 -10.561  1.00  0.00    -0.014 A 
BRANCH  39  40
ATOM     40  C   UNL     1      -6.564   8.928 -10.234  1.00  0.00     0.031 A 
ATOM     41  C   UNL     1      -5.752   9.823 -11.126  1.00  0.00     0.074 A 
ATOM     42  C   UNL     1      -7.104   9.413  -9.100  1.00  0.00     0.049 A 
ATOM     43  N   UNL     1      -5.450  11.088 -10.978  1.00  0.00    -0.248 NA
ATOM     44  C   UNL     1      -5.176   9.206 -12.332  1.00  0.00     0.031 C 
ATOM     45  C   UNL     1      -7.872   8.632  -8.130  1.00  0.00     0.029 A 
ATOM     46  N   UNL     1      -7.079  10.676  -8.565  1.00  0.00    -0.354 N 
ATOM     47  C   UNL     1      -4.643  11.413 -12.061  1.00  0.00     0.074 A 
ATOM     48  C   UNL     1      -4.450  10.198 -12.823  1.00  0.00     0.031 C 
ATOM     49  C   UNL     1      -8.265   9.437  -7.131  1.00  0.00     0.029 A 
ATOM     50  C   UNL     1      -7.743  10.779  -7.368  1.00  0.00     0.049 A 
ATOM     51  H   UNL     1      -6.628  11.436  -8.999  1.00  0.00     0.167 HD
ATOM     52  C   UNL     1      -4.131  12.620 -12.402  1.00  0.00     0.037 A 
ATOM     53  C   UNL     1      -7.904  11.836  -6.549  1.00  0.00     0.037 A 
ATOM     54  C   UNL     1      -4.339  13.827 -11.646  1.00  0.00     0.049 A 
ATOM     55  C   UNL     1      -7.313  13.163  -6.940  1.00  0.00     0.074 A 
ATOM     56  C   UNL     1      -3.912  15.111 -11.934  1.00  0.00     0.029 A 
ATOM     57  N   UNL     1      -5.028  13.896 -10.442  1.00  0.00    -0.354 N 
ATOM     58  N   UNL     1      -6.613  13.476  -8.003  1.00  0.00    -0.248 NA
ATOM     59  C   UNL     1      -7.543  14.286  -6.021  1.00  0.00     0.031 C 
ATOM     60  C   UNL     1      -4.291  15.945 -10.877  1.00  0.00     0.029 A 
ATOM     61  C   UNL     1      -5.012  15.196  -9.961  1.00  0.00     0.049 A 
ATOM     62  H   UNL     1      -5.463  13.134  -9.996  1.00  0.00     0.167 HD
ATOM     63  C   UNL     1      -6.343  14.834  -7.897  1.00  0.00     0.074 A 
ATOM     64  C   UNL     1      -6.968  15.287  -6.672  1.00  0.00     0.031 C 
ATOM     65  C   UNL     1      -5.641  15.633  -8.739  1.00  0.00     0.037 A 
BRANCH  52  66
ATOM     66  C   UNL     1      -3.290  12.688 -13.646  1.00  0.00     0.064 A 
ATOM     67  C   UNL     1      -3.839  12.487 -14.923  1.00  0.00     0.173 A 
ATOM     68  C   UNL     1      -1.918  12.973 -13.564  1.00  0.00     0.173 A 
ATOM     69  F   UNL     1      -5.143  12.202 -15.059  1.00  0.00    -0.203 F 
ATOM     70  C   UNL     1      -3.041  12.527 -16.063  1.00  0.00     0.198 A 
ATOM     71  C   UNL     1      -1.130  13.048 -14.710  1.00  0.00     0.198 A 
ATOM     72  F   UNL     1      -1.340  13.181 -12.371  1.00  0.00    -0.203 F 
ATOM     73  F   UNL     1      -3.578  12.267 -17.264  1.00  0.00    -0.200 F 
ATOM     74  C   UNL     1      -1.689  12.813 -15.957  1.00  0.00     0.200 A 
ATOM     75  F   UNL     1       0.174  13.340 -14.606  1.00  0.00    -0.200 F 
ATOM     76  F   UNL     1      -0.922  12.853 -17.055  1.00  0.00    -0.200 F 
ENDBRANCH  52  66
BRANCH  53  77
ATOM     77  C   UNL     1      -8.680  11.682  -5.290  1.00  0.00     0.064 A 
ATOM     78  C   UNL     1      -9.932  12.291  -5.137  1.00  0.00     0.173 A 
ATOM     79  C   UNL     1      -8.194  10.912  -4.223  1.00  0.00     0.173 A 
ATOM     80  F   UNL     1     -10.432  13.052  -6.122  1.00  0.00    -0.203 F 
ATOM     81  C   UNL     1     -10.662  12.151  -3.958  1.00  0.00     0.198 A 
ATOM     82  C   UNL     1      -8.937  10.748  -3.056  1.00  0.00     0.198 A 
ATOM     83  F   UNL     1      -7.003  10.302  -4.322  1.00  0.00    -0.203 F 
ATOM     84  F   UNL     1     -11.838  12.779  -3.822  1.00  0.00    -0.200 F 
ATOM     85  C   UNL     1     -10.167  11.374  -2.921  1.00  0.00     0.200 A 
ATOM     86  F   UNL     1      -8.463   9.981  -2.065  1.00  0.00    -0.200 F 
ATOM     87  F   UNL     1     -10.873  11.231  -1.792  1.00  0.00    -0.200 F 
ENDBRANCH  53  77
BRANCH  65  88
ATOM     88  C   UNL     1      -5.543  17.090  -8.385  1.00  0.00     0.064 A 
ATOM     89  C   UNL     1      -4.772  17.538  -7.302  1.00  0.00     0.173 A 
ATOM     90  C   UNL     1      -6.198  18.054  -9.167  1.00  0.00     0.173 A 
ATOM     91  F   UNL     1      -4.138  16.656  -6.514  1.00  0.00    -0.203 F 
ATOM     92  C   UNL     1      -4.684  18.894  -6.999  1.00  0.00     0.198 A 
ATOM     93  C   UNL     1      -6.079  19.411  -8.881  1.00  0.00     0.198 A 
ATOM     94  F   UNL     1      -6.942  17.681 -10.219  1.00  0.00    -0.203 F 
ATOM     95  F   UNL     1      -3.984  19.294  -5.928  1.00  0.00    -0.200 F 
ATOM     96  C   UNL     1      -5.330  19.829  -7.793  1.00  0.00     0.200 A 
ATOM     97  F   UNL     1      -6.691  20.314  -9.660  1.00  0.00    -0.200 F 
ATOM     98  F   UNL     1      -5.236  21.135  -7.504  1.00  0.00    -0.200 F 
ENDBRANCH  65  88
ENDBRANCH  39  40
ENDBRANCH  31  34
ENDBRANCH  29  30
ENDBRANCH  28  29
ENDBRANCH  27  28
ENDBRANCH   1  27
TORSDOF 16
