REMARK SMILES CN(C)S(=O)(=O)c1ccc(-n2c(CCC(=O)NCCCCCCNC(=O)c3ccc(-c4c5nc(c(-c6c(F)c(F)c(F)c(F)c6F)c6ccc([nH]6)c(-c6c(F)c(F)c(F)c(F)c6F)c6nc(c(-c7c(F)c(F)c(F)c(F)c7F)c7ccc4[nH]7)C=C6)C=C5)cc3)ccc2-c2ccc(F)cc2)cc1
REMARK SMILES IDX 19 1 18 2 17 3 15 4 16 5 14 7 13 8 12 9 11 10 92 11 90 12
REMARK SMILES IDX 91 13 10 14 7 15 8 16 101 17 9 18 100 19 4 20 5 21 6 22 2 23
REMARK SMILES IDX 1 24 3 25 93 26 94 27 99 28 95 29 98 30 96 31 97 32 20 33
REMARK SMILES IDX 21 34 22 35 23 36 24 37 25 38 26 40 27 41 28 42 89 43 29 44
REMARK SMILES IDX 88 45 30 46 31 47 32 48 82 49 33 50 87 51 81 52 83 53 34 54
REMARK SMILES IDX 86 55 80 56 79 57 35 59 67 60 47 61 66 62 48 63 51 64 65 65
REMARK SMILES IDX 84 66 49 67 50 68 64 70 85 71 52 72 36 73 37 74 45 75 38 76
REMARK SMILES IDX 39 77 43 78 46 79 40 80 41 81 44 82 42 83 68 84 69 85 77 86
REMARK SMILES IDX 70 87 71 88 75 89 78 90 72 91 73 92 76 93 74 94 53 95 54 96
REMARK SMILES IDX 62 97 55 98 56 99 60 100 63 101 57 102 58 103 61 104 59 105
REMARK H PARENT 17 6 24 39 83 58 51 69
REMARK Flexibility Score: inf
ROOT
ATOM      1  C   UNL     1       0.438   3.233  -7.452  1.00  0.00     0.021 C 
ENDROOT
BRANCH   1   2
ATOM      2  C   UNL     1      -0.724   2.311  -7.844  1.00  0.00     0.116 C 
BRANCH   2   3
ATOM      3  N   UNL     1      -1.554   1.887  -6.726  1.00  0.00    -0.356 N 
ATOM      4  C   UNL     1      -2.748   2.371  -6.270  1.00  0.00     0.220 C 
ATOM      5  O   UNL     1      -3.292   1.777  -5.335  1.00  0.00    -0.275 OA
ATOM      6  H   UNL     1      -1.197   1.125  -6.214  1.00  0.00     0.163 HD
BRANCH   4   7
ATOM      7  C   UNL     1      -3.349   3.652  -6.822  1.00  0.00     0.106 C 
BRANCH   7   8
ATOM      8  C   UNL     1      -3.193   4.875  -5.895  1.00  0.00     0.064 C 
BRANCH   8   9
ATOM      9  C   UNL     1      -1.972   5.724  -6.191  1.00  0.00     0.024 A 
ATOM     10  N   UNL     1      -0.865   5.950  -5.348  1.00  0.00    -0.314 N 
ATOM     11  C   UNL     1       0.011   6.824  -6.028  1.00  0.00     0.053 A 
ATOM     12  C   UNL     1      -1.805   6.498  -7.329  1.00  0.00     0.024 A 
ATOM     13  C   UNL     1      -0.580   7.177  -7.229  1.00  0.00     0.029 A 
BRANCH  10  14
ATOM     14  C   UNL     1      -0.537   5.266  -4.121  1.00  0.00     0.046 A 
ATOM     15  C   UNL     1       0.423   3.680  -1.998  1.00  0.00     0.082 A 
ATOM     16  C   UNL     1       0.743   5.042  -2.062  1.00  0.00     0.024 A 
ATOM     17  C   UNL     1      -0.368   3.116  -2.980  1.00  0.00     0.024 A 
ATOM     18  C   UNL     1       0.261   5.833  -3.120  1.00  0.00     0.028 A 
ATOM     19  C   UNL     1      -0.861   3.919  -3.999  1.00  0.00     0.028 A 
BRANCH  15  20
ATOM     20  S   UNL     1       1.104   2.686  -0.698  1.00  0.00     0.242 S 
ATOM     21  O   UNL     1       0.635   3.245   0.562  1.00  0.00    -0.207 OA
ATOM     22  O   UNL     1       2.507   2.558  -0.989  1.00  0.00    -0.207 OA
BRANCH  20  23
ATOM     23  N   UNL     1       0.389   1.123  -0.852  1.00  0.00    -0.204 NA
ATOM     24  C   UNL     1       1.151   0.090  -0.102  1.00  0.00     0.124 C 
ATOM     25  C   UNL     1      -1.058   1.028  -0.523  1.00  0.00     0.124 C 
ENDBRANCH  20  23
ENDBRANCH  15  20
ENDBRANCH  10  14
BRANCH  11  26
ATOM     26  C   UNL     1       1.409   7.067  -5.646  1.00  0.00    -0.001 A 
ATOM     27  C   UNL     1       1.871   8.328  -5.262  1.00  0.00     0.013 A 
ATOM     28  C   UNL     1       2.303   5.987  -5.634  1.00  0.00     0.013 A 
ATOM     29  C   UNL     1       3.192   8.476  -4.820  1.00  0.00     0.040 A 
ATOM     30  C   UNL     1       3.618   6.130  -5.201  1.00  0.00     0.040 A 
ATOM     31  C   UNL     1       4.049   7.377  -4.786  1.00  0.00     0.123 A 
ATOM     32  F   UNL     1       5.321   7.537  -4.405  1.00  0.00    -0.207 F 
ENDBRANCH  11  26
ENDBRANCH   8   9
ENDBRANCH   7   8
ENDBRANCH   4   7
ENDBRANCH   2   3
ENDBRANCH   1   2
BRANCH   1  33
ATOM     33  C   UNL     1       1.656   2.531  -6.834  1.00  0.00     0.002 C 
BRANCH  33  34
ATOM     34  C   UNL     1       3.052   2.667  -7.505  1.00  0.00     0.002 C 
BRANCH  34  35
ATOM     35  C   UNL     1       3.257   3.438  -8.828  1.00  0.00     0.021 C 
BRANCH  35  36
ATOM     36  C   UNL     1       3.781   4.894  -8.739  1.00  0.00     0.116 C 
BRANCH  36  37
ATOM     37  N   UNL     1       5.163   4.959  -8.277  1.00  0.00    -0.352 N 
ATOM     38  C   UNL     1       6.123   5.946  -8.276  1.00  0.00     0.251 C 
ATOM     39  H   UNL     1       5.478   4.114  -7.881  1.00  0.00     0.163 HD
ATOM     40  O   UNL     1       7.292   5.566  -8.164  1.00  0.00    -0.269 OA
BRANCH  38  41
ATOM     41  C   UNL     1       5.881   7.418  -8.374  1.00  0.00     0.039 A 
ATOM     42  C   UNL     1       6.954   8.227  -8.795  1.00  0.00     0.014 A 
ATOM     43  C   UNL     1       4.723   8.058  -7.939  1.00  0.00     0.014 A 
ATOM     44  C   UNL     1       6.856   9.626  -8.818  1.00  0.00     0.010 A 
ATOM     45  C   UNL     1       4.642   9.466  -7.890  1.00  0.00     0.010 A 
ATOM     46  C   UNL     1       5.688  10.261  -8.381  1.00  0.00    -0.014 A 
BRANCH  46  47
ATOM     47  C   UNL     1       5.467  11.693  -8.769  1.00  0.00     0.031 A 
ATOM     48  C   UNL     1       4.793  11.804 -10.153  1.00  0.00     0.074 A 
ATOM     49  C   UNL     1       5.923  12.711  -7.971  1.00  0.00     0.049 A 
ATOM     50  N   UNL     1       4.861  12.749 -11.044  1.00  0.00    -0.248 NA
ATOM     51  C   UNL     1       3.976  10.663 -10.652  1.00  0.00     0.031 C 
ATOM     52  C   UNL     1       6.504  12.521  -6.631  1.00  0.00     0.029 A 
ATOM     53  N   UNL     1       6.003  14.095  -8.113  1.00  0.00    -0.354 N 
ATOM     54  C   UNL     1       4.000  12.394 -12.105  1.00  0.00     0.074 A 
ATOM     55  C   UNL     1       3.566  11.058 -11.856  1.00  0.00     0.031 C 
ATOM     56  C   UNL     1       6.937  13.697  -6.122  1.00  0.00     0.029 A 
ATOM     57  C   UNL     1       6.681  14.777  -7.061  1.00  0.00     0.049 A 
ATOM     58  H   UNL     1       5.618  14.568  -8.885  1.00  0.00     0.167 HD
ATOM     59  C   UNL     1       3.594  13.261 -13.075  1.00  0.00     0.037 A 
ATOM     60  C   UNL     1       7.051  16.098  -6.957  1.00  0.00     0.037 A 
ATOM     61  C   UNL     1       4.239  14.515 -12.919  1.00  0.00     0.049 A 
ATOM     62  C   UNL     1       6.476  16.780  -8.125  1.00  0.00     0.074 A 
ATOM     63  C   UNL     1       5.516  14.941 -13.161  1.00  0.00     0.029 A 
ATOM     64  N   UNL     1       3.577  15.463 -12.185  1.00  0.00    -0.354 N 
ATOM     65  N   UNL     1       5.234  17.145  -8.229  1.00  0.00    -0.248 NA
ATOM     66  C   UNL     1       7.349  17.089  -9.266  1.00  0.00     0.031 C 
ATOM     67  C   UNL     1       5.713  15.981 -12.231  1.00  0.00     0.029 A 
ATOM     68  C   UNL     1       4.522  16.212 -11.535  1.00  0.00     0.049 A 
ATOM     69  H   UNL     1       2.602  15.585 -12.134  1.00  0.00     0.167 HD
ATOM     70  C   UNL     1       5.132  17.423  -9.573  1.00  0.00     0.074 A 
ATOM     71  C   UNL     1       6.465  17.711 -10.041  1.00  0.00     0.031 C 
ATOM     72  C   UNL     1       4.143  16.828 -10.285  1.00  0.00     0.037 A 
BRANCH  59  73
ATOM     73  C   UNL     1       2.471  13.188 -14.075  1.00  0.00     0.064 A 
ATOM     74  C   UNL     1       2.491  14.086 -15.172  1.00  0.00     0.173 A 
ATOM     75  C   UNL     1       1.247  12.554 -13.821  1.00  0.00     0.173 A 
ATOM     76  F   UNL     1       3.624  14.711 -15.530  1.00  0.00    -0.203 F 
ATOM     77  C   UNL     1       1.335  14.431 -15.869  1.00  0.00     0.198 A 
ATOM     78  C   UNL     1       0.101  12.862 -14.560  1.00  0.00     0.198 A 
ATOM     79  F   UNL     1       1.102  11.706 -12.795  1.00  0.00    -0.203 F 
ATOM     80  F   UNL     1       1.378  15.395 -16.799  1.00  0.00    -0.200 F 
ATOM     81  C   UNL     1       0.135  13.830 -15.550  1.00  0.00     0.200 A 
ATOM     82  F   UNL     1      -1.061  12.269 -14.253  1.00  0.00    -0.200 F 
ATOM     83  F   UNL     1      -0.993  14.206 -16.168  1.00  0.00    -0.200 F 
ENDBRANCH  59  73
BRANCH  60  84
ATOM     84  C   UNL     1       7.877  16.998  -6.040  1.00  0.00     0.064 A 
ATOM     85  C   UNL     1       8.330  16.674  -4.756  1.00  0.00     0.173 A 
ATOM     86  C   UNL     1       8.282  18.303  -6.468  1.00  0.00     0.173 A 
ATOM     87  F   UNL     1       7.930  15.554  -4.146  1.00  0.00    -0.203 F 
ATOM     88  C   UNL     1       9.194  17.518  -4.024  1.00  0.00     0.198 A 
ATOM     89  C   UNL     1       9.165  19.124  -5.763  1.00  0.00     0.198 A 
ATOM     90  F   UNL     1       7.826  18.856  -7.599  1.00  0.00    -0.203 F 
ATOM     91  F   UNL     1       9.601  17.151  -2.801  1.00  0.00    -0.200 F 
ATOM     92  C   UNL     1       9.637  18.723  -4.541  1.00  0.00     0.200 A 
ATOM     93  F   UNL     1       9.549  20.296  -6.291  1.00  0.00    -0.200 F 
ATOM     94  F   UNL     1      10.494  19.498  -3.862  1.00  0.00    -0.200 F 
ENDBRANCH  60  84
BRANCH  72  95
ATOM     95  C   UNL     1       2.934  16.489  -9.443  1.00  0.00     0.064 A 
ATOM     96  C   UNL     1       2.161  17.522  -8.891  1.00  0.00     0.173 A 
ATOM     97  C   UNL     1       2.616  15.183  -9.033  1.00  0.00     0.173 A 
ATOM     98  F   UNL     1       2.403  18.795  -9.237  1.00  0.00    -0.203 F 
ATOM     99  C   UNL     1       1.143  17.261  -7.971  1.00  0.00     0.198 A 
ATOM    100  C   UNL     1       1.592  14.919  -8.123  1.00  0.00     0.198 A 
ATOM    101  F   UNL     1       3.303  14.140  -9.499  1.00  0.00    -0.203 F 
ATOM    102  F   UNL     1       0.433  18.275  -7.457  1.00  0.00    -0.200 F 
ATOM    103  C   UNL     1       0.860  15.961  -7.585  1.00  0.00     0.200 A 
ATOM    104  F   UNL     1       1.318  13.654  -7.768  1.00  0.00    -0.200 F 
ATOM    105  F   UNL     1      -0.121  15.711  -6.707  1.00  0.00    -0.200 F 
ENDBRANCH  72  95
ENDBRANCH  46  47
ENDBRANCH  38  41
ENDBRANCH  36  37
ENDBRANCH  35  36
ENDBRANCH  34  35
ENDBRANCH  33  34
ENDBRANCH   1  33
TORSDOF 19
