REMARK SMILES Nn1c(S[C@@H](C(=O)NCCCCCCNC(=O)c2ccc(-c3c4nc(c(-c5c(F)c(F)c(F)c(F)c5F)c5ccc([nH]5)c(-c5c(F)c(F)c(F)c(F)c5F)c5nc(c(-c6c(F)c(F)c(F)c(F)c6F)c6ccc3[nH]6)C=C5)C=C4)cc2)c2ccccc2)nc2ccc(Br)cc2c1=O
REMARK SMILES IDX 11 1 10 2 9 3 8 4 6 5 7 6 5 8 4 9 3 10 2 11 95 12 87 13
REMARK SMILES IDX 94 14 96 15 88 16 93 17 89 18 91 19 90 20 92 21 1 22 81 25
REMARK SMILES IDX 82 26 86 27 83 28 85 29 84 30 12 31 13 32 14 33 15 34 16 35
REMARK SMILES IDX 17 37 18 38 19 39 80 40 20 41 79 42 21 43 22 44 23 45 73 46
REMARK SMILES IDX 24 47 78 48 72 49 74 50 25 51 77 52 71 53 70 54 26 56 58 57
REMARK SMILES IDX 38 58 57 59 39 60 42 61 56 62 75 63 40 64 41 65 55 67 76 68
REMARK SMILES IDX 43 69 27 70 28 71 36 72 29 73 30 74 34 75 37 76 31 77 32 78
REMARK SMILES IDX 35 79 33 80 59 81 60 82 68 83 61 84 62 85 66 86 69 87 63 88
REMARK SMILES IDX 64 89 67 90 65 91 44 92 45 93 53 94 46 95 47 96 51 97 54 98
REMARK SMILES IDX 48 99 49 100 52 101 50 102
REMARK H PARENT 8 7 1 23 1 24 15 36 74 55 42 66
REMARK Flexibility Score: inf
ROOT
ATOM      1  C   UNL     1       5.006  -2.694  -2.610  1.00  0.00     0.002 C 
ENDROOT
BRANCH   1   2
ATOM      2  C   UNL     1       4.493  -3.155  -1.238  1.00  0.00     0.021 C 
BRANCH   2   3
ATOM      3  C   UNL     1       4.899  -2.266  -0.057  1.00  0.00     0.116 C 
BRANCH   3   4
ATOM      4  N   UNL     1       4.432  -0.906  -0.228  1.00  0.00    -0.355 N 
ATOM      5  C   UNL     1       3.406  -0.207   0.350  1.00  0.00     0.238 C 
ATOM      6  O   UNL     1       3.293   0.946  -0.083  1.00  0.00    -0.273 OA
ATOM      7  H   UNL     1       4.949  -0.385  -0.883  1.00  0.00     0.163 HD
BRANCH   5   8
ATOM      8  C   UNL     1       2.547  -0.812   1.505  1.00  0.00     0.174 C 
BRANCH   8   9
ATOM      9  S   UNL     1       1.758  -2.361   0.973  1.00  0.00    -0.068 SA
BRANCH   9  10
ATOM     10  C   UNL     1       0.379  -2.108  -0.068  1.00  0.00     0.191 A 
ATOM     11  N   UNL     1      -0.023  -0.898  -0.628  1.00  0.00    -0.202 N 
ATOM     12  C   UNL     1      -1.142  -0.801  -1.461  1.00  0.00     0.280 A 
ATOM     13  N   UNL     1      -0.259  -3.217  -0.296  1.00  0.00    -0.222 NA
ATOM     14  C   UNL     1      -1.881  -2.046  -1.701  1.00  0.00     0.069 A 
ATOM     15  O   UNL     1      -1.526   0.250  -1.975  1.00  0.00    -0.267 OA
ATOM     16  C   UNL     1      -1.398  -3.205  -1.103  1.00  0.00     0.079 A 
ATOM     17  C   UNL     1      -3.036  -2.056  -2.489  1.00  0.00     0.031 A 
ATOM     18  C   UNL     1      -2.089  -4.402  -1.305  1.00  0.00     0.030 A 
ATOM     19  C   UNL     1      -3.716  -3.255  -2.672  1.00  0.00     0.018 A 
ATOM     20  C   UNL     1      -3.248  -4.430  -2.086  1.00  0.00     0.018 A 
ATOM     21  Br  UNL     1      -5.291  -3.289  -3.715  1.00  0.00    -0.051 Br
BRANCH  11  22
ATOM     22  N   UNL     1       0.631   0.311  -0.376  1.00  0.00    -0.334 N 
ATOM     23  H   UNL     1       1.428   0.329   0.201  1.00  0.00     0.178 HD
ATOM     24  H   UNL     1       0.294   1.145  -0.776  1.00  0.00     0.178 HD
ENDBRANCH  11  22
ENDBRANCH   9  10
ENDBRANCH   8   9
BRANCH   8  25
ATOM     25  C   UNL     1       1.655   0.139   2.327  1.00  0.00    -0.025 A 
ATOM     26  C   UNL     1       0.508  -0.317   3.010  1.00  0.00     0.005 A 
ATOM     27  C   UNL     1       1.965   1.506   2.452  1.00  0.00     0.005 A 
ATOM     28  C   UNL     1      -0.355   0.569   3.663  1.00  0.00     0.000 A 
ATOM     29  C   UNL     1       1.101   2.394   3.102  1.00  0.00     0.000 A 
ATOM     30  C   UNL     1      -0.070   1.929   3.688  1.00  0.00     0.000 A 
ENDBRANCH   8  25
ENDBRANCH   5   8
ENDBRANCH   3   4
ENDBRANCH   2   3
ENDBRANCH   1   2
BRANCH   1  31
ATOM     31  C   UNL     1       6.520  -2.502  -2.728  1.00  0.00     0.002 C 
BRANCH  31  32
ATOM     32  C   UNL     1       7.368  -3.692  -2.281  1.00  0.00     0.021 C 
BRANCH  32  33
ATOM     33  C   UNL     1       7.079  -5.000  -3.007  1.00  0.00     0.116 C 
BRANCH  33  34
ATOM     34  N   UNL     1       7.473  -4.971  -4.407  1.00  0.00    -0.352 N 
ATOM     35  C   UNL     1       8.282  -5.835  -5.106  1.00  0.00     0.251 C 
ATOM     36  H   UNL     1       7.107  -4.222  -4.930  1.00  0.00     0.163 HD
ATOM     37  O   UNL     1       8.624  -5.566  -6.255  1.00  0.00    -0.269 OA
BRANCH  35  38
ATOM     38  C   UNL     1       8.773  -7.077  -4.467  1.00  0.00     0.039 A 
ATOM     39  C   UNL     1       7.925  -7.866  -3.688  1.00  0.00     0.014 A 
ATOM     40  C   UNL     1      10.106  -7.459  -4.649  1.00  0.00     0.014 A 
ATOM     41  C   UNL     1       8.447  -8.928  -2.958  1.00  0.00     0.010 A 
ATOM     42  C   UNL     1      10.608  -8.587  -3.987  1.00  0.00     0.010 A 
ATOM     43  C   UNL     1       9.794  -9.304  -3.098  1.00  0.00    -0.014 A 
BRANCH  43  44
ATOM     44  C   UNL     1      10.306 -10.457  -2.309  1.00  0.00     0.031 A 
ATOM     45  C   UNL     1      11.355 -10.267  -1.247  1.00  0.00     0.074 A 
ATOM     46  C   UNL     1       9.750 -11.671  -2.495  1.00  0.00     0.049 A 
ATOM     47  N   UNL     1      11.836 -11.143  -0.399  1.00  0.00    -0.248 NA
ATOM     48  C   UNL     1      11.946  -8.926  -1.114  1.00  0.00     0.031 C 
ATOM     49  C   UNL     1       8.725 -11.978  -3.495  1.00  0.00     0.029 A 
ATOM     50  N   UNL     1       9.929 -12.858  -1.830  1.00  0.00    -0.354 N 
ATOM     51  C   UNL     1      12.780 -10.463   0.360  1.00  0.00     0.074 A 
ATOM     52  C   UNL     1      12.838  -9.112  -0.151  1.00  0.00     0.031 C 
ATOM     53  C   UNL     1       8.308 -13.241  -3.324  1.00  0.00     0.029 A 
ATOM     54  C   UNL     1       9.078 -13.854  -2.246  1.00  0.00     0.049 A 
ATOM     55  H   UNL     1      10.603 -12.985  -1.123  1.00  0.00     0.167 HD
ATOM     56  C   UNL     1      13.514 -10.920   1.403  1.00  0.00     0.037 A 
ATOM     57  C   UNL     1       8.928 -15.118  -1.807  1.00  0.00     0.037 A 
ATOM     58  C   UNL     1      13.441 -12.261   1.923  1.00  0.00     0.049 A 
ATOM     59  C   UNL     1       9.793 -15.611  -0.681  1.00  0.00     0.074 A 
ATOM     60  C   UNL     1      14.140 -12.811   2.983  1.00  0.00     0.029 A 
ATOM     61  N   UNL     1      12.616 -13.258   1.426  1.00  0.00    -0.354 N 
ATOM     62  N   UNL     1      10.665 -14.949   0.038  1.00  0.00    -0.248 NA
ATOM     63  C   UNL     1       9.661 -17.028  -0.313  1.00  0.00     0.031 C 
ATOM     64  C   UNL     1      13.768 -14.152   3.103  1.00  0.00     0.029 A 
ATOM     65  C   UNL     1      12.804 -14.426   2.147  1.00  0.00     0.049 A 
ATOM     66  H   UNL     1      11.991 -13.153   0.673  1.00  0.00     0.167 HD
ATOM     67  C   UNL     1      11.172 -15.860   0.954  1.00  0.00     0.074 A 
ATOM     68  C   UNL     1      10.500 -17.119   0.710  1.00  0.00     0.031 C 
ATOM     69  C   UNL     1      12.114 -15.667   1.906  1.00  0.00     0.037 A 
BRANCH  56  70
ATOM     70  C   UNL     1      14.457  -9.967   2.075  1.00  0.00     0.064 A 
ATOM     71  C   UNL     1      13.986  -8.948   2.917  1.00  0.00     0.173 A 
ATOM     72  C   UNL     1      15.846 -10.135   1.961  1.00  0.00     0.173 A 
ATOM     73  F   UNL     1      12.668  -8.742   3.054  1.00  0.00    -0.203 F 
ATOM     74  C   UNL     1      14.871  -8.129   3.613  1.00  0.00     0.198 A 
ATOM     75  C   UNL     1      16.727  -9.330   2.678  1.00  0.00     0.198 A 
ATOM     76  F   UNL     1      16.348 -11.102   1.177  1.00  0.00    -0.203 F 
ATOM     77  F   UNL     1      14.398  -7.149   4.395  1.00  0.00    -0.200 F 
ATOM     78  C   UNL     1      16.239  -8.327   3.502  1.00  0.00     0.200 A 
ATOM     79  F   UNL     1      18.048  -9.533   2.583  1.00  0.00    -0.200 F 
ATOM     80  F   UNL     1      17.088  -7.552   4.192  1.00  0.00    -0.200 F 
ENDBRANCH  56  70
BRANCH  57  81
ATOM     81  C   UNL     1       7.896 -15.995  -2.421  1.00  0.00     0.064 A 
ATOM     82  C   UNL     1       6.766 -16.390  -1.692  1.00  0.00     0.173 A 
ATOM     83  C   UNL     1       8.004 -16.435  -3.748  1.00  0.00     0.173 A 
ATOM     84  F   UNL     1       6.627 -16.011  -0.413  1.00  0.00    -0.203 F 
ATOM     85  C   UNL     1       5.787 -17.198  -2.267  1.00  0.00     0.198 A 
ATOM     86  C   UNL     1       7.010 -17.218  -4.330  1.00  0.00     0.198 A 
ATOM     87  F   UNL     1       9.065 -16.082  -4.489  1.00  0.00    -0.203 F 
ATOM     88  F   UNL     1       4.732 -17.587  -1.538  1.00  0.00    -0.200 F 
ATOM     89  C   UNL     1       5.905 -17.603  -3.587  1.00  0.00     0.200 A 
ATOM     90  F   UNL     1       7.121 -17.593  -5.612  1.00  0.00    -0.200 F 
ATOM     91  F   UNL     1       4.956 -18.368  -4.143  1.00  0.00    -0.200 F 
ENDBRANCH  57  81
BRANCH  69  92
ATOM     92  C   UNL     1      12.472 -16.828   2.783  1.00  0.00     0.064 A 
ATOM     93  C   UNL     1      13.284 -17.871   2.315  1.00  0.00     0.173 A 
ATOM     94  C   UNL     1      12.091 -16.841   4.133  1.00  0.00     0.173 A 
ATOM     95  F   UNL     1      13.662 -17.906   1.029  1.00  0.00    -0.203 F 
ATOM     96  C   UNL     1      13.702 -18.887   3.170  1.00  0.00     0.198 A 
ATOM     97  C   UNL     1      12.531 -17.846   4.990  1.00  0.00     0.198 A 
ATOM     98  F   UNL     1      11.321 -15.860   4.628  1.00  0.00    -0.203 F 
ATOM     99  F   UNL     1      14.466 -19.883   2.699  1.00  0.00    -0.200 F 
ATOM    100  C   UNL     1      13.337 -18.866   4.508  1.00  0.00     0.200 A 
ATOM    101  F   UNL     1      12.190 -17.817   6.286  1.00  0.00    -0.200 F 
ATOM    102  F   UNL     1      13.763 -19.831   5.334  1.00  0.00    -0.200 F 
ENDBRANCH  69  92
ENDBRANCH  43  44
ENDBRANCH  35  38
ENDBRANCH  33  34
ENDBRANCH  32  33
ENDBRANCH  31  32
ENDBRANCH   1  31
TORSDOF 17
