REMARK SMILES COc1ccc([C@H]2CC(c3ccc(S(C)(=O)=O)cc3)=NN2c2ccc(C(=O)NCCCCCCNC(=O)c3ccc(-c4c5nc(c(-c6c(F)c(F)c(F)c(F)c6F)c6ccc([nH]6)c(-c6c(F)c(F)c(F)c(F)c6F)c6nc(c(-c7c(F)c(F)c(F)c(F)c7F)c7ccc4[nH]7)C=C6)C=C5)cc3)cc2)cc1OC
REMARK SMILES IDX 31 1 30 2 29 3 28 4 26 5 27 6 25 8 22 9 23 10 102 11 24 12
REMARK SMILES IDX 101 13 21 14 7 15 8 16 9 17 20 18 6 19 3 20 4 21 104 22 5 23
REMARK SMILES IDX 103 24 2 25 1 26 105 27 106 28 10 29 11 30 19 31 12 32 18 33
REMARK SMILES IDX 13 34 14 35 15 36 16 37 17 38 32 39 33 40 34 41 35 42 36 43
REMARK SMILES IDX 37 45 38 46 39 47 100 48 40 49 99 50 41 51 42 52 43 53 93 54
REMARK SMILES IDX 44 55 98 56 92 57 94 58 45 59 97 60 91 61 90 62 46 64 78 65
REMARK SMILES IDX 58 66 77 67 59 68 62 69 76 70 95 71 60 72 61 73 75 75 96 76
REMARK SMILES IDX 63 77 47 78 48 79 56 80 49 81 50 82 54 83 57 84 51 85 52 86
REMARK SMILES IDX 55 87 53 88 79 89 80 90 88 91 81 92 82 93 86 94 89 95 83 96
REMARK SMILES IDX 84 97 87 98 85 99 64 100 65 101 73 102 66 103 67 104 71 105
REMARK SMILES IDX 74 106 68 107 69 108 72 109 70 110
REMARK H PARENT 28 7 35 44 94 63 62 74
REMARK Flexibility Score: inf
ROOT
ATOM      1  C   UNL     1       1.515  -2.197  11.225  1.00  0.00     0.002 C 
ENDROOT
BRANCH   1   2
ATOM      2  C   UNL     1       1.444  -2.952   9.889  1.00  0.00     0.021 C 
BRANCH   2   3
ATOM      3  C   UNL     1       1.823  -2.081   8.689  1.00  0.00     0.116 C 
BRANCH   3   4
ATOM      4  N   UNL     1       3.260  -1.914   8.643  1.00  0.00    -0.352 N 
ATOM      5  C   UNL     1       4.238  -2.523   7.903  1.00  0.00     0.251 C 
ATOM      6  O   UNL     1       5.403  -2.191   8.125  1.00  0.00    -0.269 OA
ATOM      7  H   UNL     1       3.601  -1.230   9.264  1.00  0.00     0.163 HD
BRANCH   5   8
ATOM      8  C   UNL     1       3.954  -3.501   6.817  1.00  0.00     0.039 A 
ATOM      9  C   UNL     1       3.539  -5.207   4.601  1.00  0.00     0.060 A 
ATOM     10  C   UNL     1       4.689  -4.415   4.694  1.00  0.00     0.029 A 
ATOM     11  C   UNL     1       2.631  -5.181   5.660  1.00  0.00     0.029 A 
ATOM     12  C   UNL     1       4.885  -3.555   5.773  1.00  0.00     0.016 A 
ATOM     13  C   UNL     1       2.860  -4.369   6.779  1.00  0.00     0.016 A 
BRANCH   9  14
ATOM     14  N   UNL     1       3.354  -5.999   3.485  1.00  0.00    -0.257 N 
ATOM     15  C   UNL     1       2.165  -6.017   2.629  1.00  0.00     0.144 C 
ATOM     16  C   UNL     1       2.574  -7.037   1.552  1.00  0.00     0.091 C 
ATOM     17  C   UNL     1       3.708  -7.706   2.283  1.00  0.00     0.071 C 
ATOM     18  N   UNL     1       4.147  -7.087   3.332  1.00  0.00    -0.176 NA
BRANCH  15  19
ATOM     19  C   UNL     1       1.824  -4.635   2.099  1.00  0.00    -0.019 A 
ATOM     20  C   UNL     1       1.283  -1.955   1.391  1.00  0.00     0.160 A 
ATOM     21  C   UNL     1       0.268  -2.779   1.897  1.00  0.00     0.051 A 
ATOM     22  C   UNL     1       2.572  -2.467   1.210  1.00  0.00     0.161 A 
ATOM     23  C   UNL     1       0.533  -4.109   2.243  1.00  0.00     0.010 A 
ATOM     24  C   UNL     1       2.818  -3.806   1.549  1.00  0.00     0.056 A 
BRANCH  20  25
ATOM     25  O   UNL     1       1.016  -0.624   1.214  1.00  0.00    -0.493 OA
ATOM     26  C   UNL     1       0.133  -0.385   0.120  1.00  0.00     0.278 C 
ENDBRANCH  20  25
BRANCH  22  27
ATOM     27  O   UNL     1       3.693  -1.827   0.758  1.00  0.00    -0.493 OA
ATOM     28  C   UNL     1       3.580  -0.485   0.310  1.00  0.00     0.278 C 
ENDBRANCH  22  27
ENDBRANCH  15  19
BRANCH  17  29
ATOM     29  C   UNL     1       4.279  -8.989   1.862  1.00  0.00    -0.002 A 
ATOM     30  C   UNL     1       4.392  -9.997   2.828  1.00  0.00     0.011 A 
ATOM     31  C   UNL     1       4.772  -9.175   0.570  1.00  0.00     0.011 A 
ATOM     32  C   UNL     1       4.995 -11.209   2.502  1.00  0.00     0.021 A 
ATOM     33  C   UNL     1       5.403 -10.380   0.248  1.00  0.00     0.021 A 
ATOM     34  C   UNL     1       5.516 -11.386   1.218  1.00  0.00     0.067 A 
BRANCH  34  35
ATOM     35  S   UNL     1       6.325 -12.920   0.825  1.00  0.00     0.175 S 
ATOM     36  C   UNL     1       7.689 -13.001   1.959  1.00  0.00     0.163 C 
ATOM     37  O   UNL     1       5.388 -13.979   1.159  1.00  0.00    -0.224 OA
ATOM     38  O   UNL     1       6.871 -12.800  -0.510  1.00  0.00    -0.224 OA
ENDBRANCH  34  35
ENDBRANCH  17  29
ENDBRANCH   9  14
ENDBRANCH   5   8
ENDBRANCH   3   4
ENDBRANCH   2   3
ENDBRANCH   1   2
BRANCH   1  39
ATOM     39  C   UNL     1       0.517  -1.041  11.361  1.00  0.00     0.002 C 
BRANCH  39  40
ATOM     40  C   UNL     1      -0.948  -1.426  11.139  1.00  0.00     0.021 C 
BRANCH  40  41
ATOM     41  C   UNL     1      -1.476  -2.469  12.118  1.00  0.00     0.116 C 
BRANCH  41  42
ATOM     42  N   UNL     1      -1.532  -1.952  13.476  1.00  0.00    -0.352 N 
ATOM     43  C   UNL     1      -2.593  -1.917  14.344  1.00  0.00     0.251 C 
ATOM     44  H   UNL     1      -0.691  -1.573  13.820  1.00  0.00     0.163 HD
ATOM     45  O   UNL     1      -2.535  -1.252  15.372  1.00  0.00    -0.269 OA
BRANCH  43  46
ATOM     46  C   UNL     1      -3.818  -2.681  14.031  1.00  0.00     0.039 A 
ATOM     47  C   UNL     1      -5.062  -2.068  14.202  1.00  0.00     0.014 A 
ATOM     48  C   UNL     1      -3.738  -4.005  13.589  1.00  0.00     0.014 A 
ATOM     49  C   UNL     1      -6.227  -2.769  13.885  1.00  0.00     0.010 A 
ATOM     50  C   UNL     1      -4.894  -4.680  13.214  1.00  0.00     0.010 A 
ATOM     51  C   UNL     1      -6.150  -4.072  13.368  1.00  0.00    -0.014 A 
BRANCH  51  52
ATOM     52  C   UNL     1      -7.371  -4.828  13.001  1.00  0.00     0.031 A 
ATOM     53  C   UNL     1      -7.749  -6.061  13.770  1.00  0.00     0.074 A 
ATOM     54  C   UNL     1      -8.097  -4.446  11.934  1.00  0.00     0.049 A 
ATOM     55  N   UNL     1      -8.731  -6.901  13.561  1.00  0.00    -0.248 NA
ATOM     56  C   UNL     1      -6.890  -6.413  14.911  1.00  0.00     0.031 C 
ATOM     57  C   UNL     1      -7.809  -3.289  11.086  1.00  0.00     0.029 A 
ATOM     58  N   UNL     1      -9.223  -4.997  11.376  1.00  0.00    -0.354 N 
ATOM     59  C   UNL     1      -8.592  -7.891  14.524  1.00  0.00     0.074 A 
ATOM     60  C   UNL     1      -7.406  -7.573  15.290  1.00  0.00     0.031 C 
ATOM     61  C   UNL     1      -8.749  -3.200  10.132  1.00  0.00     0.029 A 
ATOM     62  C   UNL     1      -9.684  -4.312  10.280  1.00  0.00     0.049 A 
ATOM     63  H   UNL     1      -9.658  -5.806  11.728  1.00  0.00     0.167 HD
ATOM     64  C   UNL     1      -9.392  -8.958  14.761  1.00  0.00     0.037 A 
ATOM     65  C   UNL     1     -10.742  -4.556   9.484  1.00  0.00     0.037 A 
ATOM     66  C   UNL     1     -10.591  -9.249  14.020  1.00  0.00     0.049 A 
ATOM     67  C   UNL     1     -11.615  -5.747   9.767  1.00  0.00     0.074 A 
ATOM     68  C   UNL     1     -11.515 -10.257  14.232  1.00  0.00     0.029 A 
ATOM     69  N   UNL     1     -11.030  -8.529  12.918  1.00  0.00    -0.354 N 
ATOM     70  N   UNL     1     -11.515  -6.639  10.721  1.00  0.00    -0.248 NA
ATOM     71  C   UNL     1     -12.751  -5.963   8.859  1.00  0.00     0.031 C 
ATOM     72  C   UNL     1     -12.490 -10.173  13.232  1.00  0.00     0.029 A 
ATOM     73  C   UNL     1     -12.198  -9.085  12.424  1.00  0.00     0.049 A 
ATOM     74  H   UNL     1     -10.578  -7.738  12.544  1.00  0.00     0.167 HD
ATOM     75  C   UNL     1     -12.587  -7.503  10.551  1.00  0.00     0.074 A 
ATOM     76  C   UNL     1     -13.330  -7.024   9.403  1.00  0.00     0.031 C 
ATOM     77  C   UNL     1     -12.928  -8.592  11.283  1.00  0.00     0.037 A 
BRANCH  64  78
ATOM     78  C   UNL     1      -8.986  -9.892  15.864  1.00  0.00     0.064 A 
ATOM     79  C   UNL     1      -9.046  -9.511  17.214  1.00  0.00     0.173 A 
ATOM     80  C   UNL     1      -8.537 -11.187  15.568  1.00  0.00     0.173 A 
ATOM     81  F   UNL     1      -9.456  -8.279  17.550  1.00  0.00    -0.203 F 
ATOM     82  C   UNL     1      -8.632 -10.378  18.222  1.00  0.00     0.198 A 
ATOM     83  C   UNL     1      -8.153 -12.062  16.581  1.00  0.00     0.198 A 
ATOM     84  F   UNL     1      -8.466 -11.605  14.295  1.00  0.00    -0.203 F 
ATOM     85  F   UNL     1      -8.640  -9.970  19.499  1.00  0.00    -0.200 F 
ATOM     86  C   UNL     1      -8.190 -11.654  17.905  1.00  0.00     0.200 A 
ATOM     87  F   UNL     1      -7.737 -13.299  16.274  1.00  0.00    -0.200 F 
ATOM     88  F   UNL     1      -7.790 -12.486  18.877  1.00  0.00    -0.200 F 
ENDBRANCH  64  78
BRANCH  65  89
ATOM     89  C   UNL     1     -11.059  -3.622   8.374  1.00  0.00     0.064 A 
ATOM     90  C   UNL     1     -12.164  -2.764   8.461  1.00  0.00     0.173 A 
ATOM     91  C   UNL     1     -10.261  -3.550   7.224  1.00  0.00     0.173 A 
ATOM     92  F   UNL     1     -12.966  -2.812   9.534  1.00  0.00    -0.203 F 
ATOM     93  C   UNL     1     -12.465  -1.874   7.433  1.00  0.00     0.198 A 
ATOM     94  C   UNL     1     -10.550  -2.643   6.206  1.00  0.00     0.198 A 
ATOM     95  F   UNL     1      -9.191  -4.347   7.097  1.00  0.00    -0.203 F 
ATOM     96  F   UNL     1     -13.544  -1.085   7.527  1.00  0.00    -0.200 F 
ATOM     97  C   UNL     1     -11.654  -1.809   6.309  1.00  0.00     0.200 A 
ATOM     98  F   UNL     1      -9.758  -2.574   5.128  1.00  0.00    -0.200 F 
ATOM     99  F   UNL     1     -11.938  -0.946   5.324  1.00  0.00    -0.200 F 
ENDBRANCH  65  89
BRANCH  77 100
ATOM    100  C   UNL     1     -14.177  -9.322  10.886  1.00  0.00     0.064 A 
ATOM    101  C   UNL     1     -14.225 -10.126   9.737  1.00  0.00     0.173 A 
ATOM    102  C   UNL     1     -15.325  -9.249  11.688  1.00  0.00     0.173 A 
ATOM    103  F   UNL     1     -13.157 -10.214   8.930  1.00  0.00    -0.203 F 
ATOM    104  C   UNL     1     -15.386 -10.814   9.395  1.00  0.00     0.198 A 
ATOM    105  C   UNL     1     -16.476  -9.960  11.357  1.00  0.00     0.198 A 
ATOM    106  F   UNL     1     -15.328  -8.498  12.799  1.00  0.00    -0.203 F 
ATOM    107  F   UNL     1     -15.424 -11.542   8.271  1.00  0.00    -0.200 F 
ATOM    108  C   UNL     1     -16.507 -10.736  10.209  1.00  0.00     0.200 A 
ATOM    109  F   UNL     1     -17.554  -9.892  12.150  1.00  0.00    -0.200 F 
ATOM    110  F   UNL     1     -17.621 -11.405   9.881  1.00  0.00    -0.200 F 
ENDBRANCH  77 100
ENDBRANCH  51  52
ENDBRANCH  43  46
ENDBRANCH  41  42
ENDBRANCH  40  41
ENDBRANCH  39  40
ENDBRANCH   1  39
TORSDOF 19
