REMARK SMILES Cc1cc(C)n(CC(=O)N[C@@H]2C(=O)N3C(C(=O)NCCCCCCNC(=O)c4ccc(-c5c6nc(c(-c7c(F)c(F)c(F)c(F)c7F)c7ccc([nH]7)c(-c7c(F)c(F)c(F)c(F)c7F)c7nc(c(-c8c(F)c(F)c(F)c(F)c8F)c8ccc5[nH]8)C=C7)C=C6)cc4)=C(CSc4nnc(C)s4)CS[C@H]23)n1
REMARK SMILES IDX 21 1 20 2 19 3 18 4 16 5 17 6 15 8 11 9 12 10 102 11 13 12
REMARK SMILES IDX 14 13 101 14 100 15 91 16 10 17 8 18 9 19 7 21 6 22 1 23
REMARK SMILES IDX 2 24 3 25 103 26 4 27 5 28 92 29 93 30 94 31 95 32 99 33
REMARK SMILES IDX 96 34 97 35 98 36 22 37 23 38 24 39 25 40 26 41 27 43 28 44
REMARK SMILES IDX 29 45 90 46 30 47 89 48 31 49 32 50 33 51 83 52 34 53 88 54
REMARK SMILES IDX 82 55 84 56 35 57 87 58 81 59 80 60 36 62 68 63 48 64 67 65
REMARK SMILES IDX 49 66 52 67 66 68 85 69 50 70 51 71 65 73 86 74 53 75 37 76
REMARK SMILES IDX 38 77 46 78 39 79 40 80 44 81 47 82 41 83 42 84 45 85 43 86
REMARK SMILES IDX 69 87 70 88 78 89 71 90 72 91 76 92 79 93 73 94 74 95 77 96
REMARK SMILES IDX 75 97 54 98 55 99 63 100 56 101 57 102 61 103 64 104 58 105
REMARK SMILES IDX 59 106 62 107 60 108
REMARK H PARENT 18 7 10 20 25 42 84 61 52 72
REMARK Flexibility Score: inf
ROOT
ATOM      1  C   UNL     1       2.628  -3.505   1.221  1.00  0.00     0.002 C 
ENDROOT
BRANCH   1   2
ATOM      2  C   UNL     1       2.380  -2.704  -0.058  1.00  0.00     0.021 C 
BRANCH   2   3
ATOM      3  C   UNL     1       1.060  -1.961  -0.208  1.00  0.00     0.116 C 
BRANCH   3   4
ATOM      4  N   UNL     1       0.861  -0.729   0.503  1.00  0.00    -0.351 N 
ATOM      5  C   UNL     1       0.080   0.353   0.202  1.00  0.00     0.268 C 
ATOM      6  O   UNL     1      -0.136   1.133   1.140  1.00  0.00    -0.268 OA
ATOM      7  H   UNL     1       1.368  -0.651   1.343  1.00  0.00     0.163 HD
BRANCH   5   8
ATOM      8  C   UNL     1      -0.559   0.686  -1.157  1.00  0.00     0.111 C 
ATOM      9  C   UNL     1      -0.808   4.010  -1.882  1.00  0.00     0.205 C 
ATOM     10  C   UNL     1       0.197   3.114  -1.108  1.00  0.00     0.253 C 
ATOM     11  C   UNL     1      -1.723   2.760  -1.794  1.00  0.00     0.181 C 
ATOM     12  O   UNL     1       1.213   3.309  -0.465  1.00  0.00    -0.272 OA
ATOM     13  N   UNL     1      -0.528   2.026  -1.449  1.00  0.00    -0.290 N 
ATOM     14  S   UNL     1      -2.511   2.189  -3.287  1.00  0.00    -0.129 SA
ATOM     15  C   UNL     1      -1.944   0.480  -3.280  1.00  0.00     0.106 C 
ATOM     16  C   UNL     1      -1.245  -0.086  -2.046  1.00  0.00    -0.020 C 
BRANCH   9  17
ATOM     17  N   UNL     1      -0.436   4.655  -3.179  1.00  0.00    -0.340 N 
ATOM     18  C   UNL     1       0.198   4.277  -4.326  1.00  0.00     0.242 C 
ATOM     19  O   UNL     1       0.321   5.172  -5.177  1.00  0.00    -0.273 OA
ATOM     20  H   UNL     1      -0.724   5.596  -3.213  1.00  0.00     0.164 HD
BRANCH  18  21
ATOM     21  C   UNL     1       0.688   2.889  -4.646  1.00  0.00     0.244 C 
BRANCH  21  22
ATOM     22  N   UNL     1       1.922   2.548  -3.975  1.00  0.00    -0.260 N 
ATOM     23  C   UNL     1       3.401   0.762  -1.330  1.00  0.00     0.069 C 
ATOM     24  C   UNL     1       3.113   1.597  -2.511  1.00  0.00     0.060 A 
ATOM     25  C   UNL     1       3.979   2.427  -3.245  1.00  0.00     0.048 A 
ATOM     26  N   UNL     1       1.880   1.612  -3.016  1.00  0.00    -0.178 NA
ATOM     27  C   UNL     1       3.193   2.991  -4.229  1.00  0.00     0.036 A 
ATOM     28  C   UNL     1       3.542   3.899  -5.344  1.00  0.00     0.066 C 
ENDBRANCH  21  22
ENDBRANCH  18  21
ENDBRANCH   9  17
BRANCH  16  29
ATOM     29  C   UNL     1      -1.494  -1.564  -1.954  1.00  0.00     0.111 C 
BRANCH  29  30
ATOM     30  S   UNL     1      -0.908  -2.629  -3.302  1.00  0.00    -0.089 SA
BRANCH  30  31
ATOM     31  C   UNL     1       0.657  -2.107  -3.905  1.00  0.00     0.174 A 
ATOM     32  N   UNL     1       0.834  -0.997  -4.588  1.00  0.00    -0.132 NA
ATOM     33  S   UNL     1       1.982  -3.209  -4.036  1.00  0.00    -0.091 S 
ATOM     34  N   UNL     1       2.015  -1.008  -5.322  1.00  0.00    -0.143 NA
ATOM     35  C   UNL     1       2.675  -2.139  -5.190  1.00  0.00     0.115 A 
ATOM     36  C   UNL     1       3.853  -2.539  -6.010  1.00  0.00     0.081 C 
ENDBRANCH  30  31
ENDBRANCH  29  30
ENDBRANCH  16  29
ENDBRANCH   5   8
ENDBRANCH   3   4
ENDBRANCH   2   3
ENDBRANCH   1   2
BRANCH   1  37
ATOM     37  C   UNL     1       1.503  -4.392   1.774  1.00  0.00     0.002 C 
BRANCH  37  38
ATOM     38  C   UNL     1       0.777  -5.355   0.825  1.00  0.00     0.021 C 
BRANCH  38  39
ATOM     39  C   UNL     1       1.659  -6.351   0.091  1.00  0.00     0.116 C 
BRANCH  39  40
ATOM     40  N   UNL     1       2.361  -7.279   0.971  1.00  0.00    -0.352 N 
ATOM     41  C   UNL     1       3.235  -8.286   0.608  1.00  0.00     0.251 C 
ATOM     42  H   UNL     1       2.191  -7.177   1.935  1.00  0.00     0.163 HD
ATOM     43  O   UNL     1       3.501  -9.203   1.375  1.00  0.00    -0.269 OA
BRANCH  41  44
ATOM     44  C   UNL     1       3.837  -8.248  -0.737  1.00  0.00     0.039 A 
ATOM     45  C   UNL     1       3.917  -9.400  -1.523  1.00  0.00     0.014 A 
ATOM     46  C   UNL     1       4.283  -7.022  -1.225  1.00  0.00     0.014 A 
ATOM     47  C   UNL     1       4.364  -9.289  -2.838  1.00  0.00     0.010 A 
ATOM     48  C   UNL     1       4.588  -6.890  -2.559  1.00  0.00     0.010 A 
ATOM     49  C   UNL     1       4.672  -8.023  -3.363  1.00  0.00    -0.014 A 
BRANCH  49  50
ATOM     50  C   UNL     1       4.997  -7.869  -4.780  1.00  0.00     0.031 A 
ATOM     51  C   UNL     1       4.012  -8.448  -5.741  1.00  0.00     0.074 A 
ATOM     52  C   UNL     1       6.006  -7.090  -5.226  1.00  0.00     0.049 A 
ATOM     53  N   UNL     1       4.213  -9.377  -6.619  1.00  0.00    -0.248 NA
ATOM     54  C   UNL     1       2.616  -7.989  -5.671  1.00  0.00     0.031 C 
ATOM     55  C   UNL     1       6.897  -6.213  -4.459  1.00  0.00     0.029 A 
ATOM     56  N   UNL     1       6.384  -6.848  -6.512  1.00  0.00    -0.354 N 
ATOM     57  C   UNL     1       3.015  -9.529  -7.316  1.00  0.00     0.074 A 
ATOM     58  C   UNL     1       2.037  -8.736  -6.615  1.00  0.00     0.031 C 
ATOM     59  C   UNL     1       7.551  -5.383  -5.300  1.00  0.00     0.029 A 
ATOM     60  C   UNL     1       7.257  -5.779  -6.664  1.00  0.00     0.049 A 
ATOM     61  H   UNL     1       6.065  -7.387  -7.271  1.00  0.00     0.167 HD
ATOM     62  C   UNL     1       2.968 -10.153  -8.527  1.00  0.00     0.037 A 
ATOM     63  C   UNL     1       7.691  -5.244  -7.832  1.00  0.00     0.037 A 
ATOM     64  C   UNL     1       4.150 -10.942  -8.757  1.00  0.00     0.049 A 
ATOM     65  C   UNL     1       7.489  -6.271  -8.883  1.00  0.00     0.074 A 
ATOM     66  C   UNL     1       4.734 -12.019  -8.119  1.00  0.00     0.029 A 
ATOM     67  N   UNL     1       5.125 -10.432  -9.578  1.00  0.00    -0.354 N 
ATOM     68  N   UNL     1       8.173  -7.378  -8.953  1.00  0.00    -0.248 NA
ATOM     69  C   UNL     1       6.224  -6.271  -9.603  1.00  0.00     0.031 C 
ATOM     70  C   UNL     1       6.137 -11.773  -8.195  1.00  0.00     0.029 A 
ATOM     71  C   UNL     1       6.318 -10.598  -8.925  1.00  0.00     0.049 A 
ATOM     72  H   UNL     1       4.992 -10.026 -10.465  1.00  0.00     0.167 HD
ATOM     73  C   UNL     1       7.252  -8.336  -9.345  1.00  0.00     0.074 A 
ATOM     74  C   UNL     1       6.097  -7.582  -9.827  1.00  0.00     0.031 C 
ATOM     75  C   UNL     1       7.398  -9.643  -8.982  1.00  0.00     0.037 A 
BRANCH  62  76
ATOM     76  C   UNL     1       2.017  -9.803  -9.644  1.00  0.00     0.064 A 
ATOM     77  C   UNL     1       1.953 -10.628 -10.786  1.00  0.00     0.173 A 
ATOM     78  C   UNL     1       1.403  -8.539  -9.771  1.00  0.00     0.173 A 
ATOM     79  F   UNL     1       2.519 -11.844 -10.784  1.00  0.00    -0.203 F 
ATOM     80  C   UNL     1       1.389 -10.186 -11.987  1.00  0.00     0.198 A 
ATOM     81  C   UNL     1       0.795  -8.122 -10.955  1.00  0.00     0.198 A 
ATOM     82  F   UNL     1       1.468  -7.619  -8.802  1.00  0.00    -0.203 F 
ATOM     83  F   UNL     1       1.467 -10.954 -13.082  1.00  0.00    -0.200 F 
ATOM     84  C   UNL     1       0.818  -8.930 -12.072  1.00  0.00     0.200 A 
ATOM     85  F   UNL     1       0.263  -6.893 -11.023  1.00  0.00    -0.200 F 
ATOM     86  F   UNL     1       0.337  -8.478 -13.237  1.00  0.00    -0.200 F 
ENDBRANCH  62  76
BRANCH  63  87
ATOM     87  C   UNL     1       8.033  -3.837  -8.146  1.00  0.00     0.064 A 
ATOM     88  C   UNL     1       8.691  -3.502  -9.340  1.00  0.00     0.173 A 
ATOM     89  C   UNL     1       7.465  -2.768  -7.428  1.00  0.00     0.173 A 
ATOM     90  F   UNL     1       9.244  -4.461 -10.097  1.00  0.00    -0.203 F 
ATOM     91  C   UNL     1       8.725  -2.187  -9.816  1.00  0.00     0.198 A 
ATOM     92  C   UNL     1       7.497  -1.457  -7.904  1.00  0.00     0.198 A 
ATOM     93  F   UNL     1       6.782  -2.985  -6.296  1.00  0.00    -0.203 F 
ATOM     94  F   UNL     1       9.301  -1.920 -10.997  1.00  0.00    -0.200 F 
ATOM     95  C   UNL     1       8.110  -1.169  -9.108  1.00  0.00     0.200 A 
ATOM     96  F   UNL     1       6.867  -0.490  -7.222  1.00  0.00    -0.200 F 
ATOM     97  F   UNL     1       8.070   0.075  -9.603  1.00  0.00    -0.200 F 
ENDBRANCH  63  87
BRANCH  75  98
ATOM     98  C   UNL     1       8.704 -10.056  -8.361  1.00  0.00     0.064 A 
ATOM     99  C   UNL     1       9.190  -9.547  -7.143  1.00  0.00     0.173 A 
ATOM    100  C   UNL     1       9.421 -11.105  -8.950  1.00  0.00     0.173 A 
ATOM    101  F   UNL     1       8.509  -8.618  -6.462  1.00  0.00    -0.203 F 
ATOM    102  C   UNL     1      10.364 -10.032  -6.572  1.00  0.00     0.198 A 
ATOM    103  C   UNL     1      10.573 -11.614  -8.358  1.00  0.00     0.198 A 
ATOM    104  F   UNL     1       8.974 -11.671 -10.082  1.00  0.00    -0.203 F 
ATOM    105  F   UNL     1      10.813  -9.517  -5.417  1.00  0.00    -0.200 F 
ATOM    106  C   UNL     1      11.052 -11.070  -7.176  1.00  0.00     0.200 A 
ATOM    107  F   UNL     1      11.207 -12.653  -8.920  1.00  0.00    -0.200 F 
ATOM    108  F   UNL     1      12.160 -11.566  -6.608  1.00  0.00    -0.200 F 
ENDBRANCH  75  98
ENDBRANCH  49  50
ENDBRANCH  41  44
ENDBRANCH  39  40
ENDBRANCH  38  39
ENDBRANCH  37  38
ENDBRANCH   1  37
TORSDOF 19
