REMARK SMILES CCOC(=O)c1ccc(-c2ccc(C(=O)NCCCCCCNC(=O)c3ccc(-c4c5nc(c(-c6c(F)c(F)c(F)c(F)c6F)c6ccc([nH]6)c(-c6c(F)c(F)c(F)c(F)c6F)c6nc(c(-c7c(F)c(F)c(F)c(F)c7F)c7ccc4[nH]7)C=C6)C=C5)cc3)o2)cc1
REMARK SMILES IDX 18 1 17 2 16 3 14 4 15 5 13 7 10 8 11 9 89 10 12 11 9 12
REMARK SMILES IDX 6 13 7 14 91 15 8 16 90 17 4 18 5 19 3 20 2 21 1 22 19 23
REMARK SMILES IDX 20 24 21 25 22 26 23 27 24 28 25 30 26 31 27 32 88 33 28 34
REMARK SMILES IDX 87 35 29 36 30 37 31 38 81 39 32 40 86 41 80 42 82 43 33 44
REMARK SMILES IDX 85 45 79 46 78 47 34 49 66 50 46 51 65 52 47 53 50 54 64 55
REMARK SMILES IDX 83 56 48 57 49 58 63 60 84 61 51 62 35 63 36 64 44 65 37 66
REMARK SMILES IDX 38 67 42 68 45 69 39 70 40 71 43 72 41 73 67 74 68 75 76 76
REMARK SMILES IDX 69 77 70 78 74 79 77 80 71 81 72 82 75 83 73 84 52 85 53 86
REMARK SMILES IDX 61 87 54 88 55 89 59 90 62 91 56 92 57 93 60 94 58 95
REMARK H PARENT 16 6 23 29 82 48 50 59
REMARK Flexibility Score: inf
ROOT
ATOM      1  C   UNL     1       7.875   8.587   8.928  1.00  0.00     0.021 C 
ENDROOT
BRANCH   1   2
ATOM      2  C   UNL     1       6.413   8.832   8.552  1.00  0.00     0.116 C 
BRANCH   2   3
ATOM      3  N   UNL     1       6.278   9.123   7.140  1.00  0.00    -0.349 N 
ATOM      4  C   UNL     1       5.847   8.359   6.079  1.00  0.00     0.287 C 
ATOM      5  O   UNL     1       5.800   8.945   4.994  1.00  0.00    -0.266 OA
ATOM      6  H   UNL     1       6.543  10.038   6.893  1.00  0.00     0.163 HD
BRANCH   4   7
ATOM      7  C   UNL     1       5.463   6.966   6.239  1.00  0.00     0.192 A 
ATOM      8  C   UNL     1       4.491   5.107   5.522  1.00  0.00     0.135 A 
ATOM      9  C   UNL     1       4.969   4.829   6.781  1.00  0.00     0.052 A 
ATOM     10  O   UNL     1       4.784   6.390   5.183  1.00  0.00    -0.451 OA
ATOM     11  C   UNL     1       5.638   5.998   7.215  1.00  0.00     0.057 A 
BRANCH   8  12
ATOM     12  C   UNL     1       3.835   4.289   4.521  1.00  0.00     0.017 A 
ATOM     13  C   UNL     1       2.804   2.365   2.763  1.00  0.00     0.060 A 
ATOM     14  C   UNL     1       3.983   3.048   2.442  1.00  0.00     0.016 A 
ATOM     15  C   UNL     1       2.105   2.688   3.932  1.00  0.00     0.016 A 
ATOM     16  C   UNL     1       4.486   4.019   3.311  1.00  0.00     0.013 A 
ATOM     17  C   UNL     1       2.627   3.642   4.812  1.00  0.00     0.013 A 
BRANCH  13  18
ATOM     18  C   UNL     1       2.405   1.218   1.918  1.00  0.00     0.338 C 
ATOM     19  O   UNL     1       3.213   0.500   1.352  1.00  0.00    -0.246 OA
BRANCH  18  20
ATOM     20  O   UNL     1       1.056   1.091   1.898  1.00  0.00    -0.462 OA
BRANCH  20  21
ATOM     21  C   UNL     1       0.556  -0.080   1.235  1.00  0.00     0.230 C 
ATOM     22  C   UNL     1       0.662   0.022  -0.277  1.00  0.00     0.049 C 
ENDBRANCH  20  21
ENDBRANCH  18  20
ENDBRANCH  13  18
ENDBRANCH   8  12
ENDBRANCH   4   7
ENDBRANCH   2   3
ENDBRANCH   1   2
BRANCH   1  23
ATOM     23  C   UNL     1       8.667   9.879   9.181  1.00  0.00     0.002 C 
BRANCH  23  24
ATOM     24  C   UNL     1       8.177  10.729  10.362  1.00  0.00     0.002 C 
BRANCH  24  25
ATOM     25  C   UNL     1       8.053   9.992  11.699  1.00  0.00     0.021 C 
BRANCH  25  26
ATOM     26  C   UNL     1       9.357   9.400  12.229  1.00  0.00     0.116 C 
BRANCH  26  27
ATOM     27  N   UNL     1      10.324  10.430  12.570  1.00  0.00    -0.352 N 
ATOM     28  C   UNL     1      11.003  10.640  13.743  1.00  0.00     0.251 C 
ATOM     29  H   UNL     1      10.522  11.073  11.851  1.00  0.00     0.163 HD
ATOM     30  O   UNL     1      11.636  11.680  13.908  1.00  0.00    -0.269 OA
BRANCH  28  31
ATOM     31  C   UNL     1      10.970   9.629  14.822  1.00  0.00     0.039 A 
ATOM     32  C   UNL     1      10.806  10.060  16.142  1.00  0.00     0.014 A 
ATOM     33  C   UNL     1      11.144   8.269  14.546  1.00  0.00     0.014 A 
ATOM     34  C   UNL     1      10.769   9.126  17.180  1.00  0.00     0.010 A 
ATOM     35  C   UNL     1      11.052   7.333  15.576  1.00  0.00     0.010 A 
ATOM     36  C   UNL     1      10.870   7.754  16.902  1.00  0.00    -0.014 A 
BRANCH  36  37
ATOM     37  C   UNL     1      10.794   6.747  17.989  1.00  0.00     0.031 A 
ATOM     38  C   UNL     1      12.001   5.927  18.348  1.00  0.00     0.074 A 
ATOM     39  C   UNL     1       9.622   6.532  18.616  1.00  0.00     0.049 A 
ATOM     40  N   UNL     1      12.115   4.961  19.225  1.00  0.00    -0.248 NA
ATOM     41  C   UNL     1      13.238   6.214  17.606  1.00  0.00     0.031 C 
ATOM     42  C   UNL     1       8.369   7.232  18.329  1.00  0.00     0.029 A 
ATOM     43  N   UNL     1       9.291   5.654  19.618  1.00  0.00    -0.354 N 
ATOM     44  C   UNL     1      13.426   4.516  19.128  1.00  0.00     0.074 A 
ATOM     45  C   UNL     1      14.059   5.288  18.080  1.00  0.00     0.031 C 
ATOM     46  C   UNL     1       7.410   6.768  19.146  1.00  0.00     0.029 A 
ATOM     47  C   UNL     1       7.972   5.721  19.994  1.00  0.00     0.049 A 
ATOM     48  H   UNL     1       9.938   5.035  20.028  1.00  0.00     0.167 HD
ATOM     49  C   UNL     1      14.051   3.562  19.860  1.00  0.00     0.037 A 
ATOM     50  C   UNL     1       7.293   5.015  20.918  1.00  0.00     0.037 A 
ATOM     51  C   UNL     1      13.432   2.818  20.925  1.00  0.00     0.049 A 
ATOM     52  C   UNL     1       8.015   3.975  21.729  1.00  0.00     0.074 A 
ATOM     53  C   UNL     1      14.001   1.880  21.768  1.00  0.00     0.029 A 
ATOM     54  N   UNL     1      12.100   2.932  21.294  1.00  0.00    -0.354 N 
ATOM     55  N   UNL     1       9.271   3.606  21.670  1.00  0.00    -0.248 NA
ATOM     56  C   UNL     1       7.225   3.258  22.740  1.00  0.00     0.031 C 
ATOM     57  C   UNL     1      13.005   1.402  22.627  1.00  0.00     0.029 A 
ATOM     58  C   UNL     1      11.824   2.069  22.342  1.00  0.00     0.049 A 
ATOM     59  H   UNL     1      11.447   3.537  20.874  1.00  0.00     0.167 HD
ATOM     60  C   UNL     1       9.428   2.632  22.646  1.00  0.00     0.074 A 
ATOM     61  C   UNL     1       8.142   2.476  23.293  1.00  0.00     0.031 C 
ATOM     62  C   UNL     1      10.539   1.930  22.976  1.00  0.00     0.037 A 
BRANCH  49  63
ATOM     63  C   UNL     1      15.487   3.273  19.537  1.00  0.00     0.064 A 
ATOM     64  C   UNL     1      16.509   4.174  19.869  1.00  0.00     0.173 A 
ATOM     65  C   UNL     1      15.849   2.066  18.920  1.00  0.00     0.173 A 
ATOM     66  F   UNL     1      16.212   5.347  20.449  1.00  0.00    -0.203 F 
ATOM     67  C   UNL     1      17.839   3.889  19.572  1.00  0.00     0.198 A 
ATOM     68  C   UNL     1      17.182   1.773  18.648  1.00  0.00     0.198 A 
ATOM     69  F   UNL     1      14.909   1.169  18.586  1.00  0.00    -0.203 F 
ATOM     70  F   UNL     1      18.795   4.784  19.860  1.00  0.00    -0.200 F 
ATOM     71  C   UNL     1      18.175   2.687  18.968  1.00  0.00     0.200 A 
ATOM     72  F   UNL     1      17.507   0.607  18.072  1.00  0.00    -0.200 F 
ATOM     73  F   UNL     1      19.457   2.412  18.687  1.00  0.00    -0.200 F 
ENDBRANCH  49  63
BRANCH  50  74
ATOM     74  C   UNL     1       5.853   5.292  21.146  1.00  0.00     0.064 A 
ATOM     75  C   UNL     1       5.425   5.948  22.309  1.00  0.00     0.173 A 
ATOM     76  C   UNL     1       4.880   4.914  20.211  1.00  0.00     0.173 A 
ATOM     77  F   UNL     1       6.319   6.310  23.240  1.00  0.00    -0.203 F 
ATOM     78  C   UNL     1       4.074   6.202  22.534  1.00  0.00     0.198 A 
ATOM     79  C   UNL     1       3.532   5.189  20.427  1.00  0.00     0.198 A 
ATOM     80  F   UNL     1       5.241   4.288  19.082  1.00  0.00    -0.203 F 
ATOM     81  F   UNL     1       3.688   6.798  23.671  1.00  0.00    -0.200 F 
ATOM     82  C   UNL     1       3.129   5.827  21.591  1.00  0.00     0.200 A 
ATOM     83  F   UNL     1       2.622   4.836  19.509  1.00  0.00    -0.200 F 
ATOM     84  F   UNL     1       1.830   6.076  21.806  1.00  0.00    -0.200 F 
ENDBRANCH  50  74
BRANCH  62  85
ATOM     85  C   UNL     1      10.418   0.946  24.101  1.00  0.00     0.064 A 
ATOM     86  C   UNL     1       9.757  -0.279  23.932  1.00  0.00     0.173 A 
ATOM     87  C   UNL     1      10.999   1.216  25.348  1.00  0.00     0.173 A 
ATOM     88  F   UNL     1       9.171  -0.574  22.762  1.00  0.00    -0.203 F 
ATOM     89  C   UNL     1       9.665  -1.191  24.980  1.00  0.00     0.198 A 
ATOM     90  C   UNL     1      10.926   0.292  26.386  1.00  0.00     0.198 A 
ATOM     91  F   UNL     1      11.645   2.373  25.556  1.00  0.00    -0.203 F 
ATOM     92  F   UNL     1       8.995  -2.339  24.810  1.00  0.00    -0.200 F 
ATOM     93  C   UNL     1      10.255  -0.908  26.203  1.00  0.00     0.200 A 
ATOM     94  F   UNL     1      11.503   0.563  27.565  1.00  0.00    -0.200 F 
ATOM     95  F   UNL     1      10.169  -1.789  27.209  1.00  0.00    -0.200 F 
ENDBRANCH  62  85
ENDBRANCH  36  37
ENDBRANCH  28  31
ENDBRANCH  26  27
ENDBRANCH  25  26
ENDBRANCH  24  25
ENDBRANCH  23  24
ENDBRANCH   1  23
TORSDOF 17
