REMARK SMILES COc1ccc(Cl)c2c1N[C@@H](c1ccc(C(=O)NCCCCCCNC(=O)c3ccc(-c4c5nc(c(-c6c(F)c(F)c(F)c(F)c6F)c6ccc([nH]6)c(-c6c(F)c(F)c(F)c(F)c6F)c6nc(c(-c7c(F)c(F)c(F)c(F)c7F)c7ccc4[nH]7)C=C6)C=C5)cc3)cc1)[C@@H]1CC=C[C@H]21
REMARK SMILES IDX 21 1 20 2 19 3 18 4 16 5 17 6 15 8 12 9 13 10 92 11 14 12
REMARK SMILES IDX 91 13 11 14 3 15 4 16 9 17 5 18 8 19 10 20 6 21 97 22 7 24
REMARK SMILES IDX 93 25 96 26 94 27 95 28 2 29 1 30 22 31 23 32 24 33 25 34
REMARK SMILES IDX 26 35 27 37 28 38 29 39 90 40 30 41 89 42 31 43 32 44 33 45
REMARK SMILES IDX 83 46 34 47 88 48 82 49 84 50 35 51 87 52 81 53 80 54 36 56
REMARK SMILES IDX 68 57 48 58 67 59 49 60 52 61 66 62 85 63 50 64 51 65 65 67
REMARK SMILES IDX 86 68 53 69 37 70 38 71 46 72 39 73 40 74 44 75 47 76 41 77
REMARK SMILES IDX 42 78 45 79 43 80 69 81 70 82 78 83 71 84 72 85 76 86 79 87
REMARK SMILES IDX 73 88 74 89 77 90 75 91 54 92 55 93 63 94 56 95 57 96 61 97
REMARK SMILES IDX 64 98 58 99 59 100 62 101 60 102
REMARK H PARENT 18 7 10 23 25 36 84 55 52 66
REMARK Flexibility Score: inf
ROOT
ATOM      1  C   UNL     1      11.377   2.109   3.527  1.00  0.00     0.002 C 
ENDROOT
BRANCH   1   2
ATOM      2  C   UNL     1      10.233   2.326   2.528  1.00  0.00     0.021 C 
BRANCH   2   3
ATOM      3  C   UNL     1      10.259   1.337   1.360  1.00  0.00     0.116 C 
BRANCH   3   4
ATOM      4  N   UNL     1       9.727   0.062   1.791  1.00  0.00    -0.352 N 
ATOM      5  C   UNL     1       8.489  -0.510   1.663  1.00  0.00     0.251 C 
ATOM      6  O   UNL     1       8.316  -1.612   2.183  1.00  0.00    -0.269 OA
ATOM      7  H   UNL     1      10.380  -0.502   2.266  1.00  0.00     0.163 HD
BRANCH   5   8
ATOM      8  C   UNL     1       7.387   0.098   0.866  1.00  0.00     0.039 A 
ATOM      9  C   UNL     1       5.330   1.035  -0.849  1.00  0.00    -0.025 A 
ATOM     10  C   UNL     1       5.499  -0.336  -0.610  1.00  0.00     0.006 A 
ATOM     11  C   UNL     1       6.165   1.928  -0.158  1.00  0.00     0.006 A 
ATOM     12  C   UNL     1       6.500  -0.795   0.251  1.00  0.00     0.014 A 
ATOM     13  C   UNL     1       7.175   1.466   0.695  1.00  0.00     0.014 A 
BRANCH   9  14
ATOM     14  C   UNL     1       4.287   1.579  -1.821  1.00  0.00     0.114 C 
ATOM     15  C   UNL     1       0.793   0.417  -2.432  1.00  0.00     0.142 A 
ATOM     16  C   UNL     1      -0.266   0.615  -3.316  1.00  0.00     0.050 A 
ATOM     17  C   UNL     1       2.069   0.958  -2.694  1.00  0.00     0.083 A 
ATOM     18  C   UNL     1      -0.075   1.383  -4.460  1.00  0.00     0.025 A 
ATOM     19  C   UNL     1       2.267   1.735  -3.854  1.00  0.00     0.005 A 
ATOM     20  N   UNL     1       3.123   0.715  -1.829  1.00  0.00    -0.375 N 
ATOM     21  C   UNL     1       1.179   1.936  -4.730  1.00  0.00     0.047 A 
ATOM     22  C   UNL     1       3.653   2.242  -4.183  1.00  0.00     0.051 C 
ATOM     23  H   UNL     1       3.081  -0.052  -1.214  1.00  0.00     0.161 HD
ATOM     24  Cl  UNL     1       1.339   2.823  -6.208  1.00  0.00    -0.084 Cl
ATOM     25  C   UNL     1       4.798   1.720  -3.273  1.00  0.00     0.031 C 
ATOM     26  C   UNL     1       3.842   3.735  -4.060  1.00  0.00    -0.023 C 
ATOM     27  C   UNL     1       5.888   2.793  -3.448  1.00  0.00     0.034 C 
ATOM     28  C   UNL     1       5.086   4.035  -3.668  1.00  0.00    -0.030 C 
BRANCH  15  29
ATOM     29  O   UNL     1       0.545  -0.408  -1.361  1.00  0.00    -0.495 OA
ATOM     30  C   UNL     1       0.626   0.270  -0.107  1.00  0.00     0.278 C 
ENDBRANCH  15  29
ENDBRANCH   9  14
ENDBRANCH   5   8
ENDBRANCH   3   4
ENDBRANCH   2   3
ENDBRANCH   1   2
BRANCH   1  31
ATOM     31  C   UNL     1      12.783   2.288   2.939  1.00  0.00     0.002 C 
BRANCH  31  32
ATOM     32  C   UNL     1      13.003   3.619   2.216  1.00  0.00     0.021 C 
BRANCH  32  33
ATOM     33  C   UNL     1      12.836   4.836   3.118  1.00  0.00     0.116 C 
BRANCH  33  34
ATOM     34  N   UNL     1      13.876   4.880   4.135  1.00  0.00    -0.352 N 
ATOM     35  C   UNL     1      14.842   5.837   4.322  1.00  0.00     0.251 C 
ATOM     36  H   UNL     1      13.888   4.128   4.769  1.00  0.00     0.163 HD
ATOM     37  O   UNL     1      15.810   5.632   5.037  1.00  0.00    -0.269 OA
BRANCH  35  38
ATOM     38  C   UNL     1      14.683   7.133   3.636  1.00  0.00     0.039 A 
ATOM     39  C   UNL     1      15.736   7.641   2.873  1.00  0.00     0.014 A 
ATOM     40  C   UNL     1      13.475   7.828   3.749  1.00  0.00     0.014 A 
ATOM     41  C   UNL     1      15.561   8.839   2.180  1.00  0.00     0.010 A 
ATOM     42  C   UNL     1      13.284   8.992   3.018  1.00  0.00     0.010 A 
ATOM     43  C   UNL     1      14.329   9.511   2.238  1.00  0.00    -0.014 A 
BRANCH  43  44
ATOM     44  C   UNL     1      14.116  10.793   1.532  1.00  0.00     0.031 A 
ATOM     45  C   UNL     1      13.972  12.054   2.333  1.00  0.00     0.074 A 
ATOM     46  C   UNL     1      13.988  10.810   0.193  1.00  0.00     0.049 A 
ATOM     47  N   UNL     1      13.678  13.262   1.928  1.00  0.00    -0.248 NA
ATOM     48  C   UNL     1      14.165  11.935   3.787  1.00  0.00     0.031 C 
ATOM     49  C   UNL     1      14.098   9.643  -0.681  1.00  0.00     0.029 A 
ATOM     50  N   UNL     1      13.721  11.847  -0.664  1.00  0.00    -0.354 N 
ATOM     51  C   UNL     1      13.652  14.044   3.074  1.00  0.00     0.074 A 
ATOM     52  C   UNL     1      13.903  13.167   4.197  1.00  0.00     0.031 C 
ATOM     53  C   UNL     1      13.911  10.030  -1.953  1.00  0.00     0.029 A 
ATOM     54  C   UNL     1      13.632  11.464  -1.979  1.00  0.00     0.049 A 
ATOM     55  H   UNL     1      13.605  12.778  -0.364  1.00  0.00     0.167 HD
ATOM     56  C   UNL     1      13.461  15.380   3.175  1.00  0.00     0.037 A 
ATOM     57  C   UNL     1      13.349  12.191  -3.076  1.00  0.00     0.037 A 
ATOM     58  C   UNL     1      13.216  16.245   2.052  1.00  0.00     0.049 A 
ATOM     59  C   UNL     1      13.092  13.667  -2.930  1.00  0.00     0.074 A 
ATOM     60  C   UNL     1      13.023  17.615   2.046  1.00  0.00     0.029 A 
ATOM     61  N   UNL     1      13.131  15.822   0.733  1.00  0.00    -0.354 N 
ATOM     62  N   UNL     1      13.099  14.405  -1.847  1.00  0.00    -0.248 NA
ATOM     63  C   UNL     1      12.795  14.413  -4.161  1.00  0.00     0.031 C 
ATOM     64  C   UNL     1      12.777  18.014   0.729  1.00  0.00     0.029 A 
ATOM     65  C   UNL     1      12.875  16.903  -0.093  1.00  0.00     0.049 A 
ATOM     66  H   UNL     1      13.238  14.891   0.430  1.00  0.00     0.167 HD
ATOM     67  C   UNL     1      12.845  15.704  -2.267  1.00  0.00     0.074 A 
ATOM     68  C   UNL     1      12.698  15.654  -3.707  1.00  0.00     0.031 C 
ATOM     69  C   UNL     1      12.746  16.837  -1.527  1.00  0.00     0.037 A 
BRANCH  56  70
ATOM     70  C   UNL     1      13.521  15.991   4.543  1.00  0.00     0.064 A 
ATOM     71  C   UNL     1      14.732  16.098   5.243  1.00  0.00     0.173 A 
ATOM     72  C   UNL     1      12.370  16.532   5.136  1.00  0.00     0.173 A 
ATOM     73  F   UNL     1      15.858  15.582   4.727  1.00  0.00    -0.203 F 
ATOM     74  C   UNL     1      14.787  16.712   6.492  1.00  0.00     0.198 A 
ATOM     75  C   UNL     1      12.434  17.172   6.370  1.00  0.00     0.198 A 
ATOM     76  F   UNL     1      11.187  16.456   4.509  1.00  0.00    -0.203 F 
ATOM     77  F   UNL     1      15.949  16.771   7.157  1.00  0.00    -0.200 F 
ATOM     78  C   UNL     1      13.641  17.259   7.049  1.00  0.00     0.200 A 
ATOM     79  F   UNL     1      11.328  17.711   6.902  1.00  0.00    -0.200 F 
ATOM     80  F   UNL     1      13.698  17.867   8.241  1.00  0.00    -0.200 F 
ENDBRANCH  56  70
BRANCH  57  81
ATOM     81  C   UNL     1      13.331  11.539  -4.412  1.00  0.00     0.064 A 
ATOM     82  C   UNL     1      14.324  11.823  -5.360  1.00  0.00     0.173 A 
ATOM     83  C   UNL     1      12.336  10.616  -4.766  1.00  0.00     0.173 A 
ATOM     84  F   UNL     1      15.285  12.713  -5.075  1.00  0.00    -0.203 F 
ATOM     85  C   UNL     1      14.315  11.220  -6.616  1.00  0.00     0.198 A 
ATOM     86  C   UNL     1      12.344   9.993  -6.012  1.00  0.00     0.198 A 
ATOM     87  F   UNL     1      11.365  10.306  -3.894  1.00  0.00    -0.203 F 
ATOM     88  F   UNL     1      15.254  11.540  -7.516  1.00  0.00    -0.200 F 
ATOM     89  C   UNL     1      13.329  10.300  -6.938  1.00  0.00     0.200 A 
ATOM     90  F   UNL     1      11.398   9.092  -6.314  1.00  0.00    -0.200 F 
ATOM     91  F   UNL     1      13.326   9.713  -8.143  1.00  0.00    -0.200 F 
ENDBRANCH  57  81
BRANCH  69  92
ATOM     92  C   UNL     1      12.510  18.126  -2.260  1.00  0.00     0.064 A 
ATOM     93  C   UNL     1      11.278  18.419  -2.863  1.00  0.00     0.173 A 
ATOM     94  C   UNL     1      13.513  19.107  -2.306  1.00  0.00     0.173 A 
ATOM     95  F   UNL     1      10.290  17.511  -2.856  1.00  0.00    -0.203 F 
ATOM     96  C   UNL     1      11.068  19.636  -3.506  1.00  0.00     0.198 A 
ATOM     97  C   UNL     1      13.288  20.335  -2.920  1.00  0.00     0.198 A 
ATOM     98  F   UNL     1      14.707  18.881  -1.736  1.00  0.00    -0.203 F 
ATOM     99  F   UNL     1       9.899  19.876  -4.115  1.00  0.00    -0.200 F 
ATOM    100  C   UNL     1      12.069  20.596  -3.526  1.00  0.00     0.200 A 
ATOM    101  F   UNL     1      14.250  21.268  -2.921  1.00  0.00    -0.200 F 
ATOM    102  F   UNL     1      11.860  21.772  -4.134  1.00  0.00    -0.200 F 
ENDBRANCH  69  92
ENDBRANCH  43  44
ENDBRANCH  35  38
ENDBRANCH  33  34
ENDBRANCH  32  33
ENDBRANCH  31  32
ENDBRANCH   1  31
TORSDOF 15
