REMARK SMILES C[C@](NC(=O)c1c(F)cccc1F)(C(=O)NCCCCCCNC(=O)c1ccc(-c2c3nc(c(-c4c(F)c(F)c(F)c(F)c4F)c4ccc([nH]4)c(-c4c(F)c(F)c(F)c(F)c4F)c4nc(c(-c5c(F)c(F)c(F)c(F)c5F)c5ccc2[nH]5)C=C4)C=C3)cc1)C(F)(F)F
REMARK SMILES IDX 19 1 18 2 17 3 16 4 14 5 15 6 2 8 1 9 89 10 90 11 91 12
REMARK SMILES IDX 92 13 3 14 4 15 5 17 6 18 7 19 12 20 8 21 9 22 11 23 13 24
REMARK SMILES IDX 10 25 20 26 21 27 22 28 23 29 24 30 25 32 26 33 27 34 88 35
REMARK SMILES IDX 28 36 87 37 29 38 30 39 31 40 81 41 32 42 86 43 80 44 82 45
REMARK SMILES IDX 33 46 85 47 79 48 78 49 34 51 66 52 46 53 65 54 47 55 50 56
REMARK SMILES IDX 64 57 83 58 48 59 49 60 63 62 84 63 51 64 35 65 36 66 44 67
REMARK SMILES IDX 37 68 38 69 42 70 45 71 39 72 40 73 43 74 41 75 67 76 68 77
REMARK SMILES IDX 76 78 69 79 70 80 74 81 77 82 71 83 72 84 75 85 73 86 52 87
REMARK SMILES IDX 53 88 61 89 54 90 55 91 59 92 62 93 56 94 57 95 60 96 58 97
REMARK H PARENT 16 7 3 16 23 31 82 50 50 61
REMARK Flexibility Score: inf
ROOT
ATOM      1  C   UNL     1      -3.235   2.755  -0.950  1.00  0.00     0.002 C 
ENDROOT
BRANCH   1   2
ATOM      2  C   UNL     1      -1.745   2.421  -0.842  1.00  0.00     0.021 C 
BRANCH   2   3
ATOM      3  C   UNL     1      -1.331   2.038   0.572  1.00  0.00     0.116 C 
BRANCH   3   4
ATOM      4  N   UNL     1      -1.746   0.690   0.898  1.00  0.00    -0.354 N 
ATOM      5  C   UNL     1      -1.014  -0.392   1.310  1.00  0.00     0.254 C 
ATOM      6  O   UNL     1      -1.660  -1.409   1.563  1.00  0.00    -0.272 OA
ATOM      7  H   UNL     1      -2.712   0.523   0.809  1.00  0.00     0.163 HD
BRANCH   5   8
ATOM      8  C   UNL     1       0.501  -0.265   1.593  1.00  0.00     0.212 C 
ATOM      9  C   UNL     1       0.631   0.568   2.877  1.00  0.00     0.056 C 
BRANCH   8  10
ATOM     10  C   UNL     1       1.023  -1.690   1.887  1.00  0.00     0.420 C 
ATOM     11  F   UNL     1       0.863  -2.510   0.821  1.00  0.00    -0.168 F 
ATOM     12  F   UNL     1       2.357  -1.653   2.147  1.00  0.00    -0.168 F 
ATOM     13  F   UNL     1       0.444  -2.267   2.962  1.00  0.00    -0.168 F 
ENDBRANCH   8  10
BRANCH   8  14
ATOM     14  N   UNL     1       1.167   0.264   0.341  1.00  0.00    -0.330 N 
ATOM     15  C   UNL     1       2.064   1.238  -0.001  1.00  0.00     0.258 C 
ATOM     16  H   UNL     1       0.871  -0.237  -0.453  1.00  0.00     0.165 HD
ATOM     17  O   UNL     1       2.451   1.307  -1.165  1.00  0.00    -0.269 OA
BRANCH  15  18
ATOM     18  C   UNL     1       2.492   2.277   0.930  1.00  0.00     0.111 A 
ATOM     19  C   UNL     1       3.365   2.007   1.971  1.00  0.00     0.138 A 
ATOM     20  C   UNL     1       2.032   3.581   0.746  1.00  0.00     0.138 A 
ATOM     21  F   UNL     1       3.863   0.775   2.142  1.00  0.00    -0.206 F 
ATOM     22  C   UNL     1       3.678   2.996   2.902  1.00  0.00     0.040 A 
ATOM     23  C   UNL     1       2.349   4.583   1.659  1.00  0.00     0.040 A 
ATOM     24  F   UNL     1       1.225   3.890  -0.281  1.00  0.00    -0.206 F 
ATOM     25  C   UNL     1       3.156   4.284   2.756  1.00  0.00     0.006 A 
ENDBRANCH  15  18
ENDBRANCH   8  14
ENDBRANCH   5   8
ENDBRANCH   3   4
ENDBRANCH   2   3
ENDBRANCH   1   2
BRANCH   1  26
ATOM     26  C   UNL     1      -3.687   3.921  -0.063  1.00  0.00     0.002 C 
BRANCH  26  27
ATOM     27  C   UNL     1      -2.911   5.224  -0.274  1.00  0.00     0.021 C 
BRANCH  27  28
ATOM     28  C   UNL     1      -2.968   5.752  -1.702  1.00  0.00     0.116 C 
BRANCH  28  29
ATOM     29  N   UNL     1      -4.332   6.047  -2.111  1.00  0.00    -0.352 N 
ATOM     30  C   UNL     1      -4.850   7.207  -2.629  1.00  0.00     0.251 C 
ATOM     31  H   UNL     1      -4.975   5.309  -2.001  1.00  0.00     0.163 HD
ATOM     32  O   UNL     1      -6.061   7.367  -2.711  1.00  0.00    -0.269 OA
BRANCH  30  33
ATOM     33  C   UNL     1      -3.929   8.271  -3.075  1.00  0.00     0.039 A 
ATOM     34  C   UNL     1      -4.202   9.594  -2.724  1.00  0.00     0.014 A 
ATOM     35  C   UNL     1      -2.799   7.957  -3.834  1.00  0.00     0.014 A 
ATOM     36  C   UNL     1      -3.309  10.600  -3.094  1.00  0.00     0.010 A 
ATOM     37  C   UNL     1      -1.871   8.947  -4.130  1.00  0.00     0.010 A 
ATOM     38  C   UNL     1      -2.122  10.279  -3.772  1.00  0.00    -0.014 A 
BRANCH  38  39
ATOM     39  C   UNL     1      -1.131  11.323  -4.128  1.00  0.00     0.031 A 
ATOM     40  C   UNL     1      -0.824  11.605  -5.572  1.00  0.00     0.074 A 
ATOM     41  C   UNL     1      -0.464  11.969  -3.154  1.00  0.00     0.049 A 
ATOM     42  N   UNL     1       0.063  12.419  -6.085  1.00  0.00    -0.248 NA
ATOM     43  C   UNL     1      -1.598  10.852  -6.572  1.00  0.00     0.031 C 
ATOM     44  C   UNL     1      -0.649  11.753  -1.719  1.00  0.00     0.029 A 
ATOM     45  N   UNL     1       0.510  12.933  -3.223  1.00  0.00    -0.354 N 
ATOM     46  C   UNL     1      -0.040  12.267  -7.461  1.00  0.00     0.074 A 
ATOM     47  C   UNL     1      -1.028  11.239  -7.703  1.00  0.00     0.031 C 
ATOM     48  C   UNL     1       0.161  12.582  -1.042  1.00  0.00     0.029 A 
ATOM     49  C   UNL     1       0.956  13.354  -1.994  1.00  0.00     0.049 A 
ATOM     50  H   UNL     1       0.857  13.289  -4.072  1.00  0.00     0.167 HD
ATOM     51  C   UNL     1       0.612  12.945  -8.435  1.00  0.00     0.037 A 
ATOM     52  C   UNL     1       1.903  14.255  -1.671  1.00  0.00     0.037 A 
ATOM     53  C   UNL     1       1.578  13.982  -8.185  1.00  0.00     0.049 A 
ATOM     54  C   UNL     1       2.633  14.977  -2.770  1.00  0.00     0.074 A 
ATOM     55  C   UNL     1       2.255  14.766  -9.103  1.00  0.00     0.029 A 
ATOM     56  N   UNL     1       2.009  14.377  -6.926  1.00  0.00    -0.354 N 
ATOM     57  N   UNL     1       2.489  14.868  -4.068  1.00  0.00    -0.248 NA
ATOM     58  C   UNL     1       3.656  15.948  -2.360  1.00  0.00     0.031 C 
ATOM     59  C   UNL     1       3.137  15.594  -8.402  1.00  0.00     0.029 A 
ATOM     60  C   UNL     1       2.965  15.373  -7.045  1.00  0.00     0.049 A 
ATOM     61  H   UNL     1       1.683  14.004  -6.075  1.00  0.00     0.167 HD
ATOM     62  C   UNL     1       3.384  15.768  -4.630  1.00  0.00     0.074 A 
ATOM     63  C   UNL     1       4.055  16.429  -3.530  1.00  0.00     0.031 C 
ATOM     64  C   UNL     1       3.628  16.021  -5.940  1.00  0.00     0.037 A 
BRANCH  51  65
ATOM     65  C   UNL     1       0.295  12.595  -9.861  1.00  0.00     0.064 A 
ATOM     66  C   UNL     1       1.268  12.007 -10.684  1.00  0.00     0.173 A 
ATOM     67  C   UNL     1      -0.954  12.887 -10.430  1.00  0.00     0.173 A 
ATOM     68  F   UNL     1       2.481  11.712 -10.194  1.00  0.00    -0.203 F 
ATOM     69  C   UNL     1       1.003  11.732 -12.023  1.00  0.00     0.198 A 
ATOM     70  C   UNL     1      -1.227  12.578 -11.760  1.00  0.00     0.198 A 
ATOM     71  F   UNL     1      -1.924  13.439  -9.685  1.00  0.00    -0.203 F 
ATOM     72  F   UNL     1       1.959  11.199 -12.797  1.00  0.00    -0.200 F 
ATOM     73  C   UNL     1      -0.245  12.010 -12.558  1.00  0.00     0.200 A 
ATOM     74  F   UNL     1      -2.444  12.821 -12.267  1.00  0.00    -0.200 F 
ATOM     75  F   UNL     1      -0.504  11.727 -13.842  1.00  0.00    -0.200 F 
ENDBRANCH  51  65
BRANCH  52  76
ATOM     76  C   UNL     1       2.177  14.544  -0.239  1.00  0.00     0.064 A 
ATOM     77  C   UNL     1       2.772  13.590   0.600  1.00  0.00     0.173 A 
ATOM     78  C   UNL     1       1.803  15.769   0.329  1.00  0.00     0.173 A 
ATOM     79  F   UNL     1       3.142  12.399   0.108  1.00  0.00    -0.203 F 
ATOM     80  C   UNL     1       2.956  13.842   1.958  1.00  0.00     0.198 A 
ATOM     81  C   UNL     1       2.014  16.031   1.681  1.00  0.00     0.198 A 
ATOM     82  F   UNL     1       1.248  16.720  -0.438  1.00  0.00    -0.203 F 
ATOM     83  F   UNL     1       3.485  12.896   2.747  1.00  0.00    -0.200 F 
ATOM     84  C   UNL     1       2.580  15.063   2.497  1.00  0.00     0.200 A 
ATOM     85  F   UNL     1       1.669  17.220   2.192  1.00  0.00    -0.200 F 
ATOM     86  F   UNL     1       2.762  15.306   3.802  1.00  0.00    -0.200 F 
ENDBRANCH  52  76
BRANCH  64  87
ATOM     87  C   UNL     1       4.656  17.066  -6.268  1.00  0.00     0.064 A 
ATOM     88  C   UNL     1       4.274  18.275  -6.870  1.00  0.00     0.173 A 
ATOM     89  C   UNL     1       6.024  16.839  -6.062  1.00  0.00     0.173 A 
ATOM     90  F   UNL     1       2.978  18.538  -7.098  1.00  0.00    -0.203 F 
ATOM     91  C   UNL     1       5.225  19.210  -7.269  1.00  0.00     0.198 A 
ATOM     92  C   UNL     1       6.971  17.791  -6.432  1.00  0.00     0.198 A 
ATOM     93  F   UNL     1       6.441  15.705  -5.479  1.00  0.00    -0.203 F 
ATOM     94  F   UNL     1       4.838  20.338  -7.880  1.00  0.00    -0.200 F 
ATOM     95  C   UNL     1       6.572  18.969  -7.046  1.00  0.00     0.200 A 
ATOM     96  F   UNL     1       8.270  17.569  -6.191  1.00  0.00    -0.200 F 
ATOM     97  F   UNL     1       7.486  19.875  -7.420  1.00  0.00    -0.200 F 
ENDBRANCH  64  87
ENDBRANCH  38  39
ENDBRANCH  30  33
ENDBRANCH  28  29
ENDBRANCH  27  28
ENDBRANCH  26  27
ENDBRANCH   1  26
TORSDOF 16
