REMARK SMILES O=C1C[C@@H](C(=O)NCCCCCCNC(=O)c2ccc(-c3c4nc(c(-c5c(F)c(F)c(F)c(F)c5F)c5ccc([nH]5)c(-c5c(F)c(F)c(F)c(F)c5F)c5nc(c(-c6c(F)c(F)c(F)c(F)c6F)c6ccc3[nH]6)C=C5)C=C4)cc2)C2(CC[NH+](Cc3c[nH]nc3-c3ccc(Cl)cc3)CC2)N1
REMARK SMILES IDX 10 1 9 2 8 3 7 4 5 5 6 6 4 8 1 9 2 10 3 11 99 12 80 13 81 15
REMARK SMILES IDX 98 16 82 17 97 18 83 19 84 21 85 22 86 23 89 24 87 25 88 26
REMARK SMILES IDX 90 28 91 29 96 30 92 31 95 32 93 33 94 34 11 35 12 36 13 37
REMARK SMILES IDX 14 38 15 39 16 41 17 42 18 43 79 44 19 45 78 46 20 47 21 48
REMARK SMILES IDX 22 49 72 50 23 51 77 52 71 53 73 54 24 55 76 56 70 57 69 58
REMARK SMILES IDX 25 60 57 61 37 62 56 63 38 64 41 65 55 66 74 67 39 68 40 69
REMARK SMILES IDX 54 71 75 72 42 73 26 74 27 75 35 76 28 77 29 78 33 79 36 80
REMARK SMILES IDX 30 81 31 82 34 83 32 84 58 85 59 86 67 87 60 88 61 89 65 90
REMARK SMILES IDX 68 91 62 92 63 93 66 94 64 95 43 96 44 97 52 98 45 99 46 100
REMARK SMILES IDX 50 101 53 102 47 103 48 104 51 105 49 106
REMARK H PARENT 7 7 99 14 83 20 87 27 14 40 73 59 41 70
REMARK Flexibility Score: inf
ROOT
ATOM      1  C   UNL     1       1.287   4.508  -1.965  1.00  0.00     0.002 C 
ENDROOT
BRANCH   1   2
ATOM      2  C   UNL     1       1.772   3.477  -0.947  1.00  0.00     0.021 C 
BRANCH   2   3
ATOM      3  C   UNL     1       1.739   2.032  -1.452  1.00  0.00     0.116 C 
BRANCH   3   4
ATOM      4  N   UNL     1       2.743   1.751  -2.463  1.00  0.00    -0.356 N 
ATOM      5  C   UNL     1       3.824   0.929  -2.497  1.00  0.00     0.226 C 
ATOM      6  O   UNL     1       4.503   0.964  -3.530  1.00  0.00    -0.275 OA
ATOM      7  H   UNL     1       2.613   2.261  -3.295  1.00  0.00     0.163 HD
BRANCH   5   8
ATOM      8  C   UNL     1       4.263   0.001  -1.359  1.00  0.00     0.114 C 
ATOM      9  O   UNL     1       1.687  -1.076   0.874  1.00  0.00    -0.275 OA
ATOM     10  C   UNL     1       2.664  -0.628   0.306  1.00  0.00     0.221 C 
ATOM     11  C   UNL     1       3.200  -1.058  -1.031  1.00  0.00     0.116 C 
ATOM     12  N   UNL     1       3.450   0.399   0.781  1.00  0.00    -0.349 N 
ATOM     13  C   UNL     1       4.655   0.633  -0.004  1.00  0.00     0.063 C 
ATOM     14  H   UNL     1       3.218   0.927   1.579  1.00  0.00     0.164 HD
ATOM     15  C   UNL     1       4.972   2.134  -0.091  1.00  0.00     0.091 C 
ATOM     16  C   UNL     1       5.775  -0.180   0.711  1.00  0.00     0.091 C 
ATOM     17  C   UNL     1       6.440   2.456  -0.305  1.00  0.00     0.264 C 
ATOM     18  C   UNL     1       7.189   0.397   0.646  1.00  0.00     0.264 C 
ATOM     19  N   UNL     1       7.282   1.846   0.700  1.00  0.00    -0.331 N 
ATOM     20  H   UNL     1       8.250   2.038   0.444  1.00  0.00     0.348 HD
BRANCH  19  21
ATOM     21  C   UNL     1       7.370   2.521   2.004  1.00  0.00     0.303 C 
BRANCH  21  22
ATOM     22  C   UNL     1       6.123   2.521   2.837  1.00  0.00     0.052 A 
ATOM     23  C   UNL     1       5.647   1.476   3.608  1.00  0.00     0.115 A 
ATOM     24  C   UNL     1       5.225   3.604   3.152  1.00  0.00     0.101 A 
ATOM     25  N   UNL     1       4.483   1.893   4.167  1.00  0.00    -0.285 N 
ATOM     26  N   UNL     1       4.197   3.169   3.903  1.00  0.00    -0.175 NA
ATOM     27  H   UNL     1       3.906   1.311   4.714  1.00  0.00     0.189 HD
BRANCH  24  28
ATOM     28  C   UNL     1       5.305   5.030   2.831  1.00  0.00     0.003 A 
ATOM     29  C   UNL     1       5.305   5.956   3.886  1.00  0.00     0.012 A 
ATOM     30  C   UNL     1       5.343   5.512   1.518  1.00  0.00     0.012 A 
ATOM     31  C   UNL     1       5.380   7.329   3.636  1.00  0.00     0.021 A 
ATOM     32  C   UNL     1       5.426   6.886   1.263  1.00  0.00     0.021 A 
ATOM     33  C   UNL     1       5.450   7.788   2.324  1.00  0.00     0.041 A 
ATOM     34  Cl  UNL     1       5.556   9.475   2.010  1.00  0.00    -0.084 Cl
ENDBRANCH  24  28
ENDBRANCH  21  22
ENDBRANCH  19  21
ENDBRANCH   5   8
ENDBRANCH   3   4
ENDBRANCH   2   3
ENDBRANCH   1   2
BRANCH   1  35
ATOM     35  C   UNL     1      -0.122   4.245  -2.500  1.00  0.00     0.002 C 
BRANCH  35  36
ATOM     36  C   UNL     1      -1.187   4.037  -1.419  1.00  0.00     0.021 C 
BRANCH  36  37
ATOM     37  C   UNL     1      -1.307   5.192  -0.431  1.00  0.00     0.116 C 
BRANCH  37  38
ATOM     38  N   UNL     1      -1.667   6.430  -1.101  1.00  0.00    -0.352 N 
ATOM     39  C   UNL     1      -2.765   7.227  -0.914  1.00  0.00     0.251 C 
ATOM     40  H   UNL     1      -1.031   6.740  -1.786  1.00  0.00     0.163 HD
ATOM     41  O   UNL     1      -3.051   8.092  -1.734  1.00  0.00    -0.269 OA
BRANCH  39  42
ATOM     42  C   UNL     1      -3.610   7.032   0.280  1.00  0.00     0.039 A 
ATOM     43  C   UNL     1      -4.998   7.060   0.137  1.00  0.00     0.014 A 
ATOM     44  C   UNL     1      -3.032   6.838   1.539  1.00  0.00     0.014 A 
ATOM     45  C   UNL     1      -5.809   6.853   1.253  1.00  0.00     0.010 A 
ATOM     46  C   UNL     1      -3.839   6.548   2.633  1.00  0.00     0.010 A 
ATOM     47  C   UNL     1      -5.236   6.569   2.504  1.00  0.00    -0.014 A 
BRANCH  47  48
ATOM     48  C   UNL     1      -6.088   6.302   3.689  1.00  0.00     0.031 A 
ATOM     49  C   UNL     1      -6.042   7.221   4.877  1.00  0.00     0.074 A 
ATOM     50  C   UNL     1      -6.859   5.199   3.716  1.00  0.00     0.049 A 
ATOM     51  N   UNL     1      -6.681   7.134   6.017  1.00  0.00    -0.248 NA
ATOM     52  C   UNL     1      -5.132   8.373   4.787  1.00  0.00     0.031 C 
ATOM     53  C   UNL     1      -6.938   4.201   2.649  1.00  0.00     0.029 A 
ATOM     54  N   UNL     1      -7.712   4.726   4.680  1.00  0.00    -0.354 N 
ATOM     55  C   UNL     1      -6.239   8.206   6.780  1.00  0.00     0.074 A 
ATOM     56  C   UNL     1      -5.233   8.894   6.000  1.00  0.00     0.031 C 
ATOM     57  C   UNL     1      -7.805   3.243   3.009  1.00  0.00     0.029 A 
ATOM     58  C   UNL     1      -8.312   3.537   4.346  1.00  0.00     0.049 A 
ATOM     59  H   UNL     1      -7.877   5.194   5.530  1.00  0.00     0.167 HD
ATOM     60  C   UNL     1      -6.650   8.594   8.011  1.00  0.00     0.037 A 
ATOM     61  C   UNL     1      -9.164   2.764   5.045  1.00  0.00     0.037 A 
ATOM     62  C   UNL     1      -7.663   7.910   8.773  1.00  0.00     0.049 A 
ATOM     63  C   UNL     1      -9.614   3.216   6.406  1.00  0.00     0.074 A 
ATOM     64  C   UNL     1      -8.210   8.263   9.993  1.00  0.00     0.029 A 
ATOM     65  N   UNL     1      -8.270   6.720   8.393  1.00  0.00    -0.354 N 
ATOM     66  N   UNL     1      -9.261   4.283   7.082  1.00  0.00    -0.248 NA
ATOM     67  C   UNL     1     -10.591   2.365   7.097  1.00  0.00     0.031 C 
ATOM     68  C   UNL     1      -9.095   7.252  10.384  1.00  0.00     0.029 A 
ATOM     69  C   UNL     1      -9.157   6.306   9.374  1.00  0.00     0.049 A 
ATOM     70  H   UNL     1      -8.095   6.242   7.550  1.00  0.00     0.167 HD
ATOM     71  C   UNL     1      -9.986   4.244   8.266  1.00  0.00     0.074 A 
ATOM     72  C   UNL     1     -10.813   3.056   8.206  1.00  0.00     0.031 C 
ATOM     73  C   UNL     1      -9.968   5.114   9.306  1.00  0.00     0.037 A 
BRANCH  60  74
ATOM     74  C   UNL     1      -5.988   9.802   8.615  1.00  0.00     0.064 A 
ATOM     75  C   UNL     1      -6.148  11.087   8.073  1.00  0.00     0.173 A 
ATOM     76  C   UNL     1      -5.186   9.672   9.759  1.00  0.00     0.173 A 
ATOM     77  F   UNL     1      -6.897  11.270   6.975  1.00  0.00    -0.203 F 
ATOM     78  C   UNL     1      -5.493  12.186   8.624  1.00  0.00     0.198 A 
ATOM     79  C   UNL     1      -4.564  10.780  10.330  1.00  0.00     0.198 A 
ATOM     80  F   UNL     1      -5.003   8.470  10.326  1.00  0.00    -0.203 F 
ATOM     81  F   UNL     1      -5.605  13.390   8.046  1.00  0.00    -0.200 F 
ATOM     82  C   UNL     1      -4.706  12.033   9.755  1.00  0.00     0.200 A 
ATOM     83  F   UNL     1      -3.818  10.632  11.434  1.00  0.00    -0.200 F 
ATOM     84  F   UNL     1      -4.077  13.091  10.284  1.00  0.00    -0.200 F 
ENDBRANCH  60  74
BRANCH  61  85
ATOM     85  C   UNL     1      -9.649   1.491   4.451  1.00  0.00     0.064 A 
ATOM     86  C   UNL     1     -10.980   1.343   4.039  1.00  0.00     0.173 A 
ATOM     87  C   UNL     1      -8.781   0.406   4.257  1.00  0.00     0.173 A 
ATOM     88  F   UNL     1     -11.853   2.345   4.219  1.00  0.00    -0.203 F 
ATOM     89  C   UNL     1     -11.428   0.153   3.467  1.00  0.00     0.198 A 
ATOM     90  C   UNL     1      -9.222  -0.771   3.657  1.00  0.00     0.198 A 
ATOM     91  F   UNL     1      -7.496   0.500   4.627  1.00  0.00    -0.203 F 
ATOM     92  F   UNL     1     -12.714   0.024   3.115  1.00  0.00    -0.200 F 
ATOM     93  C   UNL     1     -10.546  -0.899   3.268  1.00  0.00     0.200 A 
ATOM     94  F   UNL     1      -8.362  -1.777   3.449  1.00  0.00    -0.200 F 
ATOM     95  F   UNL     1     -10.974  -2.037   2.704  1.00  0.00    -0.200 F 
ENDBRANCH  61  85
BRANCH  73  96
ATOM     96  C   UNL     1     -10.891   4.830  10.458  1.00  0.00     0.064 A 
ATOM     97  C   UNL     1     -10.679   3.749  11.327  1.00  0.00     0.173 A 
ATOM     98  C   UNL     1     -11.982   5.674  10.718  1.00  0.00     0.173 A 
ATOM     99  F   UNL     1      -9.659   2.902  11.117  1.00  0.00    -0.203 F 
ATOM    100  C   UNL     1     -11.542   3.506  12.393  1.00  0.00     0.198 A 
ATOM    101  C   UNL     1     -12.821   5.450  11.805  1.00  0.00     0.198 A 
ATOM    102  F   UNL     1     -12.227   6.727   9.924  1.00  0.00    -0.203 F 
ATOM    103  F   UNL     1     -11.352   2.435  13.176  1.00  0.00    -0.200 F 
ATOM    104  C   UNL     1     -12.607   4.361  12.636  1.00  0.00     0.200 A 
ATOM    105  F   UNL     1     -13.838   6.288  12.049  1.00  0.00    -0.200 F 
ATOM    106  F   UNL     1     -13.431   4.131  13.668  1.00  0.00    -0.200 F 
ENDBRANCH  73  96
ENDBRANCH  47  48
ENDBRANCH  39  42
ENDBRANCH  37  38
ENDBRANCH  36  37
ENDBRANCH  35  36
ENDBRANCH   1  35
TORSDOF 16
