REMARK SMILES CC(C)(C)[NH2+]CC(=O)N[C@](C)(C(=O)NCCCCCCNC(=O)c1ccc(-c2c3nc(c(-c4c(F)c(F)c(F)c(F)c4F)c4ccc([nH]4)c(-c4c(F)c(F)c(F)c(F)c4F)c4nc(c(-c5c(F)c(F)c(F)c(F)c5F)c5ccc2[nH]5)C=C4)C=C3)cc1)C1CC1
REMARK SMILES IDX 16 1 15 2 14 3 12 4 13 5 10 7 11 8 9 9 7 10 8 11 6 13 5 14
REMARK SMILES IDX 2 17 1 18 3 19 4 20 87 21 88 22 89 23 17 24 18 25 19 26
REMARK SMILES IDX 20 27 21 28 22 29 23 31 24 32 25 33 86 34 26 35 85 36 27 37
REMARK SMILES IDX 28 38 29 39 79 40 30 41 84 42 78 43 80 44 31 45 83 46 77 47
REMARK SMILES IDX 76 48 32 50 64 51 44 52 63 53 45 54 48 55 62 56 81 57 46 58
REMARK SMILES IDX 47 59 61 61 82 62 49 63 33 64 34 65 42 66 35 67 36 68 40 69
REMARK SMILES IDX 43 70 37 71 38 72 41 73 39 74 65 75 66 76 74 77 67 78 68 79
REMARK SMILES IDX 72 80 75 81 69 82 70 83 73 84 71 85 50 86 51 87 59 88 52 89
REMARK SMILES IDX 53 90 57 91 60 92 54 93 55 94 58 95 56 96
REMARK H PARENT 14 6 9 12 5 15 5 16 21 30 80 49 48 60
REMARK Flexibility Score: inf
ROOT
ATOM      1  C   UNL     1       4.017  -2.920   4.758  1.00  0.00     0.021 C 
ENDROOT
BRANCH   1   2
ATOM      2  C   UNL     1       2.549  -2.539   4.526  1.00  0.00     0.116 C 
BRANCH   2   3
ATOM      3  N   UNL     1       2.448  -1.186   4.025  1.00  0.00    -0.354 N 
ATOM      4  C   UNL     1       3.102  -0.868   2.854  1.00  0.00     0.245 C 
ATOM      5  O   UNL     1       4.175  -0.273   2.949  1.00  0.00    -0.272 OA
ATOM      6  H   UNL     1       1.924  -0.508   4.509  1.00  0.00     0.163 HD
BRANCH   4   7
ATOM      7  C   UNL     1       2.481  -1.399   1.517  1.00  0.00     0.119 C 
ATOM      8  C   UNL     1       3.079  -2.755   1.131  1.00  0.00     0.046 C 
BRANCH   7   9
ATOM      9  N   UNL     1       1.002  -1.543   1.836  1.00  0.00    -0.337 N 
ATOM     10  C   UNL     1      -0.219  -1.856   1.338  1.00  0.00     0.275 C 
ATOM     11  O   UNL     1      -1.118  -1.923   2.193  1.00  0.00    -0.268 OA
ATOM     12  H   UNL     1       0.882  -1.318   2.787  1.00  0.00     0.164 HD
BRANCH  10  13
ATOM     13  C   UNL     1      -0.597  -2.110  -0.128  1.00  0.00     0.362 C 
BRANCH  13  14
ATOM     14  N   UNL     1      -1.251  -0.964  -0.851  1.00  0.00    -0.334 N 
ATOM     15  H   UNL     1      -1.604  -1.315  -1.741  1.00  0.00     0.347 HD
ATOM     16  H   UNL     1      -1.980  -0.620  -0.226  1.00  0.00     0.347 HD
BRANCH  14  17
ATOM     17  C   UNL     1      -0.382   0.193  -1.132  1.00  0.00     0.088 C 
ATOM     18  C   UNL     1       0.744  -0.334  -2.060  1.00  0.00     0.078 C 
ATOM     19  C   UNL     1      -0.154   0.919   0.220  1.00  0.00     0.078 C 
ATOM     20  C   UNL     1      -0.981   1.318  -2.010  1.00  0.00     0.078 C 
ENDBRANCH  14  17
ENDBRANCH  13  14
ENDBRANCH  10  13
ENDBRANCH   7   9
BRANCH   7  21
ATOM     21  C   UNL     1       2.765  -0.417   0.410  1.00  0.00     0.024 C 
ATOM     22  C   UNL     1       3.148   1.049   0.564  1.00  0.00     0.007 C 
ATOM     23  C   UNL     1       4.130   0.074  -0.020  1.00  0.00     0.007 C 
ENDBRANCH   7  21
ENDBRANCH   4   7
ENDBRANCH   2   3
ENDBRANCH   1   2
BRANCH   1  24
ATOM     24  C   UNL     1       4.792  -1.935   5.652  1.00  0.00     0.002 C 
BRANCH  24  25
ATOM     25  C   UNL     1       4.120  -1.616   6.988  1.00  0.00     0.002 C 
BRANCH  25  26
ATOM     26  C   UNL     1       3.716  -2.851   7.783  1.00  0.00     0.021 C 
BRANCH  26  27
ATOM     27  C   UNL     1       4.859  -3.825   7.999  1.00  0.00     0.116 C 
BRANCH  27  28
ATOM     28  N   UNL     1       5.886  -3.259   8.853  1.00  0.00    -0.352 N 
ATOM     29  C   UNL     1       6.402  -3.789  10.008  1.00  0.00     0.251 C 
ATOM     30  H   UNL     1       6.257  -2.392   8.569  1.00  0.00     0.163 HD
ATOM     31  O   UNL     1       7.085  -3.118  10.763  1.00  0.00    -0.269 OA
BRANCH  29  32
ATOM     32  C   UNL     1       6.090  -5.198  10.326  1.00  0.00     0.039 A 
ATOM     33  C   UNL     1       5.657  -5.521  11.610  1.00  0.00     0.014 A 
ATOM     34  C   UNL     1       6.194  -6.182   9.337  1.00  0.00     0.014 A 
ATOM     35  C   UNL     1       5.301  -6.838  11.898  1.00  0.00     0.010 A 
ATOM     36  C   UNL     1       5.746  -7.470   9.598  1.00  0.00     0.010 A 
ATOM     37  C   UNL     1       5.325  -7.817  10.889  1.00  0.00    -0.014 A 
BRANCH  37  38
ATOM     38  C   UNL     1       4.969  -9.225  11.183  1.00  0.00     0.031 A 
ATOM     39  C   UNL     1       6.011 -10.300  11.037  1.00  0.00     0.074 A 
ATOM     40  C   UNL     1       3.710  -9.539  11.542  1.00  0.00     0.049 A 
ATOM     41  N   UNL     1       5.896 -11.594  11.204  1.00  0.00    -0.248 NA
ATOM     42  C   UNL     1       7.354  -9.869  10.616  1.00  0.00     0.031 C 
ATOM     43  C   UNL     1       2.605  -8.588  11.672  1.00  0.00     0.029 A 
ATOM     44  N   UNL     1       3.148 -10.749  11.860  1.00  0.00    -0.354 N 
ATOM     45  C   UNL     1       7.143 -12.124  10.898  1.00  0.00     0.074 A 
ATOM     46  C   UNL     1       7.978 -11.026  10.466  1.00  0.00     0.031 C 
ATOM     47  C   UNL     1       1.505  -9.246  12.074  1.00  0.00     0.029 A 
ATOM     48  C   UNL     1       1.817 -10.667  12.190  1.00  0.00     0.049 A 
ATOM     49  H   UNL     1       3.650 -11.595  11.853  1.00  0.00     0.167 HD
ATOM     50  C   UNL     1       7.563 -13.407  10.998  1.00  0.00     0.037 A 
ATOM     51  C   UNL     1       0.949 -11.634  12.541  1.00  0.00     0.037 A 
ATOM     52  C   UNL     1       6.732 -14.490  11.451  1.00  0.00     0.049 A 
ATOM     53  C   UNL     1       1.439 -13.055  12.633  1.00  0.00     0.074 A 
ATOM     54  C   UNL     1       7.072 -15.818  11.637  1.00  0.00     0.029 A 
ATOM     55  N   UNL     1       5.391 -14.368  11.787  1.00  0.00    -0.354 N 
ATOM     56  N   UNL     1       2.637 -13.537  12.407  1.00  0.00    -0.248 NA
ATOM     57  C   UNL     1       0.454 -14.067  13.040  1.00  0.00     0.031 C 
ATOM     58  C   UNL     1       5.922 -16.511  12.032  1.00  0.00     0.029 A 
ATOM     59  C   UNL     1       4.883 -15.602  12.157  1.00  0.00     0.049 A 
ATOM     60  H   UNL     1       4.878 -13.528  11.766  1.00  0.00     0.167 HD
ATOM     61  C   UNL     1       2.561 -14.896  12.678  1.00  0.00     0.074 A 
ATOM     62  C   UNL     1       1.201 -15.159  13.101  1.00  0.00     0.031 C 
ATOM     63  C   UNL     1       3.528 -15.843  12.585  1.00  0.00     0.037 A 
BRANCH  50  64
ATOM     64  C   UNL     1       8.984 -13.705  10.611  1.00  0.00     0.064 A 
ATOM     65  C   UNL     1      10.070 -13.231  11.364  1.00  0.00     0.173 A 
ATOM     66  C   UNL     1       9.264 -14.495   9.486  1.00  0.00     0.173 A 
ATOM     67  F   UNL     1       9.861 -12.458  12.440  1.00  0.00    -0.203 F 
ATOM     68  C   UNL     1      11.382 -13.509  10.986  1.00  0.00     0.198 A 
ATOM     69  C   UNL     1      10.575 -14.802   9.133  1.00  0.00     0.198 A 
ATOM     70  F   UNL     1       8.265 -14.977   8.732  1.00  0.00    -0.203 F 
ATOM     71  F   UNL     1      12.402 -12.996  11.687  1.00  0.00    -0.200 F 
ATOM     72  C   UNL     1      11.633 -14.301   9.876  1.00  0.00     0.200 A 
ATOM     73  F   UNL     1      10.816 -15.580   8.068  1.00  0.00    -0.200 F 
ATOM     74  F   UNL     1      12.895 -14.575   9.519  1.00  0.00    -0.200 F 
ENDBRANCH  50  64
BRANCH  51  75
ATOM     75  C   UNL     1      -0.463 -11.291  12.859  1.00  0.00     0.064 A 
ATOM     76  C   UNL     1      -0.962 -11.423  14.162  1.00  0.00     0.173 A 
ATOM     77  C   UNL     1      -1.345 -10.839  11.866  1.00  0.00     0.173 A 
ATOM     78  F   UNL     1      -0.163 -11.868  15.143  1.00  0.00    -0.203 F 
ATOM     79  C   UNL     1      -2.296 -11.146  14.455  1.00  0.00     0.198 A 
ATOM     80  C   UNL     1      -2.670 -10.530  12.167  1.00  0.00     0.198 A 
ATOM     81  F   UNL     1      -0.917 -10.688  10.604  1.00  0.00    -0.203 F 
ATOM     82  F   UNL     1      -2.760 -11.335  15.698  1.00  0.00    -0.200 F 
ATOM     83  C   UNL     1      -3.147 -10.694  13.458  1.00  0.00     0.200 A 
ATOM     84  F   UNL     1      -3.485 -10.079  11.204  1.00  0.00    -0.200 F 
ATOM     85  F   UNL     1      -4.430 -10.427  13.740  1.00  0.00    -0.200 F 
ENDBRANCH  51  75
BRANCH  63  86
ATOM     86  C   UNL     1       3.163 -17.241  12.996  1.00  0.00     0.064 A 
ATOM     87  C   UNL     1       2.283 -18.031  12.241  1.00  0.00     0.173 A 
ATOM     88  C   UNL     1       3.729 -17.809  14.149  1.00  0.00     0.173 A 
ATOM     89  F   UNL     1       1.705 -17.532  11.138  1.00  0.00    -0.203 F 
ATOM     90  C   UNL     1       1.954 -19.322  12.645  1.00  0.00     0.198 A 
ATOM     91  C   UNL     1       3.427 -19.113  14.528  1.00  0.00     0.198 A 
ATOM     92  F   UNL     1       4.585 -17.102  14.902  1.00  0.00    -0.203 F 
ATOM     93  F   UNL     1       1.063 -20.035  11.942  1.00  0.00    -0.200 F 
ATOM     94  C   UNL     1       2.531 -19.864  13.783  1.00  0.00     0.200 A 
ATOM     95  F   UNL     1       4.001 -19.642  15.618  1.00  0.00    -0.200 F 
ATOM     96  F   UNL     1       2.218 -21.110  14.167  1.00  0.00    -0.200 F 
ENDBRANCH  63  86
ENDBRANCH  37  38
ENDBRANCH  29  32
ENDBRANCH  27  28
ENDBRANCH  26  27
ENDBRANCH  25  26
ENDBRANCH  24  25
ENDBRANCH   1  24
TORSDOF 18
