REMARK SMILES C[C@@H](Oc1ccc(N)cc1)C(=O)NCCCCCCNC(=O)c1ccc(-c2c3nc(c(-c4c(F)c(F)c(F)c(F)c4F)c4ccc([nH]4)c(-c4c(F)c(F)c(F)c(F)c4F)c4nc(c(-c5c(F)c(F)c(F)c(F)c5F)c5ccc2[nH]5)C=C4)C=C3)cc1
REMARK SMILES IDX 16 1 15 2 14 3 13 4 11 5 12 6 2 8 1 9 3 10 4 11 5 12 10 13
REMARK SMILES IDX 6 14 9 15 7 16 8 17 17 20 18 21 19 22 20 23 21 24 22 26
REMARK SMILES IDX 23 27 24 28 85 29 25 30 84 31 26 32 27 33 28 34 78 35 29 36
REMARK SMILES IDX 83 37 77 38 79 39 30 40 82 41 76 42 75 43 31 45 63 46 43 47
REMARK SMILES IDX 62 48 44 49 47 50 61 51 80 52 45 53 46 54 60 56 81 57 48 58
REMARK SMILES IDX 32 59 33 60 41 61 34 62 35 63 39 64 42 65 36 66 37 67 40 68
REMARK SMILES IDX 38 69 64 70 65 71 73 72 66 73 67 74 71 75 74 76 68 77 69 78
REMARK SMILES IDX 72 79 70 80 49 81 50 82 58 83 51 84 52 85 56 86 59 87 53 88
REMARK SMILES IDX 54 89 57 90 55 91
REMARK H PARENT 13 7 8 18 8 19 20 25 79 44 47 55
REMARK Flexibility Score: inf
ROOT
ATOM      1  C   UNL     1      -3.057   2.700  -0.349  1.00  0.00     0.002 C 
ENDROOT
BRANCH   1   2
ATOM      2  C   UNL     1      -1.553   2.413  -0.346  1.00  0.00     0.021 C 
BRANCH   2   3
ATOM      3  C   UNL     1      -1.022   1.872   0.978  1.00  0.00     0.116 C 
BRANCH   3   4
ATOM      4  N   UNL     1      -1.514   0.532   1.247  1.00  0.00    -0.353 N 
ATOM      5  C   UNL     1      -0.816  -0.634   1.408  1.00  0.00     0.260 C 
ATOM      6  O   UNL     1      -1.456  -1.665   1.634  1.00  0.00    -0.271 OA
ATOM      7  H   UNL     1      -2.492   0.452   1.324  1.00  0.00     0.163 HD
BRANCH   5   8
ATOM      8  C   UNL     1       0.712  -0.662   1.242  1.00  0.00     0.258 C 
ATOM      9  C   UNL     1       1.036  -0.519  -0.244  1.00  0.00     0.064 C 
BRANCH   8  10
ATOM     10  O   UNL     1       1.226   0.379   2.081  1.00  0.00    -0.481 OA
BRANCH  10  11
ATOM     11  C   UNL     1       2.564   0.355   2.324  1.00  0.00     0.120 A 
ATOM     12  C   UNL     1       3.482   0.761   1.362  1.00  0.00     0.048 A 
ATOM     13  C   UNL     1       2.982   0.133   3.632  1.00  0.00     0.048 A 
ATOM     14  C   UNL     1       4.832   0.885   1.696  1.00  0.00     0.029 A 
ATOM     15  C   UNL     1       4.333   0.272   3.964  1.00  0.00     0.029 A 
ATOM     16  C   UNL     1       5.275   0.620   2.993  1.00  0.00     0.032 A 
BRANCH  16  17
ATOM     17  N   UNL     1       6.596   0.848   3.339  1.00  0.00    -0.399 N 
ATOM     18  H   UNL     1       7.251   1.093   2.646  1.00  0.00     0.156 HD
ATOM     19  H   UNL     1       6.880   0.767   4.278  1.00  0.00     0.156 HD
ENDBRANCH  16  17
ENDBRANCH  10  11
ENDBRANCH   8  10
ENDBRANCH   5   8
ENDBRANCH   3   4
ENDBRANCH   2   3
ENDBRANCH   1   2
BRANCH   1  20
ATOM     20  C   UNL     1      -3.533   3.676   0.731  1.00  0.00     0.002 C 
BRANCH  20  21
ATOM     21  C   UNL     1      -2.809   5.025   0.755  1.00  0.00     0.021 C 
BRANCH  21  22
ATOM     22  C   UNL     1      -2.889   5.813  -0.548  1.00  0.00     0.116 C 
BRANCH  22  23
ATOM     23  N   UNL     1      -4.255   6.184  -0.881  1.00  0.00    -0.352 N 
ATOM     24  C   UNL     1      -4.778   7.421  -1.156  1.00  0.00     0.251 C 
ATOM     25  H   UNL     1      -4.898   5.439  -0.913  1.00  0.00     0.163 HD
ATOM     26  O   UNL     1      -5.997   7.576  -1.227  1.00  0.00    -0.269 OA
BRANCH  24  27
ATOM     27  C   UNL     1      -3.880   8.578  -1.350  1.00  0.00     0.039 A 
ATOM     28  C   UNL     1      -4.204   9.794  -0.743  1.00  0.00     0.014 A 
ATOM     29  C   UNL     1      -2.729   8.469  -2.136  1.00  0.00     0.014 A 
ATOM     30  C   UNL     1      -3.342  10.884  -0.875  1.00  0.00     0.010 A 
ATOM     31  C   UNL     1      -1.834   9.533  -2.204  1.00  0.00     0.010 A 
ATOM     32  C   UNL     1      -2.133  10.753  -1.579  1.00  0.00    -0.014 A 
BRANCH  32  33
ATOM     33  C   UNL     1      -1.171  11.881  -1.671  1.00  0.00     0.031 A 
ATOM     34  C   UNL     1      -0.849  12.493  -3.006  1.00  0.00     0.074 A 
ATOM     35  C   UNL     1      -0.543  12.313  -0.561  1.00  0.00     0.049 A 
ATOM     36  N   UNL     1       0.011  13.437  -3.299  1.00  0.00    -0.248 NA
ATOM     37  C   UNL     1      -1.569  11.956  -4.171  1.00  0.00     0.031 C 
ATOM     38  C   UNL     1      -0.737  11.771   0.785  1.00  0.00     0.029 A 
ATOM     39  N   UNL     1       0.395  13.300  -0.388  1.00  0.00    -0.354 N 
ATOM     40  C   UNL     1      -0.057  13.595  -4.677  1.00  0.00     0.074 A 
ATOM     41  C   UNL     1      -0.999  12.614  -5.170  1.00  0.00     0.031 C 
ATOM     42  C   UNL     1       0.039  12.446   1.647  1.00  0.00     0.029 A 
ATOM     43  C   UNL     1       0.816  13.439   0.912  1.00  0.00     0.049 A 
ATOM     44  H   UNL     1       0.734  13.856  -1.127  1.00  0.00     0.167 HD
ATOM     45  C   UNL     1       0.589  14.495  -5.457  1.00  0.00     0.037 A 
ATOM     46  C   UNL     1       1.733  14.266   1.448  1.00  0.00     0.037 A 
ATOM     47  C   UNL     1       1.511  15.482  -4.960  1.00  0.00     0.049 A 
ATOM     48  C   UNL     1       2.451  15.243   0.556  1.00  0.00     0.074 A 
ATOM     49  C   UNL     1       2.174  16.474  -5.661  1.00  0.00     0.029 A 
ATOM     50  N   UNL     1       1.904  15.600  -3.634  1.00  0.00    -0.354 N 
ATOM     51  N   UNL     1       2.326  15.432  -0.735  1.00  0.00    -0.248 NA
ATOM     52  C   UNL     1       3.432  16.129   1.198  1.00  0.00     0.031 C 
ATOM     53  C   UNL     1       3.010  17.156  -4.770  1.00  0.00     0.029 A 
ATOM     54  C   UNL     1       2.822  16.630  -3.502  1.00  0.00     0.049 A 
ATOM     55  H   UNL     1       1.580  15.034  -2.896  1.00  0.00     0.167 HD
ATOM     56  C   UNL     1       3.187  16.474  -1.054  1.00  0.00     0.074 A 
ATOM     57  C   UNL     1       3.816  16.888   0.182  1.00  0.00     0.031 C 
ATOM     58  C   UNL     1       3.434  17.037  -2.263  1.00  0.00     0.037 A 
BRANCH  45  59
ATOM     59  C   UNL     1       0.323  14.453  -6.935  1.00  0.00     0.064 A 
ATOM     60  C   UNL     1      -0.920  14.824  -7.471  1.00  0.00     0.173 A 
ATOM     61  C   UNL     1       1.335  14.074  -7.831  1.00  0.00     0.173 A 
ATOM     62  F   UNL     1      -1.925  15.185  -6.659  1.00  0.00    -0.203 F 
ATOM     63  C   UNL     1      -1.149  14.789  -8.844  1.00  0.00     0.198 A 
ATOM     64  C   UNL     1       1.113  14.072  -9.206  1.00  0.00     0.198 A 
ATOM     65  F   UNL     1       2.544  13.715  -7.374  1.00  0.00    -0.203 F 
ATOM     66  F   UNL     1      -2.360  15.098  -9.328  1.00  0.00    -0.200 F 
ATOM     67  C   UNL     1      -0.131  14.421  -9.710  1.00  0.00     0.200 A 
ATOM     68  F   UNL     1       2.102  13.731 -10.042  1.00  0.00    -0.200 F 
ATOM     69  F   UNL     1      -0.350  14.396 -11.032  1.00  0.00    -0.200 F 
ENDBRANCH  45  59
BRANCH  46  70
ATOM     70  C   UNL     1       2.014  14.220   2.908  1.00  0.00     0.064 A 
ATOM     71  C   UNL     1       1.659  15.288   3.744  1.00  0.00     0.173 A 
ATOM     72  C   UNL     1       2.651  13.117   3.495  1.00  0.00     0.173 A 
ATOM     73  F   UNL     1       1.066  16.374   3.226  1.00  0.00    -0.203 F 
ATOM     74  C   UNL     1       1.953  15.266   5.106  1.00  0.00     0.198 A 
ATOM     75  C   UNL     1       2.916  13.082   4.863  1.00  0.00     0.198 A 
ATOM     76  F   UNL     1       3.008  12.067   2.741  1.00  0.00    -0.203 F 
ATOM     77  F   UNL     1       1.649  16.323   5.871  1.00  0.00    -0.200 F 
ATOM     78  C   UNL     1       2.576  14.161   5.665  1.00  0.00     0.200 A 
ATOM     79  F   UNL     1       3.504  12.006   5.402  1.00  0.00    -0.200 F 
ATOM     80  F   UNL     1       2.856  14.138   6.975  1.00  0.00    -0.200 F 
ENDBRANCH  46  70
BRANCH  58  81
ATOM     81  C   UNL     1       4.396  18.190  -2.303  1.00  0.00     0.064 A 
ATOM     82  C   UNL     1       5.772  18.012  -2.098  1.00  0.00     0.173 A 
ATOM     83  C   UNL     1       3.937  19.485  -2.590  1.00  0.00     0.173 A 
ATOM     84  F   UNL     1       6.260  16.797  -1.805  1.00  0.00    -0.203 F 
ATOM     85  C   UNL     1       6.649  19.092  -2.150  1.00  0.00     0.198 A 
ATOM     86  C   UNL     1       4.821  20.557  -2.676  1.00  0.00     0.198 A 
ATOM     87  F   UNL     1       2.632  19.709  -2.802  1.00  0.00    -0.203 F 
ATOM     88  F   UNL     1       7.952  18.907  -1.899  1.00  0.00    -0.200 F 
ATOM     89  C   UNL     1       6.175  20.361  -2.448  1.00  0.00     0.200 A 
ATOM     90  F   UNL     1       4.363  21.779  -2.980  1.00  0.00    -0.200 F 
ATOM     91  F   UNL     1       7.022  21.398  -2.507  1.00  0.00    -0.200 F 
ENDBRANCH  58  81
ENDBRANCH  32  33
ENDBRANCH  24  27
ENDBRANCH  22  23
ENDBRANCH  21  22
ENDBRANCH  20  21
ENDBRANCH   1  20
TORSDOF 16
