REMARK SMILES Nc1cc(C(=O)NCCCCCCNC(=O)c2ccc(-c3c4nc(c(-c5c(F)c(F)c(F)c(F)c5F)c5ccc([nH]5)c(-c5c(F)c(F)c(F)c(F)c5F)c5nc(c(-c6c(F)c(F)c(F)c(F)c6F)c6ccc3[nH]6)C=C5)C=C4)cc2)c(-c2ccc(F)cc2O)cn1
REMARK SMILES IDX 10 1 9 2 8 3 7 4 5 5 6 6 4 8 2 9 3 10 90 11 89 12 80 13 1 14
REMARK SMILES IDX 81 17 82 18 87 19 83 20 86 21 84 22 85 23 88 24 11 26 12 27
REMARK SMILES IDX 13 28 14 29 15 30 16 32 17 33 18 34 79 35 19 36 78 37 20 38
REMARK SMILES IDX 21 39 22 40 72 41 23 42 77 43 71 44 73 45 24 46 76 47 70 48
REMARK SMILES IDX 69 49 25 51 57 52 37 53 56 54 38 55 41 56 55 57 74 58 39 59
REMARK SMILES IDX 40 60 54 62 75 63 42 64 26 65 27 66 35 67 28 68 29 69 33 70
REMARK SMILES IDX 36 71 30 72 31 73 34 74 32 75 58 76 59 77 67 78 60 79 61 80
REMARK SMILES IDX 65 81 68 82 62 83 63 84 66 85 64 86 43 87 44 88 52 89 45 90
REMARK SMILES IDX 46 91 50 92 53 93 47 94 48 95 51 96 49 97
REMARK H PARENT 7 7 1 15 1 16 88 25 14 31 73 50 41 61
REMARK Flexibility Score: inf
ROOT
ATOM      1  C   UNL     1      -0.319  -6.035   1.129  1.00  0.00     0.002 C 
ENDROOT
BRANCH   1   2
ATOM      2  C   UNL     1       0.364  -4.668   0.948  1.00  0.00     0.021 C 
BRANCH   2   3
ATOM      3  C   UNL     1       0.050  -4.010  -0.401  1.00  0.00     0.116 C 
BRANCH   3   4
ATOM      4  N   UNL     1      -1.302  -3.491  -0.376  1.00  0.00    -0.352 N 
ATOM      5  C   UNL     1      -1.875  -2.304  -0.007  1.00  0.00     0.252 C 
ATOM      6  O   UNL     1      -3.082  -2.382   0.228  1.00  0.00    -0.269 OA
ATOM      7  H   UNL     1      -1.963  -4.145  -0.699  1.00  0.00     0.163 HD
BRANCH   5   8
ATOM      8  C   UNL     1      -1.168  -0.984   0.102  1.00  0.00     0.052 A 
ATOM      9  C   UNL     1       0.872   0.305   0.251  1.00  0.00     0.124 A 
ATOM     10  C   UNL     1       0.214  -0.912   0.315  1.00  0.00     0.061 A 
ATOM     11  N   UNL     1       0.226   1.460   0.089  1.00  0.00    -0.239 NA
ATOM     12  C   UNL     1      -1.121   1.401  -0.004  1.00  0.00     0.123 A 
ATOM     13  C   UNL     1      -1.888   0.231  -0.007  1.00  0.00     0.017 A 
BRANCH   9  14
ATOM     14  N   UNL     1       2.242   0.378   0.404  1.00  0.00    -0.384 N 
ATOM     15  H   UNL     1       2.768  -0.445   0.526  1.00  0.00     0.158 HD
ATOM     16  H   UNL     1       2.693   1.253   0.389  1.00  0.00     0.158 HD
ENDBRANCH   9  14
BRANCH  13  17
ATOM     17  C   UNL     1      -3.358   0.383  -0.074  1.00  0.00     0.026 A 
ATOM     18  C   UNL     1      -3.970   0.944  -1.210  1.00  0.00     0.015 A 
ATOM     19  C   UNL     1      -4.198   0.053   1.010  1.00  0.00     0.126 A 
ATOM     20  C   UNL     1      -5.355   1.141  -1.255  1.00  0.00     0.040 A 
ATOM     21  C   UNL     1      -5.574   0.248   0.978  1.00  0.00     0.086 A 
ATOM     22  C   UNL     1      -6.142   0.789  -0.164  1.00  0.00     0.126 A 
ATOM     23  F   UNL     1      -7.468   0.965  -0.221  1.00  0.00    -0.207 F 
BRANCH  19  24
ATOM     24  O   UNL     1      -3.692  -0.565   2.123  1.00  0.00    -0.507 OA
ATOM     25  H   UNL     1      -2.771  -0.721   2.194  1.00  0.00     0.293 HD
ENDBRANCH  19  24
ENDBRANCH  13  17
ENDBRANCH   5   8
ENDBRANCH   3   4
ENDBRANCH   2   3
ENDBRANCH   1   2
BRANCH   1  26
ATOM     26  C   UNL     1       0.052  -7.087   0.076  1.00  0.00     0.002 C 
BRANCH  26  27
ATOM     27  C   UNL     1       1.556  -7.296  -0.119  1.00  0.00     0.021 C 
BRANCH  27  28
ATOM     28  C   UNL     1       2.279  -7.794   1.127  1.00  0.00     0.116 C 
BRANCH  28  29
ATOM     29  N   UNL     1       1.867  -9.143   1.481  1.00  0.00    -0.352 N 
ATOM     30  C   UNL     1       2.635 -10.269   1.640  1.00  0.00     0.251 C 
ATOM     31  H   UNL     1       0.901  -9.265   1.627  1.00  0.00     0.163 HD
ATOM     32  O   UNL     1       2.109 -11.374   1.708  1.00  0.00    -0.269 OA
BRANCH  30  33
ATOM     33  C   UNL     1       4.106 -10.146   1.718  1.00  0.00     0.039 A 
ATOM     34  C   UNL     1       4.898 -11.046   1.001  1.00  0.00     0.014 A 
ATOM     35  C   UNL     1       4.699  -9.159   2.509  1.00  0.00     0.014 A 
ATOM     36  C   UNL     1       6.288 -10.923   1.039  1.00  0.00     0.010 A 
ATOM     37  C   UNL     1       6.080  -8.994   2.490  1.00  0.00     0.010 A 
ATOM     38  C   UNL     1       6.889  -9.880   1.762  1.00  0.00    -0.014 A 
BRANCH  38  39
ATOM     39  C   UNL     1       8.362  -9.704   1.777  1.00  0.00     0.031 A 
ATOM     40  C   UNL     1       9.127  -9.866   3.061  1.00  0.00     0.074 A 
ATOM     41  C   UNL     1       9.000  -9.338   0.649  1.00  0.00     0.049 A 
ATOM     42  N   UNL     1      10.403  -9.688   3.293  1.00  0.00    -0.248 NA
ATOM     43  C   UNL     1       8.350 -10.253   4.249  1.00  0.00     0.031 C 
ATOM     44  C   UNL     1       8.360  -9.107  -0.646  1.00  0.00     0.029 A 
ATOM     45  N   UNL     1      10.328  -9.086   0.413  1.00  0.00    -0.354 N 
ATOM     46  C   UNL     1      10.577  -9.926   4.650  1.00  0.00     0.074 A 
ATOM     47  C   UNL     1       9.270 -10.208   5.201  1.00  0.00     0.031 C 
ATOM     48  C   UNL     1       9.297  -8.768  -1.546  1.00  0.00     0.029 A 
ATOM     49  C   UNL     1      10.597  -8.721  -0.883  1.00  0.00     0.049 A 
ATOM     50  H   UNL     1      11.022  -9.160   1.108  1.00  0.00     0.167 HD
ATOM     51  C   UNL     1      11.727  -9.932   5.365  1.00  0.00     0.037 A 
ATOM     52  C   UNL     1      11.761  -8.380  -1.468  1.00  0.00     0.037 A 
ATOM     53  C   UNL     1      13.028  -9.676   4.806  1.00  0.00     0.049 A 
ATOM     54  C   UNL     1      13.023  -8.390  -0.648  1.00  0.00     0.074 A 
ATOM     55  C   UNL     1      14.261  -9.720   5.433  1.00  0.00     0.029 A 
ATOM     56  N   UNL     1      13.264  -9.327   3.484  1.00  0.00    -0.354 N 
ATOM     57  N   UNL     1      13.186  -8.684   0.619  1.00  0.00    -0.248 NA
ATOM     58  C   UNL     1      14.266  -8.026  -1.343  1.00  0.00     0.031 C 
ATOM     59  C   UNL     1      15.238  -9.349   4.503  1.00  0.00     0.029 A 
ATOM     60  C   UNL     1      14.620  -9.128   3.282  1.00  0.00     0.049 A 
ATOM     61  H   UNL     1      12.570  -9.233   2.792  1.00  0.00     0.167 HD
ATOM     62  C   UNL     1      14.547  -8.571   0.866  1.00  0.00     0.074 A 
ATOM     63  C   UNL     1      15.168  -8.194  -0.387  1.00  0.00     0.031 C 
ATOM     64  C   UNL     1      15.222  -8.761   2.026  1.00  0.00     0.037 A 
BRANCH  51  65
ATOM     65  C   UNL     1      11.630 -10.226   6.835  1.00  0.00     0.064 A 
ATOM     66  C   UNL     1      11.295 -11.503   7.310  1.00  0.00     0.173 A 
ATOM     67  C   UNL     1      11.910  -9.228   7.781  1.00  0.00     0.173 A 
ATOM     68  F   UNL     1      11.007 -12.490   6.448  1.00  0.00    -0.203 F 
ATOM     69  C   UNL     1      11.215 -11.762   8.676  1.00  0.00     0.198 A 
ATOM     70  C   UNL     1      11.860  -9.499   9.146  1.00  0.00     0.198 A 
ATOM     71  F   UNL     1      12.241  -7.991   7.382  1.00  0.00    -0.203 F 
ATOM     72  F   UNL     1      10.844 -12.977   9.105  1.00  0.00    -0.200 F 
ATOM     73  C   UNL     1      11.505 -10.763   9.592  1.00  0.00     0.200 A 
ATOM     74  F   UNL     1      12.153  -8.536  10.030  1.00  0.00    -0.200 F 
ATOM     75  F   UNL     1      11.435 -11.016  10.907  1.00  0.00    -0.200 F 
ENDBRANCH  51  65
BRANCH  52  76
ATOM     76  C   UNL     1      11.791  -8.025  -2.911  1.00  0.00     0.064 A 
ATOM     77  C   UNL     1      12.408  -8.868  -3.846  1.00  0.00     0.173 A 
ATOM     78  C   UNL     1      11.210  -6.840  -3.385  1.00  0.00     0.173 A 
ATOM     79  F   UNL     1      12.995 -10.003  -3.438  1.00  0.00    -0.203 F 
ATOM     80  C   UNL     1      12.462  -8.529  -5.196  1.00  0.00     0.198 A 
ATOM     81  C   UNL     1      11.239  -6.516  -4.739  1.00  0.00     0.198 A 
ATOM     82  F   UNL     1      10.601  -6.002  -2.532  1.00  0.00    -0.203 F 
ATOM     83  F   UNL     1      13.099  -9.331  -6.061  1.00  0.00    -0.200 F 
ATOM     84  C   UNL     1      11.873  -7.356  -5.643  1.00  0.00     0.200 A 
ATOM     85  F   UNL     1      10.654  -5.390  -5.169  1.00  0.00    -0.200 F 
ATOM     86  F   UNL     1      11.921  -7.032  -6.942  1.00  0.00    -0.200 F 
ENDBRANCH  52  76
BRANCH  64  87
ATOM     87  C   UNL     1      16.714  -8.601   1.987  1.00  0.00     0.064 A 
ATOM     88  C   UNL     1      17.317  -7.342   1.853  1.00  0.00     0.173 A 
ATOM     89  C   UNL     1      17.551  -9.719   2.127  1.00  0.00     0.173 A 
ATOM     90  F   UNL     1      16.561  -6.244   1.700  1.00  0.00    -0.203 F 
ATOM     91  C   UNL     1      18.703  -7.212   1.834  1.00  0.00     0.198 A 
ATOM     92  C   UNL     1      18.936  -9.582   2.139  1.00  0.00     0.198 A 
ATOM     93  F   UNL     1      17.024 -10.945   2.265  1.00  0.00    -0.203 F 
ATOM     94  F   UNL     1      19.258  -6.005   1.655  1.00  0.00    -0.200 F 
ATOM     95  C   UNL     1      19.511  -8.329   1.985  1.00  0.00     0.200 A 
ATOM     96  F   UNL     1      19.713 -10.661   2.299  1.00  0.00    -0.200 F 
ATOM     97  F   UNL     1      20.845  -8.200   1.974  1.00  0.00    -0.200 F 
ENDBRANCH  64  87
ENDBRANCH  38  39
ENDBRANCH  30  33
ENDBRANCH  28  29
ENDBRANCH  27  28
ENDBRANCH  26  27
ENDBRANCH   1  26
TORSDOF 16
