REMARK SMILES CC(C)CSc1cc2c(cc1Cl)C=C(C(=O)NCCCCCCNC(=O)c1ccc(-c3c4nc(c(-c5c(F)c(F)c(F)c(F)c5F)c5ccc([nH]5)c(-c5c(F)c(F)c(F)c(F)c5F)c5nc(c(-c6c(F)c(F)c(F)c(F)c6F)c6ccc3[nH]6)C=C5)C=C4)cc1)[C@H](C(F)(F)F)O2
REMARK SMILES IDX 20 1 19 2 18 3 17 4 15 5 16 6 14 8 6 9 7 10 11 11 8 12 10 13
REMARK SMILES IDX 12 14 9 15 95 16 13 17 90 18 5 19 4 20 2 21 1 22 3 23 91 24
REMARK SMILES IDX 92 25 93 26 94 27 21 28 22 29 23 30 24 31 25 32 26 34 27 35
REMARK SMILES IDX 28 36 89 37 29 38 88 39 30 40 31 41 32 42 82 43 33 44 87 45
REMARK SMILES IDX 81 46 83 47 34 48 86 49 80 50 79 51 35 53 67 54 47 55 66 56
REMARK SMILES IDX 48 57 51 58 65 59 84 60 49 61 50 62 64 64 85 65 52 66 36 67
REMARK SMILES IDX 37 68 45 69 38 70 39 71 43 72 46 73 40 74 41 75 44 76 42 77
REMARK SMILES IDX 68 78 69 79 77 80 70 81 71 82 75 83 78 84 72 85 73 86 76 87
REMARK SMILES IDX 74 88 53 89 54 90 62 91 55 92 56 93 60 94 63 95 57 96 58 97
REMARK SMILES IDX 61 98 59 99
REMARK H PARENT 17 7 24 33 83 52 51 63
REMARK Flexibility Score: inf
ROOT
ATOM      1  C   UNL     1      -1.132  10.472  -1.107  1.00  0.00     0.002 C 
ENDROOT
BRANCH   1   2
ATOM      2  C   UNL     1      -1.304   8.993  -0.749  1.00  0.00     0.021 C 
BRANCH   2   3
ATOM      3  C   UNL     1      -1.863   8.137  -1.884  1.00  0.00     0.116 C 
BRANCH   3   4
ATOM      4  N   UNL     1      -0.805   7.671  -2.761  1.00  0.00    -0.352 N 
ATOM      5  C   UNL     1      -0.244   6.490  -3.104  1.00  0.00     0.251 C 
ATOM      6  O   UNL     1       0.678   6.570  -3.922  1.00  0.00    -0.270 OA
ATOM      7  H   UNL     1      -0.379   8.421  -3.237  1.00  0.00     0.163 HD
BRANCH   5   8
ATOM      8  C   UNL     1      -0.656   5.148  -2.588  1.00  0.00     0.067 C 
ATOM      9  C   UNL     1      -1.082   0.154  -1.947  1.00  0.00     0.030 A 
ATOM     10  C   UNL     1      -1.720   1.271  -1.393  1.00  0.00     0.063 A 
ATOM     11  C   UNL     1      -0.163   0.353  -2.993  1.00  0.00     0.055 A 
ATOM     12  C   UNL     1      -1.396   2.558  -1.821  1.00  0.00     0.129 A 
ATOM     13  C   UNL     1       0.151   1.647  -3.424  1.00  0.00     0.033 A 
ATOM     14  Cl  UNL     1       0.659  -0.957  -3.770  1.00  0.00    -0.083 Cl
ATOM     15  C   UNL     1      -0.457   2.754  -2.828  1.00  0.00     0.019 A 
ATOM     16  O   UNL     1      -2.070   3.579  -1.222  1.00  0.00    -0.475 OA
ATOM     17  C   UNL     1      -0.141   4.104  -3.262  1.00  0.00     0.025 C 
ATOM     18  C   UNL     1      -1.541   4.924  -1.392  1.00  0.00     0.314 C 
BRANCH   9  19
ATOM     19  S   UNL     1      -1.463  -1.464  -1.290  1.00  0.00    -0.124 SA
BRANCH  19  20
ATOM     20  C   UNL     1      -0.927  -1.281   0.455  1.00  0.00     0.078 C 
BRANCH  20  21
ATOM     21  C   UNL     1       0.596  -1.368   0.671  1.00  0.00    -0.007 C 
ATOM     22  C   UNL     1       1.323  -0.053   0.378  1.00  0.00     0.008 C 
ATOM     23  C   UNL     1       0.881  -1.769   2.123  1.00  0.00     0.008 C 
ENDBRANCH  20  21
ENDBRANCH  19  20
ENDBRANCH   9  19
BRANCH  18  24
ATOM     24  C   UNL     1      -0.909   5.378  -0.062  1.00  0.00     0.429 C 
ATOM     25  F   UNL     1      -1.842   5.979   0.721  1.00  0.00    -0.167 F 
ATOM     26  F   UNL     1      -0.396   4.347   0.648  1.00  0.00    -0.167 F 
ATOM     27  F   UNL     1       0.090   6.273  -0.227  1.00  0.00    -0.167 F 
ENDBRANCH  18  24
ENDBRANCH   5   8
ENDBRANCH   3   4
ENDBRANCH   2   3
ENDBRANCH   1   2
BRANCH   1  28
ATOM     28  C   UNL     1      -2.419  11.208  -1.498  1.00  0.00     0.002 C 
BRANCH  28  29
ATOM     29  C   UNL     1      -3.593  11.035  -0.532  1.00  0.00     0.021 C 
BRANCH  29  30
ATOM     30  C   UNL     1      -3.306  11.461   0.903  1.00  0.00     0.116 C 
BRANCH  30  31
ATOM     31  N   UNL     1      -3.035  12.886   1.018  1.00  0.00    -0.352 N 
ATOM     32  C   UNL     1      -3.648  13.829   1.807  1.00  0.00     0.251 C 
ATOM     33  H   UNL     1      -2.308  13.223   0.448  1.00  0.00     0.163 HD
ATOM     34  O   UNL     1      -3.408  15.022   1.650  1.00  0.00    -0.269 OA
BRANCH  32  35
ATOM     35  C   UNL     1      -4.629  13.402   2.827  1.00  0.00     0.039 A 
ATOM     36  C   UNL     1      -4.355  12.317   3.663  1.00  0.00     0.014 A 
ATOM     37  C   UNL     1      -5.848  14.078   2.928  1.00  0.00     0.014 A 
ATOM     38  C   UNL     1      -5.363  11.800   4.468  1.00  0.00     0.010 A 
ATOM     39  C   UNL     1      -6.829  13.608   3.806  1.00  0.00     0.010 A 
ATOM     40  C   UNL     1      -6.615  12.433   4.542  1.00  0.00    -0.014 A 
BRANCH  40  41
ATOM     41  C   UNL     1      -7.687  11.828   5.376  1.00  0.00     0.031 A 
ATOM     42  C   UNL     1      -8.941  11.290   4.742  1.00  0.00     0.074 A 
ATOM     43  C   UNL     1      -7.495  11.699   6.703  1.00  0.00     0.049 A 
ATOM     44  N   UNL     1      -9.962  10.693   5.306  1.00  0.00    -0.248 NA
ATOM     45  C   UNL     1      -9.073  11.443   3.284  1.00  0.00     0.031 C 
ATOM     46  C   UNL     1      -6.315  12.169   7.430  1.00  0.00     0.029 A 
ATOM     47  N   UNL     1      -8.268  11.108   7.670  1.00  0.00    -0.354 N 
ATOM     48  C   UNL     1     -10.856  10.413   4.281  1.00  0.00     0.074 A 
ATOM     49  C   UNL     1     -10.279  10.938   3.063  1.00  0.00     0.031 C 
ATOM     50  C   UNL     1      -6.414  11.797   8.714  1.00  0.00     0.029 A 
ATOM     51  C   UNL     1      -7.690  11.118   8.916  1.00  0.00     0.049 A 
ATOM     52  H   UNL     1      -9.153  10.716   7.489  1.00  0.00     0.167 HD
ATOM     53  C   UNL     1     -12.041   9.761   4.348  1.00  0.00     0.037 A 
ATOM     54  C   UNL     1      -8.140  10.643  10.093  1.00  0.00     0.037 A 
ATOM     55  C   UNL     1     -12.600   9.216   5.557  1.00  0.00     0.049 A 
ATOM     56  C   UNL     1      -9.484   9.974  10.147  1.00  0.00     0.074 A 
ATOM     57  C   UNL     1     -13.781   8.511   5.718  1.00  0.00     0.029 A 
ATOM     58  N   UNL     1     -12.018   9.314   6.812  1.00  0.00    -0.354 N 
ATOM     59  N   UNL     1     -10.311   9.702   9.167  1.00  0.00    -0.248 NA
ATOM     60  C   UNL     1      -9.964   9.557  11.472  1.00  0.00     0.031 C 
ATOM     61  C   UNL     1     -13.936   8.223   7.077  1.00  0.00     0.029 A 
ATOM     62  C   UNL     1     -12.829   8.707   7.757  1.00  0.00     0.049 A 
ATOM     63  H   UNL     1     -11.156   9.750   7.003  1.00  0.00     0.167 HD
ATOM     64  C   UNL     1     -11.404   9.079   9.753  1.00  0.00     0.074 A 
ATOM     65  C   UNL     1     -11.124   8.990  11.171  1.00  0.00     0.031 C 
ATOM     66  C   UNL     1     -12.540   8.631   9.167  1.00  0.00     0.037 A 
BRANCH  53  67
ATOM     67  C   UNL     1     -12.823   9.594   3.077  1.00  0.00     0.064 A 
ATOM     68  C   UNL     1     -12.415   8.700   2.076  1.00  0.00     0.173 A 
ATOM     69  C   UNL     1     -14.031  10.283   2.889  1.00  0.00     0.173 A 
ATOM     70  F   UNL     1     -11.263   8.025   2.202  1.00  0.00    -0.203 F 
ATOM     71  C   UNL     1     -13.179   8.515   0.926  1.00  0.00     0.198 A 
ATOM     72  C   UNL     1     -14.806  10.076   1.750  1.00  0.00     0.198 A 
ATOM     73  F   UNL     1     -14.470  11.145   3.819  1.00  0.00    -0.203 F 
ATOM     74  F   UNL     1     -12.752   7.681  -0.033  1.00  0.00    -0.200 F 
ATOM     75  C   UNL     1     -14.378   9.195   0.769  1.00  0.00     0.200 A 
ATOM     76  F   UNL     1     -15.970  10.723   1.606  1.00  0.00    -0.200 F 
ATOM     77  F   UNL     1     -15.118   9.004  -0.332  1.00  0.00    -0.200 F 
ENDBRANCH  53  67
BRANCH  54  78
ATOM     78  C   UNL     1      -7.301  10.786  11.310  1.00  0.00     0.064 A 
ATOM     79  C   UNL     1      -6.713   9.666  11.913  1.00  0.00     0.173 A 
ATOM     80  C   UNL     1      -7.042  12.043  11.874  1.00  0.00     0.173 A 
ATOM     81  F   UNL     1      -6.949   8.440  11.421  1.00  0.00    -0.203 F 
ATOM     82  C   UNL     1      -5.899   9.798  13.036  1.00  0.00     0.198 A 
ATOM     83  C   UNL     1      -6.204  12.178  12.979  1.00  0.00     0.198 A 
ATOM     84  F   UNL     1      -7.579  13.146  11.333  1.00  0.00    -0.203 F 
ATOM     85  F   UNL     1      -5.372   8.709  13.610  1.00  0.00    -0.200 F 
ATOM     86  C   UNL     1      -5.637  11.055  13.562  1.00  0.00     0.200 A 
ATOM     87  F   UNL     1      -5.941  13.395  13.473  1.00  0.00    -0.200 F 
ATOM     88  F   UNL     1      -4.840  11.183  14.631  1.00  0.00    -0.200 F 
ENDBRANCH  54  78
BRANCH  66  89
ATOM     89  C   UNL     1     -13.576   8.005  10.052  1.00  0.00     0.064 A 
ATOM     90  C   UNL     1     -14.373   8.785  10.903  1.00  0.00     0.173 A 
ATOM     91  C   UNL     1     -13.830   6.626   9.991  1.00  0.00     0.173 A 
ATOM     92  F   UNL     1     -14.158  10.105  11.006  1.00  0.00    -0.203 F 
ATOM     93  C   UNL     1     -15.381   8.205  11.668  1.00  0.00     0.198 A 
ATOM     94  C   UNL     1     -14.857   6.055  10.737  1.00  0.00     0.198 A 
ATOM     95  F   UNL     1     -13.100   5.839   9.187  1.00  0.00    -0.203 F 
ATOM     96  F   UNL     1     -16.111   8.965  12.496  1.00  0.00    -0.200 F 
ATOM     97  C   UNL     1     -15.630   6.844  11.576  1.00  0.00     0.200 A 
ATOM     98  F   UNL     1     -15.106   4.742  10.636  1.00  0.00    -0.200 F 
ATOM     99  F   UNL     1     -16.614   6.291  12.299  1.00  0.00    -0.200 F 
ENDBRANCH  66  89
ENDBRANCH  40  41
ENDBRANCH  32  35
ENDBRANCH  30  31
ENDBRANCH  29  30
ENDBRANCH  28  29
ENDBRANCH   1  28
TORSDOF 17
