REMARK SMILES O=C(NCCCCCCNC(=O)c1ccc(Cl)cc1NC(=O)c1cc(Cl)nnc1Cl)c1ccc(-c2c3nc(c(-c4c(F)c(F)c(F)c(F)c4F)c4ccc([nH]4)c(-c4c(F)c(F)c(F)c(F)c4F)c4nc(c(-c5c(F)c(F)c(F)c(F)c5F)c5ccc2[nH]5)C=C4)C=C3)cc1
REMARK SMILES IDX 6 1 5 2 4 3 3 4 1 5 2 6 31 8 32 9 93 10 33 11 92 12 34 13
REMARK SMILES IDX 35 14 36 15 86 16 37 17 91 18 85 19 87 20 38 21 90 22 84 23
REMARK SMILES IDX 83 24 39 26 71 27 51 28 70 29 52 30 55 31 69 32 88 33 53 34
REMARK SMILES IDX 54 35 68 37 89 38 56 39 40 40 41 41 49 42 42 43 43 44 47 45
REMARK SMILES IDX 50 46 44 47 45 48 48 49 46 50 72 51 73 52 81 53 74 54 75 55
REMARK SMILES IDX 79 56 82 57 76 58 77 59 80 60 78 61 57 62 58 63 66 64 59 65
REMARK SMILES IDX 60 66 64 67 67 68 61 69 62 70 65 71 63 72 7 73 8 74 9 75
REMARK SMILES IDX 10 76 11 77 12 79 13 80 14 81 19 82 15 83 18 84 16 85 17 86
REMARK SMILES IDX 20 87 21 88 22 90 23 91 24 92 29 93 25 94 28 95 30 96 26 97
REMARK SMILES IDX 27 98
REMARK H PARENT 3 7 87 25 55 36 10 78 20 89
REMARK Flexibility Score: inf
ROOT
ATOM      1  C   UNL     1       4.157  -3.465   1.748  1.00  0.00     0.002 C 
ENDROOT
BRANCH   1   2
ATOM      2  C   UNL     1       4.641  -2.012   1.713  1.00  0.00     0.021 C 
BRANCH   2   3
ATOM      3  C   UNL     1       4.353  -1.260   0.415  1.00  0.00     0.116 C 
BRANCH   3   4
ATOM      4  N   UNL     1       2.929  -1.118   0.166  1.00  0.00    -0.352 N 
ATOM      5  O   UNL     1       0.967  -0.030  -0.077  1.00  0.00    -0.269 OA
ATOM      6  C   UNL     1       2.193   0.018  -0.058  1.00  0.00     0.251 C 
ATOM      7  H   UNL     1       2.417  -1.959   0.157  1.00  0.00     0.163 HD
BRANCH   6   8
ATOM      8  C   UNL     1       2.877   1.313  -0.258  1.00  0.00     0.039 A 
ATOM      9  C   UNL     1       3.922   1.437  -1.178  1.00  0.00     0.014 A 
ATOM     10  C   UNL     1       2.436   2.427   0.463  1.00  0.00     0.014 A 
ATOM     11  C   UNL     1       4.590   2.654  -1.307  1.00  0.00     0.010 A 
ATOM     12  C   UNL     1       3.080   3.656   0.304  1.00  0.00     0.010 A 
ATOM     13  C   UNL     1       4.178   3.770  -0.562  1.00  0.00    -0.014 A 
BRANCH  13  14
ATOM     14  C   UNL     1       4.893   5.060  -0.713  1.00  0.00     0.031 A 
ATOM     15  C   UNL     1       5.808   5.556   0.369  1.00  0.00     0.074 A 
ATOM     16  C   UNL     1       4.731   5.773  -1.843  1.00  0.00     0.049 A 
ATOM     17  N   UNL     1       6.545   6.638   0.395  1.00  0.00    -0.248 NA
ATOM     18  C   UNL     1       5.915   4.727   1.579  1.00  0.00     0.031 C 
ATOM     19  C   UNL     1       3.870   5.389  -2.961  1.00  0.00     0.029 A 
ATOM     20  N   UNL     1       5.290   6.961  -2.240  1.00  0.00    -0.354 N 
ATOM     21  C   UNL     1       7.208   6.616   1.614  1.00  0.00     0.074 A 
ATOM     22  C   UNL     1       6.759   5.434   2.318  1.00  0.00     0.031 C 
ATOM     23  C   UNL     1       3.974   6.313  -3.929  1.00  0.00     0.029 A 
ATOM     24  C   UNL     1       4.882   7.367  -3.486  1.00  0.00     0.049 A 
ATOM     25  H   UNL     1       5.922   7.472  -1.685  1.00  0.00     0.167 HD
ATOM     26  C   UNL     1       8.121   7.495   2.091  1.00  0.00     0.037 A 
ATOM     27  C   UNL     1       5.202   8.470  -4.189  1.00  0.00     0.037 A 
ATOM     28  C   UNL     1       8.562   8.673   1.390  1.00  0.00     0.049 A 
ATOM     29  C   UNL     1       6.166   9.464  -3.605  1.00  0.00     0.074 A 
ATOM     30  C   UNL     1       9.502   9.609   1.784  1.00  0.00     0.029 A 
ATOM     31  N   UNL     1       8.084   9.081   0.154  1.00  0.00    -0.354 N 
ATOM     32  N   UNL     1       6.818   9.412  -2.469  1.00  0.00    -0.248 NA
ATOM     33  C   UNL     1       6.438  10.670  -4.399  1.00  0.00     0.031 C 
ATOM     34  C   UNL     1       9.564  10.606   0.805  1.00  0.00     0.029 A 
ATOM     35  C   UNL     1       8.692  10.270  -0.218  1.00  0.00     0.049 A 
ATOM     36  H   UNL     1       7.412   8.599  -0.380  1.00  0.00     0.167 HD
ATOM     37  C   UNL     1       7.587  10.566  -2.418  1.00  0.00     0.074 A 
ATOM     38  C   UNL     1       7.333  11.293  -3.644  1.00  0.00     0.031 C 
ATOM     39  C   UNL     1       8.426  10.984  -1.440  1.00  0.00     0.037 A 
BRANCH  26  40
ATOM     40  C   UNL     1       8.719   7.218   3.438  1.00  0.00     0.064 A 
ATOM     41  C   UNL     1       9.674   6.207   3.616  1.00  0.00     0.173 A 
ATOM     42  C   UNL     1       8.390   8.015   4.543  1.00  0.00     0.173 A 
ATOM     43  F   UNL     1      10.013   5.410   2.591  1.00  0.00    -0.203 F 
ATOM     44  C   UNL     1      10.272   5.998   4.856  1.00  0.00     0.198 A 
ATOM     45  C   UNL     1       9.005   7.818   5.777  1.00  0.00     0.198 A 
ATOM     46  F   UNL     1       7.485   8.998   4.423  1.00  0.00    -0.203 F 
ATOM     47  F   UNL     1      11.164   5.009   5.010  1.00  0.00    -0.200 F 
ATOM     48  C   UNL     1       9.944   6.809   5.932  1.00  0.00     0.200 A 
ATOM     49  F   UNL     1       8.695   8.607   6.814  1.00  0.00    -0.200 F 
ATOM     50  F   UNL     1      10.530   6.614   7.122  1.00  0.00    -0.200 F 
ENDBRANCH  26  40
BRANCH  27  51
ATOM     51  C   UNL     1       4.612   8.678  -5.535  1.00  0.00     0.064 A 
ATOM     52  C   UNL     1       5.395   8.553  -6.689  1.00  0.00     0.173 A 
ATOM     53  C   UNL     1       3.252   8.984  -5.695  1.00  0.00     0.173 A 
ATOM     54  F   UNL     1       6.705   8.281  -6.583  1.00  0.00    -0.203 F 
ATOM     55  C   UNL     1       4.842   8.732  -7.955  1.00  0.00     0.198 A 
ATOM     56  C   UNL     1       2.696   9.140  -6.962  1.00  0.00     0.198 A 
ATOM     57  F   UNL     1       2.462   9.113  -4.619  1.00  0.00    -0.203 F 
ATOM     58  F   UNL     1       5.619   8.635  -9.043  1.00  0.00    -0.200 F 
ATOM     59  C   UNL     1       3.492   9.018  -8.091  1.00  0.00     0.200 A 
ATOM     60  F   UNL     1       1.388   9.405  -7.089  1.00  0.00    -0.200 F 
ATOM     61  F   UNL     1       2.959   9.180  -9.309  1.00  0.00    -0.200 F 
ENDBRANCH  27  51
BRANCH  39  62
ATOM     62  C   UNL     1       9.141  12.285  -1.653  1.00  0.00     0.064 A 
ATOM     63  C   UNL     1       8.474  13.512  -1.527  1.00  0.00     0.173 A 
ATOM     64  C   UNL     1      10.517  12.306  -1.923  1.00  0.00     0.173 A 
ATOM     65  F   UNL     1       7.155  13.542  -1.284  1.00  0.00    -0.203 F 
ATOM     66  C   UNL     1       9.159  14.715  -1.675  1.00  0.00     0.198 A 
ATOM     67  C   UNL     1      11.203  13.511  -2.046  1.00  0.00     0.198 A 
ATOM     68  F   UNL     1      11.200  11.158  -2.046  1.00  0.00    -0.203 F 
ATOM     69  F   UNL     1       8.497  15.877  -1.580  1.00  0.00    -0.200 F 
ATOM     70  C   UNL     1      10.524  14.714  -1.925  1.00  0.00     0.200 A 
ATOM     71  F   UNL     1      12.524  13.508  -2.275  1.00  0.00    -0.200 F 
ATOM     72  F   UNL     1      11.183  15.873  -2.053  1.00  0.00    -0.200 F 
ENDBRANCH  39  62
ENDBRANCH  13  14
ENDBRANCH   6   8
ENDBRANCH   3   4
ENDBRANCH   2   3
ENDBRANCH   1   2
BRANCH   1  73
ATOM     73  C   UNL     1       4.692  -4.370   0.634  1.00  0.00     0.002 C 
BRANCH  73  74
ATOM     74  C   UNL     1       6.215  -4.405   0.483  1.00  0.00     0.021 C 
BRANCH  74  75
ATOM     75  C   UNL     1       6.984  -4.805   1.741  1.00  0.00     0.116 C 
BRANCH  75  76
ATOM     76  N   UNL     1       6.751  -6.191   2.116  1.00  0.00    -0.352 N 
ATOM     77  C   UNL     1       7.667  -7.198   2.297  1.00  0.00     0.253 C 
ATOM     78  H   UNL     1       5.809  -6.441   2.260  1.00  0.00     0.163 HD
ATOM     79  O   UNL     1       7.303  -8.364   2.408  1.00  0.00    -0.269 OA
BRANCH  77  80
ATOM     80  C   UNL     1       9.112  -6.877   2.283  1.00  0.00     0.063 A 
ATOM     81  C   UNL     1       9.581  -5.900   3.177  1.00  0.00     0.017 A 
ATOM     82  C   UNL     1       9.984  -7.513   1.374  1.00  0.00     0.055 A 
ATOM     83  C   UNL     1      10.895  -5.454   3.091  1.00  0.00     0.021 A 
ATOM     84  C   UNL     1      11.275  -6.989   1.250  1.00  0.00     0.047 A 
ATOM     85  C   UNL     1      11.723  -5.975   2.103  1.00  0.00     0.043 A 
ATOM     86  Cl  UNL     1      13.320  -5.361   1.922  1.00  0.00    -0.084 Cl
BRANCH  82  87
ATOM     87  N   UNL     1       9.513  -8.626   0.633  1.00  0.00    -0.321 N 
ATOM     88  C   UNL     1      10.132  -9.581  -0.137  1.00  0.00     0.258 C 
ATOM     89  H   UNL     1       8.536  -8.739   0.681  1.00  0.00     0.170 HD
ATOM     90  O   UNL     1       9.471 -10.379  -0.800  1.00  0.00    -0.269 OA
BRANCH  88  91
ATOM     91  C   UNL     1      11.583  -9.705  -0.219  1.00  0.00     0.082 A 
ATOM     92  C   UNL     1      12.185  -9.488  -1.460  1.00  0.00     0.060 A 
ATOM     93  C   UNL     1      12.364 -10.068   0.863  1.00  0.00     0.164 A 
ATOM     94  C   UNL     1      13.556  -9.577  -1.522  1.00  0.00     0.152 A 
ATOM     95  N   UNL     1      13.708 -10.133   0.761  1.00  0.00    -0.136 NA
ATOM     96  Cl  UNL     1      11.764 -10.451   2.421  1.00  0.00    -0.059 Cl
ATOM     97  Cl  UNL     1      14.410  -9.282  -2.973  1.00  0.00    -0.060 Cl
ATOM     98  N   UNL     1      14.313  -9.871  -0.447  1.00  0.00    -0.137 NA
ENDBRANCH  88  91
ENDBRANCH  82  87
ENDBRANCH  77  80
ENDBRANCH  75  76
ENDBRANCH  74  75
ENDBRANCH  73  74
ENDBRANCH   1  73
TORSDOF 15
