REMARK SMILES CSCC[C@@H](C(=O)NCCCCCCNC(=O)c1ccc(-c2c3nc(c(-c4c(F)c(F)c(F)c(F)c4F)c4ccc([nH]4)c(-c4c(F)c(F)c(F)c(F)c4F)c4nc(c(-c5c(F)c(F)c(F)c(F)c5F)c5ccc2[nH]5)C=C4)C=C3)cc1)N1C(=O)/C(=C/c2ccc(-c3ccccc3Cl)o2)SC1=S
REMARK SMILES IDX 11 1 10 2 9 3 8 4 6 5 7 6 5 8 4 9 3 10 2 11 1 12 81 13 82 14
REMARK SMILES IDX 99 15 83 16 84 17 98 18 100 19 85 20 86 21 87 22 97 23 88 24
REMARK SMILES IDX 89 25 90 26 91 27 95 28 92 29 94 30 96 31 93 32 12 33 13 34
REMARK SMILES IDX 14 35 15 36 16 37 17 39 18 40 19 41 80 42 20 43 79 44 21 45
REMARK SMILES IDX 22 46 23 47 73 48 24 49 78 50 72 51 74 52 25 53 77 54 71 55
REMARK SMILES IDX 70 56 26 58 58 59 38 60 57 61 39 62 42 63 56 64 75 65 40 66
REMARK SMILES IDX 41 67 55 69 76 70 43 71 27 72 28 73 36 74 29 75 30 76 34 77
REMARK SMILES IDX 37 78 31 79 32 80 35 81 33 82 59 83 60 84 68 85 61 86 62 87
REMARK SMILES IDX 66 88 69 89 63 90 64 91 67 92 65 93 44 94 45 95 53 96 46 97
REMARK SMILES IDX 47 98 51 99 54 100 48 101 49 102 52 103 50 104
REMARK H PARENT 8 7 15 38 74 57 42 68
REMARK Flexibility Score: inf
ROOT
ATOM      1  C   UNL     1       5.135  -2.660  -1.645  1.00  0.00     0.002 C 
ENDROOT
BRANCH   1   2
ATOM      2  C   UNL     1       3.681  -2.279  -1.931  1.00  0.00     0.021 C 
BRANCH   2   3
ATOM      3  C   UNL     1       3.351  -0.852  -1.490  1.00  0.00     0.116 C 
BRANCH   3   4
ATOM      4  N   UNL     1       3.464   0.051  -2.611  1.00  0.00    -0.354 N 
ATOM      5  C   UNL     1       2.519   0.782  -3.263  1.00  0.00     0.243 C 
ATOM      6  O   UNL     1       2.905   1.403  -4.258  1.00  0.00    -0.273 OA
ATOM      7  H   UNL     1       4.378   0.155  -2.962  1.00  0.00     0.163 HD
BRANCH   5   8
ATOM      8  C   UNL     1       1.057   0.882  -2.738  1.00  0.00     0.182 C 
BRANCH   8   9
ATOM      9  C   UNL     1       0.137  -0.296  -3.123  1.00  0.00     0.046 C 
BRANCH   9  10
ATOM     10  C   UNL     1       0.002  -1.506  -2.199  1.00  0.00     0.072 C 
BRANCH  10  11
ATOM     11  S   UNL     1      -1.054  -1.341  -0.715  1.00  0.00    -0.165 SA
ATOM     12  C   UNL     1      -0.131  -0.199   0.339  1.00  0.00     0.085 C 
ENDBRANCH  10  11
ENDBRANCH   9  10
ENDBRANCH   8   9
BRANCH   8  13
ATOM     13  N   UNL     1       0.576   2.186  -3.292  1.00  0.00    -0.280 N 
ATOM     14  C   UNL     1       0.037   2.248  -4.572  1.00  0.00     0.267 C 
ATOM     15  C   UNL     1       0.843   3.408  -2.699  1.00  0.00     0.149 C 
ATOM     16  O   UNL     1      -0.183   1.308  -5.323  1.00  0.00    -0.268 OA
ATOM     17  C   UNL     1      -0.223   3.652  -4.968  1.00  0.00     0.084 C 
ATOM     18  S   UNL     1       0.356   4.723  -3.762  1.00  0.00    -0.054 SA
ATOM     19  S   UNL     1       1.531   3.699  -1.204  1.00  0.00    -0.052 S 
ATOM     20  C   UNL     1      -0.823   3.931  -6.133  1.00  0.00     0.068 C 
BRANCH  20  21
ATOM     21  C   UNL     1      -0.964   5.250  -6.629  1.00  0.00     0.128 A 
ATOM     22  C   UNL     1       0.027   6.090  -7.122  1.00  0.00     0.051 A 
ATOM     23  O   UNL     1      -2.168   5.907  -6.740  1.00  0.00    -0.457 OA
ATOM     24  C   UNL     1      -0.587   7.296  -7.517  1.00  0.00     0.051 A 
ATOM     25  C   UNL     1      -1.927   7.154  -7.236  1.00  0.00     0.136 A 
BRANCH  25  26
ATOM     26  C   UNL     1      -3.065   8.047  -7.390  1.00  0.00     0.036 A 
ATOM     27  C   UNL     1      -3.248   8.680  -8.633  1.00  0.00     0.013 A 
ATOM     28  C   UNL     1      -3.932   8.381  -6.336  1.00  0.00     0.052 A 
ATOM     29  C   UNL     1      -4.256   9.629  -8.819  1.00  0.00     0.001 A 
ATOM     30  C   UNL     1      -4.940   9.335  -6.526  1.00  0.00     0.021 A 
ATOM     31  Cl  UNL     1      -3.777   7.707  -4.749  1.00  0.00    -0.084 Cl
ATOM     32  C   UNL     1      -5.098   9.962  -7.762  1.00  0.00     0.002 A 
ENDBRANCH  25  26
ENDBRANCH  20  21
ENDBRANCH   8  13
ENDBRANCH   5   8
ENDBRANCH   3   4
ENDBRANCH   2   3
ENDBRANCH   1   2
BRANCH   1  33
ATOM     33  C   UNL     1       5.462  -2.797  -0.152  1.00  0.00     0.002 C 
BRANCH  33  34
ATOM     34  C   UNL     1       4.599  -3.804   0.615  1.00  0.00     0.021 C 
BRANCH  34  35
ATOM     35  C   UNL     1       4.593  -5.213   0.029  1.00  0.00     0.116 C 
BRANCH  35  36
ATOM     36  N   UNL     1       5.931  -5.777  -0.032  1.00  0.00    -0.352 N 
ATOM     37  C   UNL     1       6.414  -6.941   0.507  1.00  0.00     0.251 C 
ATOM     38  H   UNL     1       6.588  -5.244  -0.536  1.00  0.00     0.163 HD
ATOM     39  O   UNL     1       7.622  -7.146   0.548  1.00  0.00    -0.269 OA
BRANCH  37  40
ATOM     40  C   UNL     1       5.477  -7.949   1.044  1.00  0.00     0.039 A 
ATOM     41  C   UNL     1       5.788  -8.587   2.247  1.00  0.00     0.014 A 
ATOM     42  C   UNL     1       4.317  -8.293   0.343  1.00  0.00     0.014 A 
ATOM     43  C   UNL     1       4.917  -9.546   2.766  1.00  0.00     0.010 A 
ATOM     44  C   UNL     1       3.415  -9.195   0.898  1.00  0.00     0.010 A 
ATOM     45  C   UNL     1       3.714  -9.843   2.106  1.00  0.00    -0.014 A 
BRANCH  45  46
ATOM     46  C   UNL     1       2.776 -10.862   2.639  1.00  0.00     0.031 A 
ATOM     47  C   UNL     1       2.515 -12.120   1.856  1.00  0.00     0.074 A 
ATOM     48  C   UNL     1       2.128 -10.636   3.798  1.00  0.00     0.049 A 
ATOM     49  N   UNL     1       1.672 -13.091   2.103  1.00  0.00    -0.248 NA
ATOM     50  C   UNL     1       3.286 -12.298   0.615  1.00  0.00     0.031 C 
ATOM     51  C   UNL     1       2.270  -9.438   4.627  1.00  0.00     0.029 A 
ATOM     52  N   UNL     1       1.208 -11.399   4.472  1.00  0.00    -0.354 N 
ATOM     53  C   UNL     1       1.808 -13.986   1.049  1.00  0.00     0.074 A 
ATOM     54  C   UNL     1       2.767 -13.416   0.129  1.00  0.00     0.031 C 
ATOM     55  C   UNL     1       1.477  -9.553   5.705  1.00  0.00     0.029 A 
ATOM     56  C   UNL     1       0.744 -10.813   5.624  1.00  0.00     0.049 A 
ATOM     57  H   UNL     1       0.910 -12.284   4.160  1.00  0.00     0.167 HD
ATOM     58  C   UNL     1       1.211 -15.189   0.881  1.00  0.00     0.037 A 
ATOM     59  C   UNL     1      -0.179 -11.240   6.507  1.00  0.00     0.037 A 
ATOM     60  C   UNL     1       0.273 -15.762   1.809  1.00  0.00     0.049 A 
ATOM     61  C   UNL     1      -0.836 -12.578   6.287  1.00  0.00     0.074 A 
ATOM     62  C   UNL     1      -0.375 -16.983   1.740  1.00  0.00     0.029 A 
ATOM     63  N   UNL     1      -0.144 -15.153   2.983  1.00  0.00    -0.354 N 
ATOM     64  N   UNL     1      -0.664 -13.436   5.311  1.00  0.00    -0.248 NA
ATOM     65  C   UNL     1      -1.808 -13.014   7.300  1.00  0.00     0.031 C 
ATOM     66  C   UNL     1      -1.210 -17.099   2.855  1.00  0.00     0.029 A 
ATOM     67  C   UNL     1      -1.044 -15.973   3.645  1.00  0.00     0.049 A 
ATOM     68  H   UNL     1       0.154 -14.270   3.299  1.00  0.00     0.167 HD
ATOM     69  C   UNL     1      -1.471 -14.525   5.612  1.00  0.00     0.074 A 
ATOM     70  C   UNL     1      -2.123 -14.226   6.869  1.00  0.00     0.031 C 
ATOM     71  C   UNL     1      -1.658 -15.670   4.911  1.00  0.00     0.037 A 
BRANCH  58  72
ATOM     72  C   UNL     1       1.569 -15.980  -0.344  1.00  0.00     0.064 A 
ATOM     73  C   UNL     1       2.836 -16.566  -0.490  1.00  0.00     0.173 A 
ATOM     74  C   UNL     1       0.624 -16.203  -1.356  1.00  0.00     0.173 A 
ATOM     75  F   UNL     1       3.781 -16.372   0.443  1.00  0.00    -0.203 F 
ATOM     76  C   UNL     1       3.149 -17.328  -1.612  1.00  0.00     0.198 A 
ATOM     77  C   UNL     1       0.930 -16.992  -2.462  1.00  0.00     0.198 A 
ATOM     78  F   UNL     1      -0.604 -15.670  -1.265  1.00  0.00    -0.203 F 
ATOM     79  F   UNL     1       4.379 -17.843  -1.748  1.00  0.00    -0.200 F 
ATOM     80  C   UNL     1       2.193 -17.549  -2.592  1.00  0.00     0.200 A 
ATOM     81  F   UNL     1       0.001 -17.216  -3.402  1.00  0.00    -0.200 F 
ATOM     82  F   UNL     1       2.491 -18.296  -3.664  1.00  0.00    -0.200 F 
ENDBRANCH  58  72
BRANCH  59  83
ATOM     83  C   UNL     1      -0.534 -10.408   7.687  1.00  0.00     0.064 A 
ATOM     84  C   UNL     1      -0.226 -10.829   8.989  1.00  0.00     0.173 A 
ATOM     85  C   UNL     1      -1.225  -9.195   7.542  1.00  0.00     0.173 A 
ATOM     86  F   UNL     1       0.418 -11.989   9.182  1.00  0.00    -0.203 F 
ATOM     87  C   UNL     1      -0.629 -10.091  10.100  1.00  0.00     0.198 A 
ATOM     88  C   UNL     1      -1.598  -8.441   8.653  1.00  0.00     0.198 A 
ATOM     89  F   UNL     1      -1.538  -8.742   6.320  1.00  0.00    -0.203 F 
ATOM     90  F   UNL     1      -0.380 -10.552  11.333  1.00  0.00    -0.200 F 
ATOM     91  C   UNL     1      -1.313  -8.897   9.931  1.00  0.00     0.200 A 
ATOM     92  F   UNL     1      -2.244  -7.279   8.485  1.00  0.00    -0.200 F 
ATOM     93  F   UNL     1      -1.707  -8.191  11.000  1.00  0.00    -0.200 F 
ENDBRANCH  59  83
BRANCH  71  94
ATOM     94  C   UNL     1      -2.553 -16.712   5.518  1.00  0.00     0.064 A 
ATOM     95  C   UNL     1      -3.942 -16.540   5.599  1.00  0.00     0.173 A 
ATOM     96  C   UNL     1      -2.010 -17.917   5.990  1.00  0.00     0.173 A 
ATOM     97  F   UNL     1      -4.507 -15.400   5.173  1.00  0.00    -0.203 F 
ATOM     98  C   UNL     1      -4.752 -17.523   6.160  1.00  0.00     0.198 A 
ATOM     99  C   UNL     1      -2.827 -18.912   6.520  1.00  0.00     0.198 A 
ATOM    100  F   UNL     1      -0.688 -18.135   5.927  1.00  0.00    -0.203 F 
ATOM    101  F   UNL     1      -6.071 -17.315   6.276  1.00  0.00    -0.200 F 
ATOM    102  C   UNL     1      -4.196 -18.710   6.612  1.00  0.00     0.200 A 
ATOM    103  F   UNL     1      -2.289 -20.064   6.942  1.00  0.00    -0.200 F 
ATOM    104  F   UNL     1      -4.979 -19.659   7.145  1.00  0.00    -0.200 F 
ENDBRANCH  71  94
ENDBRANCH  45  46
ENDBRANCH  37  40
ENDBRANCH  35  36
ENDBRANCH  34  35
ENDBRANCH  33  34
ENDBRANCH   1  33
TORSDOF 19
