REMARK SMILES C[C@@H](C(=O)NCc1ccco1)[N@H+]1CCCC[C@@H]1C(=O)NCCCCCCNC(=O)c1ccc(-c2c3nc(c(-c4c(F)c(F)c(F)c(F)c4F)c4ccc([nH]4)c(-c4c(F)c(F)c(F)c(F)c4F)c4nc(c(-c5c(F)c(F)c(F)c(F)c5F)c5ccc2[nH]5)C=C4)C=C3)cc1
REMARK SMILES IDX 22 1 21 2 20 3 18 4 19 5 17 7 12 8 13 9 14 11 16 12 15 13
REMARK SMILES IDX 2 14 1 15 3 16 4 17 5 18 6 20 7 21 8 22 11 23 9 24 10 25
REMARK SMILES IDX 23 26 24 27 25 28 26 29 27 30 28 31 29 33 30 34 31 35 92 36
REMARK SMILES IDX 32 37 91 38 33 39 34 40 35 41 85 42 36 43 90 44 84 45 86 46
REMARK SMILES IDX 37 47 89 48 83 49 82 50 38 52 70 53 50 54 69 55 51 56 54 57
REMARK SMILES IDX 68 58 87 59 52 60 53 61 67 63 88 64 55 65 39 66 40 67 48 68
REMARK SMILES IDX 41 69 42 70 46 71 49 72 43 73 44 74 47 75 45 76 71 77 72 78
REMARK SMILES IDX 80 79 73 80 74 81 78 82 81 83 75 84 76 85 79 86 77 87 56 88
REMARK SMILES IDX 57 89 65 90 58 91 59 92 63 93 66 94 60 95 61 96 64 97 62 98
REMARK H PARENT 20 6 12 10 5 19 27 32 86 51 54 62
REMARK Flexibility Score: inf
ROOT
ATOM      1  C   UNL     1      -3.176  -2.496   1.359  1.00  0.00     0.021 C 
ENDROOT
BRANCH   1   2
ATOM      2  C   UNL     1      -1.975  -1.742   0.792  1.00  0.00     0.116 C 
BRANCH   2   3
ATOM      3  N   UNL     1      -1.235  -2.610  -0.100  1.00  0.00    -0.351 N 
ATOM      4  C   UNL     1      -1.042  -2.525  -1.446  1.00  0.00     0.278 C 
ATOM      5  O   UNL     1      -0.494  -3.487  -1.990  1.00  0.00    -0.268 OA
ATOM      6  H   UNL     1      -0.804  -3.382   0.334  1.00  0.00     0.163 HD
BRANCH   4   7
ATOM      7  C   UNL     1      -1.491  -1.285  -2.245  1.00  0.00     0.274 C 
ATOM      8  N   UNL     1      -0.868  -0.030  -1.720  1.00  0.00    -0.315 N 
ATOM      9  C   UNL     1      -1.381   1.156  -2.416  1.00  0.00     0.263 C 
ATOM     10  H   UNL     1      -1.165  -0.034  -0.744  1.00  0.00     0.349 HD
ATOM     11  C   UNL     1      -2.903   1.245  -2.330  1.00  0.00     0.062 C 
ATOM     12  C   UNL     1      -3.035  -1.246  -2.313  1.00  0.00     0.076 C 
ATOM     13  C   UNL     1      -3.553   0.028  -2.966  1.00  0.00     0.012 C 
BRANCH   8  14
ATOM     14  C   UNL     1       0.639   0.021  -1.625  1.00  0.00     0.271 C 
ATOM     15  C   UNL     1       0.992  -0.171  -0.146  1.00  0.00     0.086 C 
BRANCH  14  16
ATOM     16  C   UNL     1       1.420  -0.904  -2.606  1.00  0.00     0.278 C 
ATOM     17  O   UNL     1       0.965  -1.291  -3.684  1.00  0.00    -0.268 OA
ATOM     18  N   UNL     1       2.713  -1.254  -2.348  1.00  0.00    -0.344 N 
ATOM     19  H   UNL     1       2.961  -2.184  -2.554  1.00  0.00     0.164 HD
BRANCH  18  20
ATOM     20  C   UNL     1       3.762  -0.419  -1.809  1.00  0.00     0.191 C 
BRANCH  20  21
ATOM     21  C   UNL     1       4.491  -1.086  -0.700  1.00  0.00     0.122 A 
ATOM     22  C   UNL     1       5.327  -0.596   0.285  1.00  0.00     0.047 A 
ATOM     23  O   UNL     1       4.404  -2.445  -0.592  1.00  0.00    -0.467 OA
ATOM     24  C   UNL     1       5.761  -1.712   1.039  1.00  0.00     0.042 A 
ATOM     25  C   UNL     1       5.167  -2.813   0.469  1.00  0.00     0.195 A 
ENDBRANCH  20  21
ENDBRANCH  18  20
ENDBRANCH  14  16
ENDBRANCH   8  14
ENDBRANCH   4   7
ENDBRANCH   2   3
ENDBRANCH   1   2
BRANCH   1  26
ATOM     26  C   UNL     1      -2.780  -3.632   2.311  1.00  0.00     0.002 C 
BRANCH  26  27
ATOM     27  C   UNL     1      -1.974  -3.182   3.534  1.00  0.00     0.002 C 
BRANCH  27  28
ATOM     28  C   UNL     1      -2.649  -2.095   4.374  1.00  0.00     0.021 C 
BRANCH  28  29
ATOM     29  C   UNL     1      -4.038  -2.469   4.880  1.00  0.00     0.116 C 
BRANCH  29  30
ATOM     30  N   UNL     1      -4.003  -3.636   5.748  1.00  0.00    -0.352 N 
ATOM     31  C   UNL     1      -4.511  -3.794   7.008  1.00  0.00     0.251 C 
ATOM     32  H   UNL     1      -3.548  -4.425   5.374  1.00  0.00     0.163 HD
ATOM     33  O   UNL     1      -4.206  -4.779   7.681  1.00  0.00    -0.269 OA
BRANCH  31  34
ATOM     34  C   UNL     1      -5.411  -2.770   7.573  1.00  0.00     0.039 A 
ATOM     35  C   UNL     1      -5.218  -2.360   8.894  1.00  0.00     0.014 A 
ATOM     36  C   UNL     1      -6.444  -2.218   6.808  1.00  0.00     0.014 A 
ATOM     37  C   UNL     1      -6.025  -1.357   9.429  1.00  0.00     0.010 A 
ATOM     38  C   UNL     1      -7.198  -1.166   7.318  1.00  0.00     0.010 A 
ATOM     39  C   UNL     1      -6.998  -0.726   8.634  1.00  0.00    -0.014 A 
BRANCH  39  40
ATOM     40  C   UNL     1      -7.790   0.409   9.169  1.00  0.00     0.031 A 
ATOM     41  C   UNL     1      -9.278   0.290   9.342  1.00  0.00     0.074 A 
ATOM     42  C   UNL     1      -7.165   1.566   9.462  1.00  0.00     0.049 A 
ATOM     43  N   UNL     1     -10.132   1.177   9.790  1.00  0.00    -0.248 NA
ATOM     44  C   UNL     1      -9.894  -0.982   8.936  1.00  0.00     0.031 C 
ATOM     45  C   UNL     1      -5.735   1.821   9.281  1.00  0.00     0.029 A 
ATOM     46  N   UNL     1      -7.651   2.744   9.971  1.00  0.00    -0.354 N 
ATOM     47  C   UNL     1     -11.379   0.573   9.717  1.00  0.00     0.074 A 
ATOM     48  C   UNL     1     -11.182  -0.733   9.125  1.00  0.00     0.031 C 
ATOM     49  C   UNL     1      -5.453   3.063   9.704  1.00  0.00     0.029 A 
ATOM     50  C   UNL     1      -6.686   3.704  10.150  1.00  0.00     0.049 A 
ATOM     51  H   UNL     1      -8.601   2.887  10.187  1.00  0.00     0.167 HD
ATOM     52  C   UNL     1     -12.577   1.054  10.129  1.00  0.00     0.037 A 
ATOM     53  C   UNL     1      -6.785   4.962  10.620  1.00  0.00     0.037 A 
ATOM     54  C   UNL     1     -12.766   2.350  10.728  1.00  0.00     0.049 A 
ATOM     55  C   UNL     1      -8.128   5.473  11.064  1.00  0.00     0.074 A 
ATOM     56  C   UNL     1     -13.928   2.907  11.233  1.00  0.00     0.029 A 
ATOM     57  N   UNL     1     -11.765   3.297  10.896  1.00  0.00    -0.354 N 
ATOM     58  N   UNL     1      -9.288   4.862  11.065  1.00  0.00    -0.248 NA
ATOM     59  C   UNL     1      -8.172   6.847  11.580  1.00  0.00     0.031 C 
ATOM     60  C   UNL     1     -13.642   4.210  11.655  1.00  0.00     0.029 A 
ATOM     61  C   UNL     1     -12.290   4.445  11.469  1.00  0.00     0.049 A 
ATOM     62  H   UNL     1     -10.821   3.171  10.645  1.00  0.00     0.167 HD
ATOM     63  C   UNL     1     -10.195   5.767  11.601  1.00  0.00     0.074 A 
ATOM     64  C   UNL     1      -9.443   6.958  11.939  1.00  0.00     0.031 C 
ATOM     65  C   UNL     1     -11.530   5.627  11.792  1.00  0.00     0.037 A 
BRANCH  52  66
ATOM     66  C   UNL     1     -13.780   0.172   9.947  1.00  0.00     0.064 A 
ATOM     67  C   UNL     1     -13.951  -1.004  10.694  1.00  0.00     0.173 A 
ATOM     68  C   UNL     1     -14.794   0.527   9.045  1.00  0.00     0.173 A 
ATOM     69  F   UNL     1     -13.007  -1.396  11.563  1.00  0.00    -0.203 F 
ATOM     70  C   UNL     1     -15.076  -1.807  10.522  1.00  0.00     0.198 A 
ATOM     71  C   UNL     1     -15.934  -0.261   8.899  1.00  0.00     0.198 A 
ATOM     72  F   UNL     1     -14.686   1.643   8.309  1.00  0.00    -0.203 F 
ATOM     73  F   UNL     1     -15.193  -2.951  11.210  1.00  0.00    -0.200 F 
ATOM     74  C   UNL     1     -16.070  -1.431   9.631  1.00  0.00     0.200 A 
ATOM     75  F   UNL     1     -16.900   0.112   8.049  1.00  0.00    -0.200 F 
ATOM     76  F   UNL     1     -17.157  -2.199   9.474  1.00  0.00    -0.200 F 
ENDBRANCH  52  66
BRANCH  53  77
ATOM     77  C   UNL     1      -5.572   5.815  10.720  1.00  0.00     0.064 A 
ATOM     78  C   UNL     1      -5.051   6.187  11.967  1.00  0.00     0.173 A 
ATOM     79  C   UNL     1      -4.912   6.283   9.573  1.00  0.00     0.173 A 
ATOM     80  F   UNL     1      -5.658   5.781  13.093  1.00  0.00    -0.203 F 
ATOM     81  C   UNL     1      -3.934   7.013  12.065  1.00  0.00     0.198 A 
ATOM     82  C   UNL     1      -3.776   7.082   9.672  1.00  0.00     0.198 A 
ATOM     83  F   UNL     1      -5.365   5.951   8.355  1.00  0.00    -0.203 F 
ATOM     84  F   UNL     1      -3.489   7.395  13.270  1.00  0.00    -0.200 F 
ATOM     85  C   UNL     1      -3.293   7.455  10.917  1.00  0.00     0.200 A 
ATOM     86  F   UNL     1      -3.150   7.493   8.561  1.00  0.00    -0.200 F 
ATOM     87  F   UNL     1      -2.216   8.246  11.011  1.00  0.00    -0.200 F 
ENDBRANCH  53  77
BRANCH  65  88
ATOM     88  C   UNL     1     -12.255   6.787  12.414  1.00  0.00     0.064 A 
ATOM     89  C   UNL     1     -12.442   7.994  11.724  1.00  0.00     0.173 A 
ATOM     90  C   UNL     1     -12.778   6.686  13.712  1.00  0.00     0.173 A 
ATOM     91  F   UNL     1     -11.948   8.148  10.486  1.00  0.00    -0.203 F 
ATOM     92  C   UNL     1     -13.090   9.070  12.325  1.00  0.00     0.198 A 
ATOM     93  C   UNL     1     -13.457   7.752  14.297  1.00  0.00     0.198 A 
ATOM     94  F   UNL     1     -12.635   5.552  14.414  1.00  0.00    -0.203 F 
ATOM     95  F   UNL     1     -13.198  10.235  11.671  1.00  0.00    -0.200 F 
ATOM     96  C   UNL     1     -13.602   8.946  13.608  1.00  0.00     0.200 A 
ATOM     97  F   UNL     1     -13.964   7.625  15.531  1.00  0.00    -0.200 F 
ATOM     98  F   UNL     1     -14.225   9.983  14.185  1.00  0.00    -0.200 F 
ENDBRANCH  65  88
ENDBRANCH  39  40
ENDBRANCH  31  34
ENDBRANCH  29  30
ENDBRANCH  28  29
ENDBRANCH  27  28
ENDBRANCH  26  27
ENDBRANCH   1  26
TORSDOF 17
