REMARK SMILES Cc1cc(S(=O)(=O)N2CC(CC(=O)NCCCCCCNC(=O)c3ccc(-c4c5nc(c(-c6c(F)c(F)c(F)c(F)c6F)c6ccc([nH]6)c(-c6c(F)c(F)c(F)c(F)c6F)c6nc(c(-c7c(F)c(F)c(F)c(F)c7F)c7ccc4[nH]7)C=C6)C=C5)cc3)C2)sc1Br
REMARK SMILES IDX 17 1 16 2 15 3 14 4 12 5 13 6 11 8 10 9 8 10 9 11 87 12 5 13
REMARK SMILES IDX 6 14 7 15 4 16 1 17 2 18 3 19 89 20 88 21 90 22 18 23 19 24
REMARK SMILES IDX 20 25 21 26 22 27 23 29 24 30 25 31 86 32 26 33 85 34 27 35
REMARK SMILES IDX 28 36 29 37 79 38 30 39 84 40 78 41 80 42 31 43 83 44 77 45
REMARK SMILES IDX 76 46 32 48 64 49 44 50 63 51 45 52 48 53 62 54 81 55 46 56
REMARK SMILES IDX 47 57 61 59 82 60 49 61 33 62 34 63 42 64 35 65 36 66 40 67
REMARK SMILES IDX 43 68 37 69 38 70 41 71 39 72 65 73 66 74 74 75 67 76 68 77
REMARK SMILES IDX 72 78 75 79 69 80 70 81 73 82 71 83 50 84 51 85 59 86 52 87
REMARK SMILES IDX 53 88 57 89 60 90 54 91 55 92 58 93 56 94
REMARK H PARENT 14 7 21 28 80 47 48 58
REMARK Flexibility Score: inf
ROOT
ATOM      1  C   UNL     1       6.862  -4.979   1.871  1.00  0.00     0.002 C 
ENDROOT
BRANCH   1   2
ATOM      2  C   UNL     1       5.369  -4.789   1.598  1.00  0.00     0.021 C 
BRANCH   2   3
ATOM      3  C   UNL     1       5.056  -3.899   0.391  1.00  0.00     0.116 C 
BRANCH   3   4
ATOM      4  N   UNL     1       5.165  -4.654  -0.842  1.00  0.00    -0.356 N 
ATOM      5  C   UNL     1       4.194  -5.172  -1.642  1.00  0.00     0.220 C 
ATOM      6  O   UNL     1       4.524  -5.913  -2.567  1.00  0.00    -0.275 OA
ATOM      7  H   UNL     1       6.086  -4.818  -1.148  1.00  0.00     0.163 HD
BRANCH   5   8
ATOM      8  C   UNL     1       2.740  -4.828  -1.405  1.00  0.00     0.106 C 
BRANCH   8   9
ATOM      9  C   UNL     1       1.997  -5.799  -0.495  1.00  0.00     0.029 C 
ATOM     10  N   UNL     1       0.765  -5.540   1.259  1.00  0.00    -0.196 NA
ATOM     11  C   UNL     1       0.513  -5.449  -0.200  1.00  0.00     0.108 C 
ATOM     12  C   UNL     1       2.215  -5.682   1.027  1.00  0.00     0.108 C 
BRANCH  10  13
ATOM     13  S   UNL     1       0.061  -4.668   2.518  1.00  0.00     0.252 S 
ATOM     14  O   UNL     1       0.904  -4.856   3.691  1.00  0.00    -0.206 OA
ATOM     15  O   UNL     1      -1.350  -4.942   2.523  1.00  0.00    -0.206 OA
BRANCH  13  16
ATOM     16  C   UNL     1       0.207  -2.928   2.155  1.00  0.00     0.136 A 
ATOM     17  C   UNL     1       1.067   0.154   0.167  1.00  0.00     0.046 C 
ATOM     18  C   UNL     1       0.583  -0.794   1.216  1.00  0.00    -0.025 A 
ATOM     19  C   UNL     1       0.807  -2.212   1.137  1.00  0.00     0.038 A 
ATOM     20  C   UNL     1      -0.125  -0.505   2.364  1.00  0.00     0.074 A 
ATOM     21  S   UNL     1      -0.535  -1.874   3.280  1.00  0.00    -0.115 S 
ATOM     22  Br  UNL     1      -0.628   1.220   2.914  1.00  0.00    -0.039 Br
ENDBRANCH  13  16
ENDBRANCH  10  13
ENDBRANCH   8   9
ENDBRANCH   5   8
ENDBRANCH   3   4
ENDBRANCH   2   3
ENDBRANCH   1   2
BRANCH   1  23
ATOM     23  C   UNL     1       7.658  -3.688   2.109  1.00  0.00     0.002 C 
BRANCH  23  24
ATOM     24  C   UNL     1       7.097  -2.723   3.165  1.00  0.00     0.021 C 
BRANCH  24  25
ATOM     25  C   UNL     1       7.077  -3.304   4.568  1.00  0.00     0.116 C 
BRANCH  25  26
ATOM     26  N   UNL     1       8.421  -3.583   5.082  1.00  0.00    -0.352 N 
ATOM     27  C   UNL     1       8.792  -4.091   6.313  1.00  0.00     0.251 C 
ATOM     28  H   UNL     1       9.162  -3.381   4.466  1.00  0.00     0.163 HD
ATOM     29  O   UNL     1       9.930  -3.941   6.742  1.00  0.00    -0.269 OA
BRANCH  27  30
ATOM     30  C   UNL     1       7.795  -4.836   7.101  1.00  0.00     0.039 A 
ATOM     31  C   UNL     1       7.753  -4.792   8.498  1.00  0.00     0.014 A 
ATOM     32  C   UNL     1       6.870  -5.591   6.392  1.00  0.00     0.014 A 
ATOM     33  C   UNL     1       6.739  -5.487   9.153  1.00  0.00     0.010 A 
ATOM     34  C   UNL     1       5.743  -6.040   7.009  1.00  0.00     0.010 A 
ATOM     35  C   UNL     1       5.736  -6.106   8.390  1.00  0.00    -0.014 A 
BRANCH  35  36
ATOM     36  C   UNL     1       4.591  -6.769   8.988  1.00  0.00     0.031 A 
ATOM     37  C   UNL     1       3.782  -5.877   9.848  1.00  0.00     0.074 A 
ATOM     38  C   UNL     1       4.175  -7.992   8.589  1.00  0.00     0.049 A 
ATOM     39  N   UNL     1       3.667  -5.931  11.132  1.00  0.00    -0.248 NA
ATOM     40  C   UNL     1       3.175  -4.680   9.243  1.00  0.00     0.031 C 
ATOM     41  C   UNL     1       4.710  -8.840   7.514  1.00  0.00     0.029 A 
ATOM     42  N   UNL     1       3.097  -8.706   9.008  1.00  0.00    -0.354 N 
ATOM     43  C   UNL     1       2.787  -4.911  11.473  1.00  0.00     0.074 A 
ATOM     44  C   UNL     1       2.703  -4.052  10.322  1.00  0.00     0.031 C 
ATOM     45  C   UNL     1       3.828  -9.822   7.222  1.00  0.00     0.029 A 
ATOM     46  C   UNL     1       2.748  -9.777   8.189  1.00  0.00     0.049 A 
ATOM     47  H   UNL     1       2.601  -8.483   9.829  1.00  0.00     0.167 HD
ATOM     48  C   UNL     1       1.988  -5.035  12.568  1.00  0.00     0.037 A 
ATOM     49  C   UNL     1       1.631 -10.543   8.296  1.00  0.00     0.037 A 
ATOM     50  C   UNL     1       2.468  -6.091  13.432  1.00  0.00     0.049 A 
ATOM     51  C   UNL     1       1.112 -10.359   9.677  1.00  0.00     0.074 A 
ATOM     52  C   UNL     1       3.655  -6.333  14.098  1.00  0.00     0.029 A 
ATOM     53  N   UNL     1       1.824  -7.303  13.376  1.00  0.00    -0.354 N 
ATOM     54  N   UNL     1       1.736 -10.785  10.740  1.00  0.00    -0.248 NA
ATOM     55  C   UNL     1       0.172  -9.270   9.896  1.00  0.00     0.031 C 
ATOM     56  C   UNL     1       3.879  -7.736  13.958  1.00  0.00     0.029 A 
ATOM     57  C   UNL     1       2.779  -8.284  13.297  1.00  0.00     0.049 A 
ATOM     58  H   UNL     1       0.849  -7.443  13.391  1.00  0.00     0.167 HD
ATOM     59  C   UNL     1       1.619  -9.746  11.653  1.00  0.00     0.074 A 
ATOM     60  C   UNL     1       0.584  -8.870  11.102  1.00  0.00     0.031 C 
ATOM     61  C   UNL     1       2.579  -9.533  12.601  1.00  0.00     0.037 A 
BRANCH  48  62
ATOM     62  C   UNL     1       0.572  -4.516  12.653  1.00  0.00     0.064 A 
ATOM     63  C   UNL     1      -0.118  -4.643  13.876  1.00  0.00     0.173 A 
ATOM     64  C   UNL     1      -0.232  -4.195  11.537  1.00  0.00     0.173 A 
ATOM     65  F   UNL     1       0.541  -4.949  15.003  1.00  0.00    -0.203 F 
ATOM     66  C   UNL     1      -1.510  -4.560  13.951  1.00  0.00     0.198 A 
ATOM     67  C   UNL     1      -1.616  -4.060  11.626  1.00  0.00     0.198 A 
ATOM     68  F   UNL     1       0.258  -4.110  10.296  1.00  0.00    -0.203 F 
ATOM     69  F   UNL     1      -2.129  -4.828  15.108  1.00  0.00    -0.200 F 
ATOM     70  C   UNL     1      -2.259  -4.279  12.824  1.00  0.00     0.200 A 
ATOM     71  F   UNL     1      -2.324  -3.800  10.518  1.00  0.00    -0.200 F 
ATOM     72  F   UNL     1      -3.597  -4.268  12.879  1.00  0.00    -0.200 F 
ENDBRANCH  48  62
BRANCH  49  73
ATOM     73  C   UNL     1       0.816 -11.161   7.221  1.00  0.00     0.064 A 
ATOM     74  C   UNL     1      -0.153 -12.138   7.512  1.00  0.00     0.173 A 
ATOM     75  C   UNL     1       0.765 -10.603   5.928  1.00  0.00     0.173 A 
ATOM     76  F   UNL     1      -0.204 -12.695   8.731  1.00  0.00    -0.203 F 
ATOM     77  C   UNL     1      -1.130 -12.509   6.580  1.00  0.00     0.198 A 
ATOM     78  C   UNL     1      -0.208 -10.976   4.998  1.00  0.00     0.198 A 
ATOM     79  F   UNL     1       1.602  -9.618   5.573  1.00  0.00    -0.203 F 
ATOM     80  F   UNL     1      -2.074 -13.400   6.917  1.00  0.00    -0.200 F 
ATOM     81  C   UNL     1      -1.165 -11.918   5.328  1.00  0.00     0.200 A 
ATOM     82  F   UNL     1      -0.248 -10.374   3.800  1.00  0.00    -0.200 F 
ATOM     83  F   UNL     1      -2.136 -12.226   4.457  1.00  0.00    -0.200 F 
ENDBRANCH  49  73
BRANCH  61  84
ATOM     84  C   UNL     1       3.631 -10.596  12.783  1.00  0.00     0.064 A 
ATOM     85  C   UNL     1       4.545 -10.989  11.789  1.00  0.00     0.173 A 
ATOM     86  C   UNL     1       3.799 -11.149  14.059  1.00  0.00     0.173 A 
ATOM     87  F   UNL     1       4.524 -10.434  10.572  1.00  0.00    -0.203 F 
ATOM     88  C   UNL     1       5.542 -11.929  12.048  1.00  0.00     0.198 A 
ATOM     89  C   UNL     1       4.819 -12.058  14.326  1.00  0.00     0.198 A 
ATOM     90  F   UNL     1       2.995 -10.771  15.065  1.00  0.00    -0.203 F 
ATOM     91  F   UNL     1       6.389 -12.298  11.075  1.00  0.00    -0.200 F 
ATOM     92  C   UNL     1       5.681 -12.459  13.319  1.00  0.00     0.200 A 
ATOM     93  F   UNL     1       4.979 -12.529  15.570  1.00  0.00    -0.200 F 
ATOM     94  F   UNL     1       6.659 -13.337  13.580  1.00  0.00    -0.200 F 
ENDBRANCH  61  84
ENDBRANCH  35  36
ENDBRANCH  27  30
ENDBRANCH  25  26
ENDBRANCH  24  25
ENDBRANCH  23  24
ENDBRANCH   1  23
TORSDOF 16
