REMARK SMILES CCSc1nc(CC(=O)N[C@@H](C(=O)NCCCCCCNC(=O)c2ccc(-c3c4nc(c(-c5c(F)c(F)c(F)c(F)c5F)c5ccc([nH]5)c(-c5c(F)c(F)c(F)c(F)c5F)c5nc(c(-c6c(F)c(F)c(F)c(F)c6F)c6ccc3[nH]6)C=C5)C=C4)cc2)C2=C(C)N=N[C@@H]2C)cs1
REMARK SMILES IDX 16 1 15 2 14 3 12 4 13 5 11 7 10 8 8 9 9 10 7 12 6 13 4 14
REMARK SMILES IDX 5 15 95 16 94 17 3 18 2 19 1 20 87 21 88 22 92 23 89 24
REMARK SMILES IDX 90 25 91 26 93 27 17 28 18 29 19 30 20 31 21 32 22 33 23 35
REMARK SMILES IDX 24 36 25 37 86 38 26 39 85 40 27 41 28 42 29 43 79 44 30 45
REMARK SMILES IDX 84 46 78 47 80 48 31 49 83 50 77 51 76 52 32 54 64 55 44 56
REMARK SMILES IDX 63 57 45 58 48 59 62 60 81 61 46 62 47 63 61 65 82 66 49 67
REMARK SMILES IDX 33 68 34 69 42 70 35 71 36 72 40 73 43 74 37 75 38 76 41 77
REMARK SMILES IDX 39 78 65 79 66 80 74 81 67 82 68 83 72 84 75 85 69 86 70 87
REMARK SMILES IDX 73 88 71 89 50 90 51 91 59 92 52 93 53 94 57 95 60 96 54 97
REMARK SMILES IDX 55 98 58 99 56 100
REMARK H PARENT 14 6 10 11 21 34 80 53 48 64
REMARK Flexibility Score: inf
ROOT
ATOM      1  C   UNL     1       6.110  -0.559  -1.780  1.00  0.00     0.021 C 
ENDROOT
BRANCH   1   2
ATOM      2  C   UNL     1       5.108  -1.629  -1.372  1.00  0.00     0.116 C 
BRANCH   2   3
ATOM      3  N   UNL     1       4.423  -2.260  -2.475  1.00  0.00    -0.354 N 
ATOM      4  C   UNL     1       3.937  -3.536  -2.567  1.00  0.00     0.247 C 
ATOM      5  O   UNL     1       2.908  -3.648  -3.246  1.00  0.00    -0.272 OA
ATOM      6  H   UNL     1       4.288  -1.695  -3.270  1.00  0.00     0.163 HD
BRANCH   4   7
ATOM      7  C   UNL     1       4.577  -4.784  -1.828  1.00  0.00     0.202 C 
BRANCH   7   8
ATOM      8  N   UNL     1       5.967  -4.597  -1.420  1.00  0.00    -0.340 N 
ATOM      9  C   UNL     1       6.495  -4.429  -0.171  1.00  0.00     0.226 C 
ATOM     10  O   UNL     1       7.678  -4.086  -0.091  1.00  0.00    -0.275 OA
ATOM     11  H   UNL     1       6.622  -4.591  -2.155  1.00  0.00     0.164 HD
BRANCH   9  12
ATOM     12  C   UNL     1       5.668  -4.646   1.085  1.00  0.00     0.157 C 
BRANCH  12  13
ATOM     13  C   UNL     1       4.739  -3.526   1.425  1.00  0.00     0.062 A 
ATOM     14  C   UNL     1       2.703  -2.644   1.543  1.00  0.00     0.150 A 
ATOM     15  N   UNL     1       3.409  -3.628   1.034  1.00  0.00    -0.234 NA
ATOM     16  S   UNL     1       3.590  -1.499   2.456  1.00  0.00    -0.116 S 
ATOM     17  C   UNL     1       5.027  -2.394   2.167  1.00  0.00     0.092 A 
BRANCH  14  18
ATOM     18  S   UNL     1       0.964  -2.605   1.378  1.00  0.00    -0.096 SA
BRANCH  18  19
ATOM     19  C   UNL     1       0.752  -1.652  -0.151  1.00  0.00     0.074 C 
ATOM     20  C   UNL     1       0.901  -0.160   0.095  1.00  0.00     0.016 C 
ENDBRANCH  18  19
ENDBRANCH  14  18
ENDBRANCH  12  13
ENDBRANCH   9  12
ENDBRANCH   7   8
BRANCH   7  21
ATOM     21  C   UNL     1       4.543  -6.037  -2.670  1.00  0.00     0.011 C 
ATOM     22  C   UNL     1       4.769  -7.316  -2.332  1.00  0.00     0.064 C 
ATOM     23  C   UNL     1       4.125  -6.107  -4.109  1.00  0.00     0.156 C 
ATOM     24  C   UNL     1       5.184  -7.903  -1.030  1.00  0.00     0.069 C 
ATOM     25  N   UNL     1       4.562  -8.188  -3.371  1.00  0.00    -0.160 NA
ATOM     26  N   UNL     1       4.185  -7.567  -4.397  1.00  0.00    -0.181 NA
ATOM     27  C   UNL     1       5.056  -5.407  -5.090  1.00  0.00     0.040 C 
ENDBRANCH   7  21
ENDBRANCH   4   7
ENDBRANCH   2   3
ENDBRANCH   1   2
BRANCH   1  28
ATOM     28  C   UNL     1       5.493   0.798  -2.123  1.00  0.00     0.002 C 
BRANCH  28  29
ATOM     29  C   UNL     1       4.586   1.403  -1.045  1.00  0.00     0.002 C 
BRANCH  29  30
ATOM     30  C   UNL     1       5.191   1.504   0.358  1.00  0.00     0.021 C 
BRANCH  30  31
ATOM     31  C   UNL     1       6.465   2.335   0.455  1.00  0.00     0.116 C 
BRANCH  31  32
ATOM     32  N   UNL     1       6.265   3.704   0.014  1.00  0.00    -0.352 N 
ATOM     33  C   UNL     1       6.551   4.886   0.650  1.00  0.00     0.251 C 
ATOM     34  H   UNL     1       5.862   3.800  -0.879  1.00  0.00     0.163 HD
ATOM     35  O   UNL     1       6.137   5.944   0.189  1.00  0.00    -0.269 OA
BRANCH  33  36
ATOM     36  C   UNL     1       7.341   4.888   1.900  1.00  0.00     0.039 A 
ATOM     37  C   UNL     1       6.950   5.739   2.939  1.00  0.00     0.014 A 
ATOM     38  C   UNL     1       8.475   4.085   2.043  1.00  0.00     0.014 A 
ATOM     39  C   UNL     1       7.665   5.743   4.138  1.00  0.00     0.010 A 
ATOM     40  C   UNL     1       9.141   4.034   3.265  1.00  0.00     0.010 A 
ATOM     41  C   UNL     1       8.747   4.868   4.322  1.00  0.00    -0.014 A 
BRANCH  41  42
ATOM     42  C   UNL     1       9.483   4.818   5.611  1.00  0.00     0.031 A 
ATOM     43  C   UNL     1      10.935   5.206   5.669  1.00  0.00     0.074 A 
ATOM     44  C   UNL     1       8.859   4.365   6.716  1.00  0.00     0.049 A 
ATOM     45  N   UNL     1      11.763   5.165   6.682  1.00  0.00    -0.248 NA
ATOM     46  C   UNL     1      11.544   5.677   4.415  1.00  0.00     0.031 C 
ATOM     47  C   UNL     1       7.467   3.915   6.775  1.00  0.00     0.029 A 
ATOM     48  N   UNL     1       9.317   4.197   7.998  1.00  0.00    -0.354 N 
ATOM     49  C   UNL     1      12.989   5.588   6.185  1.00  0.00     0.074 A 
ATOM     50  C   UNL     1      12.812   5.830   4.770  1.00  0.00     0.031 C 
ATOM     51  C   UNL     1       7.179   3.542   8.032  1.00  0.00     0.029 A 
ATOM     52  C   UNL     1       8.374   3.687   8.858  1.00  0.00     0.049 A 
ATOM     53  H   UNL     1      10.235   4.420   8.277  1.00  0.00     0.167 HD
ATOM     54  C   UNL     1      14.151   5.779   6.854  1.00  0.00     0.037 A 
ATOM     55  C   UNL     1       8.467   3.365  10.162  1.00  0.00     0.037 A 
ATOM     56  C   UNL     1      14.315   5.562   8.268  1.00  0.00     0.049 A 
ATOM     57  C   UNL     1       9.771   3.584  10.880  1.00  0.00     0.074 A 
ATOM     58  C   UNL     1      15.433   5.789   9.051  1.00  0.00     0.029 A 
ATOM     59  N   UNL     1      13.331   5.065   9.109  1.00  0.00    -0.354 N 
ATOM     60  N   UNL     1      10.903   4.054  10.415  1.00  0.00    -0.248 NA
ATOM     61  C   UNL     1       9.808   3.235  12.307  1.00  0.00     0.031 C 
ATOM     62  C   UNL     1      15.142   5.380  10.356  1.00  0.00     0.029 A 
ATOM     63  C   UNL     1      13.825   4.954  10.399  1.00  0.00     0.049 A 
ATOM     64  H   UNL     1      12.417   4.826   8.831  1.00  0.00     0.167 HD
ATOM     65  C   UNL     1      11.776   4.086  11.495  1.00  0.00     0.074 A 
ATOM     66  C   UNL     1      11.037   3.603  12.642  1.00  0.00     0.031 C 
ATOM     67  C   UNL     1      13.073   4.479  11.533  1.00  0.00     0.037 A 
BRANCH  54  68
ATOM     68  C   UNL     1      15.341   6.248   6.066  1.00  0.00     0.064 A 
ATOM     69  C   UNL     1      15.406   7.543   5.530  1.00  0.00     0.173 A 
ATOM     70  C   UNL     1      16.450   5.408   5.884  1.00  0.00     0.173 A 
ATOM     71  F   UNL     1      14.369   8.383   5.667  1.00  0.00    -0.203 F 
ATOM     72  C   UNL     1      16.525   7.970   4.819  1.00  0.00     0.198 A 
ATOM     73  C   UNL     1      17.580   5.849   5.200  1.00  0.00     0.198 A 
ATOM     74  F   UNL     1      16.444   4.161   6.380  1.00  0.00    -0.203 F 
ATOM     75  F   UNL     1      16.544   9.195   4.275  1.00  0.00    -0.200 F 
ATOM     76  C   UNL     1      17.614   7.126   4.661  1.00  0.00     0.200 A 
ATOM     77  F   UNL     1      18.637   5.036   5.061  1.00  0.00    -0.200 F 
ATOM     78  F   UNL     1      18.694   7.542   3.985  1.00  0.00    -0.200 F 
ENDBRANCH  54  68
BRANCH  55  79
ATOM     79  C   UNL     1       7.285   2.817  10.879  1.00  0.00     0.064 A 
ATOM     80  C   UNL     1       6.639   3.559  11.877  1.00  0.00     0.173 A 
ATOM     81  C   UNL     1       6.785   1.538  10.591  1.00  0.00     0.173 A 
ATOM     82  F   UNL     1       7.091   4.779  12.202  1.00  0.00    -0.203 F 
ATOM     83  C   UNL     1       5.554   3.034  12.577  1.00  0.00     0.198 A 
ATOM     84  C   UNL     1       5.681   1.027  11.270  1.00  0.00     0.198 A 
ATOM     85  F   UNL     1       7.363   0.789   9.640  1.00  0.00    -0.203 F 
ATOM     86  F   UNL     1       4.989   3.745  13.562  1.00  0.00    -0.200 F 
ATOM     87  C   UNL     1       5.073   1.771  12.270  1.00  0.00     0.200 A 
ATOM     88  F   UNL     1       5.210  -0.188  10.958  1.00  0.00    -0.200 F 
ATOM     89  F   UNL     1       4.029   1.267  12.942  1.00  0.00    -0.200 F 
ENDBRANCH  55  79
BRANCH  67  90
ATOM     90  C   UNL     1      13.766   4.440  12.864  1.00  0.00     0.064 A 
ATOM     91  C   UNL     1      14.115   3.229  13.480  1.00  0.00     0.173 A 
ATOM     92  C   UNL     1      14.121   5.633  13.513  1.00  0.00     0.173 A 
ATOM     93  F   UNL     1      13.785   2.062  12.908  1.00  0.00    -0.203 F 
ATOM     94  C   UNL     1      14.770   3.214  14.708  1.00  0.00     0.198 A 
ATOM     95  C   UNL     1      14.805   5.614  14.725  1.00  0.00     0.198 A 
ATOM     96  F   UNL     1      13.817   6.819  12.963  1.00  0.00    -0.203 F 
ATOM     97  F   UNL     1      15.049   2.046  15.302  1.00  0.00    -0.200 F 
ATOM     98  C   UNL     1      15.122   4.406  15.325  1.00  0.00     0.200 A 
ATOM     99  F   UNL     1      15.158   6.767  15.311  1.00  0.00    -0.200 F 
ATOM    100  F   UNL     1      15.760   4.389  16.503  1.00  0.00    -0.200 F 
ENDBRANCH  67  90
ENDBRANCH  41  42
ENDBRANCH  33  36
ENDBRANCH  31  32
ENDBRANCH  30  31
ENDBRANCH  29  30
ENDBRANCH  28  29
ENDBRANCH   1  28
TORSDOF 19
