REMARK SMILES O=C(NCCCCCCNC(=O)c1ccc(Cl)c(NC(=S)NC(=O)c2cc([N+](=O)[O-])ccc2Cl)c1)c1ccc(-c2c3nc(c(-c4c(F)c(F)c(F)c(F)c4F)c4ccc([nH]4)c(-c4c(F)c(F)c(F)c(F)c4F)c4nc(c(-c5c(F)c(F)c(F)c(F)c5F)c5ccc2[nH]5)C=C4)C=C3)cc1
REMARK SMILES IDX 8 1 7 2 6 3 5 4 4 5 3 6 1 7 2 8 36 10 37 11 98 12 38 13
REMARK SMILES IDX 97 14 39 15 40 16 41 17 91 18 42 19 96 20 90 21 92 22 43 23
REMARK SMILES IDX 95 24 89 25 88 26 44 28 76 29 56 30 75 31 57 32 60 33 74 34
REMARK SMILES IDX 93 35 58 36 59 37 73 39 94 40 61 41 45 42 46 43 54 44 47 45
REMARK SMILES IDX 48 46 52 47 55 48 49 49 50 50 53 51 51 52 77 53 78 54 86 55
REMARK SMILES IDX 79 56 80 57 84 58 87 59 81 60 82 61 85 62 83 63 62 64 63 65
REMARK SMILES IDX 71 66 64 67 65 68 69 69 72 70 66 71 67 72 70 73 68 74 9 75
REMARK SMILES IDX 10 76 11 77 12 79 13 80 14 81 35 82 15 83 18 84 16 85 17 86
REMARK SMILES IDX 19 87 20 89 21 90 22 91 23 92 24 94 25 95 26 96 33 97 27 98
REMARK SMILES IDX 32 99 34 100 31 101 28 102 29 103 30 104
REMARK H PARENT 3 9 92 27 60 38 10 78 19 88 22 93
REMARK Flexibility Score: inf
ROOT
ATOM      1  C   UNL     1       6.283  -2.452   2.954  1.00  0.00     0.021 C 
ENDROOT
BRANCH   1   2
ATOM      2  C   UNL     1       4.753  -2.526   3.025  1.00  0.00     0.002 C 
BRANCH   2   3
ATOM      3  C   UNL     1       4.041  -1.264   3.517  1.00  0.00     0.002 C 
BRANCH   3   4
ATOM      4  C   UNL     1       4.334   0.020   2.734  1.00  0.00     0.021 C 
BRANCH   4   5
ATOM      5  C   UNL     1       4.127  -0.064   1.224  1.00  0.00     0.116 C 
BRANCH   5   6
ATOM      6  N   UNL     1       2.767  -0.403   0.853  1.00  0.00    -0.352 N 
ATOM      7  O   UNL     1       0.889  -0.356  -0.392  1.00  0.00    -0.269 OA
ATOM      8  C   UNL     1       2.075  -0.062  -0.282  1.00  0.00     0.251 C 
ATOM      9  H   UNL     1       2.273  -0.952   1.504  1.00  0.00     0.163 HD
BRANCH   8  10
ATOM     10  C   UNL     1       2.743   0.694  -1.365  1.00  0.00     0.039 A 
ATOM     11  C   UNL     1       3.977   0.293  -1.888  1.00  0.00     0.014 A 
ATOM     12  C   UNL     1       2.081   1.803  -1.901  1.00  0.00     0.014 A 
ATOM     13  C   UNL     1       4.581   1.044  -2.898  1.00  0.00     0.010 A 
ATOM     14  C   UNL     1       2.674   2.540  -2.927  1.00  0.00     0.010 A 
ATOM     15  C   UNL     1       3.934   2.174  -3.421  1.00  0.00    -0.014 A 
BRANCH  15  16
ATOM     16  C   UNL     1       4.558   2.955  -4.512  1.00  0.00     0.031 A 
ATOM     17  C   UNL     1       5.215   4.272  -4.226  1.00  0.00     0.074 A 
ATOM     18  C   UNL     1       4.506   2.486  -5.771  1.00  0.00     0.049 A 
ATOM     19  N   UNL     1       5.773   5.114  -5.060  1.00  0.00    -0.248 NA
ATOM     20  C   UNL     1       5.250   4.702  -2.821  1.00  0.00     0.031 C 
ATOM     21  C   UNL     1       3.882   1.227  -6.177  1.00  0.00     0.029 A 
ATOM     22  N   UNL     1       4.978   3.022  -6.942  1.00  0.00    -0.354 N 
ATOM     23  C   UNL     1       6.207   6.179  -4.286  1.00  0.00     0.074 A 
ATOM     24  C   UNL     1       5.851   5.881  -2.914  1.00  0.00     0.031 C 
ATOM     25  C   UNL     1       4.010   1.085  -7.506  1.00  0.00     0.029 A 
ATOM     26  C   UNL     1       4.705   2.253  -8.043  1.00  0.00     0.049 A 
ATOM     27  H   UNL     1       5.466   3.876  -6.987  1.00  0.00     0.167 HD
ATOM     28  C   UNL     1       6.848   7.303  -4.685  1.00  0.00     0.037 A 
ATOM     29  C   UNL     1       4.969   2.473  -9.344  1.00  0.00     0.037 A 
ATOM     30  C   UNL     1       7.227   7.596  -6.041  1.00  0.00     0.049 A 
ATOM     31  C   UNL     1       5.666   3.733  -9.761  1.00  0.00     0.074 A 
ATOM     32  C   UNL     1       7.945   8.676  -6.525  1.00  0.00     0.029 A 
ATOM     33  N   UNL     1       6.912   6.803  -7.132  1.00  0.00    -0.354 N 
ATOM     34  N   UNL     1       6.103   4.717  -9.015  1.00  0.00    -0.248 NA
ATOM     35  C   UNL     1       5.895   3.917 -11.201  1.00  0.00     0.031 C 
ATOM     36  C   UNL     1       8.048   8.545  -7.916  1.00  0.00     0.029 A 
ATOM     37  C   UNL     1       7.401   7.380  -8.292  1.00  0.00     0.049 A 
ATOM     38  H   UNL     1       6.413   5.955  -7.090  1.00  0.00     0.167 HD
ATOM     39  C   UNL     1       6.654   5.640  -9.891  1.00  0.00     0.074 A 
ATOM     40  C   UNL     1       6.505   5.095 -11.226  1.00  0.00     0.031 C 
ATOM     41  C   UNL     1       7.230   6.833  -9.611  1.00  0.00     0.037 A 
BRANCH  28  42
ATOM     42  C   UNL     1       7.177   8.311  -3.632  1.00  0.00     0.064 A 
ATOM     43  C   UNL     1       8.344   8.202  -2.865  1.00  0.00     0.173 A 
ATOM     44  C   UNL     1       6.335   9.409  -3.412  1.00  0.00     0.173 A 
ATOM     45  F   UNL     1       9.169   7.158  -3.035  1.00  0.00    -0.203 F 
ATOM     46  C   UNL     1       8.656   9.161  -1.905  1.00  0.00     0.198 A 
ATOM     47  C   UNL     1       6.653  10.369  -2.456  1.00  0.00     0.198 A 
ATOM     48  F   UNL     1       5.204   9.546  -4.120  1.00  0.00    -0.203 F 
ATOM     49  F   UNL     1       9.768   9.032  -1.169  1.00  0.00    -0.200 F 
ATOM     50  C   UNL     1       7.812  10.244  -1.704  1.00  0.00     0.200 A 
ATOM     51  F   UNL     1       5.835  11.412  -2.256  1.00  0.00    -0.200 F 
ATOM     52  F   UNL     1       8.113  11.164  -0.776  1.00  0.00    -0.200 F 
ENDBRANCH  28  42
BRANCH  29  53
ATOM     53  C   UNL     1       4.546   1.471 -10.346  1.00  0.00     0.064 A 
ATOM     54  C   UNL     1       5.447   0.512 -10.824  1.00  0.00     0.173 A 
ATOM     55  C   UNL     1       3.227   1.434 -10.815  1.00  0.00     0.173 A 
ATOM     56  F   UNL     1       6.722   0.526 -10.409  1.00  0.00    -0.203 F 
ATOM     57  C   UNL     1       5.040  -0.455 -11.739  1.00  0.00     0.198 A 
ATOM     58  C   UNL     1       2.819   0.461 -11.723  1.00  0.00     0.198 A 
ATOM     59  F   UNL     1       2.336   2.338 -10.382  1.00  0.00    -0.203 F 
ATOM     60  F   UNL     1       5.920  -1.359 -12.191  1.00  0.00    -0.200 F 
ATOM     61  C   UNL     1       3.726  -0.482 -12.185  1.00  0.00     0.200 A 
ATOM     62  F   UNL     1       1.550   0.436 -12.151  1.00  0.00    -0.200 F 
ATOM     63  F   UNL     1       3.334  -1.417 -13.062  1.00  0.00    -0.200 F 
ENDBRANCH  29  53
BRANCH  41  64
ATOM     64  C   UNL     1       7.728   7.633 -10.770  1.00  0.00     0.064 A 
ATOM     65  C   UNL     1       6.867   8.484 -11.477  1.00  0.00     0.173 A 
ATOM     66  C   UNL     1       9.073   7.574 -11.157  1.00  0.00     0.173 A 
ATOM     67  F   UNL     1       5.570   8.558 -11.146  1.00  0.00    -0.203 F 
ATOM     68  C   UNL     1       7.339   9.249 -12.539  1.00  0.00     0.198 A 
ATOM     69  C   UNL     1       9.542   8.346 -12.216  1.00  0.00     0.198 A 
ATOM     70  F   UNL     1       9.927   6.768 -10.510  1.00  0.00    -0.203 F 
ATOM     71  F   UNL     1       6.499  10.046 -13.215  1.00  0.00    -0.200 F 
ATOM     72  C   UNL     1       8.675   9.181 -12.906  1.00  0.00     0.200 A 
ATOM     73  F   UNL     1      10.832   8.277 -12.574  1.00  0.00    -0.200 F 
ATOM     74  F   UNL     1       9.127   9.917 -13.932  1.00  0.00    -0.200 F 
ENDBRANCH  41  64
ENDBRANCH  15  16
ENDBRANCH   8  10
ENDBRANCH   5   6
ENDBRANCH   4   5
ENDBRANCH   3   4
ENDBRANCH   2   3
ENDBRANCH   1   2
BRANCH   1  75
ATOM     75  C   UNL     1       6.989  -1.997   4.231  1.00  0.00     0.116 C 
BRANCH  75  76
ATOM     76  N   UNL     1       6.674  -2.835   5.368  1.00  0.00    -0.352 N 
ATOM     77  C   UNL     1       7.357  -3.138   6.522  1.00  0.00     0.251 C 
ATOM     78  H   UNL     1       5.796  -3.276   5.302  1.00  0.00     0.163 HD
ATOM     79  O   UNL     1       6.715  -3.652   7.436  1.00  0.00    -0.269 OA
BRANCH  77  80
ATOM     80  C   UNL     1       9.018  -2.627   6.762  1.00  0.00     0.041 A 
ATOM     81  C   UNL     1       8.698  -1.430   7.056  1.00  0.00     0.015 A 
ATOM     82  C   UNL     1      10.724  -3.739   6.799  1.00  0.00     0.041 A 
ATOM     83  C   UNL     1       9.751  -1.816   6.424  1.00  0.00     0.023 A 
ATOM     84  C   UNL     1      11.901  -3.877   7.298  1.00  0.00     0.060 A 
ATOM     85  C   UNL     1      11.410  -3.017   6.483  1.00  0.00     0.064 A 
ATOM     86  Cl  UNL     1      13.042  -3.032   5.138  1.00  0.00    -0.082 Cl
BRANCH  84  87
ATOM     87  N   UNL     1      12.508  -5.124   7.332  1.00  0.00    -0.331 N 
ATOM     88  H   UNL     1      13.420  -5.197   6.970  1.00  0.00     0.169 HD
BRANCH  87  89
ATOM     89  C   UNL     1      11.929  -6.268   7.833  1.00  0.00     0.177 C 
ATOM     90  S   UNL     1      12.928  -7.559   8.200  1.00  0.00    -0.040 S 
BRANCH  89  91
ATOM     91  N   UNL     1      10.545  -6.430   8.038  1.00  0.00    -0.299 N 
ATOM     92  C   UNL     1       9.250  -5.838   7.853  1.00  0.00     0.259 C 
ATOM     93  H   UNL     1      10.413  -7.296   8.488  1.00  0.00     0.172 HD
ATOM     94  O   UNL     1       8.237  -6.497   8.055  1.00  0.00    -0.269 OA
BRANCH  92  95
ATOM     95  C   UNL     1       9.140  -4.430   7.362  1.00  0.00     0.065 A 
ATOM     96  C   UNL     1       9.995  -3.077   8.526  1.00  0.00     0.101 A 
ATOM     97  C   UNL     1       9.401  -4.043   5.413  1.00  0.00     0.054 A 
ATOM     98  C   UNL     1      11.086  -1.584   7.865  1.00  0.00     0.270 A 
ATOM     99  C   UNL     1      10.496  -2.545   4.762  1.00  0.00     0.028 A 
ATOM    100  Cl  UNL     1       8.969  -5.260   4.246  1.00  0.00    -0.083 Cl
ATOM    101  C   UNL     1      11.425  -1.224   5.951  1.00  0.00     0.087 A 
BRANCH  98 102
ATOM    102  N   UNL     1      11.723  -0.722   8.837  1.00  0.00     0.062 N 
ATOM    103  O   UNL     1      11.575  -1.017  10.026  1.00  0.00    -0.258 OA
ATOM    104  O   UNL     1      12.365   0.236   8.393  1.00  0.00    -0.258 OA
ENDBRANCH  98 102
ENDBRANCH  92  95
ENDBRANCH  89  91
ENDBRANCH  87  89
ENDBRANCH  84  87
ENDBRANCH  77  80
ENDBRANCH  75  76
ENDBRANCH   1  75
TORSDOF 18
