REMARK SMILES COc1cc(F)ccc1-c1ccc(=O)n(CC(=O)NCc2ccc(C(=O)NCCCCCCNC(=O)c3ccc(-c4c5nc(c(-c6c(F)c(F)c(F)c(F)c6F)c6ccc([nH]6)c(-c6c(F)c(F)c(F)c(F)c6F)c6nc(c(-c7c(F)c(F)c(F)c(F)c7F)c7ccc4[nH]7)C=C6)C=C5)cc3)cc2)n1
REMARK SMILES IDX 28 1 27 2 25 3 26 4 24 6 21 7 22 8 101 9 23 10 100 11 20 12
REMARK SMILES IDX 19 13 17 14 18 15 16 17 15 18 10 19 11 20 102 21 12 22 13 23
REMARK SMILES IDX 14 24 9 25 3 26 4 27 5 28 8 29 6 30 7 31 2 32 1 33 29 34
REMARK SMILES IDX 30 35 31 36 32 37 33 38 34 39 35 40 36 42 37 43 38 44 99 45
REMARK SMILES IDX 39 46 98 47 40 48 41 49 42 50 92 51 43 52 97 53 91 54 93 55
REMARK SMILES IDX 44 56 96 57 90 58 89 59 45 61 77 62 57 63 76 64 58 65 61 66
REMARK SMILES IDX 75 67 94 68 59 69 60 70 74 72 95 73 62 74 46 75 47 76 55 77
REMARK SMILES IDX 48 78 49 79 53 80 56 81 50 82 51 83 54 84 52 85 78 86 79 87
REMARK SMILES IDX 87 88 80 89 81 90 85 91 88 92 82 93 83 94 86 95 84 96 63 97
REMARK SMILES IDX 64 98 72 99 65 100 66 101 70 102 73 103 67 104 68 105 71 106
REMARK SMILES IDX 69 107
REMARK H PARENT 27 5 19 16 34 41 93 60 61 71
REMARK Flexibility Score: inf
ROOT
ATOM      1  C   UNL     1      -1.542  -0.804   9.487  1.00  0.00     0.116 C 
ENDROOT
BRANCH   1   2
ATOM      2  N   UNL     1      -2.402   0.360   9.513  1.00  0.00    -0.352 N 
ATOM      3  C   UNL     1      -3.405   0.751   8.661  1.00  0.00     0.251 C 
ATOM      4  O   UNL     1      -3.975   1.818   8.885  1.00  0.00    -0.269 OA
ATOM      5  H   UNL     1      -2.241   0.972  10.267  1.00  0.00     0.163 HD
BRANCH   3   6
ATOM      6  C   UNL     1      -3.775  -0.032   7.450  1.00  0.00     0.039 A 
ATOM      7  C   UNL     1      -4.361  -1.363   5.025  1.00  0.00    -0.029 A 
ATOM      8  C   UNL     1      -4.512   0.023   5.140  1.00  0.00     0.006 A 
ATOM      9  C   UNL     1      -3.992  -2.084   6.169  1.00  0.00     0.006 A 
ATOM     10  C   UNL     1      -4.207   0.685   6.331  1.00  0.00     0.014 A 
ATOM     11  C   UNL     1      -3.741  -1.427   7.380  1.00  0.00     0.014 A 
BRANCH   7  12
ATOM     12  C   UNL     1      -4.510  -2.068   3.697  1.00  0.00     0.151 C 
BRANCH  12  13
ATOM     13  N   UNL     1      -5.631  -1.591   2.921  1.00  0.00    -0.350 N 
ATOM     14  C   UNL     1      -5.645  -0.972   1.706  1.00  0.00     0.242 C 
ATOM     15  O   UNL     1      -6.730  -0.929   1.116  1.00  0.00    -0.273 OA
ATOM     16  H   UNL     1      -6.515  -1.735   3.329  1.00  0.00     0.163 HD
BRANCH  14  17
ATOM     17  C   UNL     1      -4.357  -0.514   1.013  1.00  0.00     0.248 C 
BRANCH  17  18
ATOM     18  N   UNL     1      -3.522   0.376   1.812  1.00  0.00    -0.220 N 
ATOM     19  C   UNL     1      -1.505   0.719   2.828  1.00  0.00     0.095 A 
ATOM     20  C   UNL     1      -1.862   2.088   3.241  1.00  0.00     0.037 A 
ATOM     21  N   UNL     1      -2.274  -0.093   2.174  1.00  0.00    -0.169 NA
ATOM     22  C   UNL     1      -3.047   2.538   2.827  1.00  0.00     0.075 A 
ATOM     23  C   UNL     1      -3.946   1.683   2.023  1.00  0.00     0.267 A 
ATOM     24  O   UNL     1      -5.015   2.146   1.637  1.00  0.00    -0.268 OA
BRANCH  19  25
ATOM     25  C   UNL     1      -0.151   0.284   3.210  1.00  0.00     0.044 A 
ATOM     26  C   UNL     1       0.874   0.275   2.252  1.00  0.00     0.131 A 
ATOM     27  C   UNL     1       2.151  -0.143   2.623  1.00  0.00     0.086 A 
ATOM     28  C   UNL     1       2.378  -0.566   3.931  1.00  0.00     0.126 A 
ATOM     29  C   UNL     1       0.081  -0.145   4.522  1.00  0.00     0.017 A 
ATOM     30  F   UNL     1       3.607  -0.964   4.287  1.00  0.00    -0.207 F 
ATOM     31  C   UNL     1       1.359  -0.572   4.881  1.00  0.00     0.040 A 
BRANCH  26  32
ATOM     32  O   UNL     1       0.602   0.774   1.006  1.00  0.00    -0.496 OA
ATOM     33  C   UNL     1       1.051  -0.064  -0.057  1.00  0.00     0.278 C 
ENDBRANCH  26  32
ENDBRANCH  19  25
ENDBRANCH  17  18
ENDBRANCH  14  17
ENDBRANCH  12  13
ENDBRANCH   7  12
ENDBRANCH   3   6
ENDBRANCH   1   2
BRANCH   1  34
ATOM     34  C   UNL     1      -0.126  -0.538   9.989  1.00  0.00     0.021 C 
BRANCH  34  35
ATOM     35  C   UNL     1       0.019  -0.013  11.420  1.00  0.00     0.002 C 
BRANCH  35  36
ATOM     36  C   UNL     1      -0.703  -0.784  12.527  1.00  0.00     0.002 C 
BRANCH  36  37
ATOM     37  C   UNL     1      -0.480  -2.295  12.574  1.00  0.00     0.021 C 
BRANCH  37  38
ATOM     38  C   UNL     1       0.967  -2.767  12.547  1.00  0.00     0.116 C 
BRANCH  38  39
ATOM     39  N   UNL     1       1.741  -2.360  13.709  1.00  0.00    -0.352 N 
ATOM     40  C   UNL     1       2.548  -3.118  14.527  1.00  0.00     0.251 C 
ATOM     41  H   UNL     1       1.678  -1.407  13.945  1.00  0.00     0.163 HD
ATOM     42  O   UNL     1       3.072  -2.626  15.512  1.00  0.00    -0.269 OA
BRANCH  40  43
ATOM     43  C   UNL     1       2.735  -4.560  14.235  1.00  0.00     0.039 A 
ATOM     44  C   UNL     1       3.044  -5.003  12.947  1.00  0.00     0.014 A 
ATOM     45  C   UNL     1       2.546  -5.483  15.268  1.00  0.00     0.014 A 
ATOM     46  C   UNL     1       2.986  -6.363  12.654  1.00  0.00     0.010 A 
ATOM     47  C   UNL     1       2.565  -6.851  14.987  1.00  0.00     0.010 A 
ATOM     48  C   UNL     1       2.726  -7.301  13.667  1.00  0.00    -0.014 A 
BRANCH  48  49
ATOM     49  C   UNL     1       2.584  -8.741  13.327  1.00  0.00     0.031 A 
ATOM     50  C   UNL     1       1.259  -9.437  13.496  1.00  0.00     0.074 A 
ATOM     51  C   UNL     1       3.637  -9.416  12.828  1.00  0.00     0.049 A 
ATOM     52  N   UNL     1       0.951 -10.692  13.284  1.00  0.00    -0.248 NA
ATOM     53  C   UNL     1       0.130  -8.617  13.965  1.00  0.00     0.031 C 
ATOM     54  C   UNL     1       4.965  -8.849  12.595  1.00  0.00     0.029 A 
ATOM     55  N   UNL     1       3.752 -10.719  12.413  1.00  0.00    -0.354 N 
ATOM     56  C   UNL     1      -0.392 -10.816  13.615  1.00  0.00     0.074 A 
ATOM     57  C   UNL     1      -0.840  -9.516  14.062  1.00  0.00     0.031 C 
ATOM     58  C   UNL     1       5.751  -9.786  12.044  1.00  0.00     0.029 A 
ATOM     59  C   UNL     1       5.002 -11.036  11.943  1.00  0.00     0.049 A 
ATOM     60  H   UNL     1       3.010 -11.365  12.450  1.00  0.00     0.167 HD
ATOM     61  C   UNL     1      -1.182 -11.914  13.542  1.00  0.00     0.037 A 
ATOM     62  C   UNL     1       5.499 -12.206  11.497  1.00  0.00     0.037 A 
ATOM     63  C   UNL     1      -0.744 -13.200  13.066  1.00  0.00     0.049 A 
ATOM     64  C   UNL     1       4.614 -13.420  11.468  1.00  0.00     0.074 A 
ATOM     65  C   UNL     1      -1.482 -14.364  12.929  1.00  0.00     0.029 A 
ATOM     66  N   UNL     1       0.544 -13.490  12.644  1.00  0.00    -0.354 N 
ATOM     67  N   UNL     1       3.347 -13.524  11.787  1.00  0.00    -0.248 NA
ATOM     68  C   UNL     1       5.228 -14.681  11.029  1.00  0.00     0.031 C 
ATOM     69  C   UNL     1      -0.630 -15.368  12.462  1.00  0.00     0.029 A 
ATOM     70  C   UNL     1       0.627 -14.820  12.265  1.00  0.00     0.049 A 
ATOM     71  H   UNL     1       1.289 -12.847  12.617  1.00  0.00     0.167 HD
ATOM     72  C   UNL     1       3.009 -14.853  11.577  1.00  0.00     0.074 A 
ATOM     73  C   UNL     1       4.200 -15.517  11.089  1.00  0.00     0.031 C 
ATOM     74  C   UNL     1       1.817 -15.466  11.775  1.00  0.00     0.037 A 
BRANCH  61  75
ATOM     75  C   UNL     1      -2.608 -11.788  13.991  1.00  0.00     0.064 A 
ATOM     76  C   UNL     1      -3.037 -12.411  15.174  1.00  0.00     0.173 A 
ATOM     77  C   UNL     1      -3.566 -11.123  13.214  1.00  0.00     0.173 A 
ATOM     78  F   UNL     1      -2.159 -13.066  15.949  1.00  0.00    -0.203 F 
ATOM     79  C   UNL     1      -4.376 -12.384  15.553  1.00  0.00     0.198 A 
ATOM     80  C   UNL     1      -4.901 -11.078  13.609  1.00  0.00     0.198 A 
ATOM     81  F   UNL     1      -3.204 -10.502  12.081  1.00  0.00    -0.203 F 
ATOM     82  F   UNL     1      -4.767 -13.012  16.671  1.00  0.00    -0.200 F 
ATOM     83  C   UNL     1      -5.306 -11.716  14.772  1.00  0.00     0.200 A 
ATOM     84  F   UNL     1      -5.796 -10.414  12.864  1.00  0.00    -0.200 F 
ATOM     85  F   UNL     1      -6.594 -11.685  15.141  1.00  0.00    -0.200 F 
ENDBRANCH  61  75
BRANCH  62  86
ATOM     86  C   UNL     1       6.911 -12.273  11.046  1.00  0.00     0.064 A 
ATOM     87  C   UNL     1       7.973 -12.148  11.954  1.00  0.00     0.173 A 
ATOM     88  C   UNL     1       7.226 -12.419   9.688  1.00  0.00     0.173 A 
ATOM     89  F   UNL     1       7.722 -12.002  13.264  1.00  0.00    -0.203 F 
ATOM     90  C   UNL     1       9.295 -12.140  11.518  1.00  0.00     0.198 A 
ATOM     91  C   UNL     1       8.550 -12.438   9.257  1.00  0.00     0.198 A 
ATOM     92  F   UNL     1       6.245 -12.562   8.786  1.00  0.00    -0.203 F 
ATOM     93  F   UNL     1      10.289 -11.979  12.403  1.00  0.00    -0.200 F 
ATOM     94  C   UNL     1       9.583 -12.288  10.170  1.00  0.00     0.200 A 
ATOM     95  F   UNL     1       8.826 -12.602   7.956  1.00  0.00    -0.200 F 
ATOM     96  F   UNL     1      10.856 -12.287   9.752  1.00  0.00    -0.200 F 
ENDBRANCH  62  86
BRANCH  74  97
ATOM     97  C   UNL     1       1.722 -16.926  11.450  1.00  0.00     0.064 A 
ATOM     98  C   UNL     1       1.002 -17.357  10.326  1.00  0.00     0.173 A 
ATOM     99  C   UNL     1       2.263 -17.899  12.301  1.00  0.00     0.173 A 
ATOM    100  F   UNL     1       0.459 -16.462   9.486  1.00  0.00    -0.203 F 
ATOM    101  C   UNL     1       0.810 -18.713  10.077  1.00  0.00     0.198 A 
ATOM    102  C   UNL     1       2.089 -19.254  12.036  1.00  0.00     0.198 A 
ATOM    103  F   UNL     1       2.970 -17.533  13.381  1.00  0.00    -0.203 F 
ATOM    104  F   UNL     1       0.089 -19.103   9.016  1.00  0.00    -0.200 F 
ATOM    105  C   UNL     1       1.355 -19.660  10.931  1.00  0.00     0.200 A 
ATOM    106  F   UNL     1       2.631 -20.169  12.851  1.00  0.00    -0.200 F 
ATOM    107  F   UNL     1       1.171 -20.965  10.690  1.00  0.00    -0.200 F 
ENDBRANCH  74  97
ENDBRANCH  48  49
ENDBRANCH  40  43
ENDBRANCH  38  39
ENDBRANCH  37  38
ENDBRANCH  36  37
ENDBRANCH  35  36
ENDBRANCH  34  35
ENDBRANCH   1  34
TORSDOF 19
