REMARK SMILES CC1(C)S[C@H](c2ccc(-c3cccc([N+](=O)[O-])c3)o2)[NH2+][C@@H]1C(=O)NCCCCCCNC(=O)c1ccc(-c2c3nc(c(-c4c(F)c(F)c(F)c(F)c4F)c4ccc([nH]4)c(-c4c(F)c(F)c(F)c(F)c4F)c4nc(c(-c5c(F)c(F)c(F)c(F)c5F)c5ccc2[nH]5)C=C4)C=C3)cc1
REMARK SMILES IDX 27 1 26 2 25 3 24 4 22 5 23 6 21 8 1 9 2 10 3 11 4 12 5 13
REMARK SMILES IDX 20 14 6 17 7 18 19 19 8 20 9 21 10 22 11 23 18 24 12 25
REMARK SMILES IDX 14 26 13 27 15 28 16 29 17 30 28 31 29 32 30 33 31 34 32 35
REMARK SMILES IDX 33 37 34 38 35 39 96 40 36 41 95 42 37 43 38 44 39 45 89 46
REMARK SMILES IDX 40 47 94 48 88 49 90 50 41 51 93 52 87 53 86 54 42 56 74 57
REMARK SMILES IDX 54 58 73 59 55 60 58 61 72 62 91 63 56 64 57 65 71 67 92 68
REMARK SMILES IDX 59 69 43 70 44 71 52 72 45 73 46 74 50 75 53 76 47 77 48 78
REMARK SMILES IDX 51 79 49 80 75 81 76 82 84 83 77 84 78 85 82 86 85 87 79 88
REMARK SMILES IDX 80 89 83 90 81 91 60 92 61 93 69 94 62 95 63 96 67 97 70 98
REMARK SMILES IDX 64 99 65 100 68 101 66 102
REMARK H PARENT 24 7 20 15 20 16 31 36 90 55 58 66
REMARK Flexibility Score: inf
ROOT
ATOM      1  C   UNL     1      -3.329   3.995  -3.883  1.00  0.00     0.002 C 
ENDROOT
BRANCH   1   2
ATOM      2  C   UNL     1      -2.816   4.207  -2.460  1.00  0.00     0.021 C 
BRANCH   2   3
ATOM      3  C   UNL     1      -2.234   2.962  -1.794  1.00  0.00     0.116 C 
BRANCH   3   4
ATOM      4  N   UNL     1      -1.177   2.340  -2.571  1.00  0.00    -0.351 N 
ATOM      5  C   UNL     1      -0.287   1.380  -2.154  1.00  0.00     0.279 C 
ATOM      6  O   UNL     1       0.444   0.883  -3.009  1.00  0.00    -0.268 OA
ATOM      7  H   UNL     1      -1.087   2.642  -3.503  1.00  0.00     0.163 HD
BRANCH   5   8
ATOM      8  C   UNL     1      -0.190   1.083  -0.638  1.00  0.00     0.289 C 
ATOM      9  C   UNL     1       1.243   0.366   1.323  1.00  0.00     0.030 C 
ATOM     10  C   UNL     1       0.854   0.052  -0.139  1.00  0.00     0.078 C 
ATOM     11  C   UNL     1       2.142  -0.090  -0.950  1.00  0.00     0.030 C 
ATOM     12  S   UNL     1      -0.050  -1.532  -0.159  1.00  0.00    -0.078 SA
ATOM     13  C   UNL     1      -1.680  -0.763  -0.251  1.00  0.00     0.311 C 
ATOM     14  N   UNL     1      -1.531   0.688  -0.098  1.00  0.00    -0.317 N 
ATOM     15  H   UNL     1      -1.593   0.939   0.889  1.00  0.00     0.348 HD
ATOM     16  H   UNL     1      -2.271   1.173  -0.606  1.00  0.00     0.348 HD
BRANCH  13  17
ATOM     17  C   UNL     1      -2.479  -1.250  -1.426  1.00  0.00     0.172 A 
ATOM     18  C   UNL     1      -3.206  -2.419  -1.572  1.00  0.00     0.054 A 
ATOM     19  O   UNL     1      -2.604  -0.496  -2.569  1.00  0.00    -0.454 OA
ATOM     20  C   UNL     1      -3.814  -2.374  -2.843  1.00  0.00     0.051 A 
ATOM     21  C   UNL     1      -3.426  -1.187  -3.424  1.00  0.00     0.134 A 
BRANCH  21  22
ATOM     22  C   UNL     1      -3.802  -0.545  -4.678  1.00  0.00     0.024 A 
ATOM     23  C   UNL     1      -2.853   0.027  -5.538  1.00  0.00     0.012 A 
ATOM     24  C   UNL     1      -5.162  -0.469  -5.024  1.00  0.00     0.097 A 
ATOM     25  C   UNL     1      -3.253   0.665  -6.723  1.00  0.00     0.008 A 
ATOM     26  C   UNL     1      -5.559   0.197  -6.193  1.00  0.00     0.270 A 
ATOM     27  C   UNL     1      -4.608   0.756  -7.054  1.00  0.00     0.085 A 
BRANCH  26  28
ATOM     28  N   UNL     1      -6.989   0.364  -6.476  1.00  0.00     0.062 N 
ATOM     29  O   UNL     1      -7.313   0.688  -7.626  1.00  0.00    -0.258 OA
ATOM     30  O   UNL     1      -7.784   0.171  -5.545  1.00  0.00    -0.258 OA
ENDBRANCH  26  28
ENDBRANCH  21  22
ENDBRANCH  13  17
ENDBRANCH   5   8
ENDBRANCH   3   4
ENDBRANCH   2   3
ENDBRANCH   1   2
BRANCH   1  31
ATOM     31  C   UNL     1      -4.290   2.823  -4.039  1.00  0.00     0.002 C 
BRANCH  31  32
ATOM     32  C   UNL     1      -5.623   2.923  -3.313  1.00  0.00     0.021 C 
BRANCH  32  33
ATOM     33  C   UNL     1      -6.449   4.128  -3.719  1.00  0.00     0.116 C 
BRANCH  33  34
ATOM     34  N   UNL     1      -6.723   4.188  -5.148  1.00  0.00    -0.352 N 
ATOM     35  C   UNL     1      -7.867   4.597  -5.790  1.00  0.00     0.251 C 
ATOM     36  H   UNL     1      -5.987   3.896  -5.734  1.00  0.00     0.163 HD
ATOM     37  O   UNL     1      -7.963   4.507  -7.005  1.00  0.00    -0.269 OA
BRANCH  35  38
ATOM     38  C   UNL     1      -8.985   5.137  -4.989  1.00  0.00     0.039 A 
ATOM     39  C   UNL     1     -10.290   4.744  -5.287  1.00  0.00     0.014 A 
ATOM     40  C   UNL     1      -8.738   6.018  -3.934  1.00  0.00     0.014 A 
ATOM     41  C   UNL     1     -11.342   5.207  -4.495  1.00  0.00     0.010 A 
ATOM     42  C   UNL     1      -9.765   6.374  -3.075  1.00  0.00     0.010 A 
ATOM     43  C   UNL     1     -11.084   6.006  -3.369  1.00  0.00    -0.014 A 
BRANCH  43  44
ATOM     44  C   UNL     1     -12.184   6.525  -2.521  1.00  0.00     0.031 A 
ATOM     45  C   UNL     1     -12.387   8.012  -2.390  1.00  0.00     0.074 A 
ATOM     46  C   UNL     1     -12.963   5.668  -1.836  1.00  0.00     0.049 A 
ATOM     47  N   UNL     1     -13.267   8.670  -1.679  1.00  0.00    -0.248 NA
ATOM     48  C   UNL     1     -11.450   8.879  -3.126  1.00  0.00     0.031 C 
ATOM     49  C   UNL     1     -12.817   4.211  -1.828  1.00  0.00     0.029 A 
ATOM     50  N   UNL     1     -14.036   5.899  -1.014  1.00  0.00    -0.354 N 
ATOM     51  C   UNL     1     -12.976  10.015  -1.871  1.00  0.00     0.074 A 
ATOM     52  C   UNL     1     -11.791  10.082  -2.695  1.00  0.00     0.031 C 
ATOM     53  C   UNL     1     -13.792   3.676  -1.075  1.00  0.00     0.029 A 
ATOM     54  C   UNL     1     -14.607   4.751  -0.520  1.00  0.00     0.049 A 
ATOM     55  H   UNL     1     -14.366   6.801  -0.798  1.00  0.00     0.167 HD
ATOM     56  C   UNL     1     -13.659  11.099  -1.435  1.00  0.00     0.037 A 
ATOM     57  C   UNL     1     -15.674   4.591   0.285  1.00  0.00     0.037 A 
ATOM     58  C   UNL     1     -14.859  11.024  -0.646  1.00  0.00     0.049 A 
ATOM     59  C   UNL     1     -16.427   5.812   0.743  1.00  0.00     0.074 A 
ATOM     60  C   UNL     1     -15.669  12.054  -0.203  1.00  0.00     0.029 A 
ATOM     61  N   UNL     1     -15.422   9.843  -0.183  1.00  0.00    -0.354 N 
ATOM     62  N   UNL     1     -16.193   7.077   0.487  1.00  0.00    -0.248 NA
ATOM     63  C   UNL     1     -17.604   5.580   1.590  1.00  0.00     0.031 C 
ATOM     64  C   UNL     1     -16.693  11.500   0.573  1.00  0.00     0.029 A 
ATOM     65  C   UNL     1     -16.557  10.120   0.562  1.00  0.00     0.049 A 
ATOM     66  H   UNL     1     -15.068   8.941  -0.358  1.00  0.00     0.167 HD
ATOM     67  C   UNL     1     -17.205   7.788   1.118  1.00  0.00     0.074 A 
ATOM     68  C   UNL     1     -18.070   6.810   1.745  1.00  0.00     0.031 C 
ATOM     69  C   UNL     1     -17.401   9.129   1.179  1.00  0.00     0.037 A 
BRANCH  56  70
ATOM     70  C   UNL     1     -13.127  12.454  -1.812  1.00  0.00     0.064 A 
ATOM     71  C   UNL     1     -13.129  12.905  -3.142  1.00  0.00     0.173 A 
ATOM     72  C   UNL     1     -12.625  13.321  -0.830  1.00  0.00     0.173 A 
ATOM     73  F   UNL     1     -13.583  12.111  -4.124  1.00  0.00    -0.203 F 
ATOM     74  C   UNL     1     -12.615  14.154  -3.478  1.00  0.00     0.198 A 
ATOM     75  C   UNL     1     -12.146  14.585  -1.165  1.00  0.00     0.198 A 
ATOM     76  F   UNL     1     -12.601  12.944   0.457  1.00  0.00    -0.203 F 
ATOM     77  F   UNL     1     -12.570  14.535  -4.763  1.00  0.00    -0.200 F 
ATOM     78  C   UNL     1     -12.131  14.996  -2.489  1.00  0.00     0.200 A 
ATOM     79  F   UNL     1     -11.691  15.403  -0.206  1.00  0.00    -0.200 F 
ATOM     80  F   UNL     1     -11.643  16.202  -2.813  1.00  0.00    -0.200 F 
ENDBRANCH  56  70
BRANCH  57  81
ATOM     81  C   UNL     1     -16.117   3.227   0.674  1.00  0.00     0.064 A 
ATOM     82  C   UNL     1     -17.332   2.702   0.208  1.00  0.00     0.173 A 
ATOM     83  C   UNL     1     -15.346   2.423   1.526  1.00  0.00     0.173 A 
ATOM     84  F   UNL     1     -18.115   3.439  -0.594  1.00  0.00    -0.203 F 
ATOM     85  C   UNL     1     -17.771   1.440   0.602  1.00  0.00     0.198 A 
ATOM     86  C   UNL     1     -15.771   1.147   1.893  1.00  0.00     0.198 A 
ATOM     87  F   UNL     1     -14.173   2.873   1.994  1.00  0.00    -0.203 F 
ATOM     88  F   UNL     1     -18.962   0.988   0.187  1.00  0.00    -0.200 F 
ATOM     89  C   UNL     1     -16.988   0.661   1.440  1.00  0.00     0.200 A 
ATOM     90  F   UNL     1     -15.003   0.392   2.690  1.00  0.00    -0.200 F 
ATOM     91  F   UNL     1     -17.410  -0.552   1.819  1.00  0.00    -0.200 F 
ENDBRANCH  57  81
BRANCH  69  92
ATOM     92  C   UNL     1     -18.614   9.608   1.926  1.00  0.00     0.064 A 
ATOM     93  C   UNL     1     -18.718   9.485   3.320  1.00  0.00     0.173 A 
ATOM     94  C   UNL     1     -19.679  10.210   1.238  1.00  0.00     0.173 A 
ATOM     95  F   UNL     1     -17.733   8.906   4.022  1.00  0.00    -0.203 F 
ATOM     96  C   UNL     1     -19.863   9.905   3.991  1.00  0.00     0.198 A 
ATOM     97  C   UNL     1     -20.805  10.665   1.918  1.00  0.00     0.198 A 
ATOM     98  F   UNL     1     -19.626  10.364  -0.093  1.00  0.00    -0.203 F 
ATOM     99  F   UNL     1     -19.969   9.714   5.314  1.00  0.00    -0.200 F 
ATOM    100  C   UNL     1     -20.902  10.500   3.292  1.00  0.00     0.200 A 
ATOM    101  F   UNL     1     -21.800  11.257   1.243  1.00  0.00    -0.200 F 
ATOM    102  F   UNL     1     -22.002  10.905   3.940  1.00  0.00    -0.200 F 
ENDBRANCH  69  92
ENDBRANCH  43  44
ENDBRANCH  35  38
ENDBRANCH  33  34
ENDBRANCH  32  33
ENDBRANCH  31  32
ENDBRANCH   1  31
TORSDOF 16
