REMARK SMILES O=C(COCC(=O)N1CCC([NH+]2CCN(c3ccc(F)cc3)CC2)CC1)NCCCCCCNC(=O)c1ccc(-c2c3nc(c(-c4c(F)c(F)c(F)c(F)c4F)c4ccc([nH]4)c(-c4c(F)c(F)c(F)c(F)c4F)c4nc(c(-c5c(F)c(F)c(F)c(F)c5F)c5ccc2[nH]5)C=C4)C=C3)cc1
REMARK SMILES IDX 29 1 28 2 27 3 1 4 2 5 3 7 4 8 5 9 6 10 7 11 8 12 9 13 26 14
REMARK SMILES IDX 10 15 25 16 11 17 12 18 13 19 24 20 14 22 23 23 15 24 16 25
REMARK SMILES IDX 17 26 22 27 18 28 21 29 19 30 20 31 30 32 31 33 32 34 33 35
REMARK SMILES IDX 34 36 35 37 36 39 37 40 38 41 99 42 39 43 98 44 40 45 41 46
REMARK SMILES IDX 42 47 92 48 43 49 97 50 91 51 93 52 44 53 96 54 90 55 89 56
REMARK SMILES IDX 45 58 77 59 57 60 76 61 58 62 61 63 75 64 94 65 59 66 60 67
REMARK SMILES IDX 74 69 95 70 62 71 46 72 47 73 55 74 48 75 49 76 53 77 56 78
REMARK SMILES IDX 50 79 51 80 54 81 52 82 78 83 79 84 87 85 80 86 81 87 85 88
REMARK SMILES IDX 88 89 82 90 83 91 86 92 84 93 63 94 64 95 72 96 65 97 66 98
REMARK SMILES IDX 70 99 73 100 67 101 68 102 71 103 69 104
REMARK H PARENT 27 6 12 21 34 38 93 57 61 68
REMARK Flexibility Score: inf
ROOT
ATOM      1  C   UNL     1       2.609   2.002  -2.875  1.00  0.00     0.021 C 
ENDROOT
BRANCH   1   2
ATOM      2  C   UNL     1       2.045   0.660  -2.413  1.00  0.00     0.116 C 
BRANCH   2   3
ATOM      3  N   UNL     1       2.621   0.247  -1.153  1.00  0.00    -0.354 N 
ATOM      4  O   UNL     1       0.832   0.856   0.160  1.00  0.00    -0.272 OA
ATOM      5  C   UNL     1       1.957   0.383   0.046  1.00  0.00     0.246 C 
ATOM      6  H   UNL     1       3.523  -0.146  -1.153  1.00  0.00     0.163 HD
BRANCH   5   7
ATOM      7  C   UNL     1       2.791  -0.045   1.257  1.00  0.00     0.260 C 
BRANCH   7   8
ATOM      8  O   UNL     1       3.732  -1.085   1.033  1.00  0.00    -0.362 OA
BRANCH   8   9
ATOM      9  C   UNL     1       3.141  -2.356   0.847  1.00  0.00     0.260 C 
BRANCH   9  10
ATOM     10  C   UNL     1       2.293  -3.053   1.933  1.00  0.00     0.248 C 
ATOM     11  O   UNL     1       1.165  -3.466   1.653  1.00  0.00    -0.272 OA
ATOM     12  N   UNL     1       2.888  -3.325   3.157  1.00  0.00    -0.340 N 
ATOM     13  C   UNL     1       2.304  -4.344   4.011  1.00  0.00     0.125 C 
ATOM     14  C   UNL     1       3.830  -2.450   3.841  1.00  0.00     0.125 C 
ATOM     15  C   UNL     1       1.537  -3.717   5.167  1.00  0.00     0.086 C 
ATOM     16  C   UNL     1       3.082  -1.693   4.943  1.00  0.00     0.086 C 
ATOM     17  C   UNL     1       2.372  -2.665   5.922  1.00  0.00     0.187 C 
BRANCH  17  18
ATOM     18  N   UNL     1       1.688  -1.953   7.021  1.00  0.00    -0.329 N 
ATOM     19  C   UNL     1       0.702  -0.910   6.670  1.00  0.00     0.284 C 
ATOM     20  C   UNL     1       1.119  -2.827   8.071  1.00  0.00     0.284 C 
ATOM     21  H   UNL     1       2.494  -1.450   7.392  1.00  0.00     0.348 HD
ATOM     22  C   UNL     1      -0.735  -1.385   6.356  1.00  0.00     0.178 C 
ATOM     23  C   UNL     1      -0.333  -3.334   7.864  1.00  0.00     0.178 C 
ATOM     24  N   UNL     1      -1.222  -2.249   7.434  1.00  0.00    -0.360 N 
BRANCH  24  25
ATOM     25  C   UNL     1      -2.583  -2.424   7.619  1.00  0.00     0.037 A 
ATOM     26  C   UNL     1      -3.095  -2.447   8.926  1.00  0.00     0.029 A 
ATOM     27  C   UNL     1      -3.486  -2.554   6.555  1.00  0.00     0.029 A 
ATOM     28  C   UNL     1      -4.463  -2.571   9.168  1.00  0.00     0.041 A 
ATOM     29  C   UNL     1      -4.858  -2.695   6.790  1.00  0.00     0.041 A 
ATOM     30  C   UNL     1      -5.333  -2.693   8.095  1.00  0.00     0.123 A 
ATOM     31  F   UNL     1      -6.648  -2.807   8.322  1.00  0.00    -0.207 F 
ENDBRANCH  24  25
ENDBRANCH  17  18
ENDBRANCH   9  10
ENDBRANCH   8   9
ENDBRANCH   7   8
ENDBRANCH   5   7
ENDBRANCH   2   3
ENDBRANCH   1   2
BRANCH   1  32
ATOM     32  C   UNL     1       4.119   1.995  -3.147  1.00  0.00     0.002 C 
BRANCH  32  33
ATOM     33  C   UNL     1       4.594   0.982  -4.194  1.00  0.00     0.002 C 
BRANCH  33  34
ATOM     34  C   UNL     1       3.916   1.090  -5.561  1.00  0.00     0.021 C 
BRANCH  34  35
ATOM     35  C   UNL     1       4.051   2.450  -6.239  1.00  0.00     0.116 C 
BRANCH  35  36
ATOM     36  N   UNL     1       5.430   2.771  -6.572  1.00  0.00    -0.352 N 
ATOM     37  C   UNL     1       5.969   3.166  -7.772  1.00  0.00     0.251 C 
ATOM     38  H   UNL     1       6.070   2.695  -5.828  1.00  0.00     0.163 HD
ATOM     39  O   UNL     1       7.184   3.230  -7.913  1.00  0.00    -0.269 OA
BRANCH  37  40
ATOM     40  C   UNL     1       5.079   3.487  -8.910  1.00  0.00     0.039 A 
ATOM     41  C   UNL     1       5.393   2.985 -10.175  1.00  0.00     0.014 A 
ATOM     42  C   UNL     1       3.941   4.279  -8.732  1.00  0.00     0.014 A 
ATOM     43  C   UNL     1       4.529   3.219 -11.247  1.00  0.00     0.010 A 
ATOM     44  C   UNL     1       3.043   4.448  -9.783  1.00  0.00     0.010 A 
ATOM     45  C   UNL     1       3.326   3.918 -11.051  1.00  0.00    -0.014 A 
BRANCH  45  46
ATOM     46  C   UNL     1       2.347   4.090 -12.155  1.00  0.00     0.031 A 
ATOM     47  C   UNL     1       2.012   5.463 -12.665  1.00  0.00     0.074 A 
ATOM     48  C   UNL     1       1.713   3.012 -12.656  1.00  0.00     0.049 A 
ATOM     49  N   UNL     1       1.133   5.817 -13.569  1.00  0.00    -0.248 NA
ATOM     50  C   UNL     1       2.744   6.591 -12.068  1.00  0.00     0.031 C 
ATOM     51  C   UNL     1       1.924   1.631 -12.219  1.00  0.00     0.029 A 
ATOM     52  N   UNL     1       0.758   2.906 -13.638  1.00  0.00    -0.354 N 
ATOM     53  C   UNL     1       1.201   7.202 -13.640  1.00  0.00     0.074 A 
ATOM     54  C   UNL     1       2.167   7.631 -12.653  1.00  0.00     0.031 C 
ATOM     55  C   UNL     1       1.145   0.816 -12.946  1.00  0.00     0.029 A 
ATOM     56  C   UNL     1       0.345   1.616 -13.869  1.00  0.00     0.049 A 
ATOM     57  H   UNL     1       0.403   3.682 -14.129  1.00  0.00     0.167 HD
ATOM     58  C   UNL     1       0.536   8.036 -14.474  1.00  0.00     0.037 A 
ATOM     59  C   UNL     1      -0.580   1.132 -14.721  1.00  0.00     0.037 A 
ATOM     60  C   UNL     1      -0.406   7.603 -15.472  1.00  0.00     0.049 A 
ATOM     61  C   UNL     1      -1.324   2.084 -15.618  1.00  0.00     0.074 A 
ATOM     62  C   UNL     1      -1.089   8.371 -16.399  1.00  0.00     0.029 A 
ATOM     63  N   UNL     1      -0.801   6.288 -15.672  1.00  0.00    -0.354 N 
ATOM     64  N   UNL     1      -1.210   3.386 -15.715  1.00  0.00    -0.248 NA
ATOM     65  C   UNL     1      -2.324   1.501 -16.524  1.00  0.00     0.031 C 
ATOM     66  C   UNL     1      -1.938   7.529 -17.122  1.00  0.00     0.029 A 
ATOM     67  C   UNL     1      -1.739   6.228 -16.690  1.00  0.00     0.049 A 
ATOM     68  H   UNL     1      -0.464   5.514 -15.166  1.00  0.00     0.167 HD
ATOM     69  C   UNL     1      -2.102   3.775 -16.706  1.00  0.00     0.074 A 
ATOM     70  C   UNL     1      -2.741   2.570 -17.190  1.00  0.00     0.031 C 
ATOM     71  C   UNL     1      -2.364   5.021 -17.169  1.00  0.00     0.037 A 
BRANCH  58  72
ATOM     72  C   UNL     1       0.808   9.509 -14.361  1.00  0.00     0.064 A 
ATOM     73  C   UNL     1      -0.193  10.387 -13.919  1.00  0.00     0.173 A 
ATOM     74  C   UNL     1       2.031  10.062 -14.769  1.00  0.00     0.173 A 
ATOM     75  F   UNL     1      -1.384   9.911 -13.523  1.00  0.00    -0.203 F 
ATOM     76  C   UNL     1       0.014  11.764 -13.906  1.00  0.00     0.198 A 
ATOM     77  C   UNL     1       2.247  11.436 -14.726  1.00  0.00     0.198 A 
ATOM     78  F   UNL     1       3.025   9.265 -15.191  1.00  0.00    -0.203 F 
ATOM     79  F   UNL     1      -0.971  12.585 -13.517  1.00  0.00    -0.200 F 
ATOM     80  C   UNL     1       1.235  12.287 -14.306  1.00  0.00     0.200 A 
ATOM     81  F   UNL     1       3.435  11.938 -15.089  1.00  0.00    -0.200 F 
ATOM     82  F   UNL     1       1.436  13.611 -14.287  1.00  0.00    -0.200 F 
ENDBRANCH  58  72
BRANCH  59  83
ATOM     83  C   UNL     1      -0.826  -0.333 -14.781  1.00  0.00     0.064 A 
ATOM     84  C   UNL     1      -1.423  -1.020 -13.714  1.00  0.00     0.173 A 
ATOM     85  C   UNL     1      -0.435  -1.081 -15.900  1.00  0.00     0.173 A 
ATOM     86  F   UNL     1      -1.812  -0.351 -12.618  1.00  0.00    -0.203 F 
ATOM     87  C   UNL     1      -1.598  -2.401 -13.755  1.00  0.00     0.198 A 
ATOM     88  C   UNL     1      -0.637  -2.459 -15.952  1.00  0.00     0.198 A 
ATOM     89  F   UNL     1       0.122  -0.467 -16.955  1.00  0.00    -0.203 F 
ATOM     90  F   UNL     1      -2.135  -3.038 -12.705  1.00  0.00    -0.200 F 
ATOM     91  C   UNL     1      -1.209  -3.119 -14.875  1.00  0.00     0.200 A 
ATOM     92  F   UNL     1      -0.282  -3.145 -17.046  1.00  0.00    -0.200 F 
ATOM     93  F   UNL     1      -1.387  -4.447 -14.918  1.00  0.00    -0.200 F 
ENDBRANCH  59  83
BRANCH  71  94
ATOM     94  C   UNL     1      -3.369   5.161 -18.276  1.00  0.00     0.064 A 
ATOM     95  C   UNL     1      -2.961   5.563 -19.558  1.00  0.00     0.173 A 
ATOM     96  C   UNL     1      -4.742   4.994 -18.047  1.00  0.00     0.173 A 
ATOM     97  F   UNL     1      -1.659   5.745 -19.827  1.00  0.00    -0.203 F 
ATOM     98  C   UNL     1      -3.892   5.814 -20.561  1.00  0.00     0.198 A 
ATOM     99  C   UNL     1      -5.668   5.216 -19.062  1.00  0.00     0.198 A 
ATOM    100  F   UNL     1      -5.182   4.599 -16.842  1.00  0.00    -0.203 F 
ATOM    101  F   UNL     1      -3.481   6.240 -21.764  1.00  0.00    -0.200 F 
ATOM    102  C   UNL     1      -5.244   5.638 -20.313  1.00  0.00     0.200 A 
ATOM    103  F   UNL     1      -6.974   5.022 -18.828  1.00  0.00    -0.200 F 
ATOM    104  F   UNL     1      -6.140   5.875 -21.281  1.00  0.00    -0.200 F 
ENDBRANCH  71  94
ENDBRANCH  45  46
ENDBRANCH  37  40
ENDBRANCH  35  36
ENDBRANCH  34  35
ENDBRANCH  33  34
ENDBRANCH  32  33
ENDBRANCH   1  32
TORSDOF 18
