REMARK SMILES CCn1ncc(Br)c1C(=O)N[C@H]1C(=O)N2C(C(=O)NCCCCCCNC(=O)c3ccc(-c4c5nc(c(-c6c(F)c(F)c(F)c(F)c6F)c6ccc([nH]6)c(-c6c(F)c(F)c(F)c(F)c6F)c6nc(c(-c7c(F)c(F)c(F)c(F)c7F)c7ccc4[nH]7)C=C6)C=C5)cc3)=C(C)CS[C@H]12
REMARK SMILES IDX 22 1 21 2 20 3 19 4 17 5 18 6 16 8 12 9 13 10 96 11 14 12
REMARK SMILES IDX 15 13 95 14 94 15 92 16 93 17 11 18 9 19 10 20 8 22 3 23
REMARK SMILES IDX 4 24 5 25 6 26 7 27 2 28 1 29 23 30 24 31 25 32 26 33 27 34
REMARK SMILES IDX 28 36 29 37 30 38 91 39 31 40 90 41 32 42 33 43 34 44 84 45
REMARK SMILES IDX 35 46 89 47 83 48 85 49 36 50 88 51 82 52 81 53 37 55 69 56
REMARK SMILES IDX 49 57 68 58 50 59 53 60 67 61 86 62 51 63 52 64 66 66 87 67
REMARK SMILES IDX 54 68 38 69 39 70 47 71 40 72 41 73 45 74 48 75 42 76 43 77
REMARK SMILES IDX 46 78 44 79 70 80 71 81 79 82 72 83 73 84 77 85 80 86 74 87
REMARK SMILES IDX 75 88 78 89 76 90 55 91 56 92 64 93 57 94 58 95 62 96 65 97
REMARK SMILES IDX 59 98 60 99 63 100 61 101
REMARK H PARENT 19 7 11 21 26 35 85 54 53 65
REMARK Flexibility Score: inf
ROOT
ATOM      1  C   UNL     1       0.753   5.203  -2.450  1.00  0.00     0.002 C 
ENDROOT
BRANCH   1   2
ATOM      2  C   UNL     1       0.651   3.702  -2.751  1.00  0.00     0.021 C 
BRANCH   2   3
ATOM      3  C   UNL     1       1.681   2.758  -2.139  1.00  0.00     0.116 C 
BRANCH   3   4
ATOM      4  N   UNL     1       1.723   2.670  -0.698  1.00  0.00    -0.351 N 
ATOM      5  C   UNL     1       2.269   1.681   0.078  1.00  0.00     0.268 C 
ATOM      6  O   UNL     1       2.558   1.929   1.249  1.00  0.00    -0.268 OA
ATOM      7  H   UNL     1       1.305   3.416  -0.210  1.00  0.00     0.163 HD
BRANCH   5   8
ATOM      8  C   UNL     1       2.512   0.282  -0.449  1.00  0.00     0.110 C 
ATOM      9  C   UNL     1       1.917  -2.371   1.567  1.00  0.00     0.206 C 
ATOM     10  C   UNL     1       1.102  -1.550   0.560  1.00  0.00     0.253 C 
ATOM     11  C   UNL     1       3.118  -1.722   0.809  1.00  0.00     0.181 C 
ATOM     12  O   UNL     1       0.007  -1.686   0.020  1.00  0.00    -0.272 OA
ATOM     13  N   UNL     1       2.145  -0.711   0.415  1.00  0.00    -0.290 N 
ATOM     14  S   UNL     1       3.624  -2.715  -0.659  1.00  0.00    -0.129 SA
ATOM     15  C   UNL     1       3.646  -1.405  -1.908  1.00  0.00     0.104 C 
ATOM     16  C   UNL     1       3.410   0.001  -1.415  1.00  0.00    -0.034 C 
ATOM     17  C   UNL     1       4.284   1.029  -2.074  1.00  0.00     0.043 C 
BRANCH   9  18
ATOM     18  N   UNL     1       1.770  -2.109   3.022  1.00  0.00    -0.336 N 
ATOM     19  C   UNL     1       1.087  -1.194   3.792  1.00  0.00     0.271 C 
ATOM     20  O   UNL     1       0.831  -1.609   4.928  1.00  0.00    -0.267 OA
ATOM     21  H   UNL     1       2.287  -2.744   3.568  1.00  0.00     0.164 HD
BRANCH  19  22
ATOM     22  C   UNL     1       0.871   0.196   3.462  1.00  0.00     0.140 A 
ATOM     23  N   UNL     1      -0.101   0.836   2.705  1.00  0.00    -0.259 N 
ATOM     24  N   UNL     1      -0.171   2.177   2.925  1.00  0.00    -0.180 NA
ATOM     25  C   UNL     1       0.768   2.410   3.836  1.00  0.00     0.151 A 
ATOM     26  C   UNL     1       1.439   1.240   4.182  1.00  0.00     0.069 A 
ATOM     27  Br  UNL     1       2.758   1.180   5.517  1.00  0.00    -0.047 Br
BRANCH  23  28
ATOM     28  C   UNL     1      -1.177   0.307   1.883  1.00  0.00     0.142 C 
ATOM     29  C   UNL     1      -1.178   0.855   0.452  1.00  0.00     0.029 C 
ENDBRANCH  23  28
ENDBRANCH  19  22
ENDBRANCH   9  18
ENDBRANCH   5   8
ENDBRANCH   3   4
ENDBRANCH   2   3
ENDBRANCH   1   2
BRANCH   1  30
ATOM     30  C   UNL     1       2.118   5.907  -2.513  1.00  0.00     0.002 C 
BRANCH  30  31
ATOM     31  C   UNL     1       2.995   5.742  -3.761  1.00  0.00     0.021 C 
BRANCH  31  32
ATOM     32  C   UNL     1       2.341   6.090  -5.089  1.00  0.00     0.116 C 
BRANCH  32  33
ATOM     33  N   UNL     1       2.057   7.509  -5.280  1.00  0.00    -0.352 N 
ATOM     34  C   UNL     1       1.550   8.116  -6.419  1.00  0.00     0.251 C 
ATOM     35  H   UNL     1       2.247   8.101  -4.517  1.00  0.00     0.163 HD
ATOM     36  O   UNL     1       1.690   9.318  -6.611  1.00  0.00    -0.269 OA
BRANCH  34  37
ATOM     37  C   UNL     1       0.845   7.284  -7.417  1.00  0.00     0.039 A 
ATOM     38  C   UNL     1       1.022   7.484  -8.787  1.00  0.00     0.014 A 
ATOM     39  C   UNL     1       0.017   6.261  -6.959  1.00  0.00     0.014 A 
ATOM     40  C   UNL     1       0.444   6.579  -9.678  1.00  0.00     0.010 A 
ATOM     41  C   UNL     1      -0.420   5.284  -7.824  1.00  0.00     0.010 A 
ATOM     42  C   UNL     1      -0.243   5.450  -9.190  1.00  0.00    -0.014 A 
BRANCH  42  43
ATOM     43  C   UNL     1      -0.649   4.378 -10.103  1.00  0.00     0.031 A 
ATOM     44  C   UNL     1       0.432   3.946 -11.028  1.00  0.00     0.074 A 
ATOM     45  C   UNL     1      -1.828   3.715 -10.054  1.00  0.00     0.049 A 
ATOM     46  N   UNL     1       0.491   4.174 -12.296  1.00  0.00    -0.248 NA
ATOM     47  C   UNL     1       1.651   3.328 -10.483  1.00  0.00     0.031 C 
ATOM     48  C   UNL     1      -2.884   3.819  -9.038  1.00  0.00     0.029 A 
ATOM     49  N   UNL     1      -2.312   2.738 -10.882  1.00  0.00    -0.354 N 
ATOM     50  C   UNL     1       1.648   3.552 -12.754  1.00  0.00     0.074 A 
ATOM     51  C   UNL     1       2.401   3.191 -11.582  1.00  0.00     0.031 C 
ATOM     52  C   UNL     1      -3.761   2.799  -9.178  1.00  0.00     0.029 A 
ATOM     53  C   UNL     1      -3.447   2.087 -10.403  1.00  0.00     0.049 A 
ATOM     54  H   UNL     1      -1.893   2.513 -11.744  1.00  0.00     0.167 HD
ATOM     55  C   UNL     1       1.737   3.165 -14.057  1.00  0.00     0.037 A 
ATOM     56  C   UNL     1      -4.116   1.062 -10.985  1.00  0.00     0.037 A 
ATOM     57  C   UNL     1       0.662   3.741 -14.825  1.00  0.00     0.049 A 
ATOM     58  C   UNL     1      -3.820   1.109 -12.430  1.00  0.00     0.074 A 
ATOM     59  C   UNL     1       0.377   4.959 -15.401  1.00  0.00     0.029 A 
ATOM     60  N   UNL     1      -0.516   3.054 -14.713  1.00  0.00    -0.354 N 
ATOM     61  N   UNL     1      -4.248   2.057 -13.213  1.00  0.00    -0.248 NA
ATOM     62  C   UNL     1      -2.759   0.271 -12.975  1.00  0.00     0.031 C 
ATOM     63  C   UNL     1      -1.046   5.034 -15.491  1.00  0.00     0.029 A 
ATOM     64  C   UNL     1      -1.590   3.845 -15.012  1.00  0.00     0.049 A 
ATOM     65  H   UNL     1      -0.582   2.108 -14.450  1.00  0.00     0.167 HD
ATOM     66  C   UNL     1      -3.229   2.216 -14.126  1.00  0.00     0.074 A 
ATOM     67  C   UNL     1      -2.449   0.988 -14.058  1.00  0.00     0.031 C 
ATOM     68  C   UNL     1      -2.916   3.455 -14.598  1.00  0.00     0.037 A 
BRANCH  55  69
ATOM     69  C   UNL     1       2.438   1.923 -14.563  1.00  0.00     0.064 A 
ATOM     70  C   UNL     1       2.511   1.701 -15.956  1.00  0.00     0.173 A 
ATOM     71  C   UNL     1       2.724   0.802 -13.756  1.00  0.00     0.173 A 
ATOM     72  F   UNL     1       2.245   2.692 -16.821  1.00  0.00    -0.203 F 
ATOM     73  C   UNL     1       2.772   0.437 -16.494  1.00  0.00     0.198 A 
ATOM     74  C   UNL     1       3.030  -0.447 -14.297  1.00  0.00     0.198 A 
ATOM     75  F   UNL     1       2.606   0.837 -12.424  1.00  0.00    -0.203 F 
ATOM     76  F   UNL     1       2.711   0.250 -17.819  1.00  0.00    -0.200 F 
ATOM     77  C   UNL     1       3.023  -0.638 -15.663  1.00  0.00     0.200 A 
ATOM     78  F   UNL     1       3.247  -1.484 -13.475  1.00  0.00    -0.200 F 
ATOM     79  F   UNL     1       3.212  -1.863 -16.171  1.00  0.00    -0.200 F 
ENDBRANCH  55  69
BRANCH  56  80
ATOM     80  C   UNL     1      -4.892  -0.053 -10.397  1.00  0.00     0.064 A 
ATOM     81  C   UNL     1      -5.833  -0.768 -11.159  1.00  0.00     0.173 A 
ATOM     82  C   UNL     1      -4.479  -0.644  -9.190  1.00  0.00     0.173 A 
ATOM     83  F   UNL     1      -6.257  -0.286 -12.336  1.00  0.00    -0.203 F 
ATOM     84  C   UNL     1      -6.289  -2.029 -10.764  1.00  0.00     0.198 A 
ATOM     85  C   UNL     1      -4.935  -1.905  -8.798  1.00  0.00     0.198 A 
ATOM     86  F   UNL     1      -3.543  -0.056  -8.430  1.00  0.00    -0.203 F 
ATOM     87  F   UNL     1      -7.125  -2.716 -11.557  1.00  0.00    -0.200 F 
ATOM     88  C   UNL     1      -5.824  -2.605  -9.595  1.00  0.00     0.200 A 
ATOM     89  F   UNL     1      -4.449  -2.470  -7.684  1.00  0.00    -0.200 F 
ATOM     90  F   UNL     1      -6.194  -3.849  -9.259  1.00  0.00    -0.200 F 
ENDBRANCH  56  80
BRANCH  68  91
ATOM     91  C   UNL     1      -3.988   4.495 -14.537  1.00  0.00     0.064 A 
ATOM     92  C   UNL     1      -4.501   5.048 -13.353  1.00  0.00     0.173 A 
ATOM     93  C   UNL     1      -4.487   4.982 -15.751  1.00  0.00     0.173 A 
ATOM     94  F   UNL     1      -4.025   4.682 -12.156  1.00  0.00    -0.203 F 
ATOM     95  C   UNL     1      -5.503   6.017 -13.389  1.00  0.00     0.198 A 
ATOM     96  C   UNL     1      -5.460   5.973 -15.786  1.00  0.00     0.198 A 
ATOM     97  F   UNL     1      -4.005   4.510 -16.912  1.00  0.00    -0.203 F 
ATOM     98  F   UNL     1      -5.999   6.515 -12.246  1.00  0.00    -0.200 F 
ATOM     99  C   UNL     1      -5.977   6.481 -14.605  1.00  0.00     0.200 A 
ATOM    100  F   UNL     1      -5.887   6.444 -16.965  1.00  0.00    -0.200 F 
ATOM    101  F   UNL     1      -6.922   7.432 -14.642  1.00  0.00    -0.200 F 
ENDBRANCH  68  91
ENDBRANCH  42  43
ENDBRANCH  34  37
ENDBRANCH  32  33
ENDBRANCH  31  32
ENDBRANCH  30  31
ENDBRANCH   1  30
TORSDOF 16
