REMARK SMILES C[C@H](O)C[C@H](Cc1cccc(Br)c1)C(=O)NCCCCCCNC(=O)c1ccc(-c2c3nc(c(-c4c(F)c(F)c(F)c(F)c4F)c4ccc([nH]4)c(-c4c(F)c(F)c(F)c(F)c4F)c4nc(c(-c5c(F)c(F)c(F)c(F)c5F)c5ccc2[nH]5)C=C4)C=C3)cc1
REMARK SMILES IDX 19 1 18 2 17 3 16 4 14 5 15 6 5 8 4 9 2 10 1 11 3 12 6 14
REMARK SMILES IDX 7 15 8 16 13 17 9 18 11 19 10 20 12 21 20 22 21 23 22 24
REMARK SMILES IDX 23 25 24 26 25 28 26 29 27 30 88 31 28 32 87 33 29 34 30 35
REMARK SMILES IDX 31 36 81 37 32 38 86 39 80 40 82 41 33 42 85 43 79 44 78 45
REMARK SMILES IDX 34 47 66 48 46 49 65 50 47 51 50 52 64 53 83 54 48 55 49 56
REMARK SMILES IDX 63 58 84 59 51 60 35 61 36 62 44 63 37 64 38 65 42 66 45 67
REMARK SMILES IDX 39 68 40 69 43 70 41 71 67 72 68 73 76 74 69 75 70 76 74 77
REMARK SMILES IDX 77 78 71 79 72 80 75 81 73 82 52 83 53 84 61 85 54 86 55 87
REMARK SMILES IDX 59 88 62 89 56 90 57 91 60 92 58 93
REMARK H PARENT 16 7 3 13 23 27 82 46 50 57
REMARK Flexibility Score: inf
ROOT
ATOM      1  C   UNL     1      -5.325   3.479   2.490  1.00  0.00     0.002 C 
ENDROOT
BRANCH   1   2
ATOM      2  C   UNL     1      -3.822   3.277   2.274  1.00  0.00     0.021 C 
BRANCH   2   3
ATOM      3  C   UNL     1      -3.336   1.909   2.735  1.00  0.00     0.116 C 
BRANCH   3   4
ATOM      4  N   UNL     1      -3.777   0.877   1.817  1.00  0.00    -0.356 N 
ATOM      5  C   UNL     1      -3.084  -0.129   1.219  1.00  0.00     0.223 C 
ATOM      6  O   UNL     1      -3.703  -0.880   0.463  1.00  0.00    -0.275 OA
ATOM      7  H   UNL     1      -4.735   0.909   1.590  1.00  0.00     0.163 HD
BRANCH   5   8
ATOM      8  C   UNL     1      -1.603  -0.343   1.505  1.00  0.00     0.085 C 
BRANCH   8   9
ATOM      9  C   UNL     1      -1.424  -0.640   3.013  1.00  0.00     0.045 C 
BRANCH   9  10
ATOM     10  C   UNL     1      -1.154  -2.116   3.323  1.00  0.00     0.112 C 
ATOM     11  C   UNL     1      -0.738  -2.289   4.778  1.00  0.00     0.038 C 
BRANCH  10  12
ATOM     12  O   UNL     1      -0.105  -2.607   2.501  1.00  0.00    -0.393 OA
ATOM     13  H   UNL     1       0.706  -2.107   2.679  1.00  0.00     0.210 HD
ENDBRANCH  10  12
ENDBRANCH   9  10
ENDBRANCH   8   9
BRANCH   8  14
ATOM     14  C   UNL     1      -0.754   0.817   0.928  1.00  0.00     0.049 C 
BRANCH  14  15
ATOM     15  C   UNL     1       0.718   0.499   0.768  1.00  0.00    -0.046 A 
ATOM     16  C   UNL     1       1.270   0.314  -0.506  1.00  0.00     0.004 A 
ATOM     17  C   UNL     1       1.558   0.378   1.884  1.00  0.00     0.019 A 
ATOM     18  C   UNL     1       2.616  -0.036  -0.652  1.00  0.00     0.001 A 
ATOM     19  C   UNL     1       2.886  -0.015   1.736  1.00  0.00     0.018 A 
ATOM     20  C   UNL     1       3.420  -0.225   0.471  1.00  0.00     0.016 A 
ATOM     21  Br  UNL     1       3.949  -0.289   3.276  1.00  0.00    -0.051 Br
ENDBRANCH  14  15
ENDBRANCH   8  14
ENDBRANCH   5   8
ENDBRANCH   3   4
ENDBRANCH   2   3
ENDBRANCH   1   2
BRANCH   1  22
ATOM     22  C   UNL     1      -5.783   3.321   3.945  1.00  0.00     0.002 C 
BRANCH  22  23
ATOM     23  C   UNL     1      -5.030   4.196   4.949  1.00  0.00     0.021 C 
BRANCH  23  24
ATOM     24  C   UNL     1      -5.077   5.685   4.631  1.00  0.00     0.116 C 
BRANCH  24  25
ATOM     25  N   UNL     1      -6.439   6.191   4.623  1.00  0.00    -0.352 N 
ATOM     26  C   UNL     1      -6.952   7.293   5.256  1.00  0.00     0.251 C 
ATOM     27  H   UNL     1      -7.082   5.670   4.090  1.00  0.00     0.163 HD
ATOM     28  O   UNL     1      -8.163   7.465   5.320  1.00  0.00    -0.269 OA
BRANCH  26  29
ATOM     29  C   UNL     1      -6.031   8.269   5.872  1.00  0.00     0.039 A 
ATOM     30  C   UNL     1      -6.333   8.775   7.137  1.00  0.00     0.014 A 
ATOM     31  C   UNL     1      -4.883   8.693   5.196  1.00  0.00     0.014 A 
ATOM     32  C   UNL     1      -5.463   9.683   7.740  1.00  0.00     0.010 A 
ATOM     33  C   UNL     1      -3.977   9.534   5.831  1.00  0.00     0.010 A 
ATOM     34  C   UNL     1      -4.269  10.054   7.101  1.00  0.00    -0.014 A 
BRANCH  34  35
ATOM     35  C   UNL     1      -3.336  11.026   7.723  1.00  0.00     0.031 A 
ATOM     36  C   UNL     1      -3.082  12.349   7.054  1.00  0.00     0.074 A 
ATOM     37  C   UNL     1      -2.692  10.704   8.862  1.00  0.00     0.049 A 
ATOM     38  N   UNL     1      -2.252  13.304   7.392  1.00  0.00    -0.248 NA
ATOM     39  C   UNL     1      -3.843  12.627   5.824  1.00  0.00     0.031 C 
ATOM     40  C   UNL     1      -2.826   9.437   9.582  1.00  0.00     0.029 A 
ATOM     41  N   UNL     1      -1.786  11.415   9.608  1.00  0.00    -0.354 N 
ATOM     42  C   UNL     1      -2.392  14.286   6.420  1.00  0.00     0.074 A 
ATOM     43  C   UNL     1      -3.330  13.786   5.441  1.00  0.00     0.031 C 
ATOM     44  C   UNL     1      -2.046   9.467  10.675  1.00  0.00     0.029 A 
ATOM     45  C   UNL     1      -1.327  10.737  10.711  1.00  0.00     0.049 A 
ATOM     46  H   UNL     1      -1.494  12.326   9.375  1.00  0.00     0.167 HD
ATOM     47  C   UNL     1      -1.816  15.511   6.368  1.00  0.00     0.037 A 
ATOM     48  C   UNL     1      -0.420  11.098  11.638  1.00  0.00     0.037 A 
ATOM     49  C   UNL     1      -0.896  16.013   7.354  1.00  0.00     0.049 A 
ATOM     50  C   UNL     1       0.221  12.459  11.542  1.00  0.00     0.074 A 
ATOM     51  C   UNL     1      -0.268  17.244   7.400  1.00  0.00     0.029 A 
ATOM     52  N   UNL     1      -0.480  15.307   8.473  1.00  0.00    -0.354 N 
ATOM     53  N   UNL     1       0.044  13.397  10.643  1.00  0.00    -0.248 NA
ATOM     54  C   UNL     1       1.177  12.816  12.599  1.00  0.00     0.031 C 
ATOM     55  C   UNL     1       0.560  17.270   8.527  1.00  0.00     0.029 A 
ATOM     56  C   UNL     1       0.401  16.078   9.214  1.00  0.00     0.049 A 
ATOM     57  H   UNL     1      -0.767  14.395   8.706  1.00  0.00     0.167 HD
ATOM     58  C   UNL     1       0.830  14.468  11.050  1.00  0.00     0.074 A 
ATOM     59  C   UNL     1       1.473  14.068  12.283  1.00  0.00     0.031 C 
ATOM     60  C   UNL     1       1.006  15.674  10.457  1.00  0.00     0.037 A 
BRANCH  47  61
ATOM     61  C   UNL     1      -2.182  16.404   5.218  1.00  0.00     0.064 A 
ATOM     62  C   UNL     1      -3.463  16.967   5.110  1.00  0.00     0.173 A 
ATOM     63  C   UNL     1      -1.231  16.747   4.245  1.00  0.00     0.173 A 
ATOM     64  F   UNL     1      -4.413  16.661   6.006  1.00  0.00    -0.203 F 
ATOM     65  C   UNL     1      -3.784  17.824   4.060  1.00  0.00     0.198 A 
ATOM     66  C   UNL     1      -1.546  17.629   3.215  1.00  0.00     0.198 A 
ATOM     67  F   UNL     1       0.009  16.240   4.303  1.00  0.00    -0.203 F 
ATOM     68  F   UNL     1      -5.027  18.315   3.954  1.00  0.00    -0.200 F 
ATOM     69  C   UNL     1      -2.823  18.162   3.120  1.00  0.00     0.200 A 
ATOM     70  F   UNL     1      -0.612  17.967   2.315  1.00  0.00    -0.200 F 
ATOM     71  F   UNL     1      -3.129  19.000   2.119  1.00  0.00    -0.200 F 
ENDBRANCH  47  61
BRANCH  48  72
ATOM     72  C   UNL     1      -0.062  10.169  12.745  1.00  0.00     0.064 A 
ATOM     73  C   UNL     1      -0.368  10.478  14.078  1.00  0.00     0.173 A 
ATOM     74  C   UNL     1       0.637   8.978  12.498  1.00  0.00     0.173 A 
ATOM     75  F   UNL     1      -1.020  11.613  14.369  1.00  0.00    -0.203 F 
ATOM     76  C   UNL     1       0.051   9.657  15.123  1.00  0.00     0.198 A 
ATOM     77  C   UNL     1       1.023   8.139  13.541  1.00  0.00     0.198 A 
ATOM     78  F   UNL     1       0.948   8.629  11.241  1.00  0.00    -0.203 F 
ATOM     79  F   UNL     1      -0.192  10.015  16.391  1.00  0.00    -0.200 F 
ATOM     80  C   UNL     1       0.744   8.487  14.854  1.00  0.00     0.200 A 
ATOM     81  F   UNL     1       1.677   7.000  13.275  1.00  0.00    -0.200 F 
ATOM     82  F   UNL     1       1.154   7.702  15.859  1.00  0.00    -0.200 F 
ENDBRANCH  48  72
BRANCH  60  83
ATOM     83  C   UNL     1       1.870  16.675  11.169  1.00  0.00     0.064 A 
ATOM     84  C   UNL     1       3.259  16.515  11.277  1.00  0.00     0.173 A 
ATOM     85  C   UNL     1       1.297  17.831  11.722  1.00  0.00     0.173 A 
ATOM     86  F   UNL     1       3.854  15.421  10.777  1.00  0.00    -0.203 F 
ATOM     87  C   UNL     1       4.037  17.457  11.944  1.00  0.00     0.198 A 
ATOM     88  C   UNL     1       2.083  18.788  12.355  1.00  0.00     0.198 A 
ATOM     89  F   UNL     1      -0.026  18.038  11.636  1.00  0.00    -0.203 F 
ATOM     90  F   UNL     1       5.354  17.254  12.087  1.00  0.00    -0.200 F 
ATOM     91  C   UNL     1       3.450  18.596  12.476  1.00  0.00     0.200 A 
ATOM     92  F   UNL     1       1.516  19.896  12.852  1.00  0.00    -0.200 F 
ATOM     93  F   UNL     1       4.202  19.505  13.111  1.00  0.00    -0.200 F 
ENDBRANCH  60  83
ENDBRANCH  34  35
ENDBRANCH  26  29
ENDBRANCH  24  25
ENDBRANCH  23  24
ENDBRANCH  22  23
ENDBRANCH   1  22
TORSDOF 18
