REMARK SMILES COc1ccc(/C=C/c2cc(OC)cc(OC)c2/C=C/C(=O)NCCCCCCNC(=O)c2ccc(-c3c4nc(c(-c5c(F)c(F)c(F)c(F)c5F)c5ccc([nH]5)c(-c5c(F)c(F)c(F)c(F)c5F)c5nc(c(-c6c(F)c(F)c(F)c(F)c6F)c6ccc3[nH]6)C=C5)C=C4)cc2)cc1
REMARK SMILES IDX 25 1 24 2 23 3 21 4 22 5 20 7 19 8 18 9 9 10 10 11 11 12
REMARK SMILES IDX 15 13 14 14 8 15 7 16 6 17 3 18 4 19 97 20 5 21 96 22 2 23
REMARK SMILES IDX 1 24 12 25 13 26 16 27 17 28 26 29 27 30 28 31 29 32 30 33
REMARK SMILES IDX 31 34 32 36 33 37 34 38 95 39 35 40 94 41 36 42 37 43 38 44
REMARK SMILES IDX 88 45 39 46 93 47 87 48 89 49 40 50 92 51 86 52 85 53 41 55
REMARK SMILES IDX 73 56 53 57 72 58 54 59 57 60 71 61 90 62 55 63 56 64 70 66
REMARK SMILES IDX 91 67 58 68 42 69 43 70 51 71 44 72 45 73 49 74 52 75 46 76
REMARK SMILES IDX 47 77 50 78 48 79 74 80 75 81 83 82 76 83 77 84 81 85 84 86
REMARK SMILES IDX 78 87 79 88 82 89 80 90 59 91 60 92 68 93 61 94 62 95 66 96
REMARK SMILES IDX 69 97 63 98 64 99 67 100 65 101
REMARK H PARENT 23 6 30 35 89 54 57 65
REMARK Flexibility Score: inf
ROOT
ATOM      1  C   UNL     1       4.107   5.188  -0.747  1.00  0.00     0.021 C 
ENDROOT
BRANCH   1   2
ATOM      2  C   UNL     1       4.756   5.417   0.615  1.00  0.00     0.116 C 
BRANCH   2   3
ATOM      3  N   UNL     1       5.912   6.280   0.508  1.00  0.00    -0.353 N 
ATOM      4  C   UNL     1       6.169   7.447   1.153  1.00  0.00     0.244 C 
ATOM      5  O   UNL     1       7.228   8.039   0.974  1.00  0.00    -0.270 OA
ATOM      6  H   UNL     1       6.609   5.979  -0.119  1.00  0.00     0.163 HD
BRANCH   4   7
ATOM      7  C   UNL     1       5.189   7.979   2.122  1.00  0.00     0.072 C 
ATOM      8  C   UNL     1       4.027   8.511   1.713  1.00  0.00     0.018 C 
BRANCH   8   9
ATOM      9  C   UNL     1       3.129   9.249   2.622  1.00  0.00     0.024 A 
ATOM     10  C   UNL     1       1.868   8.672   2.945  1.00  0.00    -0.011 A 
ATOM     11  C   UNL     1       0.974   9.335   3.802  1.00  0.00     0.055 A 
ATOM     12  C   UNL     1       1.279  10.585   4.320  1.00  0.00     0.123 A 
ATOM     13  C   UNL     1       3.436  10.517   3.166  1.00  0.00     0.130 A 
ATOM     14  C   UNL     1       2.509  11.155   4.015  1.00  0.00     0.093 A 
BRANCH  10  15
ATOM     15  C   UNL     1       1.365   7.396   2.406  1.00  0.00     0.009 C 
ATOM     16  C   UNL     1       1.851   6.213   2.807  1.00  0.00     0.009 C 
BRANCH  16  17
ATOM     17  C   UNL     1       1.401   4.890   2.346  1.00  0.00    -0.025 A 
ATOM     18  C   UNL     1       0.711   2.286   1.517  1.00  0.00     0.118 A 
ATOM     19  C   UNL     1      -0.037   3.381   1.090  1.00  0.00     0.047 A 
ATOM     20  C   UNL     1       1.783   2.487   2.382  1.00  0.00     0.047 A 
ATOM     21  C   UNL     1       0.304   4.676   1.501  1.00  0.00     0.012 A 
ATOM     22  C   UNL     1       2.127   3.777   2.785  1.00  0.00     0.012 A 
BRANCH  18  23
ATOM     23  O   UNL     1       0.325   1.072   1.022  1.00  0.00    -0.497 OA
ATOM     24  C   UNL     1       1.211  -0.006   1.295  1.00  0.00     0.278 C 
ENDBRANCH  18  23
ENDBRANCH  16  17
ENDBRANCH  10  15
BRANCH  12  25
ATOM     25  O   UNL     1       0.314  11.148   5.106  1.00  0.00    -0.497 OA
ATOM     26  C   UNL     1       0.362  12.567   5.218  1.00  0.00     0.278 C 
ENDBRANCH  12  25
BRANCH  13  27
ATOM     27  O   UNL     1       4.535  11.318   3.009  1.00  0.00    -0.496 OA
ATOM     28  C   UNL     1       5.552  11.053   2.062  1.00  0.00     0.278 C 
ENDBRANCH  13  27
ENDBRANCH   8   9
ENDBRANCH   4   7
ENDBRANCH   2   3
ENDBRANCH   1   2
BRANCH   1  29
ATOM     29  C   UNL     1       4.910   4.269  -1.679  1.00  0.00     0.002 C 
BRANCH  29  30
ATOM     30  C   UNL     1       5.204   2.865  -1.133  1.00  0.00     0.002 C 
BRANCH  30  31
ATOM     31  C   UNL     1       3.986   2.108  -0.603  1.00  0.00     0.021 C 
BRANCH  31  32
ATOM     32  C   UNL     1       2.925   1.786  -1.652  1.00  0.00     0.116 C 
BRANCH  32  33
ATOM     33  N   UNL     1       3.333   0.689  -2.514  1.00  0.00    -0.352 N 
ATOM     34  C   UNL     1       2.737  -0.523  -2.768  1.00  0.00     0.251 C 
ATOM     35  H   UNL     1       4.178   0.839  -2.997  1.00  0.00     0.163 HD
ATOM     36  O   UNL     1       3.368  -1.382  -3.380  1.00  0.00    -0.269 OA
BRANCH  34  37
ATOM     37  C   UNL     1       1.363  -0.834  -2.296  1.00  0.00     0.039 A 
ATOM     38  C   UNL     1       1.081  -2.139  -1.866  1.00  0.00     0.014 A 
ATOM     39  C   UNL     1       0.341   0.117  -2.296  1.00  0.00     0.014 A 
ATOM     40  C   UNL     1      -0.191  -2.467  -1.374  1.00  0.00     0.010 A 
ATOM     41  C   UNL     1      -0.902  -0.191  -1.736  1.00  0.00     0.010 A 
ATOM     42  C   UNL     1      -1.187  -1.486  -1.267  1.00  0.00    -0.014 A 
BRANCH  42  43
ATOM     43  C   UNL     1      -2.534  -1.791  -0.704  1.00  0.00     0.031 A 
ATOM     44  C   UNL     1      -3.752  -1.676  -1.583  1.00  0.00     0.074 A 
ATOM     45  C   UNL     1      -2.693  -2.104   0.599  1.00  0.00     0.049 A 
ATOM     46  N   UNL     1      -5.013  -1.859  -1.281  1.00  0.00    -0.248 NA
ATOM     47  C   UNL     1      -3.521  -1.298  -2.986  1.00  0.00     0.031 C 
ATOM     48  C   UNL     1      -1.618  -2.250   1.576  1.00  0.00     0.029 A 
ATOM     49  N   UNL     1      -3.832  -2.333   1.338  1.00  0.00    -0.354 N 
ATOM     50  C   UNL     1      -5.719  -1.633  -2.455  1.00  0.00     0.074 A 
ATOM     51  C   UNL     1      -4.758  -1.218  -3.453  1.00  0.00     0.031 C 
ATOM     52  C   UNL     1      -2.140  -2.494   2.788  1.00  0.00     0.029 A 
ATOM     53  C   UNL     1      -3.592  -2.543   2.676  1.00  0.00     0.049 A 
ATOM     54  H   UNL     1      -4.734  -2.345   0.945  1.00  0.00     0.167 HD
ATOM     55  C   UNL     1      -7.041  -1.799  -2.695  1.00  0.00     0.037 A 
ATOM     56  C   UNL     1      -4.439  -2.764   3.700  1.00  0.00     0.037 A 
ATOM     57  C   UNL     1      -8.001  -2.217  -1.708  1.00  0.00     0.049 A 
ATOM     58  C   UNL     1      -5.913  -2.886   3.421  1.00  0.00     0.074 A 
ATOM     59  C   UNL     1      -9.352  -2.468  -1.873  1.00  0.00     0.029 A 
ATOM     60  N   UNL     1      -7.715  -2.434  -0.369  1.00  0.00    -0.354 N 
ATOM     61  N   UNL     1      -6.551  -2.780   2.282  1.00  0.00    -0.248 NA
ATOM     62  C   UNL     1      -6.781  -3.196   4.567  1.00  0.00     0.031 C 
ATOM     63  C   UNL     1      -9.896  -2.779  -0.622  1.00  0.00     0.029 A 
ATOM     64  C   UNL     1      -8.872  -2.784   0.311  1.00  0.00     0.049 A 
ATOM     65  H   UNL     1      -6.823  -2.351   0.039  1.00  0.00     0.167 HD
ATOM     66  C   UNL     1      -7.882  -3.059   2.563  1.00  0.00     0.074 A 
ATOM     67  C   UNL     1      -7.959  -3.346   3.980  1.00  0.00     0.031 C 
ATOM     68  C   UNL     1      -8.941  -3.084   1.718  1.00  0.00     0.037 A 
BRANCH  55  69
ATOM     69  C   UNL     1      -7.524  -1.541  -4.092  1.00  0.00     0.064 A 
ATOM     70  C   UNL     1      -7.171  -2.385  -5.157  1.00  0.00     0.173 A 
ATOM     71  C   UNL     1      -8.373  -0.459  -4.367  1.00  0.00     0.173 A 
ATOM     72  F   UNL     1      -6.353  -3.428  -4.950  1.00  0.00    -0.203 F 
ATOM     73  C   UNL     1      -7.622  -2.136  -6.450  1.00  0.00     0.198 A 
ATOM     74  C   UNL     1      -8.850  -0.232  -5.656  1.00  0.00     0.198 A 
ATOM     75  F   UNL     1      -8.747   0.375  -3.385  1.00  0.00    -0.203 F 
ATOM     76  F   UNL     1      -7.226  -2.923  -7.460  1.00  0.00    -0.200 F 
ATOM     77  C   UNL     1      -8.467  -1.064  -6.697  1.00  0.00     0.200 A 
ATOM     78  F   UNL     1      -9.678   0.795  -5.891  1.00  0.00    -0.200 F 
ATOM     79  F   UNL     1      -8.906  -0.829  -7.941  1.00  0.00    -0.200 F 
ENDBRANCH  55  69
BRANCH  56  80
ATOM     80  C   UNL     1      -3.917  -2.945   5.081  1.00  0.00     0.064 A 
ATOM     81  C   UNL     1      -3.972  -4.194   5.715  1.00  0.00     0.173 A 
ATOM     82  C   UNL     1      -3.385  -1.869   5.807  1.00  0.00     0.173 A 
ATOM     83  F   UNL     1      -4.488  -5.250   5.069  1.00  0.00    -0.203 F 
ATOM     84  C   UNL     1      -3.550  -4.353   7.034  1.00  0.00     0.198 A 
ATOM     85  C   UNL     1      -2.937  -2.036   7.117  1.00  0.00     0.198 A 
ATOM     86  F   UNL     1      -3.303  -0.654   5.246  1.00  0.00    -0.203 F 
ATOM     87  F   UNL     1      -3.671  -5.545   7.634  1.00  0.00    -0.200 F 
ATOM     88  C   UNL     1      -3.031  -3.275   7.733  1.00  0.00     0.200 A 
ATOM     89  F   UNL     1      -2.423  -0.995   7.786  1.00  0.00    -0.200 F 
ATOM     90  F   UNL     1      -2.631  -3.427   9.003  1.00  0.00    -0.200 F 
ENDBRANCH  56  80
BRANCH  68  91
ATOM     91  C   UNL     1     -10.273  -3.482   2.286  1.00  0.00     0.064 A 
ATOM     92  C   UNL     1     -10.978  -2.655   3.173  1.00  0.00     0.173 A 
ATOM     93  C   UNL     1     -10.872  -4.693   1.903  1.00  0.00     0.173 A 
ATOM     94  F   UNL     1     -10.445  -1.494   3.583  1.00  0.00    -0.203 F 
ATOM     95  C   UNL     1     -12.220  -3.037   3.675  1.00  0.00     0.198 A 
ATOM     96  C   UNL     1     -12.128  -5.055   2.379  1.00  0.00     0.198 A 
ATOM     97  F   UNL     1     -10.243  -5.519   1.053  1.00  0.00    -0.203 F 
ATOM     98  F   UNL     1     -12.851  -2.255   4.561  1.00  0.00    -0.200 F 
ATOM     99  C   UNL     1     -12.798  -4.231   3.271  1.00  0.00     0.200 A 
ATOM    100  F   UNL     1     -12.692  -6.201   1.974  1.00  0.00    -0.200 F 
ATOM    101  F   UNL     1     -13.998  -4.591   3.746  1.00  0.00    -0.200 F 
ENDBRANCH  68  91
ENDBRANCH  42  43
ENDBRANCH  34  37
ENDBRANCH  32  33
ENDBRANCH  31  32
ENDBRANCH  30  31
ENDBRANCH  29  30
ENDBRANCH   1  29
TORSDOF 19
