REMARK SMILES CC(C)(O)CC[C@@H](C(=O)NCCCCCCNC(=O)c1ccc(-c2c3nc(c(-c4c(F)c(F)c(F)c(F)c4F)c4ccc([nH]4)c(-c4c(F)c(F)c(F)c(F)c4F)c4nc(c(-c5c(F)c(F)c(F)c(F)c5F)c5ccc2[nH]5)C=C4)C=C3)cc1)[C@@H]1CCS(=O)(=O)C1
REMARK SMILES IDX 12 1 11 2 10 3 8 4 9 5 7 7 6 8 5 9 2 10 1 11 3 12 4 13 83 15
REMARK SMILES IDX 84 16 89 17 85 18 86 19 87 20 88 21 13 22 14 23 15 24 16 25
REMARK SMILES IDX 17 26 18 27 19 29 20 30 21 31 82 32 22 33 81 34 23 35 24 36
REMARK SMILES IDX 25 37 75 38 26 39 80 40 74 41 76 42 27 43 79 44 73 45 72 46
REMARK SMILES IDX 28 48 60 49 40 50 59 51 41 52 44 53 58 54 77 55 42 56 43 57
REMARK SMILES IDX 57 59 78 60 45 61 29 62 30 63 38 64 31 65 32 66 36 67 39 68
REMARK SMILES IDX 33 69 34 70 37 71 35 72 61 73 62 74 70 75 63 76 64 77 68 78
REMARK SMILES IDX 71 79 65 80 66 81 69 82 67 83 46 84 47 85 55 86 48 87 49 88
REMARK SMILES IDX 53 89 56 90 50 91 51 92 54 93 52 94
REMARK H PARENT 10 6 4 14 17 28 76 47 44 58
REMARK Flexibility Score: inf
ROOT
ATOM      1  C   UNL     1       3.909   2.560   0.660  1.00  0.00     0.021 C 
ENDROOT
BRANCH   1   2
ATOM      2  C   UNL     1       3.498   1.087   0.730  1.00  0.00     0.116 C 
BRANCH   2   3
ATOM      3  N   UNL     1       3.601   0.566   2.070  1.00  0.00    -0.356 N 
ATOM      4  C   UNL     1       2.672   0.110   2.949  1.00  0.00     0.223 C 
ATOM      5  O   UNL     1       3.134  -0.307   4.015  1.00  0.00    -0.275 OA
ATOM      6  H   UNL     1       4.523   0.533   2.414  1.00  0.00     0.163 HD
BRANCH   4   7
ATOM      7  C   UNL     1       1.144   0.051   2.626  1.00  0.00     0.082 C 
BRANCH   7   8
ATOM      8  C   UNL     1       0.514   1.451   2.448  1.00  0.00     0.017 C 
BRANCH   8   9
ATOM      9  C   UNL     1       0.396   2.153   1.080  1.00  0.00     0.035 C 
BRANCH   9  10
ATOM     10  C   UNL     1      -0.185   1.501  -0.206  1.00  0.00     0.059 C 
ATOM     11  C   UNL     1       0.122   0.037  -0.523  1.00  0.00     0.042 C 
ATOM     12  C   UNL     1       0.275   2.351  -1.404  1.00  0.00     0.042 C 
BRANCH  10  13
ATOM     13  O   UNL     1      -1.607   1.605  -0.121  1.00  0.00    -0.390 OA
ATOM     14  H   UNL     1      -2.009   1.208  -0.909  1.00  0.00     0.211 HD
ENDBRANCH  10  13
ENDBRANCH   9  10
ENDBRANCH   8   9
ENDBRANCH   7   8
BRANCH   7  15
ATOM     15  C   UNL     1       0.432  -0.819   3.764  1.00  0.00     0.017 C 
ATOM     16  C   UNL     1      -0.201  -2.115   3.212  1.00  0.00     0.021 C 
ATOM     17  C   UNL     1      -0.678  -0.186   4.630  1.00  0.00     0.141 C 
ATOM     18  C   UNL     1      -1.602  -1.788   2.714  1.00  0.00     0.137 C 
ATOM     19  S   UNL     1      -2.241  -0.567   3.840  1.00  0.00     0.150 S 
ATOM     20  O   UNL     1      -2.698   0.572   3.079  1.00  0.00    -0.229 OA
ATOM     21  O   UNL     1      -3.099  -1.231   4.803  1.00  0.00    -0.229 OA
ENDBRANCH   7  15
ENDBRANCH   4   7
ENDBRANCH   2   3
ENDBRANCH   1   2
BRANCH   1  22
ATOM     22  C   UNL     1       5.328   2.776   0.138  1.00  0.00     0.002 C 
BRANCH  22  23
ATOM     23  C   UNL     1       5.543   2.334  -1.316  1.00  0.00     0.002 C 
BRANCH  23  24
ATOM     24  C   UNL     1       4.610   2.973  -2.351  1.00  0.00     0.021 C 
BRANCH  24  25
ATOM     25  C   UNL     1       4.612   4.499  -2.364  1.00  0.00     0.116 C 
BRANCH  25  26
ATOM     26  N   UNL     1       5.944   5.033  -2.595  1.00  0.00    -0.352 N 
ATOM     27  C   UNL     1       6.432   5.755  -3.654  1.00  0.00     0.251 C 
ATOM     28  H   UNL     1       6.597   4.848  -1.882  1.00  0.00     0.163 HD
ATOM     29  O   UNL     1       7.642   5.894  -3.799  1.00  0.00    -0.269 OA
BRANCH  27  30
ATOM     30  C   UNL     1       5.501   6.360  -4.628  1.00  0.00     0.039 A 
ATOM     31  C   UNL     1       5.802   6.280  -5.990  1.00  0.00     0.014 A 
ATOM     32  C   UNL     1       4.349   7.025  -4.199  1.00  0.00     0.014 A 
ATOM     33  C   UNL     1       4.914   6.812  -6.926  1.00  0.00     0.010 A 
ATOM     34  C   UNL     1       3.429   7.488  -5.135  1.00  0.00     0.010 A 
ATOM     35  C   UNL     1       3.702   7.386  -6.507  1.00  0.00    -0.014 A 
BRANCH  35  36
ATOM     36  C   UNL     1       2.699   7.864  -7.492  1.00  0.00     0.031 A 
ATOM     37  C   UNL     1       2.321   9.316  -7.548  1.00  0.00     0.074 A 
ATOM     38  C   UNL     1       2.077   6.973  -8.287  1.00  0.00     0.049 A 
ATOM     39  N   UNL     1       1.415   9.909  -8.286  1.00  0.00    -0.248 NA
ATOM     40  C   UNL     1       3.035  10.220  -6.634  1.00  0.00     0.031 C 
ATOM     41  C   UNL     1       2.323   5.530  -8.288  1.00  0.00     0.029 A 
ATOM     42  N   UNL     1       1.099   7.144  -9.234  1.00  0.00    -0.354 N 
ATOM     43  C   UNL     1       1.448  11.248  -7.920  1.00  0.00     0.074 A 
ATOM     44  C   UNL     1       2.416  11.370  -6.852  1.00  0.00     0.031 C 
ATOM     45  C   UNL     1       1.527   4.950  -9.199  1.00  0.00     0.029 A 
ATOM     46  C   UNL     1       0.683   5.971  -9.813  1.00  0.00     0.049 A 
ATOM     47  H   UNL     1       0.730   8.025  -9.474  1.00  0.00     0.167 HD
ATOM     48  C   UNL     1       0.749  12.284  -8.444  1.00  0.00     0.037 A 
ATOM     49  C   UNL     1      -0.283   5.739 -10.721  1.00  0.00     0.037 A 
ATOM     50  C   UNL     1      -0.212  12.153  -9.509  1.00  0.00     0.049 A 
ATOM     51  C   UNL     1      -1.067   6.900 -11.270  1.00  0.00     0.074 A 
ATOM     52  C   UNL     1      -0.932  13.146 -10.149  1.00  0.00     0.029 A 
ATOM     53  N   UNL     1      -0.600  10.948 -10.080  1.00  0.00    -0.354 N 
ATOM     54  N   UNL     1      -0.972   8.174 -10.974  1.00  0.00    -0.248 NA
ATOM     55  C   UNL     1      -2.086   6.593 -12.282  1.00  0.00     0.031 C 
ATOM     56  C   UNL     1      -1.801  12.537 -11.061  1.00  0.00     0.029 A 
ATOM     57  C   UNL     1      -1.575  11.170 -11.040  1.00  0.00     0.049 A 
ATOM     58  H   UNL     1      -0.235  10.066  -9.839  1.00  0.00     0.167 HD
ATOM     59  C   UNL     1      -1.902   8.822 -11.776  1.00  0.00     0.074 A 
ATOM     60  C   UNL     1      -2.536   7.803 -12.585  1.00  0.00     0.031 C 
ATOM     61  C   UNL     1      -2.203  10.143 -11.835  1.00  0.00     0.037 A 
BRANCH  48  62
ATOM     62  C   UNL     1       0.994  13.649  -7.863  1.00  0.00     0.064 A 
ATOM     63  C   UNL     1       2.225  14.307  -8.014  1.00  0.00     0.173 A 
ATOM     64  C   UNL     1      -0.019  14.316  -7.157  1.00  0.00     0.173 A 
ATOM     65  F   UNL     1       3.232  13.713  -8.673  1.00  0.00    -0.203 F 
ATOM     66  C   UNL     1       2.446  15.559  -7.445  1.00  0.00     0.198 A 
ATOM     67  C   UNL     1       0.194  15.584  -6.621  1.00  0.00     0.198 A 
ATOM     68  F   UNL     1      -1.219  13.740  -6.988  1.00  0.00    -0.203 F 
ATOM     69  F   UNL     1       3.652  16.136  -7.547  1.00  0.00    -0.200 F 
ATOM     70  C   UNL     1       1.429  16.198  -6.754  1.00  0.00     0.200 A 
ATOM     71  F   UNL     1      -0.797  16.208  -5.968  1.00  0.00    -0.200 F 
ATOM     72  F   UNL     1       1.643  17.403  -6.207  1.00  0.00    -0.200 F 
ENDBRANCH  48  62
BRANCH  49  73
ATOM     73  C   UNL     1      -0.557   4.346 -11.164  1.00  0.00     0.064 A 
ATOM     74  C   UNL     1      -0.259   3.927 -12.467  1.00  0.00     0.173 A 
ATOM     75  C   UNL     1      -1.108   3.400 -10.285  1.00  0.00     0.173 A 
ATOM     76  F   UNL     1       0.252   4.798 -13.350  1.00  0.00    -0.203 F 
ATOM     77  C   UNL     1      -0.515   2.621 -12.880  1.00  0.00     0.198 A 
ATOM     78  C   UNL     1      -1.333   2.087 -10.689  1.00  0.00     0.198 A 
ATOM     79  F   UNL     1      -1.403   3.747  -9.024  1.00  0.00    -0.203 F 
ATOM     80  F   UNL     1      -0.259   2.258 -14.144  1.00  0.00    -0.200 F 
ATOM     81  C   UNL     1      -1.044   1.700 -11.989  1.00  0.00     0.200 A 
ATOM     82  F   UNL     1      -1.824   1.195  -9.818  1.00  0.00    -0.200 F 
ATOM     83  F   UNL     1      -1.279   0.441 -12.382  1.00  0.00    -0.200 F 
ENDBRANCH  49  73
BRANCH  61  84
ATOM     84  C   UNL     1      -3.252  10.568 -12.824  1.00  0.00     0.064 A 
ATOM     85  C   UNL     1      -4.607  10.254 -12.643  1.00  0.00     0.173 A 
ATOM     86  C   UNL     1      -2.901  11.339 -13.943  1.00  0.00     0.173 A 
ATOM     87  F   UNL     1      -4.994   9.506 -11.599  1.00  0.00    -0.203 F 
ATOM     88  C   UNL     1      -5.568  10.675 -13.559  1.00  0.00     0.198 A 
ATOM     89  C   UNL     1      -3.869  11.788 -14.838  1.00  0.00     0.198 A 
ATOM     90  F   UNL     1      -1.620  11.673 -14.161  1.00  0.00    -0.203 F 
ATOM     91  F   UNL     1      -6.850  10.321 -13.393  1.00  0.00    -0.200 F 
ATOM     92  C   UNL     1      -5.200  11.450 -14.650  1.00  0.00     0.200 A 
ATOM     93  F   UNL     1      -3.513  12.550 -15.881  1.00  0.00    -0.200 F 
ATOM     94  F   UNL     1      -6.128  11.864 -15.523  1.00  0.00    -0.200 F 
ENDBRANCH  61  84
ENDBRANCH  35  36
ENDBRANCH  27  30
ENDBRANCH  25  26
ENDBRANCH  24  25
ENDBRANCH  23  24
ENDBRANCH  22  23
ENDBRANCH   1  22
TORSDOF 18
