REMARK SMILES O=C(NCCCCCCNC(=O)[C@H]1CC(=O)N(c2cccc(OC(F)(F)F)c2)C1)c1ccc(-c2c3nc(c(-c4c(F)c(F)c(F)c(F)c4F)c4ccc([nH]4)c(-c4c(F)c(F)c(F)c(F)c4F)c4nc(c(-c5c(F)c(F)c(F)c(F)c5F)c5ccc2[nH]5)C=C4)C=C3)cc1
REMARK SMILES IDX 7 1 6 2 5 3 4 4 3 5 1 6 2 7 30 9 31 10 92 11 32 12 91 13
REMARK SMILES IDX 33 14 34 15 35 16 85 17 36 18 90 19 84 20 86 21 37 22 89 23
REMARK SMILES IDX 83 24 82 25 38 27 70 28 50 29 69 30 51 31 54 32 68 33 87 34
REMARK SMILES IDX 52 35 53 36 67 38 88 39 55 40 39 41 40 42 48 43 41 44 42 45
REMARK SMILES IDX 46 46 49 47 43 48 44 49 47 50 45 51 71 52 72 53 80 54 73 55
REMARK SMILES IDX 74 56 78 57 81 58 75 59 76 60 79 61 77 62 56 63 57 64 65 65
REMARK SMILES IDX 58 66 59 67 63 68 66 69 60 70 61 71 64 72 62 73 8 74 9 75
REMARK SMILES IDX 10 76 11 77 12 79 13 80 14 81 29 82 15 83 17 84 16 85 18 86
REMARK SMILES IDX 19 87 28 88 20 89 22 90 21 91 23 92 24 93 25 94 26 95 27 96
REMARK H PARENT 3 8 86 26 54 37 10 78
REMARK Flexibility Score: inf
ROOT
ATOM      1  C   UNL     1       6.160   2.940  -1.376  1.00  0.00     0.002 C 
ENDROOT
BRANCH   1   2
ATOM      2  C   UNL     1       6.627   3.166   0.067  1.00  0.00     0.002 C 
BRANCH   2   3
ATOM      3  C   UNL     1       5.911   4.296   0.803  1.00  0.00     0.021 C 
BRANCH   3   4
ATOM      4  C   UNL     1       4.400   4.150   0.843  1.00  0.00     0.116 C 
BRANCH   4   5
ATOM      5  N   UNL     1       3.970   3.006   1.632  1.00  0.00    -0.352 N 
ATOM      6  O   UNL     1       2.958   1.959   3.363  1.00  0.00    -0.269 OA
ATOM      7  C   UNL     1       3.095   2.975   2.692  1.00  0.00     0.251 C 
ATOM      8  H   UNL     1       4.357   2.139   1.371  1.00  0.00     0.163 HD
BRANCH   7   9
ATOM      9  C   UNL     1       2.337   4.198   3.026  1.00  0.00     0.039 A 
ATOM     10  C   UNL     1       1.749   4.949   2.008  1.00  0.00     0.014 A 
ATOM     11  C   UNL     1       2.242   4.615   4.356  1.00  0.00     0.014 A 
ATOM     12  C   UNL     1       1.222   6.198   2.296  1.00  0.00     0.010 A 
ATOM     13  C   UNL     1       1.596   5.818   4.659  1.00  0.00     0.010 A 
ATOM     14  C   UNL     1       1.102   6.631   3.627  1.00  0.00    -0.014 A 
BRANCH  14  15
ATOM     15  C   UNL     1       0.357   7.889   3.891  1.00  0.00     0.031 A 
ATOM     16  C   UNL     1       1.012   9.083   4.524  1.00  0.00     0.074 A 
ATOM     17  C   UNL     1      -0.927   7.952   3.484  1.00  0.00     0.049 A 
ATOM     18  N   UNL     1       0.502  10.267   4.763  1.00  0.00    -0.248 NA
ATOM     19  C   UNL     1       2.411   8.938   4.950  1.00  0.00     0.031 C 
ATOM     20  C   UNL     1      -1.670   6.842   2.877  1.00  0.00     0.029 A 
ATOM     21  N   UNL     1      -1.826   8.986   3.486  1.00  0.00    -0.354 N 
ATOM     22  C   UNL     1       1.511  11.003   5.370  1.00  0.00     0.074 A 
ATOM     23  C   UNL     1       2.654  10.123   5.496  1.00  0.00     0.031 C 
ATOM     24  C   UNL     1      -2.882   7.272   2.506  1.00  0.00     0.029 A 
ATOM     25  C   UNL     1      -3.037   8.657   2.926  1.00  0.00     0.049 A 
ATOM     26  H   UNL     1      -1.623   9.877   3.851  1.00  0.00     0.167 HD
ATOM     27  C   UNL     1       1.482  12.297   5.772  1.00  0.00     0.037 A 
ATOM     28  C   UNL     1      -4.162   9.381   2.790  1.00  0.00     0.037 A 
ATOM     29  C   UNL     1       0.336  13.164   5.641  1.00  0.00     0.049 A 
ATOM     30  C   UNL     1      -4.167  10.800   3.281  1.00  0.00     0.074 A 
ATOM     31  C   UNL     1       0.212  14.493   6.008  1.00  0.00     0.029 A 
ATOM     32  N   UNL     1      -0.888  12.785   5.106  1.00  0.00    -0.354 N 
ATOM     33  N   UNL     1      -3.195  11.492   3.822  1.00  0.00    -0.248 NA
ATOM     34  C   UNL     1      -5.428  11.537   3.142  1.00  0.00     0.031 C 
ATOM     35  C   UNL     1      -1.099  14.903   5.744  1.00  0.00     0.029 A 
ATOM     36  C   UNL     1      -1.776  13.850   5.154  1.00  0.00     0.049 A 
ATOM     37  H   UNL     1      -1.095  11.893   4.746  1.00  0.00     0.167 HD
ATOM     38  C   UNL     1      -3.720  12.750   4.075  1.00  0.00     0.074 A 
ATOM     39  C   UNL     1      -5.085  12.735   3.589  1.00  0.00     0.031 C 
ATOM     40  C   UNL     1      -3.133  13.818   4.669  1.00  0.00     0.037 A 
BRANCH  27  41
ATOM     41  C   UNL     1       2.723  12.869   6.400  1.00  0.00     0.064 A 
ATOM     42  C   UNL     1       3.873  13.137   5.643  1.00  0.00     0.173 A 
ATOM     43  C   UNL     1       2.734  13.231   7.756  1.00  0.00     0.173 A 
ATOM     44  F   UNL     1       3.921  12.803   4.345  1.00  0.00    -0.203 F 
ATOM     45  C   UNL     1       4.992  13.733   6.223  1.00  0.00     0.198 A 
ATOM     46  C   UNL     1       3.843  13.853   8.325  1.00  0.00     0.198 A 
ATOM     47  F   UNL     1       1.659  13.004   8.526  1.00  0.00    -0.203 F 
ATOM     48  F   UNL     1       6.090  13.951   5.486  1.00  0.00    -0.200 F 
ATOM     49  C   UNL     1       4.972  14.101   7.560  1.00  0.00     0.200 A 
ATOM     50  F   UNL     1       3.815  14.222   9.614  1.00  0.00    -0.200 F 
ATOM     51  F   UNL     1       6.041  14.692   8.110  1.00  0.00    -0.200 F 
ENDBRANCH  27  41
BRANCH  28  52
ATOM     52  C   UNL     1      -5.378   8.765   2.198  1.00  0.00     0.064 A 
ATOM     53  C   UNL     1      -5.920   9.234   0.994  1.00  0.00     0.173 A 
ATOM     54  C   UNL     1      -6.038   7.706   2.840  1.00  0.00     0.173 A 
ATOM     55  F   UNL     1      -5.334  10.254   0.347  1.00  0.00    -0.203 F 
ATOM     56  C   UNL     1      -7.094   8.693   0.474  1.00  0.00     0.198 A 
ATOM     57  C   UNL     1      -7.188   7.138   2.298  1.00  0.00     0.198 A 
ATOM     58  F   UNL     1      -5.557   7.211   3.990  1.00  0.00    -0.203 F 
ATOM     59  F   UNL     1      -7.627   9.206  -0.643  1.00  0.00    -0.200 F 
ATOM     60  C   UNL     1      -7.724   7.642   1.124  1.00  0.00     0.200 A 
ATOM     61  F   UNL     1      -7.778   6.106   2.917  1.00  0.00    -0.200 F 
ATOM     62  F   UNL     1      -8.853   7.123   0.624  1.00  0.00    -0.200 F 
ENDBRANCH  28  52
BRANCH  40  63
ATOM     63  C   UNL     1      -3.964  15.062   4.793  1.00  0.00     0.064 A 
ATOM     64  C   UNL     1      -5.074  15.124   5.651  1.00  0.00     0.173 A 
ATOM     65  C   UNL     1      -3.654  16.204   4.039  1.00  0.00     0.173 A 
ATOM     66  F   UNL     1      -5.425  14.054   6.380  1.00  0.00    -0.203 F 
ATOM     67  C   UNL     1      -5.869  16.266   5.712  1.00  0.00     0.198 A 
ATOM     68  C   UNL     1      -4.428  17.357   4.133  1.00  0.00     0.198 A 
ATOM     69  F   UNL     1      -2.600  16.201   3.209  1.00  0.00    -0.203 F 
ATOM     70  F   UNL     1      -6.967  16.274   6.480  1.00  0.00    -0.200 F 
ATOM     71  C   UNL     1      -5.542  17.382   4.957  1.00  0.00     0.200 A 
ATOM     72  F   UNL     1      -4.102  18.440   3.414  1.00  0.00    -0.200 F 
ATOM     73  F   UNL     1      -6.310  18.479   5.014  1.00  0.00    -0.200 F 
ENDBRANCH  40  63
ENDBRANCH  14  15
ENDBRANCH   7   9
ENDBRANCH   4   5
ENDBRANCH   3   4
ENDBRANCH   2   3
ENDBRANCH   1   2
BRANCH   1  74
ATOM     74  C   UNL     1       6.152   4.194  -2.256  1.00  0.00     0.021 C 
BRANCH  74  75
ATOM     75  C   UNL     1       7.491   4.920  -2.302  1.00  0.00     0.116 C 
BRANCH  75  76
ATOM     76  N   UNL     1       8.492   4.114  -2.975  1.00  0.00    -0.356 N 
ATOM     77  C   UNL     1       9.105   4.351  -4.171  1.00  0.00     0.225 C 
ATOM     78  H   UNL     1       8.764   3.290  -2.510  1.00  0.00     0.163 HD
ATOM     79  O   UNL     1       9.822   3.485  -4.663  1.00  0.00    -0.275 OA
BRANCH  77  80
ATOM     80  C   UNL     1       8.890   5.703  -4.801  1.00  0.00     0.107 C 
ATOM     81  C   UNL     1       9.656   6.764  -4.013  1.00  0.00     0.116 C 
ATOM     82  C   UNL     1       9.460   5.815  -6.202  1.00  0.00     0.139 C 
ATOM     83  C   UNL     1      10.004   7.788  -5.049  1.00  0.00     0.227 C 
ATOM     84  N   UNL     1       9.822   7.207  -6.301  1.00  0.00    -0.311 N 
ATOM     85  O   UNL     1      10.369   8.924  -4.779  1.00  0.00    -0.274 OA
BRANCH  84  86
ATOM     86  C   UNL     1      10.191   7.807  -7.517  1.00  0.00     0.047 A 
ATOM     87  C   UNL     1       9.417   7.635  -8.665  1.00  0.00     0.026 A 
ATOM     88  C   UNL     1      11.355   8.583  -7.575  1.00  0.00     0.073 A 
ATOM     89  C   UNL     1       9.783   8.273  -9.850  1.00  0.00     0.006 A 
ATOM     90  C   UNL     1      11.766   9.164  -8.772  1.00  0.00     0.131 A 
ATOM     91  C   UNL     1      10.956   9.030  -9.902  1.00  0.00     0.047 A 
BRANCH  90  92
ATOM     92  O   UNL     1      12.919   9.873  -8.959  1.00  0.00    -0.406 OA
BRANCH  92  93
ATOM     93  C   UNL     1      13.900   9.790  -7.934  1.00  0.00     0.573 C 
ATOM     94  F   UNL     1      13.490  10.421  -6.814  1.00  0.00    -0.132 F 
ATOM     95  F   UNL     1      14.206   8.506  -7.644  1.00  0.00    -0.132 F 
ATOM     96  F   UNL     1      15.028  10.397  -8.366  1.00  0.00    -0.132 F 
ENDBRANCH  92  93
ENDBRANCH  90  92
ENDBRANCH  84  86
ENDBRANCH  77  80
ENDBRANCH  75  76
ENDBRANCH  74  75
ENDBRANCH   1  74
TORSDOF 16
