REMARK SMILES Cc1[nH]c2ccccc2c1[C@H](C(=O)NCCCCCCNC(=O)c1ccc(-c2c3nc(c(-c4c(F)c(F)c(F)c(F)c4F)c4ccc([nH]4)c(-c4c(F)c(F)c(F)c(F)c4F)c4nc(c(-c5c(F)c(F)c(F)c(F)c5F)c5ccc2[nH]5)C=C4)C=C3)cc1)[NH+]1CCN(C(=O)c2ccco2)CC1
REMARK SMILES IDX 17 1 16 2 15 3 14 4 12 5 13 6 11 8 10 9 1 10 2 11 3 12 4 13
REMARK SMILES IDX 9 15 5 16 8 17 6 18 7 19 87 20 88 21 99 22 89 24 98 25 90 26
REMARK SMILES IDX 91 27 92 28 93 29 94 30 97 31 95 32 96 33 18 34 19 35 20 36
REMARK SMILES IDX 21 37 22 38 23 40 24 41 25 42 86 43 26 44 85 45 27 46 28 47
REMARK SMILES IDX 29 48 79 49 30 50 84 51 78 52 80 53 31 54 83 55 77 56 76 57
REMARK SMILES IDX 32 59 64 60 44 61 63 62 45 63 48 64 62 65 81 66 46 67 47 68
REMARK SMILES IDX 61 70 82 71 49 72 33 73 34 74 42 75 35 76 36 77 40 78 43 79
REMARK SMILES IDX 37 80 38 81 41 82 39 83 65 84 66 85 74 86 67 87 68 88 72 89
REMARK SMILES IDX 75 90 69 91 70 92 73 93 71 94 50 95 51 96 59 97 52 98 53 99
REMARK SMILES IDX 57 100 60 101 54 102 55 103 58 104 56 105
REMARK H PARENT 14 7 3 14 87 23 21 39 80 58 48 69
REMARK Flexibility Score: inf
ROOT
ATOM      1  C   UNL     1       2.939  -1.902  -2.793  1.00  0.00     0.002 C 
ENDROOT
BRANCH   1   2
ATOM      2  C   UNL     1       1.504  -2.405  -2.679  1.00  0.00     0.021 C 
BRANCH   2   3
ATOM      3  C   UNL     1       1.048  -2.509  -1.235  1.00  0.00     0.116 C 
BRANCH   3   4
ATOM      4  N   UNL     1       0.399  -1.294  -0.790  1.00  0.00    -0.351 N 
ATOM      5  C   UNL     1      -0.843  -1.123  -0.239  1.00  0.00     0.283 C 
ATOM      6  O   UNL     1      -1.161   0.033   0.067  1.00  0.00    -0.268 OA
ATOM      7  H   UNL     1       0.928  -0.471  -0.900  1.00  0.00     0.163 HD
BRANCH   5   8
ATOM      8  C   UNL     1      -1.816  -2.310   0.008  1.00  0.00     0.308 C 
BRANCH   8   9
ATOM      9  C   UNL     1      -1.977  -3.185  -1.242  1.00  0.00     0.047 A 
ATOM     10  C   UNL     1      -2.188  -1.298  -3.074  1.00  0.00     0.065 C 
ATOM     11  C   UNL     1      -2.076  -2.689  -2.548  1.00  0.00     0.022 A 
ATOM     12  N   UNL     1      -1.972  -3.746  -3.412  1.00  0.00    -0.358 N 
ATOM     13  C   UNL     1      -1.934  -4.929  -2.723  1.00  0.00     0.046 A 
ATOM     14  H   UNL     1      -1.931  -3.667  -4.392  1.00  0.00     0.166 HD
ATOM     15  C   UNL     1      -2.043  -4.621  -1.365  1.00  0.00     0.009 A 
ATOM     16  C   UNL     1      -1.821  -6.237  -3.211  1.00  0.00     0.027 A 
ATOM     17  C   UNL     1      -2.134  -5.701  -0.460  1.00  0.00     0.011 A 
ATOM     18  C   UNL     1      -1.889  -7.280  -2.288  1.00  0.00     0.002 A 
ATOM     19  C   UNL     1      -2.069  -7.019  -0.933  1.00  0.00     0.001 A 
ENDBRANCH   8   9
BRANCH   8  20
ATOM     20  N   UNL     1      -1.568  -3.052   1.281  1.00  0.00    -0.318 N 
ATOM     21  C   UNL     1      -0.193  -3.438   1.640  1.00  0.00     0.285 C 
ATOM     22  C   UNL     1      -2.168  -2.394   2.458  1.00  0.00     0.285 C 
ATOM     23  H   UNL     1      -2.033  -3.927   1.038  1.00  0.00     0.349 HD
ATOM     24  C   UNL     1       0.708  -2.345   2.255  1.00  0.00     0.181 C 
ATOM     25  C   UNL     1      -1.369  -1.221   3.057  1.00  0.00     0.181 C 
ATOM     26  N   UNL     1       0.056  -1.511   3.260  1.00  0.00    -0.325 N 
ATOM     27  C   UNL     1       0.900  -0.634   3.971  1.00  0.00     0.289 C 
ATOM     28  O   UNL     1       2.095  -0.549   3.682  1.00  0.00    -0.265 OA
BRANCH  27  29
ATOM     29  C   UNL     1       0.325   0.123   5.067  1.00  0.00     0.191 A 
ATOM     30  C   UNL     1      -0.539  -0.232   6.089  1.00  0.00     0.056 A 
ATOM     31  O   UNL     1       0.709   1.427   5.237  1.00  0.00    -0.459 OA
ATOM     32  C   UNL     1      -0.716   0.916   6.896  1.00  0.00     0.043 A 
ATOM     33  C   UNL     1       0.065   1.899   6.335  1.00  0.00     0.196 A 
ENDBRANCH  27  29
ENDBRANCH   8  20
ENDBRANCH   5   8
ENDBRANCH   3   4
ENDBRANCH   2   3
ENDBRANCH   1   2
BRANCH   1  34
ATOM     34  C   UNL     1       3.988  -2.831  -2.168  1.00  0.00     0.002 C 
BRANCH  34  35
ATOM     35  C   UNL     1       3.907  -4.293  -2.614  1.00  0.00     0.021 C 
BRANCH  35  36
ATOM     36  C   UNL     1       3.848  -4.484  -4.125  1.00  0.00     0.116 C 
BRANCH  36  37
ATOM     37  N   UNL     1       4.946  -3.807  -4.794  1.00  0.00    -0.352 N 
ATOM     38  C   UNL     1       5.873  -4.329  -5.654  1.00  0.00     0.251 C 
ATOM     39  H   UNL     1       5.034  -2.845  -4.604  1.00  0.00     0.163 HD
ATOM     40  O   UNL     1       6.867  -3.696  -5.979  1.00  0.00    -0.269 OA
BRANCH  38  41
ATOM     41  C   UNL     1       5.646  -5.685  -6.178  1.00  0.00     0.039 A 
ATOM     42  C   UNL     1       6.663  -6.632  -6.063  1.00  0.00     0.014 A 
ATOM     43  C   UNL     1       4.412  -6.012  -6.747  1.00  0.00     0.014 A 
ATOM     44  C   UNL     1       6.428  -7.933  -6.500  1.00  0.00     0.010 A 
ATOM     45  C   UNL     1       4.156  -7.325  -7.114  1.00  0.00     0.010 A 
ATOM     46  C   UNL     1       5.169  -8.291  -7.011  1.00  0.00    -0.014 A 
BRANCH  46  47
ATOM     47  C   UNL     1       4.906  -9.669  -7.480  1.00  0.00     0.031 A 
ATOM     48  C   UNL     1       4.641  -9.917  -8.937  1.00  0.00     0.074 A 
ATOM     49  C   UNL     1       4.861 -10.676  -6.589  1.00  0.00     0.049 A 
ATOM     50  N   UNL     1       4.350 -11.038  -9.546  1.00  0.00    -0.248 NA
ATOM     51  C   UNL     1       4.679  -8.744  -9.826  1.00  0.00     0.031 C 
ATOM     52  C   UNL     1       5.052 -10.537  -5.145  1.00  0.00     0.029 A 
ATOM     53  N   UNL     1       4.632 -12.016  -6.768  1.00  0.00    -0.354 N 
ATOM     54  C   UNL     1       4.158 -10.702 -10.879  1.00  0.00     0.074 A 
ATOM     55  C   UNL     1       4.305  -9.268 -10.983  1.00  0.00     0.031 C 
ATOM     56  C   UNL     1       4.957 -11.747  -4.571  1.00  0.00     0.029 A 
ATOM     57  C   UNL     1       4.665 -12.739  -5.601  1.00  0.00     0.049 A 
ATOM     58  H   UNL     1       4.461 -12.421  -7.649  1.00  0.00     0.167 HD
ATOM     59  C   UNL     1       3.908 -11.523 -11.925  1.00  0.00     0.037 A 
ATOM     60  C   UNL     1       4.477 -14.056  -5.393  1.00  0.00     0.037 A 
ATOM     61  C   UNL     1       3.793 -12.952 -11.812  1.00  0.00     0.049 A 
ATOM     62  C   UNL     1       4.207 -14.947  -6.575  1.00  0.00     0.074 A 
ATOM     63  C   UNL     1       3.606 -13.885 -12.816  1.00  0.00     0.029 A 
ATOM     64  N   UNL     1       3.854 -13.655 -10.617  1.00  0.00    -0.354 N 
ATOM     65  N   UNL     1       4.103 -14.631  -7.843  1.00  0.00    -0.248 NA
ATOM     66  C   UNL     1       4.039 -16.380  -6.298  1.00  0.00     0.031 C 
ATOM     67  C   UNL     1       3.504 -15.148 -12.223  1.00  0.00     0.029 A 
ATOM     68  C   UNL     1       3.684 -15.008 -10.855  1.00  0.00     0.049 A 
ATOM     69  H   UNL     1       3.997 -13.251  -9.730  1.00  0.00     0.167 HD
ATOM     70  C   UNL     1       3.886 -15.824  -8.518  1.00  0.00     0.074 A 
ATOM     71  C   UNL     1       3.890 -16.873  -7.519  1.00  0.00     0.031 C 
ATOM     72  C   UNL     1       3.700 -16.035  -9.844  1.00  0.00     0.037 A 
BRANCH  59  73
ATOM     73  C   UNL     1       3.745 -10.895 -13.279  1.00  0.00     0.064 A 
ATOM     74  C   UNL     1       4.825 -10.306 -13.954  1.00  0.00     0.173 A 
ATOM     75  C   UNL     1       2.499 -10.909 -13.924  1.00  0.00     0.173 A 
ATOM     76  F   UNL     1       6.035 -10.253 -13.376  1.00  0.00    -0.203 F 
ATOM     77  C   UNL     1       4.658  -9.730 -15.211  1.00  0.00     0.198 A 
ATOM     78  C   UNL     1       2.343 -10.361 -15.194  1.00  0.00     0.198 A 
ATOM     79  F   UNL     1       1.433 -11.460 -13.325  1.00  0.00    -0.203 F 
ATOM     80  F   UNL     1       5.693  -9.128 -15.813  1.00  0.00    -0.200 F 
ATOM     81  C   UNL     1       3.420  -9.765 -15.833  1.00  0.00     0.200 A 
ATOM     82  F   UNL     1       1.148 -10.405 -15.799  1.00  0.00    -0.200 F 
ATOM     83  F   UNL     1       3.262  -9.217 -17.046  1.00  0.00    -0.200 F 
ENDBRANCH  59  73
BRANCH  60  84
ATOM     84  C   UNL     1       4.566 -14.610  -4.017  1.00  0.00     0.064 A 
ATOM     85  C   UNL     1       5.625 -15.450  -3.644  1.00  0.00     0.173 A 
ATOM     86  C   UNL     1       3.597 -14.313  -3.047  1.00  0.00     0.173 A 
ATOM     87  F   UNL     1       6.567 -15.776  -4.541  1.00  0.00    -0.203 F 
ATOM     88  C   UNL     1       5.698 -15.991  -2.362  1.00  0.00     0.198 A 
ATOM     89  C   UNL     1       3.687 -14.831  -1.757  1.00  0.00     0.198 A 
ATOM     90  F   UNL     1       2.568 -13.508  -3.350  1.00  0.00    -0.203 F 
ATOM     91  F   UNL     1       6.695 -16.829  -2.047  1.00  0.00    -0.200 F 
ATOM     92  C   UNL     1       4.732 -15.677  -1.418  1.00  0.00     0.200 A 
ATOM     93  F   UNL     1       2.760 -14.512  -0.843  1.00  0.00    -0.200 F 
ATOM     94  F   UNL     1       4.805 -16.195  -0.184  1.00  0.00    -0.200 F 
ENDBRANCH  60  84
BRANCH  72  95
ATOM     95  C   UNL     1       3.520 -17.455 -10.295  1.00  0.00     0.064 A 
ATOM     96  C   UNL     1       2.346 -18.171 -10.023  1.00  0.00     0.173 A 
ATOM     97  C   UNL     1       4.519 -18.090 -11.048  1.00  0.00     0.173 A 
ATOM     98  F   UNL     1       1.367 -17.612  -9.295  1.00  0.00    -0.203 F 
ATOM     99  C   UNL     1       2.189 -19.481 -10.467  1.00  0.00     0.198 A 
ATOM    100  C   UNL     1       4.346 -19.388 -11.518  1.00  0.00     0.198 A 
ATOM    101  F   UNL     1       5.658 -17.445 -11.343  1.00  0.00    -0.203 F 
ATOM    102  F   UNL     1       1.079 -20.163 -10.154  1.00  0.00    -0.200 F 
ATOM    103  C   UNL     1       3.185 -20.085 -11.220  1.00  0.00     0.200 A 
ATOM    104  F   UNL     1       5.302 -19.965 -12.259  1.00  0.00    -0.200 F 
ATOM    105  F   UNL     1       3.028 -21.343 -11.654  1.00  0.00    -0.200 F 
ENDBRANCH  72  95
ENDBRANCH  46  47
ENDBRANCH  38  41
ENDBRANCH  36  37
ENDBRANCH  35  36
ENDBRANCH  34  35
ENDBRANCH   1  34
TORSDOF 16
