REMARK SMILES C[C@H]1CCC[C@@]1(C(=O)NCCCCCCNC(=O)c1ccc(-c2c3nc(c(-c4c(F)c(F)c(F)c(F)c4F)c4ccc([nH]4)c(-c4c(F)c(F)c(F)c(F)c4F)c4nc(c(-c5c(F)c(F)c(F)c(F)c5F)c5ccc2[nH]5)C=C4)C=C3)cc1)S(=O)(=O)c1cc(F)ccc1F
REMARK SMILES IDX 12 1 11 2 10 3 9 4 7 5 8 6 6 8 1 9 2 10 3 11 4 12 5 13 82 14
REMARK SMILES IDX 83 15 84 16 85 17 86 18 91 19 87 20 90 21 92 22 88 23 89 24
REMARK SMILES IDX 13 25 14 26 15 27 16 28 17 29 18 31 19 32 20 33 81 34 21 35
REMARK SMILES IDX 80 36 22 37 23 38 24 39 74 40 25 41 79 42 73 43 75 44 26 45
REMARK SMILES IDX 78 46 72 47 71 48 27 50 59 51 39 52 58 53 40 54 43 55 57 56
REMARK SMILES IDX 76 57 41 58 42 59 56 61 77 62 44 63 28 64 29 65 37 66 30 67
REMARK SMILES IDX 31 68 35 69 38 70 32 71 33 72 36 73 34 74 60 75 61 76 69 77
REMARK SMILES IDX 62 78 63 79 67 80 70 81 64 82 65 83 68 84 66 85 45 86 46 87
REMARK SMILES IDX 54 88 47 89 48 90 52 91 55 92 49 93 50 94 53 95 51 96
REMARK H PARENT 9 7 16 30 75 49 43 60
REMARK Flexibility Score: inf
ROOT
ATOM      1  C   UNL     1       4.997   2.480   2.278  1.00  0.00     0.002 C 
ENDROOT
BRANCH   1   2
ATOM      2  C   UNL     1       3.930   1.409   2.035  1.00  0.00     0.021 C 
BRANCH   2   3
ATOM      3  C   UNL     1       2.503   1.928   2.075  1.00  0.00     0.116 C 
BRANCH   3   4
ATOM      4  N   UNL     1       1.985   2.316   0.789  1.00  0.00    -0.355 N 
ATOM      5  C   UNL     1       0.755   2.125   0.240  1.00  0.00     0.242 C 
ATOM      6  O   UNL     1       0.493   2.894  -0.692  1.00  0.00    -0.273 OA
ATOM      7  H   UNL     1       2.624   2.796   0.215  1.00  0.00     0.163 HD
BRANCH   5   8
ATOM      8  C   UNL     1      -0.206   1.009   0.654  1.00  0.00     0.157 C 
ATOM      9  C   UNL     1       1.371  -1.031   1.514  1.00  0.00     0.010 C 
ATOM     10  C   UNL     1       0.410  -0.425   0.500  1.00  0.00     0.017 C 
ATOM     11  C   UNL     1      -0.792  -1.354   0.301  1.00  0.00     0.005 C 
ATOM     12  C   UNL     1      -1.795  -0.547  -0.499  1.00  0.00     0.003 C 
ATOM     13  C   UNL     1      -1.280   0.890  -0.494  1.00  0.00     0.034 C 
BRANCH   8  14
ATOM     14  S   UNL     1      -1.105   1.360   2.201  1.00  0.00     0.196 S 
ATOM     15  O   UNL     1      -2.437   1.859   1.920  1.00  0.00    -0.222 OA
ATOM     16  O   UNL     1      -0.996   0.182   3.051  1.00  0.00    -0.222 OA
BRANCH  14  17
ATOM     17  C   UNL     1      -0.345   2.654   3.149  1.00  0.00     0.107 A 
ATOM     18  C   UNL     1       0.133   2.383   4.440  1.00  0.00     0.062 A 
ATOM     19  C   UNL     1      -0.265   3.946   2.642  1.00  0.00     0.142 A 
ATOM     20  C   UNL     1       0.762   3.394   5.161  1.00  0.00     0.124 A 
ATOM     21  C   UNL     1       0.382   4.950   3.366  1.00  0.00     0.043 A 
ATOM     22  F   UNL     1      -0.764   4.247   1.440  1.00  0.00    -0.206 F 
ATOM     23  F   UNL     1       1.273   3.121   6.368  1.00  0.00    -0.207 F 
ATOM     24  C   UNL     1       0.911   4.670   4.628  1.00  0.00     0.042 A 
ENDBRANCH  14  17
ENDBRANCH   8  14
ENDBRANCH   5   8
ENDBRANCH   3   4
ENDBRANCH   2   3
ENDBRANCH   1   2
BRANCH   1  25
ATOM     25  C   UNL     1       4.803   3.363   3.519  1.00  0.00     0.002 C 
BRANCH  25  26
ATOM     26  C   UNL     1       4.460   2.633   4.819  1.00  0.00     0.021 C 
BRANCH  26  27
ATOM     27  C   UNL     1       5.426   1.528   5.220  1.00  0.00     0.116 C 
BRANCH  27  28
ATOM     28  N   UNL     1       6.797   1.994   5.298  1.00  0.00    -0.352 N 
ATOM     29  C   UNL     1       7.684   1.909   6.338  1.00  0.00     0.251 C 
ATOM     30  H   UNL     1       7.140   2.435   4.487  1.00  0.00     0.163 HD
ATOM     31  O   UNL     1       8.748   2.520   6.297  1.00  0.00    -0.269 OA
BRANCH  29  32
ATOM     32  C   UNL     1       7.348   1.092   7.519  1.00  0.00     0.039 A 
ATOM     33  C   UNL     1       7.582   1.617   8.791  1.00  0.00     0.014 A 
ATOM     34  C   UNL     1       6.809  -0.190   7.371  1.00  0.00     0.014 A 
ATOM     35  C   UNL     1       7.232   0.874   9.918  1.00  0.00     0.010 A 
ATOM     36  C   UNL     1       6.386  -0.894   8.492  1.00  0.00     0.010 A 
ATOM     37  C   UNL     1       6.608  -0.376   9.776  1.00  0.00    -0.014 A 
BRANCH  37  38
ATOM     38  C   UNL     1       6.204  -1.172  10.960  1.00  0.00     0.031 A 
ATOM     39  C   UNL     1       6.850  -2.503  11.222  1.00  0.00     0.074 A 
ATOM     40  C   UNL     1       5.219  -0.724  11.761  1.00  0.00     0.049 A 
ATOM     41  N   UNL     1       6.592  -3.381  12.158  1.00  0.00    -0.248 NA
ATOM     42  C   UNL     1       7.910  -2.916  10.288  1.00  0.00     0.031 C 
ATOM     43  C   UNL     1       4.490   0.533  11.582  1.00  0.00     0.029 A 
ATOM     44  N   UNL     1       4.655  -1.279  12.881  1.00  0.00    -0.354 N 
ATOM     45  C   UNL     1       7.444  -4.450  11.916  1.00  0.00     0.074 A 
ATOM     46  C   UNL     1       8.181  -4.141  10.711  1.00  0.00     0.031 C 
ATOM     47  C   UNL     1       3.595   0.666  12.574  1.00  0.00     0.029 A 
ATOM     48  C   UNL     1       3.658  -0.512  13.432  1.00  0.00     0.049 A 
ATOM     49  H   UNL     1       4.938  -2.145  13.254  1.00  0.00     0.167 HD
ATOM     50  C   UNL     1       7.615  -5.576  12.649  1.00  0.00     0.037 A 
ATOM     51  C   UNL     1       2.881  -0.741  14.508  1.00  0.00     0.037 A 
ATOM     52  C   UNL     1       6.891  -5.867  13.858  1.00  0.00     0.049 A 
ATOM     53  C   UNL     1       3.077  -2.009  15.294  1.00  0.00     0.074 A 
ATOM     54  C   UNL     1       7.021  -6.954  14.703  1.00  0.00     0.029 A 
ATOM     55  N   UNL     1       5.893  -5.062  14.391  1.00  0.00    -0.354 N 
ATOM     56  N   UNL     1       3.929  -2.985  15.094  1.00  0.00    -0.248 NA
ATOM     57  C   UNL     1       2.205  -2.203  16.460  1.00  0.00     0.031 C 
ATOM     58  C   UNL     1       6.069  -6.832  15.721  1.00  0.00     0.029 A 
ATOM     59  C   UNL     1       5.384  -5.640  15.543  1.00  0.00     0.049 A 
ATOM     60  H   UNL     1       5.592  -4.207  14.008  1.00  0.00     0.167 HD
ATOM     61  C   UNL     1       3.719  -3.892  16.124  1.00  0.00     0.074 A 
ATOM     62  C   UNL     1       2.667  -3.342  16.954  1.00  0.00     0.031 C 
ATOM     63  C   UNL     1       4.343  -5.073  16.362  1.00  0.00     0.037 A 
BRANCH  50  64
ATOM     64  C   UNL     1       8.626  -6.574  12.157  1.00  0.00     0.064 A 
ATOM     65  C   UNL     1      10.002  -6.292  12.160  1.00  0.00     0.173 A 
ATOM     66  C   UNL     1       8.218  -7.832  11.690  1.00  0.00     0.173 A 
ATOM     67  F   UNL     1      10.446  -5.099  12.585  1.00  0.00    -0.203 F 
ATOM     68  C   UNL     1      10.925  -7.215  11.677  1.00  0.00     0.198 A 
ATOM     69  C   UNL     1       9.147  -8.766  11.240  1.00  0.00     0.198 A 
ATOM     70  F   UNL     1       6.917  -8.157  11.669  1.00  0.00    -0.203 F 
ATOM     71  F   UNL     1      12.226  -6.898  11.631  1.00  0.00    -0.200 F 
ATOM     72  C   UNL     1      10.498  -8.454  11.223  1.00  0.00     0.200 A 
ATOM     73  F   UNL     1       8.734  -9.968  10.814  1.00  0.00    -0.200 F 
ATOM     74  F   UNL     1      11.387  -9.343  10.760  1.00  0.00    -0.200 F 
ENDBRANCH  50  64
BRANCH  51  75
ATOM     75  C   UNL     1       1.873   0.269  14.921  1.00  0.00     0.064 A 
ATOM     76  C   UNL     1       2.039   1.007  16.102  1.00  0.00     0.173 A 
ATOM     77  C   UNL     1       0.729   0.523  14.150  1.00  0.00     0.173 A 
ATOM     78  F   UNL     1       3.108   0.788  16.883  1.00  0.00    -0.203 F 
ATOM     79  C   UNL     1       1.092   1.946  16.505  1.00  0.00     0.198 A 
ATOM     80  C   UNL     1      -0.203   1.482  14.539  1.00  0.00     0.198 A 
ATOM     81  F   UNL     1       0.525  -0.152  13.009  1.00  0.00    -0.203 F 
ATOM     82  F   UNL     1       1.256   2.606  17.660  1.00  0.00    -0.200 F 
ATOM     83  C   UNL     1      -0.025   2.188  15.720  1.00  0.00     0.200 A 
ATOM     84  F   UNL     1      -1.274   1.724  13.771  1.00  0.00    -0.200 F 
ATOM     85  F   UNL     1      -0.933   3.095  16.105  1.00  0.00    -0.200 F 
ENDBRANCH  51  75
BRANCH  63  86
ATOM     86  C   UNL     1       3.934  -5.830  17.592  1.00  0.00     0.064 A 
ATOM     87  C   UNL     1       2.690  -6.472  17.685  1.00  0.00     0.173 A 
ATOM     88  C   UNL     1       4.818  -5.950  18.675  1.00  0.00     0.173 A 
ATOM     89  F   UNL     1       1.803  -6.375  16.683  1.00  0.00    -0.203 F 
ATOM     90  C   UNL     1       2.337  -7.182  18.829  1.00  0.00     0.198 A 
ATOM     91  C   UNL     1       4.474  -6.688  19.803  1.00  0.00     0.198 A 
ATOM     92  F   UNL     1       6.023  -5.361  18.633  1.00  0.00    -0.203 F 
ATOM     93  F   UNL     1       1.123  -7.745  18.918  1.00  0.00    -0.200 F 
ATOM     94  C   UNL     1       3.231  -7.297  19.883  1.00  0.00     0.200 A 
ATOM     95  F   UNL     1       5.346  -6.811  20.813  1.00  0.00    -0.200 F 
ATOM     96  F   UNL     1       2.892  -7.989  20.979  1.00  0.00    -0.200 F 
ENDBRANCH  63  86
ENDBRANCH  37  38
ENDBRANCH  29  32
ENDBRANCH  27  28
ENDBRANCH  26  27
ENDBRANCH  25  26
ENDBRANCH   1  25
TORSDOF 15
