REMARK SMILES O=C(NCCCCCCNC(=O)C1CCN(S(=O)(=O)c2ccc3nc(O)sc3c2)CC1)c1ccc(-c2c3nc(c(-c4c(F)c(F)c(F)c(F)c4F)c4ccc([nH]4)c(-c4c(F)c(F)c(F)c(F)c4F)c4nc(c(-c5c(F)c(F)c(F)c(F)c5F)c5ccc2[nH]5)C=C4)C=C3)cc1
REMARK SMILES IDX 7 1 6 2 5 3 4 4 3 5 1 6 2 7 32 9 33 10 94 11 34 12 93 13
REMARK SMILES IDX 35 14 36 15 37 16 87 17 38 18 92 19 86 20 88 21 39 22 91 23
REMARK SMILES IDX 85 24 84 25 40 27 72 28 52 29 71 30 53 31 56 32 70 33 89 34
REMARK SMILES IDX 54 35 55 36 69 38 90 39 57 40 41 41 42 42 50 43 43 44 44 45
REMARK SMILES IDX 48 46 51 47 45 48 46 49 49 50 47 51 73 52 74 53 82 54 75 55
REMARK SMILES IDX 76 56 80 57 83 58 77 59 78 60 81 61 79 62 58 63 59 64 67 65
REMARK SMILES IDX 60 66 61 67 65 68 68 69 62 70 63 71 66 72 64 73 8 74 9 75
REMARK SMILES IDX 10 76 11 77 12 79 13 80 14 81 31 82 15 83 30 84 16 85 17 86
REMARK SMILES IDX 18 87 19 88 20 89 21 90 29 91 22 92 28 93 23 94 27 95 24 96
REMARK SMILES IDX 25 97 26 98
REMARK H PARENT 3 8 88 26 56 37 10 78 26 99
REMARK Flexibility Score: inf
ROOT
ATOM      1  C   UNL     1       5.093   2.916  -2.743  1.00  0.00     0.002 C 
ENDROOT
BRANCH   1   2
ATOM      2  C   UNL     1       4.465   1.551  -3.040  1.00  0.00     0.002 C 
BRANCH   2   3
ATOM      3  C   UNL     1       4.906   0.412  -2.107  1.00  0.00     0.021 C 
BRANCH   3   4
ATOM      4  C   UNL     1       4.403   0.537  -0.663  1.00  0.00     0.116 C 
BRANCH   4   5
ATOM      5  N   UNL     1       2.957   0.425  -0.618  1.00  0.00    -0.352 N 
ATOM      6  O   UNL     1       0.965  -0.421  -0.075  1.00  0.00    -0.269 OA
ATOM      7  C   UNL     1       2.132  -0.219   0.259  1.00  0.00     0.251 C 
ATOM      8  H   UNL     1       2.489   0.895  -1.346  1.00  0.00     0.163 HD
BRANCH   7   9
ATOM      9  C   UNL     1       2.585  -0.670   1.592  1.00  0.00     0.039 A 
ATOM     10  C   UNL     1       1.994  -1.830   2.110  1.00  0.00     0.014 A 
ATOM     11  C   UNL     1       3.444   0.088   2.393  1.00  0.00     0.014 A 
ATOM     12  C   UNL     1       2.268  -2.237   3.413  1.00  0.00     0.010 A 
ATOM     13  C   UNL     1       3.726  -0.325   3.699  1.00  0.00     0.010 A 
ATOM     14  C   UNL     1       3.139  -1.489   4.215  1.00  0.00    -0.014 A 
BRANCH  14  15
ATOM     15  C   UNL     1       3.439  -2.000   5.564  1.00  0.00     0.031 A 
ATOM     16  C   UNL     1       4.883  -2.080   5.927  1.00  0.00     0.074 A 
ATOM     17  C   UNL     1       2.553  -1.897   6.576  1.00  0.00     0.049 A 
ATOM     18  N   UNL     1       5.555  -1.053   6.358  1.00  0.00    -0.248 NA
ATOM     19  C   UNL     1       5.712  -3.244   5.619  1.00  0.00     0.031 C 
ATOM     20  C   UNL     1       1.563  -0.820   6.688  1.00  0.00     0.029 A 
ATOM     21  N   UNL     1       2.499  -2.541   7.790  1.00  0.00    -0.354 N 
ATOM     22  C   UNL     1       6.892  -1.392   6.314  1.00  0.00     0.074 A 
ATOM     23  C   UNL     1       6.942  -2.770   5.875  1.00  0.00     0.031 C 
ATOM     24  C   UNL     1       1.129  -0.768   7.964  1.00  0.00     0.029 A 
ATOM     25  C   UNL     1       1.675  -1.899   8.709  1.00  0.00     0.049 A 
ATOM     26  H   UNL     1       2.992  -3.370   7.989  1.00  0.00     0.167 HD
ATOM     27  C   UNL     1       7.880  -0.513   6.620  1.00  0.00     0.037 A 
ATOM     28  C   UNL     1       1.844  -1.917  10.059  1.00  0.00     0.037 A 
ATOM     29  C   UNL     1       7.451   0.794   7.017  1.00  0.00     0.049 A 
ATOM     30  C   UNL     1       3.115  -1.122  10.207  1.00  0.00     0.074 A 
ATOM     31  C   UNL     1       7.209   2.003   6.401  1.00  0.00     0.029 A 
ATOM     32  N   UNL     1       7.075   0.983   8.326  1.00  0.00    -0.354 N 
ATOM     33  N   UNL     1       3.202   0.181  10.174  1.00  0.00    -0.248 NA
ATOM     34  C   UNL     1       4.391  -1.822  10.044  1.00  0.00     0.031 C 
ATOM     35  C   UNL     1       6.289   2.688   7.254  1.00  0.00     0.029 A 
ATOM     36  C   UNL     1       5.992   1.825   8.306  1.00  0.00     0.049 A 
ATOM     37  H   UNL     1       7.501   0.591   9.123  1.00  0.00     0.167 HD
ATOM     38  C   UNL     1       4.491   0.452   9.711  1.00  0.00     0.074 A 
ATOM     39  C   UNL     1       5.185  -0.818   9.697  1.00  0.00     0.031 C 
ATOM     40  C   UNL     1       4.853   1.652   9.174  1.00  0.00     0.037 A 
BRANCH  27  41
ATOM     41  C   UNL     1       9.314  -0.841   6.678  1.00  0.00     0.064 A 
ATOM     42  C   UNL     1       9.909  -1.003   7.937  1.00  0.00     0.173 A 
ATOM     43  C   UNL     1      10.141  -0.776   5.553  1.00  0.00     0.173 A 
ATOM     44  F   UNL     1       9.140  -1.054   9.038  1.00  0.00    -0.203 F 
ATOM     45  C   UNL     1      11.290  -1.055   8.074  1.00  0.00     0.198 A 
ATOM     46  C   UNL     1      11.527  -0.836   5.693  1.00  0.00     0.198 A 
ATOM     47  F   UNL     1       9.613  -0.605   4.332  1.00  0.00    -0.203 F 
ATOM     48  F   UNL     1      11.833  -1.160   9.294  1.00  0.00    -0.200 F 
ATOM     49  C   UNL     1      12.099  -0.960   6.953  1.00  0.00     0.200 A 
ATOM     50  F   UNL     1      12.313  -0.738   4.612  1.00  0.00    -0.200 F 
ATOM     51  F   UNL     1      13.432  -0.972   7.089  1.00  0.00    -0.200 F 
ENDBRANCH  27  41
BRANCH  28  52
ATOM     52  C   UNL     1       1.591  -3.241  10.711  1.00  0.00     0.064 A 
ATOM     53  C   UNL     1       0.373  -3.901  10.429  1.00  0.00     0.173 A 
ATOM     54  C   UNL     1       2.452  -3.902  11.597  1.00  0.00     0.173 A 
ATOM     55  F   UNL     1      -0.567  -3.293   9.688  1.00  0.00    -0.203 F 
ATOM     56  C   UNL     1       0.099  -5.187  10.896  1.00  0.00     0.198 A 
ATOM     57  C   UNL     1       2.190  -5.201  12.043  1.00  0.00     0.198 A 
ATOM     58  F   UNL     1       3.569  -3.316  12.045  1.00  0.00    -0.203 F 
ATOM     59  F   UNL     1      -1.055  -5.785  10.570  1.00  0.00    -0.200 F 
ATOM     60  C   UNL     1       1.024  -5.850  11.678  1.00  0.00     0.200 A 
ATOM     61  F   UNL     1       3.088  -5.830  12.816  1.00  0.00    -0.200 F 
ATOM     62  F   UNL     1       0.792  -7.105  12.085  1.00  0.00    -0.200 F 
ENDBRANCH  28  52
BRANCH  40  63
ATOM     63  C   UNL     1       3.834   2.730   9.286  1.00  0.00     0.064 A 
ATOM     64  C   UNL     1       3.611   3.365  10.513  1.00  0.00     0.173 A 
ATOM     65  C   UNL     1       3.094   3.157   8.173  1.00  0.00     0.173 A 
ATOM     66  F   UNL     1       4.302   2.992  11.603  1.00  0.00    -0.203 F 
ATOM     67  C   UNL     1       2.696   4.407  10.619  1.00  0.00     0.198 A 
ATOM     68  C   UNL     1       2.197   4.215   8.278  1.00  0.00     0.198 A 
ATOM     69  F   UNL     1       3.253   2.571   6.976  1.00  0.00    -0.203 F 
ATOM     70  F   UNL     1       2.503   5.010  11.801  1.00  0.00    -0.200 F 
ATOM     71  C   UNL     1       2.000   4.839   9.500  1.00  0.00     0.200 A 
ATOM     72  F   UNL     1       1.538   4.644   7.192  1.00  0.00    -0.200 F 
ATOM     73  F   UNL     1       1.147   5.869   9.596  1.00  0.00    -0.200 F 
ENDBRANCH  40  63
ENDBRANCH  14  15
ENDBRANCH   7   9
ENDBRANCH   4   5
ENDBRANCH   3   4
ENDBRANCH   2   3
ENDBRANCH   1   2
BRANCH   1  74
ATOM     74  C   UNL     1       6.625   2.967  -2.849  1.00  0.00     0.021 C 
BRANCH  74  75
ATOM     75  C   UNL     1       7.177   2.579  -4.224  1.00  0.00     0.116 C 
BRANCH  75  76
ATOM     76  N   UNL     1       6.792   3.558  -5.223  1.00  0.00    -0.356 N 
ATOM     77  C   UNL     1       7.510   4.570  -5.780  1.00  0.00     0.223 C 
ATOM     78  H   UNL     1       5.867   3.477  -5.548  1.00  0.00     0.163 HD
ATOM     79  O   UNL     1       6.886   5.425  -6.406  1.00  0.00    -0.275 OA
BRANCH  77  80
ATOM     80  C   UNL     1       9.035   4.559  -5.707  1.00  0.00     0.081 C 
ATOM     81  C   UNL     1       9.635   5.964  -5.683  1.00  0.00     0.030 C 
ATOM     82  C   UNL     1       9.600   3.786  -6.899  1.00  0.00     0.030 C 
ATOM     83  C   UNL     1       9.513   6.708  -7.008  1.00  0.00     0.103 C 
ATOM     84  C   UNL     1       9.414   4.542  -8.215  1.00  0.00     0.103 C 
ATOM     85  N   UNL     1      10.035   5.900  -8.159  1.00  0.00    -0.198 NA
BRANCH  85  86
ATOM     86  S   UNL     1       9.853   6.814  -9.626  1.00  0.00     0.243 S 
ATOM     87  O   UNL     1       8.467   6.715 -10.049  1.00  0.00    -0.207 OA
ATOM     88  O   UNL     1      10.473   8.102  -9.420  1.00  0.00    -0.207 OA
BRANCH  86  89
ATOM     89  C   UNL     1      10.832   5.943 -10.833  1.00  0.00     0.084 A 
ATOM     90  C   UNL     1      10.287   4.842 -11.495  1.00  0.00     0.024 A 
ATOM     91  C   UNL     1      12.079   6.468 -11.200  1.00  0.00     0.043 A 
ATOM     92  C   UNL     1      11.012   4.195 -12.500  1.00  0.00     0.031 A 
ATOM     93  C   UNL     1      12.777   5.827 -12.238  1.00  0.00     0.059 A 
ATOM     94  C   UNL     1      12.273   4.695 -12.886  1.00  0.00     0.085 A 
ATOM     95  S   UNL     1      14.297   6.238 -12.943  1.00  0.00    -0.077 S 
ATOM     96  N   UNL     1      13.079   4.170 -13.884  1.00  0.00    -0.203 NA
ATOM     97  C   UNL     1      14.149   4.911 -13.990  1.00  0.00     0.271 A 
BRANCH  97  98
ATOM     98  O   UNL     1      15.056   4.599 -14.894  1.00  0.00    -0.486 OA
ATOM     99  H   UNL     1      14.928   3.856 -15.449  1.00  0.00     0.296 HD
ENDBRANCH  97  98
ENDBRANCH  86  89
ENDBRANCH  85  86
ENDBRANCH  77  80
ENDBRANCH  75  76
ENDBRANCH  74  75
ENDBRANCH   1  74
TORSDOF 16
