REMARK SMILES O=C(NCc1ccc(C(=O)NCCCCCCNC(=O)c2ccc(-c3c4nc(c(-c5c(F)c(F)c(F)c(F)c5F)c5ccc([nH]5)c(-c5c(F)c(F)c(F)c(F)c5F)c5nc(c(-c6c(F)c(F)c(F)c(F)c6F)c6ccc3[nH]6)C=C5)C=C4)cc2)cc1)Nc1ccccc1Br
REMARK SMILES IDX 14 1 13 2 12 3 11 4 9 5 10 6 8 8 5 9 6 10 85 11 7 12 84 13
REMARK SMILES IDX 4 14 3 15 1 16 2 17 86 18 87 21 88 22 92 23 89 24 91 25
REMARK SMILES IDX 93 26 90 27 15 28 16 29 17 30 18 31 19 32 20 34 21 35 22 36
REMARK SMILES IDX 83 37 23 38 82 39 24 40 25 41 26 42 76 43 27 44 81 45 75 46
REMARK SMILES IDX 77 47 28 48 80 49 74 50 73 51 29 53 61 54 41 55 60 56 42 57
REMARK SMILES IDX 45 58 59 59 78 60 43 61 44 62 58 64 79 65 46 66 30 67 31 68
REMARK SMILES IDX 39 69 32 70 33 71 37 72 40 73 34 74 35 75 38 76 36 77 62 78
REMARK SMILES IDX 63 79 71 80 64 81 65 82 69 83 72 84 66 85 67 86 70 87 68 88
REMARK SMILES IDX 47 89 48 90 56 91 49 92 50 93 54 94 57 95 51 96 52 97 55 98
REMARK SMILES IDX 53 99
REMARK H PARENT 11 7 3 19 86 20 18 33 77 52 45 63
REMARK Flexibility Score: inf
ROOT
ATOM      1  C   UNL     1       5.862  -1.522   8.529  1.00  0.00     0.002 C 
ENDROOT
BRANCH   1   2
ATOM      2  C   UNL     1       5.656  -1.111   7.064  1.00  0.00     0.021 C 
BRANCH   2   3
ATOM      3  C   UNL     1       6.627  -1.797   6.100  1.00  0.00     0.116 C 
BRANCH   3   4
ATOM      4  N   UNL     1       6.210  -3.165   5.866  1.00  0.00    -0.352 N 
ATOM      5  C   UNL     1       5.600  -3.772   4.800  1.00  0.00     0.251 C 
ATOM      6  O   UNL     1       5.373  -4.980   4.882  1.00  0.00    -0.269 OA
ATOM      7  H   UNL     1       6.401  -3.774   6.615  1.00  0.00     0.163 HD
BRANCH   5   8
ATOM      8  C   UNL     1       5.265  -3.058   3.538  1.00  0.00     0.039 A 
ATOM      9  C   UNL     1       4.716  -1.867   1.041  1.00  0.00    -0.029 A 
ATOM     10  C   UNL     1       5.039  -3.225   1.120  1.00  0.00     0.006 A 
ATOM     11  C   UNL     1       4.618  -1.123   2.225  1.00  0.00     0.006 A 
ATOM     12  C   UNL     1       5.315  -3.812   2.357  1.00  0.00     0.014 A 
ATOM     13  C   UNL     1       4.866  -1.722   3.465  1.00  0.00     0.014 A 
BRANCH   9  14
ATOM     14  C   UNL     1       4.422  -1.224  -0.288  1.00  0.00     0.153 C 
BRANCH  14  15
ATOM     15  N   UNL     1       2.998  -1.060  -0.467  1.00  0.00    -0.334 N 
ATOM     16  O   UNL     1       1.004  -0.086  -0.465  1.00  0.00    -0.248 OA
ATOM     17  C   UNL     1       2.221   0.052  -0.399  1.00  0.00     0.319 C 
ATOM     18  N   UNL     1       2.882   1.247  -0.326  1.00  0.00    -0.307 N 
ATOM     19  H   UNL     1       2.511  -1.891  -0.672  1.00  0.00     0.165 HD
ATOM     20  H   UNL     1       3.860   1.236  -0.439  1.00  0.00     0.171 HD
BRANCH  18  21
ATOM     21  C   UNL     1       2.262   2.499  -0.101  1.00  0.00     0.057 A 
ATOM     22  C   UNL     1       2.748   3.566  -0.872  1.00  0.00     0.027 A 
ATOM     23  C   UNL     1       1.231   2.748   0.821  1.00  0.00     0.041 A 
ATOM     24  C   UNL     1       2.157   4.830  -0.804  1.00  0.00     0.002 A 
ATOM     25  C   UNL     1       0.637   4.018   0.880  1.00  0.00     0.018 A 
ATOM     26  Br  UNL     1       0.715   1.526   2.187  1.00  0.00    -0.049 Br
ATOM     27  C   UNL     1       1.087   5.050   0.057  1.00  0.00     0.001 A 
ENDBRANCH  18  21
ENDBRANCH  14  15
ENDBRANCH   9  14
ENDBRANCH   5   8
ENDBRANCH   3   4
ENDBRANCH   2   3
ENDBRANCH   1   2
BRANCH   1  28
ATOM     28  C   UNL     1       7.217  -1.121   9.125  1.00  0.00     0.002 C 
BRANCH  28  29
ATOM     29  C   UNL     1       7.552   0.370   9.025  1.00  0.00     0.021 C 
BRANCH  29  30
ATOM     30  C   UNL     1       6.566   1.284   9.745  1.00  0.00     0.116 C 
BRANCH  30  31
ATOM     31  N   UNL     1       6.596   1.081  11.184  1.00  0.00    -0.352 N 
ATOM     32  C   UNL     1       6.822   1.992  12.186  1.00  0.00     0.251 C 
ATOM     33  H   UNL     1       6.430   0.158  11.483  1.00  0.00     0.163 HD
ATOM     34  O   UNL     1       7.036   1.612  13.332  1.00  0.00    -0.269 OA
BRANCH  32  35
ATOM     35  C   UNL     1       6.820   3.437  11.879  1.00  0.00     0.039 A 
ATOM     36  C   UNL     1       7.821   4.246  12.422  1.00  0.00     0.014 A 
ATOM     37  C   UNL     1       5.821   3.995  11.076  1.00  0.00     0.014 A 
ATOM     38  C   UNL     1       7.851   5.608  12.116  1.00  0.00     0.010 A 
ATOM     39  C   UNL     1       5.890   5.339  10.719  1.00  0.00     0.010 A 
ATOM     40  C   UNL     1       6.902   6.159  11.240  1.00  0.00    -0.014 A 
BRANCH  40  41
ATOM     41  C   UNL     1       6.948   7.593  10.860  1.00  0.00     0.031 A 
ATOM     42  C   UNL     1       5.834   8.516  11.264  1.00  0.00     0.074 A 
ATOM     43  C   UNL     1       7.960   8.045  10.095  1.00  0.00     0.049 A 
ATOM     44  N   UNL     1       5.656   9.779  10.967  1.00  0.00    -0.248 NA
ATOM     45  C   UNL     1       4.763   7.937  12.089  1.00  0.00     0.031 C 
ATOM     46  C   UNL     1       9.075   7.235   9.603  1.00  0.00     0.029 A 
ATOM     47  N   UNL     1       8.209   9.296   9.588  1.00  0.00    -0.354 N 
ATOM     48  C   UNL     1       4.451  10.139  11.555  1.00  0.00     0.074 A 
ATOM     49  C   UNL     1       3.914   8.950  12.181  1.00  0.00     0.031 C 
ATOM     50  C   UNL     1       9.898   8.012   8.881  1.00  0.00     0.029 A 
ATOM     51  C   UNL     1       9.351   9.365   8.829  1.00  0.00     0.049 A 
ATOM     52  H   UNL     1       7.624  10.070   9.753  1.00  0.00     0.167 HD
ATOM     53  C   UNL     1       3.857  11.356  11.587  1.00  0.00     0.037 A 
ATOM     54  C   UNL     1       9.891  10.401   8.160  1.00  0.00     0.037 A 
ATOM     55  C   UNL     1       4.407  12.541  10.983  1.00  0.00     0.049 A 
ATOM     56  C   UNL     1       9.210  11.742   8.210  1.00  0.00     0.074 A 
ATOM     57  C   UNL     1       3.914  13.833  11.012  1.00  0.00     0.029 A 
ATOM     58  N   UNL     1       5.577  12.576  10.239  1.00  0.00    -0.354 N 
ATOM     59  N   UNL     1       8.104  12.085   8.824  1.00  0.00    -0.248 NA
ATOM     60  C   UNL     1       9.856  12.840   7.478  1.00  0.00     0.031 C 
ATOM     61  C   UNL     1       4.761  14.642  10.247  1.00  0.00     0.029 A 
ATOM     62  C   UNL     1       5.810  13.864   9.784  1.00  0.00     0.049 A 
ATOM     63  H   UNL     1       6.157  11.800  10.060  1.00  0.00     0.167 HD
ATOM     64  C   UNL     1       7.937  13.441   8.578  1.00  0.00     0.074 A 
ATOM     65  C   UNL     1       9.063  13.861   7.770  1.00  0.00     0.031 C 
ATOM     66  C   UNL     1       6.940  14.265   8.986  1.00  0.00     0.037 A 
BRANCH  53  67
ATOM     67  C   UNL     1       2.542  11.467  12.303  1.00  0.00     0.064 A 
ATOM     68  C   UNL     1       2.453  11.360  13.700  1.00  0.00     0.173 A 
ATOM     69  C   UNL     1       1.361  11.719  11.589  1.00  0.00     0.173 A 
ATOM     70  F   UNL     1       3.550  11.108  14.429  1.00  0.00    -0.203 F 
ATOM     71  C   UNL     1       1.227  11.470  14.351  1.00  0.00     0.198 A 
ATOM     72  C   UNL     1       0.141  11.859  12.246  1.00  0.00     0.198 A 
ATOM     73  F   UNL     1       1.389  11.837  10.253  1.00  0.00    -0.203 F 
ATOM     74  F   UNL     1       1.160  11.314  15.680  1.00  0.00    -0.200 F 
ATOM     75  C   UNL     1       0.073  11.727  13.625  1.00  0.00     0.200 A 
ATOM     76  F   UNL     1      -0.971  12.121  11.544  1.00  0.00    -0.200 F 
ATOM     77  F   UNL     1      -1.105  11.840  14.254  1.00  0.00    -0.200 F 
ENDBRANCH  53  67
BRANCH  54  78
ATOM     78  C   UNL     1      11.158  10.217   7.406  1.00  0.00     0.064 A 
ATOM     79  C   UNL     1      12.349  10.810   7.848  1.00  0.00     0.173 A 
ATOM     80  C   UNL     1      11.207   9.448   6.234  1.00  0.00     0.173 A 
ATOM     81  F   UNL     1      12.348  11.571   8.952  1.00  0.00    -0.203 F 
ATOM     82  C   UNL     1      13.537  10.658   7.135  1.00  0.00     0.198 A 
ATOM     83  C   UNL     1      12.401   9.274   5.538  1.00  0.00     0.198 A 
ATOM     84  F   UNL     1      10.096   8.855   5.773  1.00  0.00    -0.203 F 
ATOM     85  F   UNL     1      14.651  11.272   7.555  1.00  0.00    -0.200 F 
ATOM     86  C   UNL     1      13.563   9.885   5.984  1.00  0.00     0.200 A 
ATOM     87  F   UNL     1      12.425   8.514   4.434  1.00  0.00    -0.200 F 
ATOM     88  F   UNL     1      14.706   9.735   5.301  1.00  0.00    -0.200 F 
ENDBRANCH  54  78
BRANCH  66  89
ATOM     89  C   UNL     1       7.039  15.710   8.592  1.00  0.00     0.064 A 
ATOM     90  C   UNL     1       6.826  16.130   7.271  1.00  0.00     0.173 A 
ATOM     91  C   UNL     1       7.313  16.691   9.558  1.00  0.00     0.173 A 
ATOM     92  F   UNL     1       6.577  15.229   6.309  1.00  0.00    -0.203 F 
ATOM     93  C   UNL     1       6.907  17.477   6.927  1.00  0.00     0.198 A 
ATOM     94  C   UNL     1       7.364  18.039   9.216  1.00  0.00     0.198 A 
ATOM     95  F   UNL     1       7.519  16.341  10.837  1.00  0.00    -0.203 F 
ATOM     96  F   UNL     1       6.746  17.850   5.650  1.00  0.00    -0.200 F 
ATOM     97  C   UNL     1       7.168  18.430   7.900  1.00  0.00     0.200 A 
ATOM     98  F   UNL     1       7.603  18.959  10.160  1.00  0.00    -0.200 F 
ATOM     99  F   UNL     1       7.239  19.726   7.568  1.00  0.00    -0.200 F 
ENDBRANCH  66  89
ENDBRANCH  40  41
ENDBRANCH  32  35
ENDBRANCH  30  31
ENDBRANCH  29  30
ENDBRANCH  28  29
ENDBRANCH   1  28
TORSDOF 16
