REMARK SMILES Cc1cc(C(=O)N[C@@H](Cc2ccccc2)C(=O)NCCCCCCNC(=O)c2ccc(-c3c4nc(c(-c5c(F)c(F)c(F)c(F)c5F)c5ccc([nH]5)c(-c5c(F)c(F)c(F)c(F)c5F)c5nc(c(-c6c(F)c(F)c(F)c(F)c6F)c6ccc3[nH]6)C=C5)C=C4)cc2)c(C)o1
REMARK SMILES IDX 21 1 20 2 19 3 18 4 16 5 17 6 8 8 7 9 5 10 6 11 4 13 1 14
REMARK SMILES IDX 2 15 3 16 93 17 91 18 92 19 9 20 10 21 11 22 15 23 12 24
REMARK SMILES IDX 14 25 13 26 22 27 23 28 24 29 25 30 26 31 27 33 28 34 29 35
REMARK SMILES IDX 90 36 30 37 89 38 31 39 32 40 33 41 83 42 34 43 88 44 82 45
REMARK SMILES IDX 84 46 35 47 87 48 81 49 80 50 36 52 68 53 48 54 67 55 49 56
REMARK SMILES IDX 52 57 66 58 85 59 50 60 51 61 65 63 86 64 53 65 37 66 38 67
REMARK SMILES IDX 46 68 39 69 40 70 44 71 47 72 41 73 42 74 45 75 43 76 69 77
REMARK SMILES IDX 70 78 78 79 71 80 72 81 76 82 79 83 73 84 74 85 77 86 75 87
REMARK SMILES IDX 54 88 55 89 63 90 56 91 57 92 61 93 64 94 58 95 59 96 62 97
REMARK SMILES IDX 60 98
REMARK H PARENT 18 7 7 12 25 32 84 51 52 62
REMARK Flexibility Score: inf
ROOT
ATOM      1  C   UNL     1      -1.453   8.154   3.312  1.00  0.00     0.002 C 
ENDROOT
BRANCH   1   2
ATOM      2  C   UNL     1      -1.889   7.008   2.396  1.00  0.00     0.021 C 
BRANCH   2   3
ATOM      3  C   UNL     1      -0.871   6.594   1.344  1.00  0.00     0.116 C 
BRANCH   3   4
ATOM      4  N   UNL     1       0.225   5.792   1.837  1.00  0.00    -0.354 N 
ATOM      5  C   UNL     1       0.938   4.823   1.190  1.00  0.00     0.242 C 
ATOM      6  O   UNL     1       2.028   4.506   1.681  1.00  0.00    -0.273 OA
ATOM      7  H   UNL     1       0.495   5.968   2.767  1.00  0.00     0.163 HD
BRANCH   5   8
ATOM      8  C   UNL     1       0.463   4.149  -0.124  1.00  0.00     0.176 C 
BRANCH   8   9
ATOM      9  N   UNL     1      -0.879   3.584  -0.007  1.00  0.00    -0.340 N 
ATOM     10  C   UNL     1      -1.357   2.311   0.161  1.00  0.00     0.255 C 
ATOM     11  O   UNL     1      -2.580   2.240   0.306  1.00  0.00    -0.269 OA
ATOM     12  H   UNL     1      -1.591   4.261  -0.061  1.00  0.00     0.164 HD
BRANCH  10  13
ATOM     13  C   UNL     1      -0.517   1.113   0.124  1.00  0.00     0.081 A 
ATOM     14  C   UNL     1       2.376  -1.239   0.032  1.00  0.00     0.087 C 
ATOM     15  C   UNL     1       1.140  -0.434   0.067  1.00  0.00     0.101 A 
ATOM     16  C   UNL     1       0.895   0.909   0.225  1.00  0.00     0.059 A 
ATOM     17  O   UNL     1      -0.029  -1.104  -0.052  1.00  0.00    -0.466 OA
ATOM     18  C   UNL     1      -1.030  -0.181   0.011  1.00  0.00     0.113 A 
ATOM     19  C   UNL     1      -2.389  -0.770  -0.046  1.00  0.00     0.088 C 
ENDBRANCH  10  13
ENDBRANCH   8   9
BRANCH   8  20
ATOM     20  C   UNL     1       0.741   4.905  -1.439  1.00  0.00     0.070 C 
BRANCH  20  21
ATOM     21  C   UNL     1       0.082   6.237  -1.685  1.00  0.00    -0.045 A 
ATOM     22  C   UNL     1       0.848   7.413  -1.645  1.00  0.00     0.004 A 
ATOM     23  C   UNL     1      -1.289   6.333  -1.965  1.00  0.00     0.004 A 
ATOM     24  C   UNL     1       0.246   8.659  -1.821  1.00  0.00     0.000 A 
ATOM     25  C   UNL     1      -1.893   7.583  -2.115  1.00  0.00     0.000 A 
ATOM     26  C   UNL     1      -1.127   8.745  -2.040  1.00  0.00     0.000 A 
ENDBRANCH  20  21
ENDBRANCH   8  20
ENDBRANCH   5   8
ENDBRANCH   3   4
ENDBRANCH   2   3
ENDBRANCH   1   2
BRANCH   1  27
ATOM     27  C   UNL     1      -0.967   9.430   2.614  1.00  0.00     0.002 C 
BRANCH  27  28
ATOM     28  C   UNL     1      -1.894  10.004   1.540  1.00  0.00     0.021 C 
BRANCH  28  29
ATOM     29  C   UNL     1      -3.312  10.322   1.996  1.00  0.00     0.116 C 
BRANCH  29  30
ATOM     30  N   UNL     1      -3.345  11.303   3.068  1.00  0.00    -0.352 N 
ATOM     31  C   UNL     1      -3.970  12.524   3.132  1.00  0.00     0.251 C 
ATOM     32  H   UNL     1      -2.840  11.052   3.875  1.00  0.00     0.163 HD
ATOM     33  O   UNL     1      -3.728  13.286   4.061  1.00  0.00    -0.269 OA
BRANCH  31  34
ATOM     34  C   UNL     1      -4.916  12.938   2.073  1.00  0.00     0.039 A 
ATOM     35  C   UNL     1      -4.865  14.254   1.606  1.00  0.00     0.014 A 
ATOM     36  C   UNL     1      -5.864  12.051   1.556  1.00  0.00     0.014 A 
ATOM     37  C   UNL     1      -5.718  14.661   0.578  1.00  0.00     0.010 A 
ATOM     38  C   UNL     1      -6.658  12.433   0.477  1.00  0.00     0.010 A 
ATOM     39  C   UNL     1      -6.595  13.743  -0.022  1.00  0.00    -0.014 A 
BRANCH  39  40
ATOM     40  C   UNL     1      -7.447  14.133  -1.175  1.00  0.00     0.031 A 
ATOM     41  C   UNL     1      -8.945  14.106  -1.056  1.00  0.00     0.074 A 
ATOM     42  C   UNL     1      -6.869  14.453  -2.350  1.00  0.00     0.049 A 
ATOM     43  N   UNL     1      -9.854  14.343  -1.970  1.00  0.00    -0.248 NA
ATOM     44  C   UNL     1      -9.497  13.740   0.257  1.00  0.00     0.031 C 
ATOM     45  C   UNL     1      -5.428  14.477  -2.604  1.00  0.00     0.029 A 
ATOM     46  N   UNL     1      -7.424  14.808  -3.555  1.00  0.00    -0.354 N 
ATOM     47  C   UNL     1     -11.078  14.143  -1.346  1.00  0.00     0.074 A 
ATOM     48  C   UNL     1     -10.798  13.711   0.006  1.00  0.00     0.031 C 
ATOM     49  C   UNL     1      -5.211  14.849  -3.875  1.00  0.00     0.029 A 
ATOM     50  C   UNL     1      -6.495  15.044  -4.540  1.00  0.00     0.049 A 
ATOM     51  H   UNL     1      -8.394  14.885  -3.700  1.00  0.00     0.167 HD
ATOM     52  C   UNL     1     -12.323  14.326  -1.849  1.00  0.00     0.037 A 
ATOM     53  C   UNL     1      -6.661  15.368  -5.837  1.00  0.00     0.037 A 
ATOM     54  C   UNL     1     -12.595  14.772  -3.191  1.00  0.00     0.049 A 
ATOM     55  C   UNL     1      -8.055  15.537  -6.378  1.00  0.00     0.074 A 
ATOM     56  C   UNL     1     -13.819  15.044  -3.777  1.00  0.00     0.029 A 
ATOM     57  N   UNL     1     -11.629  15.004  -4.159  1.00  0.00    -0.354 N 
ATOM     58  N   UNL     1      -9.204  15.414  -5.760  1.00  0.00    -0.248 NA
ATOM     59  C   UNL     1      -8.175  15.892  -7.799  1.00  0.00     0.031 C 
ATOM     60  C   UNL     1     -13.598  15.381  -5.116  1.00  0.00     0.029 A 
ATOM     61  C   UNL     1     -12.231  15.383  -5.348  1.00  0.00     0.049 A 
ATOM     62  H   UNL     1     -10.658  14.913  -4.021  1.00  0.00     0.167 HD
ATOM     63  C   UNL     1     -10.180  15.705  -6.704  1.00  0.00     0.074 A 
ATOM     64  C   UNL     1      -9.487  16.026  -7.934  1.00  0.00     0.031 C 
ATOM     65  C   UNL     1     -11.529  15.705  -6.564  1.00  0.00     0.037 A 
BRANCH  52  66
ATOM     66  C   UNL     1     -13.489  14.039  -0.945  1.00  0.00     0.064 A 
ATOM     67  C   UNL     1     -13.775  14.842   0.170  1.00  0.00     0.173 A 
ATOM     68  C   UNL     1     -14.355  12.969  -1.220  1.00  0.00     0.173 A 
ATOM     69  F   UNL     1     -12.975  15.872   0.483  1.00  0.00    -0.203 F 
ATOM     70  C   UNL     1     -14.864  14.566   0.993  1.00  0.00     0.198 A 
ATOM     71  C   UNL     1     -15.463  12.717  -0.415  1.00  0.00     0.198 A 
ATOM     72  F   UNL     1     -14.134  12.173  -2.277  1.00  0.00    -0.203 F 
ATOM     73  F   UNL     1     -15.085  15.315   2.082  1.00  0.00    -0.200 F 
ATOM     74  C   UNL     1     -15.711  13.509   0.696  1.00  0.00     0.200 A 
ATOM     75  F   UNL     1     -16.290  11.705  -0.713  1.00  0.00    -0.200 F 
ATOM     76  F   UNL     1     -16.764  13.250   1.484  1.00  0.00    -0.200 F 
ENDBRANCH  52  66
BRANCH  53  77
ATOM     77  C   UNL     1      -5.474  15.566  -6.711  1.00  0.00     0.064 A 
ATOM     78  C   UNL     1      -5.155  16.833  -7.218  1.00  0.00     0.173 A 
ATOM     79  C   UNL     1      -4.639  14.495  -7.063  1.00  0.00     0.173 A 
ATOM     80  F   UNL     1      -5.933  17.886  -6.928  1.00  0.00    -0.203 F 
ATOM     81  C   UNL     1      -4.061  17.017  -8.062  1.00  0.00     0.198 A 
ATOM     82  C   UNL     1      -3.527  14.686  -7.879  1.00  0.00     0.198 A 
ATOM     83  F   UNL     1      -4.896  13.262  -6.600  1.00  0.00    -0.203 F 
ATOM     84  F   UNL     1      -3.808  18.230  -8.572  1.00  0.00    -0.200 F 
ATOM     85  C   UNL     1      -3.244  15.945  -8.386  1.00  0.00     0.200 A 
ATOM     86  F   UNL     1      -2.730  13.650  -8.176  1.00  0.00    -0.200 F 
ATOM     87  F   UNL     1      -2.189  16.123  -9.193  1.00  0.00    -0.200 F 
ENDBRANCH  53  77
BRANCH  65  88
ATOM     88  C   UNL     1     -12.348  16.098  -7.761  1.00  0.00     0.064 A 
ATOM     89  C   UNL     1     -12.459  15.267  -8.885  1.00  0.00     0.173 A 
ATOM     90  C   UNL     1     -13.069  17.302  -7.762  1.00  0.00     0.173 A 
ATOM     91  F   UNL     1     -11.778  14.112  -8.941  1.00  0.00    -0.203 F 
ATOM     92  C   UNL     1     -13.242  15.638  -9.976  1.00  0.00     0.198 A 
ATOM     93  C   UNL     1     -13.878  17.654  -8.839  1.00  0.00     0.198 A 
ATOM     94  F   UNL     1     -13.004  18.131  -6.709  1.00  0.00    -0.203 F 
ATOM     95  F   UNL     1     -13.293  14.851 -11.059  1.00  0.00    -0.200 F 
ATOM     96  C   UNL     1     -13.957  16.826  -9.948  1.00  0.00     0.200 A 
ATOM     97  F   UNL     1     -14.581  18.794  -8.802  1.00  0.00    -0.200 F 
ATOM     98  F   UNL     1     -14.719  17.175 -10.993  1.00  0.00    -0.200 F 
ENDBRANCH  65  88
ENDBRANCH  39  40
ENDBRANCH  31  34
ENDBRANCH  29  30
ENDBRANCH  28  29
ENDBRANCH  27  28
ENDBRANCH   1  27
TORSDOF 17
