REMARK SMILES O=C(NCCCCCCNC(=O)c1ccc(-c2c3nc(c(-c4c(F)c(F)c(F)c(F)c4F)c4ccc([nH]4)c(-c4c(F)c(F)c(F)c(F)c4F)c4nc(c(-c5c(F)c(F)c(F)c(F)c5F)c5ccc2[nH]5)C=C4)C=C3)cc1)C1=NN=C2C=CC=C[C@@H]21
REMARK SMILES IDX 7 1 6 2 5 3 4 4 3 5 1 6 2 7 76 9 77 10 84 11 78 12 79 13
REMARK SMILES IDX 83 14 80 15 82 16 81 17 8 18 9 19 10 20 11 21 12 23 13 24
REMARK SMILES IDX 14 25 75 26 15 27 74 28 16 29 17 30 18 31 68 32 19 33 73 34
REMARK SMILES IDX 67 35 69 36 20 37 72 38 66 39 65 40 21 42 53 43 33 44 52 45
REMARK SMILES IDX 34 46 37 47 51 48 70 49 35 50 36 51 50 53 71 54 38 55 22 56
REMARK SMILES IDX 23 57 31 58 24 59 25 60 29 61 32 62 26 63 27 64 30 65 28 66
REMARK SMILES IDX 54 67 55 68 63 69 56 70 57 71 61 72 64 73 58 74 59 75 62 76
REMARK SMILES IDX 60 77 39 78 40 79 48 80 41 81 42 82 46 83 49 84 43 85 44 86
REMARK SMILES IDX 47 87 45 88
REMARK H PARENT 3 8 10 22 69 41 37 52
REMARK Flexibility Score: inf
ROOT
ATOM      1  C   UNL     1       4.812  -3.222   2.722  1.00  0.00     0.002 C 
ENDROOT
BRANCH   1   2
ATOM      2  C   UNL     1       4.245  -1.899   3.244  1.00  0.00     0.002 C 
BRANCH   2   3
ATOM      3  C   UNL     1       4.715  -0.638   2.522  1.00  0.00     0.021 C 
BRANCH   3   4
ATOM      4  C   UNL     1       4.479  -0.600   1.017  1.00  0.00     0.116 C 
BRANCH   4   5
ATOM      5  N   UNL     1       3.090  -0.727   0.621  1.00  0.00    -0.351 N 
ATOM      6  O   UNL     1       1.270  -0.337  -0.682  1.00  0.00    -0.268 OA
ATOM      7  C   UNL     1       2.416  -0.045  -0.369  1.00  0.00     0.268 C 
ATOM      8  H   UNL     1       2.559  -1.386   1.124  1.00  0.00     0.163 HD
BRANCH   7   9
ATOM      9  C   UNL     1       3.107   1.081  -1.080  1.00  0.00     0.140 C 
ATOM     10  N   UNL     1       2.813   2.337  -0.914  1.00  0.00    -0.148 NA
ATOM     11  C   UNL     1       4.318   0.846  -1.912  1.00  0.00     0.120 C 
ATOM     12  N   UNL     1       3.774   3.114  -1.656  1.00  0.00    -0.154 NA
ATOM     13  C   UNL     1       4.587   2.290  -2.235  1.00  0.00     0.076 C 
ATOM     14  C   UNL     1       4.336   0.083  -3.192  1.00  0.00    -0.010 C 
ATOM     15  C   UNL     1       5.748   2.591  -3.092  1.00  0.00     0.027 C 
ATOM     16  C   UNL     1       5.286   0.406  -4.090  1.00  0.00    -0.003 C 
ATOM     17  C   UNL     1       6.138   1.572  -3.879  1.00  0.00     0.002 C 
ENDBRANCH   7   9
ENDBRANCH   4   5
ENDBRANCH   3   4
ENDBRANCH   2   3
ENDBRANCH   1   2
BRANCH   1  18
ATOM     18  C   UNL     1       6.337  -3.317   2.663  1.00  0.00     0.021 C 
BRANCH  18  19
ATOM     19  C   UNL     1       7.061  -3.031   3.975  1.00  0.00     0.116 C 
BRANCH  19  20
ATOM     20  N   UNL     1       6.722  -3.982   5.021  1.00  0.00    -0.352 N 
ATOM     21  C   UNL     1       7.545  -4.760   5.797  1.00  0.00     0.251 C 
ATOM     22  H   UNL     1       5.759  -4.083   5.200  1.00  0.00     0.163 HD
ATOM     23  O   UNL     1       7.067  -5.633   6.518  1.00  0.00    -0.269 OA
BRANCH  21  24
ATOM     24  C   UNL     1       9.011  -4.570   5.750  1.00  0.00     0.039 A 
ATOM     25  C   UNL     1       9.835  -5.697   5.700  1.00  0.00     0.014 A 
ATOM     26  C   UNL     1       9.574  -3.292   5.759  1.00  0.00     0.014 A 
ATOM     27  C   UNL     1      11.219  -5.540   5.593  1.00  0.00     0.010 A 
ATOM     28  C   UNL     1      10.945  -3.136   5.567  1.00  0.00     0.010 A 
ATOM     29  C   UNL     1      11.783  -4.258   5.484  1.00  0.00    -0.014 A 
BRANCH  29  30
ATOM     30  C   UNL     1      13.243  -4.077   5.277  1.00  0.00     0.031 A 
ATOM     31  C   UNL     1      14.073  -3.353   6.300  1.00  0.00     0.074 A 
ATOM     32  C   UNL     1      13.814  -4.515   4.137  1.00  0.00     0.049 A 
ATOM     33  N   UNL     1      15.347  -3.046   6.269  1.00  0.00    -0.248 NA
ATOM     34  C   UNL     1      13.374  -2.887   7.507  1.00  0.00     0.031 C 
ATOM     35  C   UNL     1      13.110  -5.190   3.047  1.00  0.00     0.029 A 
ATOM     36  N   UNL     1      15.114  -4.448   3.701  1.00  0.00    -0.354 N 
ATOM     37  C   UNL     1      15.597  -2.352   7.445  1.00  0.00     0.074 A 
ATOM     38  C   UNL     1      14.331  -2.220   8.134  1.00  0.00     0.031 C 
ATOM     39  C   UNL     1      13.987  -5.495   2.079  1.00  0.00     0.029 A 
ATOM     40  C   UNL     1      15.306  -4.996   2.457  1.00  0.00     0.049 A 
ATOM     41  H   UNL     1      15.840  -4.045   4.231  1.00  0.00     0.167 HD
ATOM     42  C   UNL     1      16.778  -1.891   7.922  1.00  0.00     0.037 A 
ATOM     43  C   UNL     1      16.416  -5.075   1.697  1.00  0.00     0.037 A 
ATOM     44  C   UNL     1      18.036  -2.024   7.232  1.00  0.00     0.049 A 
ATOM     45  C   UNL     1      17.711  -4.523   2.231  1.00  0.00     0.074 A 
ATOM     46  C   UNL     1      19.295  -1.627   7.647  1.00  0.00     0.029 A 
ATOM     47  N   UNL     1      18.191  -2.589   5.973  1.00  0.00    -0.354 N 
ATOM     48  N   UNL     1      17.949  -3.928   3.374  1.00  0.00    -0.248 NA
ATOM     49  C   UNL     1      18.893  -4.662   1.370  1.00  0.00     0.031 C 
ATOM     50  C   UNL     1      20.200  -1.891   6.614  1.00  0.00     0.029 A 
ATOM     51  C   UNL     1      19.521  -2.522   5.584  1.00  0.00     0.049 A 
ATOM     52  H   UNL     1      17.465  -2.980   5.436  1.00  0.00     0.167 HD
ATOM     53  C   UNL     1      19.309  -3.648   3.384  1.00  0.00     0.074 A 
ATOM     54  C   UNL     1      19.846  -4.154   2.138  1.00  0.00     0.031 C 
ATOM     55  C   UNL     1      20.045  -3.029   4.340  1.00  0.00     0.037 A 
BRANCH  42  56
ATOM     56  C   UNL     1      16.761  -1.190   9.253  1.00  0.00     0.064 A 
ATOM     57  C   UNL     1      16.455  -1.871  10.442  1.00  0.00     0.173 A 
ATOM     58  C   UNL     1      17.070   0.176   9.345  1.00  0.00     0.173 A 
ATOM     59  F   UNL     1      16.144  -3.175  10.413  1.00  0.00    -0.203 F 
ATOM     60  C   UNL     1      16.415  -1.202  11.664  1.00  0.00     0.198 A 
ATOM     61  C   UNL     1      17.069   0.832  10.574  1.00  0.00     0.198 A 
ATOM     62  F   UNL     1      17.379   0.877   8.243  1.00  0.00    -0.203 F 
ATOM     63  F   UNL     1      16.053  -1.860  12.774  1.00  0.00    -0.200 F 
ATOM     64  C   UNL     1      16.728   0.146  11.729  1.00  0.00     0.200 A 
ATOM     65  F   UNL     1      17.389   2.132  10.637  1.00  0.00    -0.200 F 
ATOM     66  F   UNL     1      16.692   0.788  12.905  1.00  0.00    -0.200 F 
ENDBRANCH  42  56
BRANCH  43  67
ATOM     67  C   UNL     1      16.348  -5.710   0.354  1.00  0.00     0.064 A 
ATOM     68  C   UNL     1      16.994  -6.927   0.094  1.00  0.00     0.173 A 
ATOM     69  C   UNL     1      15.629  -5.117  -0.695  1.00  0.00     0.173 A 
ATOM     70  F   UNL     1      17.709  -7.524   1.057  1.00  0.00    -0.203 F 
ATOM     71  C   UNL     1      16.941  -7.514  -1.169  1.00  0.00     0.198 A 
ATOM     72  C   UNL     1      15.548  -5.723  -1.947  1.00  0.00     0.198 A 
ATOM     73  F   UNL     1      14.987  -3.956  -0.497  1.00  0.00    -0.203 F 
ATOM     74  F   UNL     1      17.607  -8.653  -1.404  1.00  0.00    -0.200 F 
ATOM     75  C   UNL     1      16.212  -6.916  -2.186  1.00  0.00     0.200 A 
ATOM     76  F   UNL     1      14.826  -5.151  -2.920  1.00  0.00    -0.200 F 
ATOM     77  F   UNL     1      16.152  -7.487  -3.396  1.00  0.00    -0.200 F 
ENDBRANCH  43  67
BRANCH  55  78
ATOM     78  C   UNL     1      21.523  -2.894   4.096  1.00  0.00     0.064 A 
ATOM     79  C   UNL     1      22.038  -2.042   3.108  1.00  0.00     0.173 A 
ATOM     80  C   UNL     1      22.439  -3.603   4.891  1.00  0.00     0.173 A 
ATOM     81  F   UNL     1      21.208  -1.352   2.311  1.00  0.00    -0.203 F 
ATOM     82  C   UNL     1      23.411  -1.927   2.905  1.00  0.00     0.198 A 
ATOM     83  C   UNL     1      23.811  -3.457   4.710  1.00  0.00     0.198 A 
ATOM     84  F   UNL     1      22.002  -4.426   5.856  1.00  0.00    -0.203 F 
ATOM     85  F   UNL     1      23.878  -1.150   1.917  1.00  0.00    -0.200 F 
ATOM     86  C   UNL     1      24.296  -2.627   3.711  1.00  0.00     0.200 A 
ATOM     87  F   UNL     1      24.664  -4.120   5.503  1.00  0.00    -0.200 F 
ATOM     88  F   UNL     1      25.617  -2.508   3.520  1.00  0.00    -0.200 F 
ENDBRANCH  55  78
ENDBRANCH  29  30
ENDBRANCH  21  24
ENDBRANCH  19  20
ENDBRANCH  18  19
ENDBRANCH   1  18
TORSDOF 13
