REMARK SMILES O=C(NCCCCCCNC(=O)c1cc(S(=O)(=O)N2CCCCC2)c(Cl)cc1Cl)c1ccc(-c2c3nc(c(-c4c(F)c(F)c(F)c(F)c4F)c4ccc([nH]4)c(-c4c(F)c(F)c(F)c(F)c4F)c4nc(c(-c5c(F)c(F)c(F)c(F)c5F)c5ccc2[nH]5)C=C4)C=C3)cc1
REMARK SMILES IDX 6 1 5 2 4 3 3 4 1 5 2 6 30 8 31 9 92 10 32 11 91 12 33 13
REMARK SMILES IDX 34 14 35 15 85 16 36 17 90 18 84 19 86 20 37 21 89 22 83 23
REMARK SMILES IDX 82 24 38 26 70 27 50 28 69 29 51 30 54 31 68 32 87 33 52 34
REMARK SMILES IDX 53 35 67 37 88 38 55 39 39 40 40 41 48 42 41 43 42 44 46 45
REMARK SMILES IDX 49 46 43 47 44 48 47 49 45 50 71 51 72 52 80 53 73 54 74 55
REMARK SMILES IDX 78 56 81 57 75 58 76 59 79 60 77 61 56 62 57 63 65 64 58 65
REMARK SMILES IDX 59 66 63 67 66 68 60 69 61 70 64 71 62 72 7 73 8 74 9 75
REMARK SMILES IDX 10 76 11 77 12 79 13 80 14 81 28 82 15 83 27 84 29 85 25 86
REMARK SMILES IDX 26 87 16 88 17 89 18 90 19 91 20 92 24 93 21 94 23 95 22 96
REMARK H PARENT 3 7 86 25 54 36 10 78
REMARK Flexibility Score: inf
ROOT
ATOM      1  C   UNL     1       4.103  -3.334  -1.959  1.00  0.00     0.002 C 
ENDROOT
BRANCH   1   2
ATOM      2  C   UNL     1       4.569  -2.587  -0.710  1.00  0.00     0.021 C 
BRANCH   2   3
ATOM      3  C   UNL     1       4.385  -1.076  -0.739  1.00  0.00     0.116 C 
BRANCH   3   4
ATOM      4  N   UNL     1       2.992  -0.668  -0.793  1.00  0.00    -0.352 N 
ATOM      5  O   UNL     1       1.101   0.372  -0.130  1.00  0.00    -0.269 OA
ATOM      6  C   UNL     1       2.315   0.238  -0.010  1.00  0.00     0.251 C 
ATOM      7  H   UNL     1       2.453  -1.103  -1.493  1.00  0.00     0.163 HD
BRANCH   6   8
ATOM      8  C   UNL     1       3.043   1.029   1.008  1.00  0.00     0.039 A 
ATOM      9  C   UNL     1       4.265   1.637   0.713  1.00  0.00     0.014 A 
ATOM     10  C   UNL     1       2.488   1.163   2.285  1.00  0.00     0.014 A 
ATOM     11  C   UNL     1       5.002   2.237   1.730  1.00  0.00     0.010 A 
ATOM     12  C   UNL     1       3.194   1.837   3.287  1.00  0.00     0.010 A 
ATOM     13  C   UNL     1       4.477   2.341   3.029  1.00  0.00    -0.014 A 
BRANCH  13  14
ATOM     14  C   UNL     1       5.287   2.995   4.089  1.00  0.00     0.031 A 
ATOM     15  C   UNL     1       5.812   2.210   5.260  1.00  0.00     0.074 A 
ATOM     16  C   UNL     1       5.592   4.301   3.965  1.00  0.00     0.049 A 
ATOM     17  N   UNL     1       6.588   2.608   6.239  1.00  0.00    -0.248 NA
ATOM     18  C   UNL     1       5.408   0.799   5.354  1.00  0.00     0.031 C 
ATOM     19  C   UNL     1       5.126   5.172   2.885  1.00  0.00     0.029 A 
ATOM     20  N   UNL     1       6.384   5.115   4.733  1.00  0.00    -0.354 N 
ATOM     21  C   UNL     1       6.744   1.509   7.074  1.00  0.00     0.074 A 
ATOM     22  C   UNL     1       5.966   0.431   6.500  1.00  0.00     0.031 C 
ATOM     23  C   UNL     1       5.686   6.383   3.026  1.00  0.00     0.029 A 
ATOM     24  C   UNL     1       6.512   6.386   4.229  1.00  0.00     0.049 A 
ATOM     25  H   UNL     1       6.818   4.817   5.565  1.00  0.00     0.167 HD
ATOM     26  C   UNL     1       7.475   1.407   8.210  1.00  0.00     0.037 A 
ATOM     27  C   UNL     1       7.220   7.436   4.683  1.00  0.00     0.037 A 
ATOM     28  C   UNL     1       8.277   2.468   8.762  1.00  0.00     0.049 A 
ATOM     29  C   UNL     1       8.040   7.287   5.931  1.00  0.00     0.074 A 
ATOM     30  C   UNL     1       9.090   2.443   9.883  1.00  0.00     0.029 A 
ATOM     31  N   UNL     1       8.370   3.745   8.231  1.00  0.00    -0.354 N 
ATOM     32  N   UNL     1       8.209   6.231   6.688  1.00  0.00    -0.248 NA
ATOM     33  C   UNL     1       8.767   8.479   6.389  1.00  0.00     0.031 C 
ATOM     34  C   UNL     1       9.649   3.715  10.048  1.00  0.00     0.029 A 
ATOM     35  C   UNL     1       9.214   4.522   9.010  1.00  0.00     0.049 A 
ATOM     36  H   UNL     1       7.904   4.055   7.421  1.00  0.00     0.167 HD
ATOM     37  C   UNL     1       9.072   6.622   7.700  1.00  0.00     0.074 A 
ATOM     38  C   UNL     1       9.408   8.010   7.451  1.00  0.00     0.031 C 
ATOM     39  C   UNL     1       9.541   5.899   8.745  1.00  0.00     0.037 A 
BRANCH  26  40
ATOM     40  C   UNL     1       7.435   0.101   8.948  1.00  0.00     0.064 A 
ATOM     41  C   UNL     1       8.111  -1.033   8.476  1.00  0.00     0.173 A 
ATOM     42  C   UNL     1       6.751  -0.002  10.169  1.00  0.00     0.173 A 
ATOM     43  F   UNL     1       8.770  -0.989   7.309  1.00  0.00    -0.203 F 
ATOM     44  C   UNL     1       8.088  -2.229   9.191  1.00  0.00     0.198 A 
ATOM     45  C   UNL     1       6.749  -1.192  10.892  1.00  0.00     0.198 A 
ATOM     46  F   UNL     1       6.094   1.056  10.667  1.00  0.00    -0.203 F 
ATOM     47  F   UNL     1       8.712  -3.310   8.704  1.00  0.00    -0.200 F 
ATOM     48  C   UNL     1       7.413  -2.305  10.400  1.00  0.00     0.200 A 
ATOM     49  F   UNL     1       6.105  -1.261  12.066  1.00  0.00    -0.200 F 
ATOM     50  F   UNL     1       7.399  -3.455  11.090  1.00  0.00    -0.200 F 
ENDBRANCH  26  40
BRANCH  27  51
ATOM     51  C   UNL     1       7.205   8.713   3.926  1.00  0.00     0.064 A 
ATOM     52  C   UNL     1       8.334   9.138   3.213  1.00  0.00     0.173 A 
ATOM     53  C   UNL     1       6.060   9.521   3.885  1.00  0.00     0.173 A 
ATOM     54  F   UNL     1       9.457   8.406   3.239  1.00  0.00    -0.203 F 
ATOM     55  C   UNL     1       8.321  10.330   2.493  1.00  0.00     0.198 A 
ATOM     56  C   UNL     1       6.040  10.700   3.144  1.00  0.00     0.198 A 
ATOM     57  F   UNL     1       4.954   9.153   4.548  1.00  0.00    -0.203 F 
ATOM     58  F   UNL     1       9.424  10.731   1.845  1.00  0.00    -0.200 F 
ATOM     59  C   UNL     1       7.173  11.107   2.454  1.00  0.00     0.200 A 
ATOM     60  F   UNL     1       4.925  11.441   3.097  1.00  0.00    -0.200 F 
ATOM     61  F   UNL     1       7.158  12.249   1.754  1.00  0.00    -0.200 F 
ENDBRANCH  27  51
BRANCH  39  62
ATOM     62  C   UNL     1      10.487   6.589   9.681  1.00  0.00     0.064 A 
ATOM     63  C   UNL     1      10.037   7.546  10.602  1.00  0.00     0.173 A 
ATOM     64  C   UNL     1      11.854   6.276   9.668  1.00  0.00     0.173 A 
ATOM     65  F   UNL     1       8.741   7.889  10.639  1.00  0.00    -0.203 F 
ATOM     66  C   UNL     1      10.927   8.184  11.460  1.00  0.00     0.198 A 
ATOM     67  C   UNL     1      12.738   6.900  10.544  1.00  0.00     0.198 A 
ATOM     68  F   UNL     1      12.331   5.366   8.806  1.00  0.00    -0.203 F 
ATOM     69  F   UNL     1      10.484   9.128  12.302  1.00  0.00    -0.200 F 
ATOM     70  C   UNL     1      12.275   7.857  11.434  1.00  0.00     0.200 A 
ATOM     71  F   UNL     1      14.039   6.579  10.522  1.00  0.00    -0.200 F 
ATOM     72  F   UNL     1      13.131   8.474  12.260  1.00  0.00    -0.200 F 
ENDBRANCH  39  62
ENDBRANCH  13  14
ENDBRANCH   6   8
ENDBRANCH   3   4
ENDBRANCH   2   3
ENDBRANCH   1   2
BRANCH   1  73
ATOM     73  C   UNL     1       4.686  -2.852  -3.290  1.00  0.00     0.002 C 
BRANCH  73  74
ATOM     74  C   UNL     1       6.213  -2.757  -3.368  1.00  0.00     0.021 C 
BRANCH  74  75
ATOM     75  C   UNL     1       6.979  -4.007  -2.947  1.00  0.00     0.116 C 
BRANCH  75  76
ATOM     76  N   UNL     1       6.609  -5.180  -3.719  1.00  0.00    -0.352 N 
ATOM     77  C   UNL     1       7.383  -6.002  -4.495  1.00  0.00     0.252 C 
ATOM     78  H   UNL     1       5.655  -5.422  -3.678  1.00  0.00     0.163 HD
ATOM     79  O   UNL     1       6.890  -6.955  -5.087  1.00  0.00    -0.269 OA
BRANCH  77  80
ATOM     80  C   UNL     1       8.832  -5.756  -4.588  1.00  0.00     0.059 A 
ATOM     81  C   UNL     1       9.602  -5.817  -3.420  1.00  0.00     0.038 A 
ATOM     82  C   UNL     1       9.447  -5.475  -5.801  1.00  0.00     0.055 A 
ATOM     83  C   UNL     1      10.986  -5.526  -3.425  1.00  0.00     0.102 A 
ATOM     84  C   UNL     1      10.823  -5.240  -5.823  1.00  0.00     0.043 A 
ATOM     85  Cl  UNL     1       8.582  -5.338  -7.286  1.00  0.00    -0.083 Cl
ATOM     86  C   UNL     1      11.599  -5.254  -4.646  1.00  0.00     0.062 A 
ATOM     87  Cl  UNL     1      13.257  -4.911  -4.925  1.00  0.00    -0.083 Cl
BRANCH  83  88
ATOM     88  S   UNL     1      11.661  -5.482  -1.776  1.00  0.00     0.244 S 
ATOM     89  O   UNL     1      11.026  -4.330  -1.165  1.00  0.00    -0.207 OA
ATOM     90  O   UNL     1      11.424  -6.811  -1.248  1.00  0.00    -0.207 OA
BRANCH  88  91
ATOM     91  N   UNL     1      13.325  -5.224  -1.740  1.00  0.00    -0.198 NA
ATOM     92  C   UNL     1      14.195  -6.369  -2.078  1.00  0.00     0.102 C 
ATOM     93  C   UNL     1      13.804  -3.829  -1.857  1.00  0.00     0.102 C 
ATOM     94  C   UNL     1      15.675  -6.099  -1.863  1.00  0.00     0.017 C 
ATOM     95  C   UNL     1      15.307  -3.671  -1.685  1.00  0.00     0.017 C 
ATOM     96  C   UNL     1      16.091  -4.747  -2.412  1.00  0.00     0.003 C 
ENDBRANCH  88  91
ENDBRANCH  83  88
ENDBRANCH  77  80
ENDBRANCH  75  76
ENDBRANCH  74  75
ENDBRANCH  73  74
ENDBRANCH   1  73
TORSDOF 15
