REMARK SMILES CN(CC(=O)NCCCCCCNC(=O)c1ccc(-c2c3nc(c(-c4c(F)c(F)c(F)c(F)c4F)c4ccc([nH]4)c(-c4c(F)c(F)c(F)c(F)c4F)c4nc(c(-c5c(F)c(F)c(F)c(F)c5F)c5ccc2[nH]5)C=C4)C=C3)cc1)C(=O)c1ccccn1
REMARK SMILES IDX 9 1 8 2 7 3 6 4 4 5 5 6 3 8 2 9 1 10 79 11 80 12 81 13 82 14
REMARK SMILES IDX 86 15 83 16 85 17 84 18 10 19 11 20 12 21 13 22 14 23 15 25
REMARK SMILES IDX 16 26 17 27 78 28 18 29 77 30 19 31 20 32 21 33 71 34 22 35
REMARK SMILES IDX 76 36 70 37 72 38 23 39 75 40 69 41 68 42 24 44 56 45 36 46
REMARK SMILES IDX 55 47 37 48 40 49 54 50 73 51 38 52 39 53 53 55 74 56 41 57
REMARK SMILES IDX 25 58 26 59 34 60 27 61 28 62 32 63 35 64 29 65 30 66 33 67
REMARK SMILES IDX 31 68 57 69 58 70 66 71 59 72 60 73 64 74 67 75 61 76 62 77
REMARK SMILES IDX 65 78 63 79 42 80 43 81 51 82 44 83 45 84 49 85 52 86 46 87
REMARK SMILES IDX 47 88 50 89 48 90
REMARK H PARENT 6 7 13 24 72 43 40 54
REMARK Flexibility Score: inf
ROOT
ATOM      1  C   UNL     1      -3.538   0.137  -2.256  1.00  0.00     0.002 C 
ENDROOT
BRANCH   1   2
ATOM      2  C   UNL     1      -2.170   0.306  -1.581  1.00  0.00     0.021 C 
BRANCH   2   3
ATOM      3  C   UNL     1      -2.195   0.206  -0.056  1.00  0.00     0.116 C 
BRANCH   3   4
ATOM      4  N   UNL     1      -2.544  -1.116   0.416  1.00  0.00    -0.355 N 
ATOM      5  C   UNL     1      -1.761  -2.083   0.973  1.00  0.00     0.239 C 
ATOM      6  O   UNL     1      -2.344  -3.028   1.514  1.00  0.00    -0.273 OA
ATOM      7  H   UNL     1      -3.494  -1.355   0.319  1.00  0.00     0.163 HD
BRANCH   5   8
ATOM      8  C   UNL     1      -0.229  -1.954   1.066  1.00  0.00     0.219 C 
BRANCH   8   9
ATOM      9  N   UNL     1       0.468  -1.442  -0.121  1.00  0.00    -0.331 N 
ATOM     10  C   UNL     1       1.209  -0.196   0.000  1.00  0.00     0.147 C 
BRANCH   9  11
ATOM     11  C   UNL     1       0.751  -2.211  -1.263  1.00  0.00     0.272 C 
ATOM     12  O   UNL     1       1.393  -1.758  -2.211  1.00  0.00    -0.267 OA
BRANCH  11  13
ATOM     13  C   UNL     1       0.285  -3.625  -1.337  1.00  0.00     0.128 A 
ATOM     14  C   UNL     1      -1.065  -3.917  -1.480  1.00  0.00     0.034 A 
ATOM     15  N   UNL     1       1.260  -4.570  -1.286  1.00  0.00    -0.251 NA
ATOM     16  C   UNL     1      -1.446  -5.255  -1.519  1.00  0.00     0.004 A 
ATOM     17  C   UNL     1       0.859  -5.855  -1.373  1.00  0.00     0.112 A 
ATOM     18  C   UNL     1      -0.468  -6.244  -1.472  1.00  0.00     0.020 A 
ENDBRANCH  11  13
ENDBRANCH   9  11
ENDBRANCH   8   9
ENDBRANCH   5   8
ENDBRANCH   3   4
ENDBRANCH   2   3
ENDBRANCH   1   2
BRANCH   1  19
ATOM     19  C   UNL     1      -4.649   1.059  -1.742  1.00  0.00     0.002 C 
BRANCH  19  20
ATOM     20  C   UNL     1      -4.318   2.553  -1.754  1.00  0.00     0.021 C 
BRANCH  20  21
ATOM     21  C   UNL     1      -4.022   3.130  -3.134  1.00  0.00     0.116 C 
BRANCH  21  22
ATOM     22  N   UNL     1      -5.185   3.090  -4.007  1.00  0.00    -0.352 N 
ATOM     23  C   UNL     1      -5.818   4.111  -4.669  1.00  0.00     0.251 C 
ATOM     24  H   UNL     1      -5.577   2.196  -4.142  1.00  0.00     0.163 HD
ATOM     25  O   UNL     1      -6.910   3.916  -5.201  1.00  0.00    -0.269 OA
BRANCH  23  26
ATOM     26  C   UNL     1      -5.203   5.454  -4.730  1.00  0.00     0.039 A 
ATOM     27  C   UNL     1      -6.012   6.577  -4.535  1.00  0.00     0.014 A 
ATOM     28  C   UNL     1      -3.840   5.611  -4.994  1.00  0.00     0.014 A 
ATOM     29  C   UNL     1      -5.442   7.852  -4.542  1.00  0.00     0.010 A 
ATOM     30  C   UNL     1      -3.260   6.876  -4.924  1.00  0.00     0.010 A 
ATOM     31  C   UNL     1      -4.056   8.010  -4.700  1.00  0.00    -0.014 A 
BRANCH  31  32
ATOM     32  C   UNL     1      -3.422   9.352  -4.630  1.00  0.00     0.031 A 
ATOM     33  C   UNL     1      -2.716   9.922  -5.829  1.00  0.00     0.074 A 
ATOM     34  C   UNL     1      -3.433  10.033  -3.467  1.00  0.00     0.049 A 
ATOM     35  N   UNL     1      -2.054  11.046  -5.943  1.00  0.00    -0.248 NA
ATOM     36  C   UNL     1      -2.734   9.111  -7.056  1.00  0.00     0.031 C 
ATOM     37  C   UNL     1      -4.047   9.569  -2.222  1.00  0.00     0.029 A 
ATOM     38  N   UNL     1      -2.905  11.257  -3.139  1.00  0.00    -0.354 N 
ATOM     39  C   UNL     1      -1.571  11.070  -7.245  1.00  0.00     0.074 A 
ATOM     40  C   UNL     1      -1.966   9.824  -7.865  1.00  0.00     0.031 C 
ATOM     41  C   UNL     1      -3.881  10.504  -1.274  1.00  0.00     0.029 A 
ATOM     42  C   UNL     1      -3.112  11.614  -1.829  1.00  0.00     0.049 A 
ATOM     43  H   UNL     1      -2.422  11.825  -3.782  1.00  0.00     0.167 HD
ATOM     44  C   UNL     1      -0.882  12.053  -7.874  1.00  0.00     0.037 A 
ATOM     45  C   UNL     1      -2.718  12.707  -1.149  1.00  0.00     0.037 A 
ATOM     46  C   UNL     1      -0.505  13.299  -7.258  1.00  0.00     0.049 A 
ATOM     47  C   UNL     1      -1.932  13.773  -1.865  1.00  0.00     0.074 A 
ATOM     48  C   UNL     1       0.145  14.380  -7.827  1.00  0.00     0.029 A 
ATOM     49  N   UNL     1      -0.739  13.627  -5.930  1.00  0.00    -0.354 N 
ATOM     50  N   UNL     1      -1.545  13.817  -3.117  1.00  0.00    -0.248 NA
ATOM     51  C   UNL     1      -1.534  14.946  -1.074  1.00  0.00     0.031 C 
ATOM     52  C   UNL     1       0.356  15.338  -6.830  1.00  0.00     0.029 A 
ATOM     53  C   UNL     1      -0.219  14.882  -5.655  1.00  0.00     0.049 A 
ATOM     54  H   UNL     1      -1.205  13.053  -5.280  1.00  0.00     0.167 HD
ATOM     55  C   UNL     1      -0.887  15.030  -3.271  1.00  0.00     0.074 A 
ATOM     56  C   UNL     1      -0.943  15.700  -1.989  1.00  0.00     0.031 C 
ATOM     57  C   UNL     1      -0.288  15.541  -4.375  1.00  0.00     0.037 A 
BRANCH  44  58
ATOM     58  C   UNL     1      -0.488  11.822  -9.305  1.00  0.00     0.064 A 
ATOM     59  C   UNL     1      -1.441  11.779 -10.335  1.00  0.00     0.173 A 
ATOM     60  C   UNL     1       0.863  11.685  -9.659  1.00  0.00     0.173 A 
ATOM     61  F   UNL     1      -2.747  11.895 -10.051  1.00  0.00    -0.203 F 
ATOM     62  C   UNL     1      -1.059  11.578 -11.659  1.00  0.00     0.198 A 
ATOM     63  C   UNL     1       1.244  11.518 -10.989  1.00  0.00     0.198 A 
ATOM     64  F   UNL     1       1.817  11.726  -8.717  1.00  0.00    -0.203 F 
ATOM     65  F   UNL     1      -1.992  11.489 -12.617  1.00  0.00    -0.200 F 
ATOM     66  C   UNL     1       0.283  11.456 -11.986  1.00  0.00     0.200 A 
ATOM     67  F   UNL     1       2.543  11.418 -11.304  1.00  0.00    -0.200 F 
ATOM     68  F   UNL     1       0.649  11.274 -13.262  1.00  0.00    -0.200 F 
ENDBRANCH  44  58
BRANCH  45  69
ATOM     69  C   UNL     1      -3.070  12.860   0.288  1.00  0.00     0.064 A 
ATOM     70  C   UNL     1      -3.963  13.855   0.711  1.00  0.00     0.173 A 
ATOM     71  C   UNL     1      -2.512  12.027   1.270  1.00  0.00     0.173 A 
ATOM     72  F   UNL     1      -4.508  14.690  -0.186  1.00  0.00    -0.203 F 
ATOM     73  C   UNL     1      -4.263  14.029   2.061  1.00  0.00     0.198 A 
ATOM     74  C   UNL     1      -2.838  12.180   2.615  1.00  0.00     0.198 A 
ATOM     75  F   UNL     1      -1.657  11.055   0.920  1.00  0.00    -0.203 F 
ATOM     76  F   UNL     1      -5.077  15.023   2.441  1.00  0.00    -0.200 F 
ATOM     77  C   UNL     1      -3.705  13.188   3.011  1.00  0.00     0.200 A 
ATOM     78  F   UNL     1      -2.309  11.355   3.529  1.00  0.00    -0.200 F 
ATOM     79  F   UNL     1      -3.994  13.354   4.309  1.00  0.00    -0.200 F 
ENDBRANCH  45  69
BRANCH  57  80
ATOM     80  C   UNL     1       0.321  16.910  -4.258  1.00  0.00     0.064 A 
ATOM     81  C   UNL     1       1.482  17.140  -3.505  1.00  0.00     0.173 A 
ATOM     82  C   UNL     1      -0.245  17.998  -4.941  1.00  0.00     0.173 A 
ATOM     83  F   UNL     1       2.054  16.137  -2.821  1.00  0.00    -0.203 F 
ATOM     84  C   UNL     1       2.036  18.415  -3.416  1.00  0.00     0.198 A 
ATOM     85  C   UNL     1       0.333  19.263  -4.878  1.00  0.00     0.198 A 
ATOM     86  F   UNL     1      -1.351  17.832  -5.681  1.00  0.00    -0.203 F 
ATOM     87  F   UNL     1       3.114  18.622  -2.647  1.00  0.00    -0.200 F 
ATOM     88  C   UNL     1       1.467  19.473  -4.109  1.00  0.00     0.200 A 
ATOM     89  F   UNL     1      -0.210  20.280  -5.561  1.00  0.00    -0.200 F 
ATOM     90  F   UNL     1       2.007  20.696  -4.029  1.00  0.00    -0.200 F 
ENDBRANCH  57  80
ENDBRANCH  31  32
ENDBRANCH  23  26
ENDBRANCH  21  22
ENDBRANCH  20  21
ENDBRANCH  19  20
ENDBRANCH   1  19
TORSDOF 16
