REMARK SMILES O=C(NCCCCCCNC(=O)c1ccccc1C(=O)Nc1ccc(N2C(=O)[C@H]3[C@@H]4CC[C@@H](C4)[C@@H]3C2=O)cc1)c1ccc(-c2c3nc(c(-c4c(F)c(F)c(F)c(F)c4F)c4ccc([nH]4)c(-c4c(F)c(F)c(F)c(F)c4F)c4nc(c(-c5c(F)c(F)c(F)c(F)c5F)c5ccc2[nH]5)C=C4)C=C3)cc1
REMARK SMILES IDX 7 1 6 2 5 3 4 4 3 5 1 6 2 7 40 9 41 10 102 11 42 12 101 13
REMARK SMILES IDX 43 14 44 15 45 16 95 17 46 18 100 19 94 20 96 21 47 22 99 23
REMARK SMILES IDX 93 24 92 25 48 27 80 28 60 29 79 30 61 31 64 32 78 33 97 34
REMARK SMILES IDX 62 35 63 36 77 38 98 39 65 40 49 41 50 42 58 43 51 44 52 45
REMARK SMILES IDX 56 46 59 47 53 48 54 49 57 50 55 51 81 52 82 53 90 54 83 55
REMARK SMILES IDX 84 56 88 57 91 58 85 59 86 60 89 61 87 62 66 63 67 64 75 65
REMARK SMILES IDX 68 66 69 67 73 68 76 69 70 70 71 71 74 72 72 73 8 74 9 75
REMARK SMILES IDX 10 76 11 77 12 79 13 80 14 81 18 82 15 83 17 84 16 85 19 86
REMARK SMILES IDX 20 87 21 88 22 90 23 91 39 92 24 93 38 94 25 95 26 96 27 97
REMARK SMILES IDX 36 98 28 99 29 100 35 101 37 102 30 103 33 104 31 105 34 106
REMARK SMILES IDX 32 107
REMARK H PARENT 3 8 96 26 64 37 10 78 21 89
REMARK Flexibility Score: inf
ROOT
ATOM      1  C   UNL     1       4.963   4.066   0.089  1.00  0.00     0.002 C 
ENDROOT
BRANCH   1   2
ATOM      2  C   UNL     1       4.574   3.412  -1.240  1.00  0.00     0.002 C 
BRANCH   2   3
ATOM      3  C   UNL     1       4.906   1.937  -1.383  1.00  0.00     0.021 C 
BRANCH   3   4
ATOM      4  C   UNL     1       4.482   1.082  -0.209  1.00  0.00     0.116 C 
BRANCH   4   5
ATOM      5  N   UNL     1       3.041   1.041  -0.015  1.00  0.00    -0.352 N 
ATOM      6  O   UNL     1       1.029   0.020   0.224  1.00  0.00    -0.269 OA
ATOM      7  C   UNL     1       2.251  -0.066   0.188  1.00  0.00     0.251 C 
ATOM      8  H   UNL     1       2.576   1.909  -0.032  1.00  0.00     0.163 HD
BRANCH   7   9
ATOM      9  C   UNL     1       2.914  -1.378   0.324  1.00  0.00     0.039 A 
ATOM     10  C   UNL     1       4.027  -1.505   1.159  1.00  0.00     0.014 A 
ATOM     11  C   UNL     1       2.483  -2.452  -0.455  1.00  0.00     0.014 A 
ATOM     12  C   UNL     1       4.813  -2.642   1.078  1.00  0.00     0.010 A 
ATOM     13  C   UNL     1       3.205  -3.647  -0.433  1.00  0.00     0.010 A 
ATOM     14  C   UNL     1       4.391  -3.741   0.312  1.00  0.00    -0.014 A 
BRANCH  14  15
ATOM     15  C   UNL     1       5.159  -5.006   0.398  1.00  0.00     0.031 A 
ATOM     16  C   UNL     1       5.815  -5.616  -0.806  1.00  0.00     0.074 A 
ATOM     17  C   UNL     1       5.269  -5.592   1.607  1.00  0.00     0.049 A 
ATOM     18  N   UNL     1       6.505  -6.726  -0.892  1.00  0.00    -0.248 NA
ATOM     19  C   UNL     1       5.674  -4.899  -2.082  1.00  0.00     0.031 C 
ATOM     20  C   UNL     1       4.664  -5.086   2.843  1.00  0.00     0.029 A 
ATOM     21  N   UNL     1       5.934  -6.722   2.004  1.00  0.00    -0.354 N 
ATOM     22  C   UNL     1       6.862  -6.852  -2.228  1.00  0.00     0.074 A 
ATOM     23  C   UNL     1       6.290  -5.718  -2.924  1.00  0.00     0.031 C 
ATOM     24  C   UNL     1       5.028  -5.869   3.866  1.00  0.00     0.029 A 
ATOM     25  C   UNL     1       5.812  -6.981   3.347  1.00  0.00     0.049 A 
ATOM     26  H   UNL     1       6.448  -7.292   1.388  1.00  0.00     0.167 HD
ATOM     27  C   UNL     1       7.603  -7.826  -2.812  1.00  0.00     0.037 A 
ATOM     28  C   UNL     1       6.251  -8.019   4.079  1.00  0.00     0.037 A 
ATOM     29  C   UNL     1       8.168  -8.947  -2.100  1.00  0.00     0.049 A 
ATOM     30  C   UNL     1       7.027  -9.104   3.394  1.00  0.00     0.074 A 
ATOM     31  C   UNL     1       8.960  -9.970  -2.592  1.00  0.00     0.029 A 
ATOM     32  N   UNL     1       7.993  -9.196  -0.745  1.00  0.00    -0.354 N 
ATOM     33  N   UNL     1       7.385  -9.196   2.137  1.00  0.00    -0.248 NA
ATOM     34  C   UNL     1       7.456 -10.231   4.229  1.00  0.00     0.031 C 
ATOM     35  C   UNL     1       9.209 -10.871  -1.552  1.00  0.00     0.029 A 
ATOM     36  C   UNL     1       8.635 -10.374  -0.393  1.00  0.00     0.049 A 
ATOM     37  H   UNL     1       7.488  -8.621  -0.126  1.00  0.00     0.167 HD
ATOM     38  C   UNL     1       8.102 -10.378   2.033  1.00  0.00     0.074 A 
ATOM     39  C   UNL     1       8.146 -10.956   3.361  1.00  0.00     0.031 C 
ATOM     40  C   UNL     1       8.672 -10.935   0.935  1.00  0.00     0.037 A 
BRANCH  27  41
ATOM     41  C   UNL     1       7.825  -7.746  -4.297  1.00  0.00     0.064 A 
ATOM     42  C   UNL     1       8.635  -6.757  -4.875  1.00  0.00     0.173 A 
ATOM     43  C   UNL     1       7.260  -8.707  -5.151  1.00  0.00     0.173 A 
ATOM     44  F   UNL     1       9.195  -5.810  -4.107  1.00  0.00    -0.203 F 
ATOM     45  C   UNL     1       8.849  -6.717  -6.251  1.00  0.00     0.198 A 
ATOM     46  C   UNL     1       7.502  -8.683  -6.523  1.00  0.00     0.198 A 
ATOM     47  F   UNL     1       6.484  -9.682  -4.654  1.00  0.00    -0.203 F 
ATOM     48  F   UNL     1       9.589  -5.734  -6.784  1.00  0.00    -0.200 F 
ATOM     49  C   UNL     1       8.289  -7.684  -7.073  1.00  0.00     0.200 A 
ATOM     50  F   UNL     1       6.974  -9.629  -7.312  1.00  0.00    -0.200 F 
ATOM     51  F   UNL     1       8.505  -7.649  -8.395  1.00  0.00    -0.200 F 
ENDBRANCH  27  41
BRANCH  28  52
ATOM     52  C   UNL     1       5.944  -8.079   5.531  1.00  0.00     0.064 A 
ATOM     53  C   UNL     1       6.962  -7.980   6.489  1.00  0.00     0.173 A 
ATOM     54  C   UNL     1       4.626  -8.224   5.992  1.00  0.00     0.173 A 
ATOM     55  F   UNL     1       8.239  -7.853   6.099  1.00  0.00    -0.203 F 
ATOM     56  C   UNL     1       6.675  -8.046   7.851  1.00  0.00     0.198 A 
ATOM     57  C   UNL     1       4.337  -8.252   7.353  1.00  0.00     0.198 A 
ATOM     58  F   UNL     1       3.614  -8.312   5.116  1.00  0.00    -0.203 F 
ATOM     59  F   UNL     1       7.672  -7.999   8.745  1.00  0.00    -0.200 F 
ATOM     60  C   UNL     1       5.363  -8.175   8.282  1.00  0.00     0.200 A 
ATOM     61  F   UNL     1       3.066  -8.352   7.764  1.00  0.00    -0.200 F 
ATOM     62  F   UNL     1       5.088  -8.231   9.592  1.00  0.00    -0.200 F 
ENDBRANCH  28  52
BRANCH  40  63
ATOM     63  C   UNL     1       9.429 -12.216   1.138  1.00  0.00     0.064 A 
ATOM     64  C   UNL     1       8.778 -13.420   1.445  1.00  0.00     0.173 A 
ATOM     65  C   UNL     1      10.825 -12.241   1.000  1.00  0.00     0.173 A 
ATOM     66  F   UNL     1       7.446 -13.447   1.606  1.00  0.00    -0.203 F 
ATOM     67  C   UNL     1       9.500 -14.595   1.639  1.00  0.00     0.198 A 
ATOM     68  C   UNL     1      11.540 -13.424   1.157  1.00  0.00     0.198 A 
ATOM     69  F   UNL     1      11.496 -11.118   0.703  1.00  0.00    -0.203 F 
ATOM     70  F   UNL     1       8.864 -15.720   1.991  1.00  0.00    -0.200 F 
ATOM     71  C   UNL     1      10.879 -14.597   1.486  1.00  0.00     0.200 A 
ATOM     72  F   UNL     1      12.870 -13.428   0.994  1.00  0.00    -0.200 F 
ATOM     73  F   UNL     1      11.572 -15.730   1.666  1.00  0.00    -0.200 F 
ENDBRANCH  40  63
ENDBRANCH  14  15
ENDBRANCH   7   9
ENDBRANCH   4   5
ENDBRANCH   3   4
ENDBRANCH   2   3
ENDBRANCH   1   2
BRANCH   1  74
ATOM     74  C   UNL     1       6.447   3.951   0.471  1.00  0.00     0.021 C 
BRANCH  74  75
ATOM     75  C   UNL     1       7.381   4.742  -0.439  1.00  0.00     0.116 C 
BRANCH  75  76
ATOM     76  N   UNL     1       7.160   6.167  -0.306  1.00  0.00    -0.352 N 
ATOM     77  C   UNL     1       7.933   7.215  -0.711  1.00  0.00     0.252 C 
ATOM     78  H   UNL     1       6.322   6.417   0.145  1.00  0.00     0.163 HD
ATOM     79  O   UNL     1       7.655   8.352  -0.331  1.00  0.00    -0.269 OA
BRANCH  77  80
ATOM     80  C   UNL     1       9.170   7.016  -1.489  1.00  0.00     0.052 A 
ATOM     81  C   UNL     1      10.286   7.636  -0.877  1.00  0.00     0.014 A 
ATOM     82  C   UNL     1       9.336   6.296  -2.682  1.00  0.00     0.052 A 
ATOM     83  C   UNL     1      11.576   7.467  -1.370  1.00  0.00     0.001 A 
ATOM     84  C   UNL     1      10.666   6.110  -3.137  1.00  0.00     0.014 A 
ATOM     85  C   UNL     1      11.769   6.673  -2.487  1.00  0.00     0.001 A 
BRANCH  82  86
ATOM     86  C   UNL     1       8.320   5.573  -3.508  1.00  0.00     0.256 C 
ATOM     87  O   UNL     1       8.681   4.510  -4.030  1.00  0.00    -0.269 OA
ATOM     88  N   UNL     1       6.995   5.896  -3.686  1.00  0.00    -0.322 N 
ATOM     89  H   UNL     1       6.493   5.222  -4.199  1.00  0.00     0.170 HD
BRANCH  88  90
ATOM     90  C   UNL     1       6.219   6.983  -3.290  1.00  0.00     0.041 A 
ATOM     91  C   UNL     1       4.955   6.685  -2.768  1.00  0.00     0.028 A 
ATOM     92  C   UNL     1       6.662   8.296  -3.313  1.00  0.00     0.028 A 
ATOM     93  C   UNL     1       4.280   7.621  -1.993  1.00  0.00     0.029 A 
ATOM     94  C   UNL     1       5.906   9.277  -2.666  1.00  0.00     0.029 A 
ATOM     95  C   UNL     1       4.775   8.917  -1.915  1.00  0.00     0.052 A 
BRANCH  95  96
ATOM     96  N   UNL     1       4.244   9.830  -0.994  1.00  0.00    -0.250 N 
ATOM     97  C   UNL     1       4.009  11.172  -1.307  1.00  0.00     0.237 C 
ATOM     98  C   UNL     1       4.175   9.579   0.393  1.00  0.00     0.237 C 
ATOM     99  O   UNL     1       3.812  11.707  -2.379  1.00  0.00    -0.274 OA
ATOM    100  C   UNL     1       4.234  11.844  -0.002  1.00  0.00     0.095 C 
ATOM    101  C   UNL     1       3.574  10.844   0.934  1.00  0.00     0.095 C 
ATOM    102  O   UNL     1       4.429   8.570   1.027  1.00  0.00    -0.274 OA
ATOM    103  C   UNL     1       3.830  13.187   0.599  1.00  0.00     0.002 C 
ATOM    104  C   UNL     1       3.591  11.637   2.236  1.00  0.00     0.002 C 
ATOM    105  C   UNL     1       5.000  13.527   1.546  1.00  0.00     0.005 C 
ATOM    106  C   UNL     1       2.785  12.843   1.685  1.00  0.00     0.009 C 
ATOM    107  C   UNL     1       4.938  12.346   2.558  1.00  0.00     0.005 C 
ENDBRANCH  95  96
ENDBRANCH  88  90
ENDBRANCH  82  86
ENDBRANCH  77  80
ENDBRANCH  75  76
ENDBRANCH  74  75
ENDBRANCH   1  74
TORSDOF 16
