REMARK SMILES C[C@@](NC(=O)NCC(N)=O)(C(=O)NCCCCCCNC(=O)c1ccc(-c2c3nc(c(-c4c(F)c(F)c(F)c(F)c4F)c4ccc([nH]4)c(-c4c(F)c(F)c(F)c(F)c4F)c4nc(c(-c5c(F)c(F)c(F)c(F)c5F)c5ccc2[nH]5)C=C4)C=C3)cc1)C(F)(F)F
REMARK SMILES IDX 16 1 15 2 14 3 13 4 11 5 12 6 2 8 1 9 3 10 4 11 5 13 6 14
REMARK SMILES IDX 7 16 8 17 9 18 10 19 86 22 87 23 88 24 89 25 17 26 18 27
REMARK SMILES IDX 19 28 20 29 21 30 22 32 23 33 24 34 85 35 25 36 84 37 26 38
REMARK SMILES IDX 27 39 28 40 78 41 29 42 83 43 77 44 79 45 30 46 82 47 76 48
REMARK SMILES IDX 75 49 31 51 63 52 43 53 62 54 44 55 47 56 61 57 80 58 45 59
REMARK SMILES IDX 46 60 60 62 81 63 48 64 32 65 33 66 41 67 34 68 35 69 39 70
REMARK SMILES IDX 42 71 36 72 37 73 40 74 38 75 64 76 65 77 73 78 66 79 67 80
REMARK SMILES IDX 71 81 74 82 68 83 69 84 72 85 70 86 49 87 50 88 58 89 51 90
REMARK SMILES IDX 52 91 56 92 59 93 53 94 54 95 57 96 55 97
REMARK H PARENT 13 7 3 12 6 15 9 20 9 21 20 31 79 50 47 61
REMARK Flexibility Score: inf
ROOT
ATOM      1  C   UNL     1      -3.112   1.844   2.290  1.00  0.00     0.002 C 
ENDROOT
BRANCH   1   2
ATOM      2  C   UNL     1      -1.605   1.944   2.032  1.00  0.00     0.021 C 
BRANCH   2   3
ATOM      3  C   UNL     1      -0.965   0.599   1.724  1.00  0.00     0.116 C 
BRANCH   3   4
ATOM      4  N   UNL     1      -1.280   0.203   0.363  1.00  0.00    -0.354 N 
ATOM      5  C   UNL     1      -0.639  -0.659  -0.479  1.00  0.00     0.255 C 
ATOM      6  O   UNL     1      -1.127  -0.757  -1.607  1.00  0.00    -0.272 OA
ATOM      7  H   UNL     1      -2.086   0.624  -0.013  1.00  0.00     0.163 HD
BRANCH   5   8
ATOM      8  C   UNL     1       0.679  -1.338  -0.079  1.00  0.00     0.213 C 
ATOM      9  C   UNL     1       1.761  -0.243  -0.265  1.00  0.00     0.056 C 
BRANCH   8  10
ATOM     10  N   UNL     1       0.729  -1.791   1.349  1.00  0.00    -0.316 N 
ATOM     11  C   UNL     1       0.110  -2.748   2.054  1.00  0.00     0.316 C 
ATOM     12  H   UNL     1       1.359  -1.266   1.893  1.00  0.00     0.166 HD
ATOM     13  O   UNL     1       0.672  -3.124   3.084  1.00  0.00    -0.249 OA
ATOM     14  N   UNL     1      -1.073  -3.281   1.745  1.00  0.00    -0.329 N 
ATOM     15  H   UNL     1      -1.267  -4.114   2.233  1.00  0.00     0.165 HD
BRANCH  14  16
ATOM     16  C   UNL     1      -2.129  -2.888   0.839  1.00  0.00     0.217 C 
BRANCH  16  17
ATOM     17  C   UNL     1      -3.241  -3.909   0.639  1.00  0.00     0.236 C 
ATOM     18  N   UNL     1      -4.343  -3.407  -0.002  1.00  0.00    -0.368 N 
ATOM     19  O   UNL     1      -3.166  -5.089   0.960  1.00  0.00    -0.273 OA
ATOM     20  H   UNL     1      -4.377  -2.454  -0.248  1.00  0.00     0.159 HD
ATOM     21  H   UNL     1      -5.100  -3.998  -0.215  1.00  0.00     0.159 HD
ENDBRANCH  16  17
ENDBRANCH  14  16
ENDBRANCH   8  10
BRANCH   8  22
ATOM     22  C   UNL     1       1.012  -2.463  -1.085  1.00  0.00     0.420 C 
ATOM     23  F   UNL     1       1.095  -2.019  -2.360  1.00  0.00    -0.168 F 
ATOM     24  F   UNL     1       2.232  -2.993  -0.794  1.00  0.00    -0.168 F 
ATOM     25  F   UNL     1       0.134  -3.486  -1.061  1.00  0.00    -0.168 F 
ENDBRANCH   8  22
ENDBRANCH   5   8
ENDBRANCH   3   4
ENDBRANCH   2   3
ENDBRANCH   1   2
BRANCH   1  26
ATOM     26  C   UNL     1      -3.491   1.113   3.583  1.00  0.00     0.002 C 
BRANCH  26  27
ATOM     27  C   UNL     1      -2.816   1.648   4.847  1.00  0.00     0.021 C 
BRANCH  27  28
ATOM     28  C   UNL     1      -2.925   3.156   5.032  1.00  0.00     0.116 C 
BRANCH  28  29
ATOM     29  N   UNL     1      -4.303   3.606   5.120  1.00  0.00    -0.352 N 
ATOM     30  C   UNL     1      -4.843   4.527   5.978  1.00  0.00     0.251 C 
ATOM     31  H   UNL     1      -4.930   3.197   4.480  1.00  0.00     0.163 HD
ATOM     32  O   UNL     1      -6.059   4.687   6.040  1.00  0.00    -0.269 OA
BRANCH  30  33
ATOM     33  C   UNL     1      -3.946   5.311   6.849  1.00  0.00     0.039 A 
ATOM     34  C   UNL     1      -4.259   5.433   8.203  1.00  0.00     0.014 A 
ATOM     35  C   UNL     1      -2.794   5.911   6.330  1.00  0.00     0.014 A 
ATOM     36  C   UNL     1      -3.395   6.131   9.047  1.00  0.00     0.010 A 
ATOM     37  C   UNL     1      -1.893   6.532   7.187  1.00  0.00     0.010 A 
ATOM     38  C   UNL     1      -2.195   6.668   8.550  1.00  0.00    -0.014 A 
BRANCH  38  39
ATOM     39  C   UNL     1      -1.270   7.417   9.437  1.00  0.00     0.031 A 
ATOM     40  C   UNL     1      -1.008   8.876   9.181  1.00  0.00     0.074 A 
ATOM     41  C   UNL     1      -0.648   6.782  10.449  1.00  0.00     0.049 A 
ATOM     42  N   UNL     1      -0.203   9.697   9.808  1.00  0.00    -0.248 NA
ATOM     43  C   UNL     1      -1.727   9.491   8.053  1.00  0.00     0.031 C 
ATOM     44  C   UNL     1      -0.787   5.360  10.770  1.00  0.00     0.029 A 
ATOM     45  N   UNL     1       0.230   7.250  11.393  1.00  0.00    -0.354 N 
ATOM     46  C   UNL     1      -0.323  10.916   9.153  1.00  0.00     0.074 A 
ATOM     47  C   UNL     1      -1.214  10.712   8.034  1.00  0.00     0.031 C 
ATOM     48  C   UNL     1      -0.039   5.077  11.848  1.00  0.00     0.029 A 
ATOM     49  C   UNL     1       0.661   6.286  12.272  1.00  0.00     0.049 A 
ATOM     50  H   UNL     1       0.524   8.189  11.437  1.00  0.00     0.167 HD
ATOM     51  C   UNL     1       0.229  12.109   9.479  1.00  0.00     0.037 A 
ATOM     52  C   UNL     1       1.530   6.370  13.298  1.00  0.00     0.037 A 
ATOM     53  C   UNL     1       1.107  12.312  10.600  1.00  0.00     0.049 A 
ATOM     54  C   UNL     1       2.147   7.706  13.623  1.00  0.00     0.074 A 
ATOM     55  C   UNL     1       1.715  13.481  11.022  1.00  0.00     0.029 A 
ATOM     56  N   UNL     1       1.500  11.316  11.483  1.00  0.00    -0.354 N 
ATOM     57  N   UNL     1       1.987   8.862  13.025  1.00  0.00    -0.248 NA
ATOM     58  C   UNL     1       3.055   7.751  14.777  1.00  0.00     0.031 C 
ATOM     59  C   UNL     1       2.507  13.185  12.136  1.00  0.00     0.029 A 
ATOM     60  C   UNL     1       2.344  11.845  12.446  1.00  0.00     0.049 A 
ATOM     61  H   UNL     1       1.220  10.373  11.433  1.00  0.00     0.167 HD
ATOM     62  C   UNL     1       2.736   9.777  13.756  1.00  0.00     0.074 A 
ATOM     63  C   UNL     1       3.337   9.043  14.849  1.00  0.00     0.031 C 
ATOM     64  C   UNL     1       2.911  11.104  13.543  1.00  0.00     0.037 A 
BRANCH  51  65
ATOM     65  C   UNL     1      -0.120  13.292   8.622  1.00  0.00     0.064 A 
ATOM     66  C   UNL     1      -1.415  13.836   8.621  1.00  0.00     0.173 A 
ATOM     67  C   UNL     1       0.853  13.917   7.829  1.00  0.00     0.173 A 
ATOM     68  F   UNL     1      -2.387  13.268   9.350  1.00  0.00    -0.203 F 
ATOM     69  C   UNL     1      -1.727  14.945   7.839  1.00  0.00     0.198 A 
ATOM     70  C   UNL     1       0.546  15.047   7.074  1.00  0.00     0.198 A 
ATOM     71  F   UNL     1       2.107  13.441   7.794  1.00  0.00    -0.203 F 
ATOM     72  F   UNL     1      -2.982  15.415   7.817  1.00  0.00    -0.200 F 
ATOM     73  C   UNL     1      -0.745  15.555   7.074  1.00  0.00     0.200 A 
ATOM     74  F   UNL     1       1.499  15.644   6.346  1.00  0.00    -0.200 F 
ATOM     75  F   UNL     1      -1.043  16.630   6.332  1.00  0.00    -0.200 F 
ENDBRANCH  51  65
BRANCH  52  76
ATOM     76  C   UNL     1       1.864   5.164  14.103  1.00  0.00     0.064 A 
ATOM     77  C   UNL     1       1.509   5.073  15.457  1.00  0.00     0.173 A 
ATOM     78  C   UNL     1       2.587   4.098  13.549  1.00  0.00     0.173 A 
ATOM     79  F   UNL     1       0.831   6.073  16.040  1.00  0.00    -0.203 F 
ATOM     80  C   UNL     1       1.904   3.987  16.236  1.00  0.00     0.198 A 
ATOM     81  C   UNL     1       2.949   2.994  14.319  1.00  0.00     0.198 A 
ATOM     82  F   UNL     1       2.944   4.127  12.257  1.00  0.00    -0.203 F 
ATOM     83  F   UNL     1       1.615   3.964  17.544  1.00  0.00    -0.200 F 
ATOM     84  C   UNL     1       2.622   2.947  15.665  1.00  0.00     0.200 A 
ATOM     85  F   UNL     1       3.627   1.983  13.759  1.00  0.00    -0.200 F 
ATOM     86  F   UNL     1       3.009   1.907  16.416  1.00  0.00    -0.200 F 
ENDBRANCH  52  76
BRANCH  64  87
ATOM     87  C   UNL     1       3.727  11.862  14.551  1.00  0.00     0.064 A 
ATOM     88  C   UNL     1       5.110  11.674  14.684  1.00  0.00     0.173 A 
ATOM     89  C   UNL     1       3.111  12.811  15.384  1.00  0.00     0.173 A 
ATOM     90  F   UNL     1       5.745  10.771  13.921  1.00  0.00    -0.203 F 
ATOM     91  C   UNL     1       5.839  12.375  15.641  1.00  0.00     0.198 A 
ATOM     92  C   UNL     1       3.849  13.538  16.312  1.00  0.00     0.198 A 
ATOM     93  F   UNL     1       1.792  13.039  15.290  1.00  0.00    -0.203 F 
ATOM     94  F   UNL     1       7.148  12.130  15.795  1.00  0.00    -0.200 F 
ATOM     95  C   UNL     1       5.210  13.311  16.449  1.00  0.00     0.200 A 
ATOM     96  F   UNL     1       3.243  14.455  17.078  1.00  0.00    -0.200 F 
ATOM     97  F   UNL     1       5.914  13.987  17.367  1.00  0.00    -0.200 F 
ENDBRANCH  64  87
ENDBRANCH  38  39
ENDBRANCH  30  33
ENDBRANCH  28  29
ENDBRANCH  27  28
ENDBRANCH  26  27
ENDBRANCH   1  26
TORSDOF 17
