REMARK SMILES CC[C@@H](Sc1nnc2ccc3ccccc3n12)C(=O)Nc1cccc(C(=O)NCCCCCCNC(=O)c2ccc(-c3c4nc(c(-c5c(F)c(F)c(F)c(F)c5F)c5ccc([nH]5)c(-c5c(F)c(F)c(F)c(F)c5F)c5nc(c(-c6c(F)c(F)c(F)c(F)c6F)c6ccc3[nH]6)C=C5)C=C4)cc2)c1
REMARK SMILES IDX 30 1 29 2 28 3 26 4 27 5 25 7 21 8 22 9 101 10 23 11 24 12
REMARK SMILES IDX 20 13 18 14 19 15 3 17 2 18 1 19 4 20 5 21 6 22 17 23 7 24
REMARK SMILES IDX 8 25 16 26 9 27 11 28 15 29 10 30 12 31 14 32 13 33 31 34
REMARK SMILES IDX 32 35 33 36 34 37 35 38 36 39 37 41 38 42 39 43 100 44 40 45
REMARK SMILES IDX 99 46 41 47 42 48 43 49 93 50 44 51 98 52 92 53 94 54 45 55
REMARK SMILES IDX 97 56 91 57 90 58 46 60 78 61 58 62 77 63 59 64 62 65 76 66
REMARK SMILES IDX 95 67 60 68 61 69 75 71 96 72 63 73 47 74 48 75 56 76 49 77
REMARK SMILES IDX 50 78 54 79 57 80 51 81 52 82 55 83 53 84 79 85 80 86 88 87
REMARK SMILES IDX 81 88 82 89 86 90 89 91 83 92 84 93 87 94 85 95 64 96 65 97
REMARK SMILES IDX 73 98 66 99 67 100 71 101 74 102 68 103 69 104 72 105 70 106
REMARK H PARENT 28 6 20 16 35 40 94 59 62 70
REMARK Flexibility Score: inf
ROOT
ATOM      1  C   UNL     1      -3.173   3.900   6.179  1.00  0.00     0.021 C 
ENDROOT
BRANCH   1   2
ATOM      2  C   UNL     1      -3.650   2.714   5.368  1.00  0.00     0.116 C 
BRANCH   2   3
ATOM      3  N   UNL     1      -4.573   3.039   4.304  1.00  0.00    -0.352 N 
ATOM      4  C   UNL     1      -4.807   2.439   3.086  1.00  0.00     0.251 C 
ATOM      5  O   UNL     1      -5.651   2.938   2.355  1.00  0.00    -0.269 OA
ATOM      6  H   UNL     1      -5.133   3.830   4.480  1.00  0.00     0.163 HD
BRANCH   4   7
ATOM      7  C   UNL     1      -4.048   1.242   2.612  1.00  0.00     0.041 A 
ATOM      8  C   UNL     1      -2.336  -0.439   2.887  1.00  0.00     0.041 A 
ATOM      9  C   UNL     1      -2.557  -0.871   1.594  1.00  0.00     0.026 A 
ATOM     10  C   UNL     1      -3.263   0.436   3.436  1.00  0.00     0.040 A 
ATOM     11  C   UNL     1      -3.423  -0.169   0.756  1.00  0.00     0.003 A 
ATOM     12  C   UNL     1      -4.097   0.945   1.245  1.00  0.00     0.014 A 
BRANCH   8  13
ATOM     13  N   UNL     1      -1.257  -0.807   3.706  1.00  0.00    -0.325 N 
ATOM     14  C   UNL     1       0.094  -0.596   3.567  1.00  0.00     0.237 C 
ATOM     15  O   UNL     1       0.731  -0.685   4.633  1.00  0.00    -0.273 OA
ATOM     16  H   UNL     1      -1.512  -1.302   4.518  1.00  0.00     0.169 HD
BRANCH  14  17
ATOM     17  C   UNL     1       0.873  -0.202   2.271  1.00  0.00     0.144 C 
BRANCH  17  18
ATOM     18  C   UNL     1       0.463  -1.026   1.058  1.00  0.00     0.021 C 
ATOM     19  C   UNL     1      -0.181  -0.305  -0.112  1.00  0.00     0.005 C 
ENDBRANCH  17  18
BRANCH  17  20
ATOM     20  S   UNL     1       1.113   1.593   2.263  1.00  0.00    -0.072 SA
BRANCH  20  21
ATOM     21  C   UNL     1       1.792   2.350   0.852  1.00  0.00     0.196 A 
ATOM     22  N   UNL     1       1.597   3.655   0.740  1.00  0.00    -0.122 NA
ATOM     23  N   UNL     1       2.401   1.907  -0.319  1.00  0.00    -0.270 N 
ATOM     24  N   UNL     1       1.857   4.044  -0.541  1.00  0.00    -0.129 NA
ATOM     25  C   UNL     1       2.237   2.978  -1.202  1.00  0.00     0.161 A 
ATOM     26  C   UNL     1       2.969   0.683  -0.759  1.00  0.00     0.057 A 
ATOM     27  C   UNL     1       2.458   2.802  -2.590  1.00  0.00     0.050 A 
ATOM     28  C   UNL     1       2.994   0.473  -2.156  1.00  0.00    -0.001 A 
ATOM     29  C   UNL     1       3.397  -0.318   0.102  1.00  0.00     0.027 A 
ATOM     30  C   UNL     1       2.773   1.594  -3.074  1.00  0.00     0.014 A 
ATOM     31  C   UNL     1       3.209  -0.813  -2.656  1.00  0.00     0.010 A 
ATOM     32  C   UNL     1       3.629  -1.600  -0.413  1.00  0.00     0.002 A 
ATOM     33  C   UNL     1       3.476  -1.859  -1.777  1.00  0.00     0.001 A 
ENDBRANCH  20  21
ENDBRANCH  17  20
ENDBRANCH  14  17
ENDBRANCH   8  13
ENDBRANCH   4   7
ENDBRANCH   2   3
ENDBRANCH   1   2
BRANCH   1  34
ATOM     34  C   UNL     1      -4.249   4.653   6.951  1.00  0.00     0.002 C 
BRANCH  34  35
ATOM     35  C   UNL     1      -5.076   3.827   7.939  1.00  0.00     0.002 C 
BRANCH  35  36
ATOM     36  C   UNL     1      -4.295   2.988   8.960  1.00  0.00     0.021 C 
BRANCH  36  37
ATOM     37  C   UNL     1      -3.136   3.704   9.654  1.00  0.00     0.116 C 
BRANCH  37  38
ATOM     38  N   UNL     1      -3.495   4.975  10.240  1.00  0.00    -0.352 N 
ATOM     39  C   UNL     1      -3.982   5.389  11.441  1.00  0.00     0.251 C 
ATOM     40  H   UNL     1      -3.352   5.725   9.618  1.00  0.00     0.163 HD
ATOM     41  O   UNL     1      -4.069   6.609  11.600  1.00  0.00    -0.269 OA
BRANCH  39  42
ATOM     42  C   UNL     1      -4.474   4.494  12.517  1.00  0.00     0.039 A 
ATOM     43  C   UNL     1      -4.372   3.103  12.537  1.00  0.00     0.014 A 
ATOM     44  C   UNL     1      -5.155   5.139  13.566  1.00  0.00     0.014 A 
ATOM     45  C   UNL     1      -5.043   2.369  13.505  1.00  0.00     0.010 A 
ATOM     46  C   UNL     1      -5.806   4.415  14.550  1.00  0.00     0.010 A 
ATOM     47  C   UNL     1      -5.801   3.029  14.476  1.00  0.00    -0.014 A 
BRANCH  47  48
ATOM     48  C   UNL     1      -6.490   2.221  15.473  1.00  0.00     0.031 A 
ATOM     49  C   UNL     1      -5.572   1.422  16.326  1.00  0.00     0.074 A 
ATOM     50  C   UNL     1      -7.825   2.284  15.664  1.00  0.00     0.049 A 
ATOM     51  N   UNL     1      -5.516   0.136  16.439  1.00  0.00    -0.248 NA
ATOM     52  C   UNL     1      -4.495   2.128  17.044  1.00  0.00     0.031 C 
ATOM     53  C   UNL     1      -8.757   3.247  15.065  1.00  0.00     0.029 A 
ATOM     54  N   UNL     1      -8.628   1.573  16.511  1.00  0.00    -0.354 N 
ATOM     55  C   UNL     1      -4.542  -0.119  17.403  1.00  0.00     0.074 A 
ATOM     56  C   UNL     1      -3.840   1.117  17.619  1.00  0.00     0.031 C 
ATOM     57  C   UNL     1      -9.924   3.226  15.746  1.00  0.00     0.029 A 
ATOM     58  C   UNL     1      -9.880   2.148  16.716  1.00  0.00     0.049 A 
ATOM     59  H   UNL     1      -8.347   0.732  16.938  1.00  0.00     0.167 HD
ATOM     60  C   UNL     1      -4.593  -1.257  18.148  1.00  0.00     0.037 A 
ATOM     61  C   UNL     1     -10.786   1.790  17.658  1.00  0.00     0.037 A 
ATOM     62  C   UNL     1      -5.464  -2.230  17.549  1.00  0.00     0.049 A 
ATOM     63  C   UNL     1     -10.489   0.396  18.058  1.00  0.00     0.074 A 
ATOM     64  C   UNL     1      -5.381  -3.186  16.562  1.00  0.00     0.029 A 
ATOM     65  N   UNL     1      -6.790  -1.982  17.765  1.00  0.00    -0.354 N 
ATOM     66  N   UNL     1     -10.627  -0.626  17.261  1.00  0.00    -0.248 NA
ATOM     67  C   UNL     1      -9.714   0.148  19.270  1.00  0.00     0.031 C 
ATOM     68  C   UNL     1      -6.717  -3.422  16.115  1.00  0.00     0.029 A 
ATOM     69  C   UNL     1      -7.586  -2.640  16.869  1.00  0.00     0.049 A 
ATOM     70  H   UNL     1      -7.132  -1.399  18.481  1.00  0.00     0.167 HD
ATOM     71  C   UNL     1      -9.624  -1.489  17.646  1.00  0.00     0.074 A 
ATOM     72  C   UNL     1      -9.223  -1.059  18.978  1.00  0.00     0.031 C 
ATOM     73  C   UNL     1      -8.967  -2.248  16.724  1.00  0.00     0.037 A 
BRANCH  60  74
ATOM     74  C   UNL     1      -4.270  -1.312  19.625  1.00  0.00     0.064 A 
ATOM     75  C   UNL     1      -4.188  -2.560  20.276  1.00  0.00     0.173 A 
ATOM     76  C   UNL     1      -4.347  -0.188  20.477  1.00  0.00     0.173 A 
ATOM     77  F   UNL     1      -4.160  -3.699  19.568  1.00  0.00    -0.203 F 
ATOM     78  C   UNL     1      -4.211  -2.669  21.672  1.00  0.00     0.198 A 
ATOM     79  C   UNL     1      -4.318  -0.297  21.866  1.00  0.00     0.198 A 
ATOM     80  F   UNL     1      -4.572   1.044  20.005  1.00  0.00    -0.203 F 
ATOM     81  F   UNL     1      -4.231  -3.879  22.247  1.00  0.00    -0.200 F 
ATOM     82  C   UNL     1      -4.272  -1.537  22.465  1.00  0.00     0.200 A 
ATOM     83  F   UNL     1      -4.413   0.811  22.616  1.00  0.00    -0.200 F 
ATOM     84  F   UNL     1      -4.337  -1.640  23.799  1.00  0.00    -0.200 F 
ENDBRANCH  60  74
BRANCH  61  85
ATOM     85  C   UNL     1     -11.663   2.661  18.481  1.00  0.00     0.064 A 
ATOM     86  C   UNL     1     -12.692   2.104  19.261  1.00  0.00     0.173 A 
ATOM     87  C   UNL     1     -11.301   3.989  18.780  1.00  0.00     0.173 A 
ATOM     88  F   UNL     1     -13.082   0.837  19.057  1.00  0.00    -0.203 F 
ATOM     89  C   UNL     1     -13.271   2.805  20.324  1.00  0.00     0.198 A 
ATOM     90  C   UNL     1     -11.884   4.689  19.837  1.00  0.00     0.198 A 
ATOM     91  F   UNL     1     -10.302   4.594  18.124  1.00  0.00    -0.203 F 
ATOM     92  F   UNL     1     -14.183   2.206  21.102  1.00  0.00    -0.200 F 
ATOM     93  C   UNL     1     -12.851   4.090  20.624  1.00  0.00     0.200 A 
ATOM     94  F   UNL     1     -11.448   5.921  20.137  1.00  0.00    -0.200 F 
ATOM     95  F   UNL     1     -13.340   4.730  21.695  1.00  0.00    -0.200 F 
ENDBRANCH  61  85
BRANCH  73  96
ATOM     96  C   UNL     1      -9.677  -2.545  15.442  1.00  0.00     0.064 A 
ATOM     97  C   UNL     1     -10.013  -1.583  14.475  1.00  0.00     0.173 A 
ATOM     98  C   UNL     1      -9.986  -3.882  15.163  1.00  0.00     0.173 A 
ATOM     99  F   UNL     1      -9.680  -0.296  14.637  1.00  0.00    -0.203 F 
ATOM    100  C   UNL     1     -10.670  -1.947  13.300  1.00  0.00     0.198 A 
ATOM    101  C   UNL     1     -10.608  -4.247  13.975  1.00  0.00     0.198 A 
ATOM    102  F   UNL     1      -9.654  -4.844  16.038  1.00  0.00    -0.203 F 
ATOM    103  F   UNL     1     -11.003  -1.012  12.398  1.00  0.00    -0.200 F 
ATOM    104  C   UNL     1     -10.962  -3.279  13.049  1.00  0.00     0.200 A 
ATOM    105  F   UNL     1     -10.850  -5.540  13.721  1.00  0.00    -0.200 F 
ATOM    106  F   UNL     1     -11.565  -3.633  11.906  1.00  0.00    -0.200 F 
ENDBRANCH  73  96
ENDBRANCH  47  48
ENDBRANCH  39  42
ENDBRANCH  37  38
ENDBRANCH  36  37
ENDBRANCH  35  36
ENDBRANCH  34  35
ENDBRANCH   1  34
TORSDOF 18
