REMARK SMILES N#C/C(=C/c1cccc(OCC(=O)NCCCCCCNC(=O)c2ccc(-c3c4nc(c(-c5c(F)c(F)c(F)c(F)c5F)c5ccc([nH]5)c(-c5c(F)c(F)c(F)c(F)c5F)c5nc(c(-c6c(F)c(F)c(F)c(F)c6F)c6ccc3[nH]6)C=C5)C=C4)cc2)c1)c1nc2ccccc2[nH]1
REMARK SMILES IDX 16 1 15 2 14 3 12 4 13 5 11 7 10 8 9 9 5 10 6 11 87 12 7 13
REMARK SMILES IDX 8 14 4 15 3 16 2 17 1 18 88 19 89 20 96 21 90 22 95 23 91 25
REMARK SMILES IDX 94 26 92 27 93 28 17 29 18 30 19 31 20 32 21 33 22 34 23 36
REMARK SMILES IDX 24 37 25 38 86 39 26 40 85 41 27 42 28 43 29 44 79 45 30 46
REMARK SMILES IDX 84 47 78 48 80 49 31 50 83 51 77 52 76 53 32 55 64 56 44 57
REMARK SMILES IDX 63 58 45 59 48 60 62 61 81 62 46 63 47 64 61 66 82 67 49 68
REMARK SMILES IDX 33 69 34 70 42 71 35 72 36 73 40 74 43 75 37 76 38 77 41 78
REMARK SMILES IDX 39 79 65 80 66 81 74 82 67 83 68 84 72 85 75 86 69 87 70 88
REMARK SMILES IDX 73 89 71 90 50 91 51 92 59 93 52 94 53 95 57 96 60 97 54 98
REMARK SMILES IDX 55 99 58 100 56 101
REMARK H PARENT 14 6 96 24 21 35 80 54 48 65
REMARK Flexibility Score: inf
ROOT
ATOM      1  C   UNL     1      10.351   2.200   1.035  1.00  0.00     0.021 C 
ENDROOT
BRANCH   1   2
ATOM      2  C   UNL     1      10.015   1.818   2.477  1.00  0.00     0.116 C 
BRANCH   2   3
ATOM      3  N   UNL     1       8.594   1.795   2.772  1.00  0.00    -0.353 N 
ATOM      4  C   UNL     1       7.829   0.719   3.129  1.00  0.00     0.257 C 
ATOM      5  O   UNL     1       6.691   0.894   3.573  1.00  0.00    -0.271 OA
ATOM      6  H   UNL     1       8.125   2.658   2.706  1.00  0.00     0.163 HD
BRANCH   4   7
ATOM      7  C   UNL     1       8.409  -0.694   3.015  1.00  0.00     0.329 C 
BRANCH   7   8
ATOM      8  O   UNL     1       8.931  -1.062   1.748  1.00  0.00    -0.484 OA
BRANCH   8   9
ATOM      9  C   UNL     1       8.057  -1.186   0.703  1.00  0.00     0.120 A 
ATOM     10  C   UNL     1       5.888  -1.170  -0.400  1.00  0.00    -0.021 A 
ATOM     11  C   UNL     1       6.512  -1.429  -1.624  1.00  0.00     0.008 A 
ATOM     12  C   UNL     1       6.666  -1.076   0.765  1.00  0.00     0.054 A 
ATOM     13  C   UNL     1       7.898  -1.566  -1.688  1.00  0.00     0.004 A 
ATOM     14  C   UNL     1       8.665  -1.440  -0.529  1.00  0.00     0.046 A 
BRANCH  10  15
ATOM     15  C   UNL     1       4.424  -1.026  -0.353  1.00  0.00     0.031 C 
ATOM     16  C   UNL     1       3.746   0.057   0.075  1.00  0.00     0.095 C 
BRANCH  16  17
ATOM     17  C   UNL     1       2.226   0.057   0.075  1.00  0.00     0.103 C 
ATOM     18  N   UNL     1       0.965   0.057   0.075  1.00  0.00    -0.192 NA
ENDBRANCH  16  17
BRANCH  16  19
ATOM     19  C   UNL     1       4.387   1.259   0.484  1.00  0.00     0.149 A 
ATOM     20  N   UNL     1       5.182   2.083  -0.172  1.00  0.00    -0.228 NA
ATOM     21  N   UNL     1       4.159   1.725   1.761  1.00  0.00    -0.337 N 
ATOM     22  C   UNL     1       5.483   3.093   0.708  1.00  0.00     0.089 A 
ATOM     23  C   UNL     1       4.866   2.886   1.934  1.00  0.00     0.066 A 
ATOM     24  H   UNL     1       3.584   1.296   2.435  1.00  0.00     0.168 HD
ATOM     25  C   UNL     1       6.290   4.226   0.539  1.00  0.00     0.030 A 
ATOM     26  C   UNL     1       5.033   3.730   3.034  1.00  0.00     0.028 A 
ATOM     27  C   UNL     1       6.493   5.080   1.631  1.00  0.00     0.002 A 
ATOM     28  C   UNL     1       5.880   4.830   2.860  1.00  0.00     0.002 A 
ENDBRANCH  16  19
ENDBRANCH  10  15
ENDBRANCH   8   9
ENDBRANCH   7   8
ENDBRANCH   4   7
ENDBRANCH   2   3
ENDBRANCH   1   2
BRANCH   1  29
ATOM     29  C   UNL     1       9.898   3.590   0.581  1.00  0.00     0.002 C 
BRANCH  29  30
ATOM     30  C   UNL     1      10.208   4.761   1.518  1.00  0.00     0.002 C 
BRANCH  30  31
ATOM     31  C   UNL     1      11.691   5.074   1.703  1.00  0.00     0.021 C 
BRANCH  31  32
ATOM     32  C   UNL     1      12.414   5.525   0.439  1.00  0.00     0.116 C 
BRANCH  32  33
ATOM     33  N   UNL     1      11.886   6.756  -0.136  1.00  0.00    -0.352 N 
ATOM     34  C   UNL     1      12.578   7.756  -0.781  1.00  0.00     0.251 C 
ATOM     35  H   UNL     1      10.915   6.889  -0.053  1.00  0.00     0.163 HD
ATOM     36  O   UNL     1      12.017   8.782  -1.151  1.00  0.00    -0.269 OA
BRANCH  34  37
ATOM     37  C   UNL     1      14.031   7.593  -0.978  1.00  0.00     0.039 A 
ATOM     38  C   UNL     1      14.897   8.582  -0.508  1.00  0.00     0.014 A 
ATOM     39  C   UNL     1      14.532   6.416  -1.541  1.00  0.00     0.014 A 
ATOM     40  C   UNL     1      16.273   8.351  -0.520  1.00  0.00     0.010 A 
ATOM     41  C   UNL     1      15.895   6.155  -1.479  1.00  0.00     0.010 A 
ATOM     42  C   UNL     1      16.778   7.116  -0.961  1.00  0.00    -0.014 A 
BRANCH  42  43
ATOM     43  C   UNL     1      18.226   6.801  -0.889  1.00  0.00     0.031 A 
ATOM     44  C   UNL     1      18.996   6.540  -2.151  1.00  0.00     0.074 A 
ATOM     45  C   UNL     1      18.821   6.660   0.312  1.00  0.00     0.049 A 
ATOM     46  N   UNL     1      20.236   6.150  -2.301  1.00  0.00    -0.248 NA
ATOM     47  C   UNL     1      18.262   6.704  -3.416  1.00  0.00     0.031 C 
ATOM     48  C   UNL     1      18.162   6.822   1.609  1.00  0.00     0.029 A 
ATOM     49  N   UNL     1      20.114   6.333   0.636  1.00  0.00    -0.354 N 
ATOM     50  C   UNL     1      20.420   5.998  -3.668  1.00  0.00     0.074 A 
ATOM     51  C   UNL     1      19.151   6.283  -4.302  1.00  0.00     0.031 C 
ATOM     52  C   UNL     1      19.059   6.618   2.588  1.00  0.00     0.029 A 
ATOM     53  C   UNL     1      20.347   6.279   1.989  1.00  0.00     0.049 A 
ATOM     54  H   UNL     1      20.809   6.154  -0.037  1.00  0.00     0.167 HD
ATOM     55  C   UNL     1      21.552   5.677  -4.337  1.00  0.00     0.037 A 
ATOM     56  C   UNL     1      21.473   5.988   2.667  1.00  0.00     0.037 A 
ATOM     57  C   UNL     1      22.822   5.438  -3.705  1.00  0.00     0.049 A 
ATOM     58  C   UNL     1      22.728   5.669   1.899  1.00  0.00     0.074 A 
ATOM     59  C   UNL     1      24.045   5.174  -4.295  1.00  0.00     0.029 A 
ATOM     60  N   UNL     1      23.030   5.441  -2.334  1.00  0.00    -0.354 N 
ATOM     61  N   UNL     1      22.907   5.596   0.602  1.00  0.00    -0.248 NA
ATOM     62  C   UNL     1      23.938   5.401   2.688  1.00  0.00     0.031 C 
ATOM     63  C   UNL     1      24.988   4.987  -3.279  1.00  0.00     0.029 A 
ATOM     64  C   UNL     1      24.360   5.174  -2.058  1.00  0.00     0.049 A 
ATOM     65  H   UNL     1      22.335   5.609  -1.657  1.00  0.00     0.167 HD
ATOM     66  C   UNL     1      24.251   5.302   0.419  1.00  0.00     0.074 A 
ATOM     67  C   UNL     1      24.845   5.223   1.737  1.00  0.00     0.031 C 
ATOM     68  C   UNL     1      24.932   5.113  -0.738  1.00  0.00     0.037 A 
BRANCH  55  69
ATOM     69  C   UNL     1      21.467   5.582  -5.832  1.00  0.00     0.064 A 
ATOM     70  C   UNL     1      21.283   6.721  -6.631  1.00  0.00     0.173 A 
ATOM     71  C   UNL     1      21.589   4.342  -6.476  1.00  0.00     0.173 A 
ATOM     72  F   UNL     1      21.147   7.928  -6.062  1.00  0.00    -0.203 F 
ATOM     73  C   UNL     1      21.192   6.618  -8.016  1.00  0.00     0.198 A 
ATOM     74  C   UNL     1      21.527   4.247  -7.864  1.00  0.00     0.198 A 
ATOM     75  F   UNL     1      21.770   3.222  -5.761  1.00  0.00    -0.203 F 
ATOM     76  F   UNL     1      20.961   7.714  -8.753  1.00  0.00    -0.200 F 
ATOM     77  C   UNL     1      21.320   5.383  -8.632  1.00  0.00     0.200 A 
ATOM     78  F   UNL     1      21.663   3.053  -8.460  1.00  0.00    -0.200 F 
ATOM     79  F   UNL     1      21.235   5.286  -9.966  1.00  0.00    -0.200 F 
ENDBRANCH  55  69
BRANCH  56  80
ATOM     80  C   UNL     1      21.479   6.023   4.152  1.00  0.00     0.064 A 
ATOM     81  C   UNL     1      22.157   7.038   4.843  1.00  0.00     0.173 A 
ATOM     82  C   UNL     1      20.815   5.049   4.912  1.00  0.00     0.173 A 
ATOM     83  F   UNL     1      22.824   7.981   4.160  1.00  0.00    -0.203 F 
ATOM     84  C   UNL     1      22.190   7.065   6.235  1.00  0.00     0.198 A 
ATOM     85  C   UNL     1      20.826   5.092   6.305  1.00  0.00     0.198 A 
ATOM     86  F   UNL     1      20.146   4.061   4.300  1.00  0.00    -0.203 F 
ATOM     87  F   UNL     1      22.883   8.021   6.869  1.00  0.00    -0.200 F 
ATOM     88  C   UNL     1      21.520   6.095   6.965  1.00  0.00     0.200 A 
ATOM     89  F   UNL     1      20.168   4.160   7.007  1.00  0.00    -0.200 F 
ATOM     90  F   UNL     1      21.550   6.122   8.305  1.00  0.00    -0.200 F 
ENDBRANCH  56  80
BRANCH  68  91
ATOM     91  C   UNL     1      26.402   4.837  -0.631  1.00  0.00     0.064 A 
ATOM     92  C   UNL     1      26.887   3.598  -0.188  1.00  0.00     0.173 A 
ATOM     93  C   UNL     1      27.336   5.809  -1.022  1.00  0.00     0.173 A 
ATOM     94  F   UNL     1      26.033   2.644   0.211  1.00  0.00    -0.203 F 
ATOM     95  C   UNL     1      28.254   3.349  -0.121  1.00  0.00     0.198 A 
ATOM     96  C   UNL     1      28.702   5.546  -0.980  1.00  0.00     0.198 A 
ATOM     97  F   UNL     1      26.921   7.008  -1.459  1.00  0.00    -0.203 F 
ATOM     98  F   UNL     1      28.697   2.172   0.343  1.00  0.00    -0.200 F 
ATOM     99  C   UNL     1      29.160   4.319  -0.524  1.00  0.00     0.200 A 
ATOM    100  F   UNL     1      29.575   6.481  -1.381  1.00  0.00    -0.200 F 
ATOM    101  F   UNL     1      30.476   4.074  -0.468  1.00  0.00    -0.200 F 
ENDBRANCH  68  91
ENDBRANCH  42  43
ENDBRANCH  34  37
ENDBRANCH  32  33
ENDBRANCH  31  32
ENDBRANCH  30  31
ENDBRANCH  29  30
ENDBRANCH   1  29
TORSDOF 18
