REMARK SMILES Cc1cc(C[N@@H+]2CC[C@@H](C(=O)NCCCCCCNC(=O)c3ccc(-c4c5nc(c(-c6c(F)c(F)c(F)c(F)c6F)c6ccc([nH]6)c(-c6c(F)c(F)c(F)c(F)c6F)c6nc(c(-c7c(F)c(F)c(F)c(F)c7F)c7ccc4[nH]7)C=C6)C=C5)cc3)C2)ccc1Br
REMARK SMILES IDX 15 1 14 2 13 3 12 4 10 5 11 6 9 8 6 9 7 10 85 11 8 13 5 14
REMARK SMILES IDX 4 15 1 16 2 17 3 18 88 19 87 20 89 21 86 22 16 23 17 24
REMARK SMILES IDX 18 25 19 26 20 27 21 29 22 30 23 31 84 32 24 33 83 34 25 35
REMARK SMILES IDX 26 36 27 37 77 38 28 39 82 40 76 41 78 42 29 43 81 44 75 45
REMARK SMILES IDX 74 46 30 48 62 49 42 50 61 51 43 52 46 53 60 54 79 55 44 56
REMARK SMILES IDX 45 57 59 59 80 60 47 61 31 62 32 63 40 64 33 65 34 66 38 67
REMARK SMILES IDX 41 68 35 69 36 70 39 71 37 72 63 73 64 74 72 75 65 76 66 77
REMARK SMILES IDX 70 78 73 79 67 80 68 81 71 82 69 83 48 84 49 85 57 86 50 87
REMARK SMILES IDX 51 88 55 89 58 90 52 91 53 92 56 93 54 94
REMARK H PARENT 12 7 6 12 19 28 78 47 46 58
REMARK Flexibility Score: inf
ROOT
ATOM      1  C   UNL     1       7.055   5.193  -4.885  1.00  0.00     0.002 C 
ENDROOT
BRANCH   1   2
ATOM      2  C   UNL     1       7.011   3.963  -3.981  1.00  0.00     0.021 C 
BRANCH   2   3
ATOM      3  C   UNL     1       5.639   3.551  -3.474  1.00  0.00     0.116 C 
BRANCH   3   4
ATOM      4  N   UNL     1       4.830   2.818  -4.417  1.00  0.00    -0.356 N 
ATOM      5  C   UNL     1       3.853   1.899  -4.159  1.00  0.00     0.229 C 
ATOM      6  O   UNL     1       3.279   1.396  -5.129  1.00  0.00    -0.275 OA
ATOM      7  H   UNL     1       5.006   3.002  -5.368  1.00  0.00     0.163 HD
BRANCH   5   8
ATOM      8  C   UNL     1       3.482   1.463  -2.739  1.00  0.00     0.139 C 
ATOM      9  N   UNL     1       4.713   1.087  -0.697  1.00  0.00    -0.330 N 
ATOM     10  C   UNL     1       4.208   2.455  -0.646  1.00  0.00     0.263 C 
ATOM     11  C   UNL     1       4.542   0.593  -2.071  1.00  0.00     0.276 C 
ATOM     12  H   UNL     1       5.707   1.096  -0.472  1.00  0.00     0.348 HD
ATOM     13  C   UNL     1       3.169   2.581  -1.752  1.00  0.00     0.081 C 
BRANCH   9  14
ATOM     14  C   UNL     1       4.226   0.191   0.362  1.00  0.00     0.299 C 
BRANCH  14  15
ATOM     15  C   UNL     1       2.728  -0.011   0.469  1.00  0.00     0.007 A 
ATOM     16  C   UNL     1       0.144  -2.691  -0.349  1.00  0.00     0.045 C 
ATOM     17  C   UNL     1       0.733  -1.378   0.081  1.00  0.00    -0.036 A 
ATOM     18  C   UNL     1       2.127  -1.195   0.017  1.00  0.00     0.014 A 
ATOM     19  C   UNL     1      -0.065  -0.318   0.538  1.00  0.00     0.020 A 
ATOM     20  C   UNL     1       0.523   0.845   1.030  1.00  0.00     0.016 A 
ATOM     21  Br  UNL     1      -1.962  -0.393   0.514  1.00  0.00    -0.051 Br
ATOM     22  C   UNL     1       1.910   0.974   1.038  1.00  0.00     0.011 A 
ENDBRANCH  14  15
ENDBRANCH   9  14
ENDBRANCH   5   8
ENDBRANCH   3   4
ENDBRANCH   2   3
ENDBRANCH   1   2
BRANCH   1  23
ATOM     23  C   UNL     1       6.409   6.470  -4.338  1.00  0.00     0.002 C 
BRANCH  23  24
ATOM     24  C   UNL     1       6.816   6.904  -2.927  1.00  0.00     0.021 C 
BRANCH  24  25
ATOM     25  C   UNL     1       8.314   7.030  -2.664  1.00  0.00     0.116 C 
BRANCH  25  26
ATOM     26  N   UNL     1       8.979   7.930  -3.590  1.00  0.00    -0.352 N 
ATOM     27  C   UNL     1       9.823   8.979  -3.344  1.00  0.00     0.251 C 
ATOM     28  H   UNL     1       8.795   7.758  -4.542  1.00  0.00     0.163 HD
ATOM     29  O   UNL     1      10.181   9.708  -4.273  1.00  0.00    -0.269 OA
BRANCH  27  30
ATOM     30  C   UNL     1      10.294   9.268  -1.973  1.00  0.00     0.039 A 
ATOM     31  C   UNL     1      10.316  10.596  -1.539  1.00  0.00     0.014 A 
ATOM     32  C   UNL     1      10.745   8.249  -1.128  1.00  0.00     0.014 A 
ATOM     33  C   UNL     1      10.736  10.899  -0.242  1.00  0.00     0.010 A 
ATOM     34  C   UNL     1      11.101   8.543   0.186  1.00  0.00     0.010 A 
ATOM     35  C   UNL     1      11.105   9.871   0.641  1.00  0.00    -0.014 A 
BRANCH  35  36
ATOM     36  C   UNL     1      11.502  10.169   2.041  1.00  0.00     0.031 A 
ATOM     37  C   UNL     1      12.907   9.903   2.502  1.00  0.00     0.074 A 
ATOM     38  C   UNL     1      10.581  10.629   2.910  1.00  0.00     0.049 A 
ATOM     39  N   UNL     1      13.428  10.039   3.695  1.00  0.00    -0.248 NA
ATOM     40  C   UNL     1      13.846   9.391   1.492  1.00  0.00     0.031 C 
ATOM     41  C   UNL     1       9.178  10.893   2.592  1.00  0.00     0.029 A 
ATOM     42  N   UNL     1      10.687  10.948   4.240  1.00  0.00    -0.354 N 
ATOM     43  C   UNL     1      14.747   9.621   3.581  1.00  0.00     0.074 A 
ATOM     44  C   UNL     1      14.933   9.175   2.217  1.00  0.00     0.031 C 
ATOM     45  C   UNL     1       8.559  11.357   3.689  1.00  0.00     0.029 A 
ATOM     46  C   UNL     1       9.511  11.389   4.795  1.00  0.00     0.049 A 
ATOM     47  H   UNL     1      11.526  10.869   4.748  1.00  0.00     0.167 HD
ATOM     48  C   UNL     1      15.722   9.631   4.522  1.00  0.00     0.037 A 
ATOM     49  C   UNL     1       9.232  11.770   6.056  1.00  0.00     0.037 A 
ATOM     50  C   UNL     1      15.538  10.093   5.874  1.00  0.00     0.049 A 
ATOM     51  C   UNL     1      10.327  11.754   7.087  1.00  0.00     0.074 A 
ATOM     52  C   UNL     1      16.473  10.189   6.889  1.00  0.00     0.029 A 
ATOM     53  N   UNL     1      14.333  10.537   6.398  1.00  0.00    -0.354 N 
ATOM     54  N   UNL     1      11.585  11.412   6.954  1.00  0.00    -0.248 NA
ATOM     55  C   UNL     1       9.962  12.181   8.445  1.00  0.00     0.031 C 
ATOM     56  C   UNL     1      15.824  10.649   8.040  1.00  0.00     0.029 A 
ATOM     57  C   UNL     1      14.495  10.888   7.729  1.00  0.00     0.049 A 
ATOM     58  H   UNL     1      13.486  10.594   5.898  1.00  0.00     0.167 HD
ATOM     59  C   UNL     1      12.169  11.611   8.197  1.00  0.00     0.074 A 
ATOM     60  C   UNL     1      11.129  12.116   9.070  1.00  0.00     0.031 C 
ATOM     61  C   UNL     1      13.451  11.396   8.582  1.00  0.00     0.037 A 
BRANCH  48  62
ATOM     62  C   UNL     1      17.078   9.127   4.118  1.00  0.00     0.064 A 
ATOM     63  C   UNL     1      17.889   9.839   3.220  1.00  0.00     0.173 A 
ATOM     64  C   UNL     1      17.583   7.931   4.649  1.00  0.00     0.173 A 
ATOM     65  F   UNL     1      17.449  10.983   2.675  1.00  0.00    -0.203 F 
ATOM     66  C   UNL     1      19.139   9.354   2.843  1.00  0.00     0.198 A 
ATOM     67  C   UNL     1      18.846   7.465   4.294  1.00  0.00     0.198 A 
ATOM     68  F   UNL     1      16.853   7.214   5.517  1.00  0.00    -0.203 F 
ATOM     69  F   UNL     1      19.870  10.023   1.941  1.00  0.00    -0.200 F 
ATOM     70  C   UNL     1      19.619   8.171   3.384  1.00  0.00     0.200 A 
ATOM     71  F   UNL     1      19.315   6.328   4.827  1.00  0.00    -0.200 F 
ATOM     72  F   UNL     1      20.823   7.707   3.022  1.00  0.00    -0.200 F 
ENDBRANCH  48  62
BRANCH  49  73
ATOM     73  C   UNL     1       7.864  12.233   6.405  1.00  0.00     0.064 A 
ATOM     74  C   UNL     1       7.617  13.581   6.700  1.00  0.00     0.173 A 
ATOM     75  C   UNL     1       6.778  11.346   6.449  1.00  0.00     0.173 A 
ATOM     76  F   UNL     1       8.628  14.463   6.691  1.00  0.00    -0.203 F 
ATOM     77  C   UNL     1       6.341  14.022   7.043  1.00  0.00     0.198 A 
ATOM     78  C   UNL     1       5.497  11.793   6.766  1.00  0.00     0.198 A 
ATOM     79  F   UNL     1       6.960  10.047   6.170  1.00  0.00    -0.203 F 
ATOM     80  F   UNL     1       6.142  15.308   7.362  1.00  0.00    -0.200 F 
ATOM     81  C   UNL     1       5.281  13.129   7.070  1.00  0.00     0.200 A 
ATOM     82  F   UNL     1       4.473  10.929   6.777  1.00  0.00    -0.200 F 
ATOM     83  F   UNL     1       4.053  13.553   7.396  1.00  0.00    -0.200 F 
ENDBRANCH  49  73
BRANCH  61  84
ATOM     84  C   UNL     1      13.810  11.742   9.997  1.00  0.00     0.064 A 
ATOM     85  C   UNL     1      13.373  10.964  11.079  1.00  0.00     0.173 A 
ATOM     86  C   UNL     1      14.634  12.845  10.270  1.00  0.00     0.173 A 
ATOM     87  F   UNL     1      12.571   9.909  10.871  1.00  0.00    -0.203 F 
ATOM     88  C   UNL     1      13.726  11.293  12.385  1.00  0.00     0.198 A 
ATOM     89  C   UNL     1      15.009  13.154  11.575  1.00  0.00     0.198 A 
ATOM     90  F   UNL     1      15.083  13.617   9.270  1.00  0.00    -0.203 F 
ATOM     91  F   UNL     1      13.257  10.565  13.408  1.00  0.00    -0.200 F 
ATOM     92  C   UNL     1      14.549  12.383  12.631  1.00  0.00     0.200 A 
ATOM     93  F   UNL     1      15.814  14.199  11.809  1.00  0.00    -0.200 F 
ATOM     94  F   UNL     1      14.893  12.694  13.889  1.00  0.00    -0.200 F 
ENDBRANCH  61  84
ENDBRANCH  35  36
ENDBRANCH  27  30
ENDBRANCH  25  26
ENDBRANCH  24  25
ENDBRANCH  23  24
ENDBRANCH   1  23
TORSDOF 15
