REMARK SMILES COc1ccccc1N1C(=O)/C(=C\c2ccc(O[C@H](C)C(=O)NCCCCCCNC(=O)c3ccc(-c4c5nc(c(-c6c(F)c(F)c(F)c(F)c6F)c6ccc([nH]6)c(-c6c(F)c(F)c(F)c(F)c6F)c6nc(c(-c7c(F)c(F)c(F)c(F)c7F)c7ccc4[nH]7)C=C6)C=C5)cc3)cc2)SC1=S
REMARK SMILES IDX 25 1 24 2 23 3 21 4 22 5 19 7 20 8 18 9 17 10 14 11 15 12
REMARK SMILES IDX 97 13 16 14 96 15 13 16 9 17 10 18 99 19 11 20 12 21 98 22
REMARK SMILES IDX 100 23 8 24 3 25 4 26 5 27 7 28 6 29 2 30 1 31 26 32 27 33
REMARK SMILES IDX 28 34 29 35 30 36 31 37 32 39 33 40 34 41 95 42 35 43 94 44
REMARK SMILES IDX 36 45 37 46 38 47 88 48 39 49 93 50 87 51 89 52 40 53 92 54
REMARK SMILES IDX 86 55 85 56 41 58 73 59 53 60 72 61 54 62 57 63 71 64 90 65
REMARK SMILES IDX 55 66 56 67 70 69 91 70 58 71 42 72 43 73 51 74 44 75 45 76
REMARK SMILES IDX 49 77 52 78 46 79 47 80 50 81 48 82 74 83 75 84 83 85 76 86
REMARK SMILES IDX 77 87 81 88 84 89 78 90 79 91 82 92 80 93 59 94 60 95 68 96
REMARK SMILES IDX 61 97 62 98 66 99 69 100 63 101 64 102 67 103 65 104
REMARK H PARENT 23 6 30 38 89 57 57 68
REMARK Flexibility Score: inf
ROOT
ATOM      1  C   UNL     1       4.250  -3.272  -5.251  1.00  0.00     0.021 C 
ENDROOT
BRANCH   1   2
ATOM      2  C   UNL     1       3.260  -4.327  -4.779  1.00  0.00     0.116 C 
BRANCH   2   3
ATOM      3  N   UNL     1       2.988  -5.388  -5.711  1.00  0.00    -0.353 N 
ATOM      4  C   UNL     1       2.921  -6.732  -5.463  1.00  0.00     0.260 C 
ATOM      5  O   UNL     1       2.483  -7.439  -6.379  1.00  0.00    -0.271 OA
ATOM      6  H   UNL     1       2.830  -5.114  -6.644  1.00  0.00     0.163 HD
BRANCH   4   7
ATOM      7  C   UNL     1       3.455  -7.394  -4.147  1.00  0.00     0.258 C 
ATOM      8  C   UNL     1       4.982  -7.356  -4.086  1.00  0.00     0.064 C 
BRANCH   7   9
ATOM      9  O   UNL     1       2.773  -7.275  -2.897  1.00  0.00    -0.481 OA
BRANCH   9  10
ATOM     10  C   UNL     1       2.812  -6.142  -2.148  1.00  0.00     0.120 A 
ATOM     11  C   UNL     1       2.675  -3.789  -0.618  1.00  0.00    -0.024 A 
ATOM     12  C   UNL     1       3.911  -4.295  -1.034  1.00  0.00     0.012 A 
ATOM     13  C   UNL     1       1.507  -4.485  -0.940  1.00  0.00     0.012 A 
ATOM     14  C   UNL     1       3.979  -5.497  -1.743  1.00  0.00     0.047 A 
ATOM     15  C   UNL     1       1.580  -5.656  -1.703  1.00  0.00     0.047 A 
BRANCH  11  16
ATOM     16  C   UNL     1       2.647  -2.638   0.290  1.00  0.00     0.029 C 
ATOM     17  N   UNL     1       3.612  -3.766   3.619  1.00  0.00    -0.257 N 
ATOM     18  C   UNL     1       3.296  -4.023   2.292  1.00  0.00     0.270 C 
ATOM     19  C   UNL     1       3.594  -2.447   4.031  1.00  0.00     0.153 C 
ATOM     20  O   UNL     1       3.224  -5.122   1.779  1.00  0.00    -0.268 OA
ATOM     21  C   UNL     1       2.966  -2.747   1.589  1.00  0.00     0.081 C 
ATOM     22  S   UNL     1       3.042  -1.427   2.691  1.00  0.00    -0.054 SA
ATOM     23  S   UNL     1       4.107  -1.794   5.481  1.00  0.00    -0.051 S 
BRANCH  17  24
ATOM     24  C   UNL     1       3.813  -4.892   4.460  1.00  0.00     0.093 A 
ATOM     25  C   UNL     1       2.937  -5.186   5.515  1.00  0.00     0.143 A 
ATOM     26  C   UNL     1       3.086  -6.372   6.239  1.00  0.00     0.048 A 
ATOM     27  C   UNL     1       4.077  -7.291   5.887  1.00  0.00     0.004 A 
ATOM     28  C   UNL     1       4.803  -5.828   4.114  1.00  0.00     0.031 A 
ATOM     29  C   UNL     1       4.936  -7.019   4.826  1.00  0.00     0.002 A 
BRANCH  25  30
ATOM     30  O   UNL     1       1.903  -4.363   5.878  1.00  0.00    -0.495 OA
ATOM     31  C   UNL     1       0.803  -4.450   4.972  1.00  0.00     0.278 C 
ENDBRANCH  25  30
ENDBRANCH  17  24
ENDBRANCH  11  16
ENDBRANCH   9  10
ENDBRANCH   7   9
ENDBRANCH   4   7
ENDBRANCH   2   3
ENDBRANCH   1   2
BRANCH   1  32
ATOM     32  C   UNL     1       3.650  -2.087  -6.004  1.00  0.00     0.002 C 
BRANCH  32  33
ATOM     33  C   UNL     1       2.528  -1.327  -5.287  1.00  0.00     0.002 C 
BRANCH  33  34
ATOM     34  C   UNL     1       2.814  -0.866  -3.853  1.00  0.00     0.021 C 
BRANCH  34  35
ATOM     35  C   UNL     1       4.038   0.030  -3.670  1.00  0.00     0.116 C 
BRANCH  35  36
ATOM     36  N   UNL     1       3.972   1.235  -4.479  1.00  0.00    -0.352 N 
ATOM     37  C   UNL     1       4.044   2.557  -4.123  1.00  0.00     0.251 C 
ATOM     38  H   UNL     1       3.857   1.076  -5.444  1.00  0.00     0.163 HD
ATOM     39  O   UNL     1       3.792   3.424  -4.956  1.00  0.00    -0.269 OA
BRANCH  37  40
ATOM     40  C   UNL     1       4.408   2.961  -2.745  1.00  0.00     0.039 A 
ATOM     41  C   UNL     1       3.716   4.025  -2.157  1.00  0.00     0.014 A 
ATOM     42  C   UNL     1       5.457   2.348  -2.055  1.00  0.00     0.014 A 
ATOM     43  C   UNL     1       4.038   4.439  -0.862  1.00  0.00     0.010 A 
ATOM     44  C   UNL     1       5.739   2.722  -0.740  1.00  0.00     0.010 A 
ATOM     45  C   UNL     1       5.034   3.772  -0.131  1.00  0.00    -0.014 A 
BRANCH  45  46
ATOM     46  C   UNL     1       5.348   4.159   1.269  1.00  0.00     0.031 A 
ATOM     47  C   UNL     1       6.692   4.740   1.614  1.00  0.00     0.074 A 
ATOM     48  C   UNL     1       4.443   3.928   2.240  1.00  0.00     0.049 A 
ATOM     49  N   UNL     1       7.178   5.065   2.786  1.00  0.00    -0.248 NA
ATOM     50  C   UNL     1       7.624   4.965   0.498  1.00  0.00     0.031 C 
ATOM     51  C   UNL     1       3.120   3.335   2.038  1.00  0.00     0.029 A 
ATOM     52  N   UNL     1       4.503   4.150   3.594  1.00  0.00    -0.354 N 
ATOM     53  C   UNL     1       8.474   5.505   2.552  1.00  0.00     0.074 A 
ATOM     54  C   UNL     1       8.713   5.378   1.131  1.00  0.00     0.031 C 
ATOM     55  C   UNL     1       2.489   3.255   3.220  1.00  0.00     0.029 A 
ATOM     56  C   UNL     1       3.373   3.753   4.269  1.00  0.00     0.049 A 
ATOM     57  H   UNL     1       5.281   4.556   4.039  1.00  0.00     0.167 HD
ATOM     58  C   UNL     1       9.375   5.986   3.441  1.00  0.00     0.037 A 
ATOM     59  C   UNL     1       3.090   3.777   5.585  1.00  0.00     0.037 A 
ATOM     60  C   UNL     1       9.116   6.159   4.847  1.00  0.00     0.049 A 
ATOM     61  C   UNL     1       4.115   4.320   6.547  1.00  0.00     0.074 A 
ATOM     62  C   UNL     1       9.934   6.724   5.810  1.00  0.00     0.029 A 
ATOM     63  N   UNL     1       7.952   5.767   5.490  1.00  0.00    -0.354 N 
ATOM     64  N   UNL     1       5.301   4.820   6.299  1.00  0.00    -0.248 NA
ATOM     65  C   UNL     1       3.757   4.309   7.973  1.00  0.00     0.031 C 
ATOM     66  C   UNL     1       9.283   6.634   7.045  1.00  0.00     0.029 A 
ATOM     67  C   UNL     1       8.041   6.056   6.842  1.00  0.00     0.049 A 
ATOM     68  H   UNL     1       7.177   5.347   5.051  1.00  0.00     0.167 HD
ATOM     69  C   UNL     1       5.813   5.214   7.528  1.00  0.00     0.074 A 
ATOM     70  C   UNL     1       4.804   4.911   8.519  1.00  0.00     0.031 C 
ATOM     71  C   UNL     1       7.014   5.776   7.811  1.00  0.00     0.037 A 
BRANCH  58  72
ATOM     72  C   UNL     1      10.732   6.371   2.932  1.00  0.00     0.064 A 
ATOM     73  C   UNL     1      10.930   7.526   2.161  1.00  0.00     0.173 A 
ATOM     74  C   UNL     1      11.861   5.617   3.287  1.00  0.00     0.173 A 
ATOM     75  F   UNL     1       9.882   8.276   1.789  1.00  0.00    -0.203 F 
ATOM     76  C   UNL     1      12.206   7.904   1.753  1.00  0.00     0.198 A 
ATOM     77  C   UNL     1      13.139   6.012   2.898  1.00  0.00     0.198 A 
ATOM     78  F   UNL     1      11.727   4.506   4.028  1.00  0.00    -0.203 F 
ATOM     79  F   UNL     1      12.368   8.995   0.991  1.00  0.00    -0.200 F 
ATOM     80  C   UNL     1      13.310   7.153   2.129  1.00  0.00     0.200 A 
ATOM     81  F   UNL     1      14.205   5.292   3.273  1.00  0.00    -0.200 F 
ATOM     82  F   UNL     1      14.539   7.528   1.749  1.00  0.00    -0.200 F 
ENDBRANCH  58  72
BRANCH  59  83
ATOM     83  C   UNL     1       1.778   3.282   6.083  1.00  0.00     0.064 A 
ATOM     84  C   UNL     1       0.852   4.157   6.668  1.00  0.00     0.173 A 
ATOM     85  C   UNL     1       1.435   1.924   6.017  1.00  0.00     0.173 A 
ATOM     86  F   UNL     1       1.135   5.464   6.764  1.00  0.00    -0.203 F 
ATOM     87  C   UNL     1      -0.347   3.687   7.202  1.00  0.00     0.198 A 
ATOM     88  C   UNL     1       0.225   1.458   6.525  1.00  0.00     0.198 A 
ATOM     89  F   UNL     1       2.271   1.051   5.441  1.00  0.00    -0.203 F 
ATOM     90  F   UNL     1      -1.188   4.538   7.804  1.00  0.00    -0.200 F 
ATOM     91  C   UNL     1      -0.659   2.338   7.130  1.00  0.00     0.200 A 
ATOM     92  F   UNL     1      -0.084   0.157   6.430  1.00  0.00    -0.200 F 
ATOM     93  F   UNL     1      -1.810   1.886   7.646  1.00  0.00    -0.200 F 
ENDBRANCH  59  83
BRANCH  71  94
ATOM     94  C   UNL     1       7.280   6.152   9.239  1.00  0.00     0.064 A 
ATOM     95  C   UNL     1       7.527   5.184  10.223  1.00  0.00     0.173 A 
ATOM     96  C   UNL     1       7.328   7.503   9.618  1.00  0.00     0.173 A 
ATOM     97  F   UNL     1       7.479   3.880   9.915  1.00  0.00    -0.203 F 
ATOM     98  C   UNL     1       7.787   5.554  11.540  1.00  0.00     0.198 A 
ATOM     99  C   UNL     1       7.618   7.870  10.929  1.00  0.00     0.198 A 
ATOM    100  F   UNL     1       7.106   8.467   8.712  1.00  0.00    -0.203 F 
ATOM    101  F   UNL     1       7.975   4.612  12.475  1.00  0.00    -0.200 F 
ATOM    102  C   UNL     1       7.840   6.896  11.890  1.00  0.00     0.200 A 
ATOM    103  F   UNL     1       7.682   9.166  11.261  1.00  0.00    -0.200 F 
ATOM    104  F   UNL     1       8.098   7.250  13.156  1.00  0.00    -0.200 F 
ENDBRANCH  71  94
ENDBRANCH  45  46
ENDBRANCH  37  40
ENDBRANCH  35  36
ENDBRANCH  34  35
ENDBRANCH  33  34
ENDBRANCH  32  33
ENDBRANCH   1  32
TORSDOF 18
