REMARK SMILES CCc1cc(C(=O)c2[nH]c3cc(Cl)ccc3c2CC(=O)NCCCCCCNC(=O)c2ccc(-c3c4nc(c(-c5c(F)c(F)c(F)c(F)c5F)c5ccc([nH]5)c(-c5c(F)c(F)c(F)c(F)c5F)c5nc(c(-c6c(F)c(F)c(F)c(F)c6F)c6ccc3[nH]6)C=C5)C=C4)cc2)ncc1Cl
REMARK SMILES IDX 23 1 22 2 21 3 19 4 20 5 18 7 17 8 8 9 9 10 10 11 16 13
REMARK SMILES IDX 11 14 15 15 12 16 14 17 13 18 6 19 7 20 5 21 3 22 4 23 96 24
REMARK SMILES IDX 95 25 97 26 94 27 2 28 1 29 24 30 25 31 26 32 27 33 28 34
REMARK SMILES IDX 29 35 30 37 31 38 32 39 93 40 33 41 92 42 34 43 35 44 36 45
REMARK SMILES IDX 86 46 37 47 91 48 85 49 87 50 38 51 90 52 84 53 83 54 39 56
REMARK SMILES IDX 71 57 51 58 70 59 52 60 55 61 69 62 88 63 53 64 54 65 68 67
REMARK SMILES IDX 89 68 56 69 40 70 41 71 49 72 42 73 43 74 47 75 50 76 44 77
REMARK SMILES IDX 45 78 48 79 46 80 72 81 73 82 81 83 74 84 75 85 79 86 82 87
REMARK SMILES IDX 76 88 77 89 80 90 78 91 57 92 58 93 66 94 59 95 60 96 64 97
REMARK SMILES IDX 67 98 61 99 62 100 65 101 63 102
REMARK H PARENT 21 6 9 12 28 36 87 55 55 66
REMARK Flexibility Score: inf
ROOT
ATOM      1  C   UNL     1       4.758   3.625  -8.898  1.00  0.00     0.021 C 
ENDROOT
BRANCH   1   2
ATOM      2  C   UNL     1       3.337   3.737  -9.451  1.00  0.00     0.116 C 
BRANCH   2   3
ATOM      3  N   UNL     1       2.624   2.475  -9.428  1.00  0.00    -0.356 N 
ATOM      4  C   UNL     1       1.659   2.041  -8.565  1.00  0.00     0.224 C 
ATOM      5  O   UNL     1       1.127   0.949  -8.775  1.00  0.00    -0.275 OA
ATOM      6  H   UNL     1       2.872   1.839 -10.137  1.00  0.00     0.163 HD
BRANCH   4   7
ATOM      7  C   UNL     1       1.189   2.924  -7.420  1.00  0.00     0.138 C 
BRANCH   7   8
ATOM      8  C   UNL     1       2.216   3.151  -6.348  1.00  0.00    -0.002 A 
ATOM      9  C   UNL     1       2.924   2.191  -5.633  1.00  0.00     0.093 A 
ATOM     10  N   UNL     1       3.819   2.850  -4.825  1.00  0.00    -0.351 N 
ATOM     11  C   UNL     1       3.634   4.208  -4.903  1.00  0.00     0.048 A 
ATOM     12  H   UNL     1       4.500   2.410  -4.267  1.00  0.00     0.167 HD
ATOM     13  C   UNL     1       2.634   4.431  -5.849  1.00  0.00     0.004 A 
ATOM     14  C   UNL     1       4.285   5.245  -4.223  1.00  0.00     0.047 A 
ATOM     15  C   UNL     1       2.264   5.764  -6.130  1.00  0.00     0.012 A 
ATOM     16  C   UNL     1       3.896   6.553  -4.523  1.00  0.00     0.043 A 
ATOM     17  C   UNL     1       2.902   6.816  -5.460  1.00  0.00     0.021 A 
ATOM     18  Cl  UNL     1       4.669   7.864  -3.716  1.00  0.00    -0.084 Cl
BRANCH   9  19
ATOM     19  C   UNL     1       2.883   0.742  -5.718  1.00  0.00     0.227 C 
ATOM     20  O   UNL     1       3.579   0.143  -6.530  1.00  0.00    -0.285 OA
BRANCH  19  21
ATOM     21  C   UNL     1       2.044  -0.011  -4.709  1.00  0.00     0.113 A 
ATOM     22  C   UNL     1       0.742  -0.133  -2.664  1.00  0.00    -0.026 A 
ATOM     23  C   UNL     1       1.436   0.627  -3.624  1.00  0.00     0.037 A 
ATOM     24  C   UNL     1       0.667  -1.518  -2.850  1.00  0.00     0.062 A 
ATOM     25  C   UNL     1       1.286  -2.068  -3.964  1.00  0.00     0.132 A 
ATOM     26  Cl  UNL     1      -0.145  -2.564  -1.749  1.00  0.00    -0.082 Cl
ATOM     27  N   UNL     1       1.979  -1.354  -4.883  1.00  0.00    -0.251 NA
BRANCH  22  28
ATOM     28  C   UNL     1       0.164   0.565  -1.455  1.00  0.00     0.034 C 
ATOM     29  C   UNL     1       1.132   0.552  -0.279  1.00  0.00     0.009 C 
ENDBRANCH  22  28
ENDBRANCH  19  21
ENDBRANCH   9  19
ENDBRANCH   7   8
ENDBRANCH   4   7
ENDBRANCH   2   3
ENDBRANCH   1   2
BRANCH   1  30
ATOM     30  C   UNL     1       5.727   2.807  -9.760  1.00  0.00     0.002 C 
BRANCH  30  31
ATOM     31  C   UNL     1       5.964   3.328 -11.182  1.00  0.00     0.002 C 
BRANCH  31  32
ATOM     32  C   UNL     1       6.405   4.793 -11.303  1.00  0.00     0.021 C 
BRANCH  32  33
ATOM     33  C   UNL     1       7.673   5.177 -10.538  1.00  0.00     0.116 C 
BRANCH  33  34
ATOM     34  N   UNL     1       8.848   4.469 -11.013  1.00  0.00    -0.352 N 
ATOM     35  C   UNL     1      10.146   4.895 -11.139  1.00  0.00     0.251 C 
ATOM     36  H   UNL     1       8.688   3.538 -11.288  1.00  0.00     0.163 HD
ATOM     37  O   UNL     1      10.969   4.163 -11.684  1.00  0.00    -0.269 OA
BRANCH  35  38
ATOM     38  C   UNL     1      10.582   6.224 -10.647  1.00  0.00     0.039 A 
ATOM     39  C   UNL     1      11.486   6.950 -11.434  1.00  0.00     0.014 A 
ATOM     40  C   UNL     1      10.203   6.718  -9.395  1.00  0.00     0.014 A 
ATOM     41  C   UNL     1      11.988   8.174 -10.984  1.00  0.00     0.010 A 
ATOM     42  C   UNL     1      10.690   7.953  -8.952  1.00  0.00     0.010 A 
ATOM     43  C   UNL     1      11.593   8.684  -9.739  1.00  0.00    -0.014 A 
BRANCH  43  44
ATOM     44  C   UNL     1      12.155   9.962  -9.240  1.00  0.00     0.031 A 
ATOM     45  C   UNL     1      13.253   9.955  -8.216  1.00  0.00     0.074 A 
ATOM     46  C   UNL     1      11.677  11.132  -9.700  1.00  0.00     0.049 A 
ATOM     47  N   UNL     1      13.837  10.967  -7.623  1.00  0.00    -0.248 NA
ATOM     48  C   UNL     1      13.755   8.638  -7.796  1.00  0.00     0.031 C 
ATOM     49  C   UNL     1      10.611  11.280 -10.689  1.00  0.00     0.029 A 
ATOM     50  N   UNL     1      12.032  12.421  -9.391  1.00  0.00    -0.354 N 
ATOM     51  C   UNL     1      14.751  10.410  -6.741  1.00  0.00     0.074 A 
ATOM     52  C   UNL     1      14.656   8.972  -6.882  1.00  0.00     0.031 C 
ATOM     53  C   UNL     1      10.406  12.589 -10.916  1.00  0.00     0.029 A 
ATOM     54  C   UNL     1      11.318  13.367 -10.082  1.00  0.00     0.049 A 
ATOM     55  H   UNL     1      12.732  12.646  -8.736  1.00  0.00     0.167 HD
ATOM     56  C   UNL     1      15.589  11.041  -5.885  1.00  0.00     0.037 A 
ATOM     57  C   UNL     1      11.395  14.710 -10.048  1.00  0.00     0.037 A 
ATOM     58  C   UNL     1      15.716  12.467  -5.754  1.00  0.00     0.049 A 
ATOM     59  C   UNL     1      12.390  15.384  -9.150  1.00  0.00     0.074 A 
ATOM     60  C   UNL     1      16.525  13.191  -4.895  1.00  0.00     0.029 A 
ATOM     61  N   UNL     1      15.023  13.388  -6.522  1.00  0.00    -0.354 N 
ATOM     62  N   UNL     1      13.232  14.846  -8.303  1.00  0.00    -0.248 NA
ATOM     63  C   UNL     1      12.448  16.853  -9.206  1.00  0.00     0.031 C 
ATOM     64  C   UNL     1      16.327  14.554  -5.149  1.00  0.00     0.029 A 
ATOM     65  C   UNL     1      15.399  14.674  -6.170  1.00  0.00     0.049 A 
ATOM     66  H   UNL     1      14.362  13.163  -7.216  1.00  0.00     0.167 HD
ATOM     67  C   UNL     1      13.923  15.904  -7.732  1.00  0.00     0.074 A 
ATOM     68  C   UNL     1      13.409  17.118  -8.331  1.00  0.00     0.031 C 
ATOM     69  C   UNL     1      14.894  15.868  -6.789  1.00  0.00     0.037 A 
BRANCH  56  70
ATOM     70  C   UNL     1      16.430  10.179  -5.001  1.00  0.00     0.064 A 
ATOM     71  C   UNL     1      17.654   9.661  -5.443  1.00  0.00     0.173 A 
ATOM     72  C   UNL     1      16.018   9.892  -3.692  1.00  0.00     0.173 A 
ATOM     73  F   UNL     1      18.076   9.901  -6.693  1.00  0.00    -0.203 F 
ATOM     74  C   UNL     1      18.438   8.877  -4.603  1.00  0.00     0.198 A 
ATOM     75  C   UNL     1      16.808   9.113  -2.853  1.00  0.00     0.198 A 
ATOM     76  F   UNL     1      14.849  10.364  -3.232  1.00  0.00    -0.203 F 
ATOM     77  F   UNL     1      19.599   8.375  -5.047  1.00  0.00    -0.200 F 
ATOM     78  C   UNL     1      18.016   8.606  -3.309  1.00  0.00     0.200 A 
ATOM     79  F   UNL     1      16.398   8.849  -1.604  1.00  0.00    -0.200 F 
ATOM     80  F   UNL     1      18.772   7.848  -2.502  1.00  0.00    -0.200 F 
ENDBRANCH  56  70
BRANCH  57  81
ATOM     81  C   UNL     1      10.512  15.511 -10.925  1.00  0.00     0.064 A 
ATOM     82  C   UNL     1      10.975  15.992 -12.156  1.00  0.00     0.173 A 
ATOM     83  C   UNL     1       9.193  15.797 -10.554  1.00  0.00     0.173 A 
ATOM     84  F   UNL     1      12.239  15.753 -12.536  1.00  0.00    -0.203 F 
ATOM     85  C   UNL     1      10.146  16.737 -12.989  1.00  0.00     0.198 A 
ATOM     86  C   UNL     1       8.362  16.537 -11.391  1.00  0.00     0.198 A 
ATOM     87  F   UNL     1       8.714  15.358  -9.381  1.00  0.00    -0.203 F 
ATOM     88  F   UNL     1      10.613  17.201 -14.156  1.00  0.00    -0.200 F 
ATOM     89  C   UNL     1       8.839  17.007 -12.607  1.00  0.00     0.200 A 
ATOM     90  F   UNL     1       7.101  16.797 -11.021  1.00  0.00    -0.200 F 
ATOM     91  F   UNL     1       8.041  17.725 -13.408  1.00  0.00    -0.200 F 
ENDBRANCH  57  81
BRANCH  69  92
ATOM     92  C   UNL     1      15.477  17.176  -6.363  1.00  0.00     0.064 A 
ATOM     93  C   UNL     1      14.880  17.936  -5.349  1.00  0.00     0.173 A 
ATOM     94  C   UNL     1      16.657  17.654  -6.948  1.00  0.00     0.173 A 
ATOM     95  F   UNL     1      13.742  17.519  -4.773  1.00  0.00    -0.203 F 
ATOM     96  C   UNL     1      15.445  19.139  -4.936  1.00  0.00     0.198 A 
ATOM     97  C   UNL     1      17.222  18.855  -6.530  1.00  0.00     0.198 A 
ATOM     98  F   UNL     1      17.255  16.960  -7.927  1.00  0.00    -0.203 F 
ATOM     99  F   UNL     1      14.854  19.860  -3.974  1.00  0.00    -0.200 F 
ATOM    100  C   UNL     1      16.616  19.596  -5.524  1.00  0.00     0.200 A 
ATOM    101  F   UNL     1      18.349  19.300  -7.102  1.00  0.00    -0.200 F 
ATOM    102  F   UNL     1      17.157  20.756  -5.128  1.00  0.00    -0.200 F 
ENDBRANCH  69  92
ENDBRANCH  43  44
ENDBRANCH  35  38
ENDBRANCH  33  34
ENDBRANCH  32  33
ENDBRANCH  31  32
ENDBRANCH  30  31
ENDBRANCH   1  30
TORSDOF 17
