REMARK SMILES COc1ccccc1C[N@@H+](C)[C@@H](C)c1ccc(C(=O)NCCCCCCNC(=O)c2ccc(-c3c4nc(c(-c5c(F)c(F)c(F)c(F)c5F)c5ccc([nH]5)c(-c5c(F)c(F)c(F)c(F)c5F)c5nc(c(-c6c(F)c(F)c(F)c(F)c6F)c6ccc3[nH]6)C=C5)C=C4)cc2)o1
REMARK SMILES IDX 22 1 21 2 20 3 18 4 19 5 17 7 14 8 15 9 93 10 16 11 12 12
REMARK SMILES IDX 13 13 10 14 11 15 9 17 8 18 3 19 4 20 5 21 7 22 6 23 2 24
REMARK SMILES IDX 1 25 23 26 24 27 25 28 26 29 27 30 28 31 29 33 30 34 31 35
REMARK SMILES IDX 92 36 32 37 91 38 33 39 34 40 35 41 85 42 36 43 90 44 84 45
REMARK SMILES IDX 86 46 37 47 89 48 83 49 82 50 38 52 70 53 50 54 69 55 51 56
REMARK SMILES IDX 54 57 68 58 87 59 52 60 53 61 67 63 88 64 55 65 39 66 40 67
REMARK SMILES IDX 48 68 41 69 42 70 46 71 49 72 43 73 44 74 47 75 45 76 71 77
REMARK SMILES IDX 72 78 80 79 73 80 74 81 78 82 81 83 75 84 76 85 79 86 77 87
REMARK SMILES IDX 56 88 57 89 65 90 58 91 59 92 63 93 66 94 60 95 61 96 64 97
REMARK SMILES IDX 62 98
REMARK H PARENT 20 6 10 16 27 32 86 51 54 62
REMARK Flexibility Score: inf
ROOT
ATOM      1  C   UNL     1      -1.353   3.858  -6.468  1.00  0.00     0.021 C 
ENDROOT
BRANCH   1   2
ATOM      2  C   UNL     1      -0.024   3.394  -7.063  1.00  0.00     0.116 C 
BRANCH   2   3
ATOM      3  N   UNL     1       1.112   3.965  -6.381  1.00  0.00    -0.349 N 
ATOM      4  C   UNL     1       2.131   3.394  -5.650  1.00  0.00     0.287 C 
ATOM      5  O   UNL     1       3.051   4.171  -5.373  1.00  0.00    -0.266 OA
ATOM      6  H   UNL     1       1.170   4.945  -6.451  1.00  0.00     0.163 HD
BRANCH   4   7
ATOM      7  C   UNL     1       2.105   2.003  -5.226  1.00  0.00     0.191 A 
ATOM      8  C   UNL     1       2.924   0.310  -4.032  1.00  0.00     0.161 A 
ATOM      9  C   UNL     1       1.742  -0.133  -4.581  1.00  0.00     0.053 A 
ATOM     10  O   UNL     1       3.193   1.565  -4.498  1.00  0.00    -0.450 OA
ATOM     11  C   UNL     1       1.202   0.956  -5.302  1.00  0.00     0.057 A 
BRANCH   8  12
ATOM     12  C   UNL     1       3.898  -0.306  -3.059  1.00  0.00     0.248 C 
ATOM     13  C   UNL     1       3.349  -1.643  -2.521  1.00  0.00     0.084 C 
BRANCH  12  14
ATOM     14  N   UNL     1       4.369   0.633  -2.003  1.00  0.00    -0.325 N 
ATOM     15  C   UNL     1       5.553   0.094  -1.323  1.00  0.00     0.333 C 
ATOM     16  H   UNL     1       4.587   1.489  -2.512  1.00  0.00     0.348 HD
BRANCH  14  17
ATOM     17  C   UNL     1       3.365   1.010  -0.987  1.00  0.00     0.303 C 
BRANCH  17  18
ATOM     18  C   UNL     1       2.273   1.949  -1.446  1.00  0.00     0.048 A 
ATOM     19  C   UNL     1       0.924   1.570  -1.504  1.00  0.00     0.127 A 
ATOM     20  C   UNL     1      -0.049   2.441  -2.007  1.00  0.00     0.047 A 
ATOM     21  C   UNL     1       0.304   3.728  -2.406  1.00  0.00     0.004 A 
ATOM     22  C   UNL     1       2.607   3.256  -1.842  1.00  0.00     0.013 A 
ATOM     23  C   UNL     1       1.631   4.140  -2.312  1.00  0.00     0.001 A 
BRANCH  19  24
ATOM     24  O   UNL     1       0.520   0.304  -1.166  1.00  0.00    -0.496 OA
ATOM     25  C   UNL     1       0.246   0.226   0.233  1.00  0.00     0.278 C 
ENDBRANCH  19  24
ENDBRANCH  17  18
ENDBRANCH  14  17
ENDBRANCH  12  14
ENDBRANCH   8  12
ENDBRANCH   4   7
ENDBRANCH   2   3
ENDBRANCH   1   2
BRANCH   1  26
ATOM     26  C   UNL     1      -1.798   5.248  -6.945  1.00  0.00     0.002 C 
BRANCH  26  27
ATOM     27  C   UNL     1      -1.831   5.439  -8.467  1.00  0.00     0.002 C 
BRANCH  27  28
ATOM     28  C   UNL     1      -2.582   4.354  -9.243  1.00  0.00     0.021 C 
BRANCH  28  29
ATOM     29  C   UNL     1      -4.064   4.262  -8.909  1.00  0.00     0.116 C 
BRANCH  29  30
ATOM     30  N   UNL     1      -4.782   5.459  -9.318  1.00  0.00    -0.352 N 
ATOM     31  C   UNL     1      -5.858   5.578 -10.161  1.00  0.00     0.251 C 
ATOM     32  H   UNL     1      -4.449   6.303  -8.936  1.00  0.00     0.163 HD
ATOM     33  O   UNL     1      -6.201   6.677 -10.581  1.00  0.00    -0.269 OA
BRANCH  31  34
ATOM     34  C   UNL     1      -6.599   4.367 -10.570  1.00  0.00     0.039 A 
ATOM     35  C   UNL     1      -6.966   4.213 -11.909  1.00  0.00     0.014 A 
ATOM     36  C   UNL     1      -6.940   3.393  -9.627  1.00  0.00     0.014 A 
ATOM     37  C   UNL     1      -7.633   3.055 -12.312  1.00  0.00     0.010 A 
ATOM     38  C   UNL     1      -7.534   2.208 -10.044  1.00  0.00     0.010 A 
ATOM     39  C   UNL     1      -7.898   2.031 -11.388  1.00  0.00    -0.014 A 
BRANCH  39  40
ATOM     40  C   UNL     1      -8.581   0.777 -11.791  1.00  0.00     0.031 A 
ATOM     41  C   UNL     1      -9.923   0.439 -11.204  1.00  0.00     0.074 A 
ATOM     42  C   UNL     1      -7.966  -0.087 -12.620  1.00  0.00     0.049 A 
ATOM     43  N   UNL     1     -10.636  -0.651 -11.334  1.00  0.00    -0.248 NA
ATOM     44  C   UNL     1     -10.531   1.451 -10.326  1.00  0.00     0.031 C 
ATOM     45  C   UNL     1      -6.649   0.114 -13.226  1.00  0.00     0.029 A 
ATOM     46  N   UNL     1      -8.361  -1.317 -13.082  1.00  0.00    -0.354 N 
ATOM     47  C   UNL     1     -11.761  -0.463 -10.542  1.00  0.00     0.074 A 
ATOM     48  C   UNL     1     -11.610   0.819  -9.889  1.00  0.00     0.031 C 
ATOM     49  C   UNL     1      -6.354  -0.946 -13.995  1.00  0.00     0.029 A 
ATOM     50  C   UNL     1      -7.438  -1.920 -13.901  1.00  0.00     0.049 A 
ATOM     51  H   UNL     1      -9.225  -1.728 -12.850  1.00  0.00     0.167 HD
ATOM     52  C   UNL     1     -12.835  -1.275 -10.392  1.00  0.00     0.037 A 
ATOM     53  C   UNL     1      -7.460  -3.128 -14.496  1.00  0.00     0.037 A 
ATOM     54  C   UNL     1     -12.988  -2.539 -11.063  1.00  0.00     0.049 A 
ATOM     55  C   UNL     1      -8.655  -4.021 -14.297  1.00  0.00     0.074 A 
ATOM     56  C   UNL     1     -14.059  -3.414 -11.020  1.00  0.00     0.029 A 
ATOM     57  N   UNL     1     -12.038  -3.108 -11.899  1.00  0.00    -0.354 N 
ATOM     58  N   UNL     1      -9.740  -3.810 -13.592  1.00  0.00    -0.248 NA
ATOM     59  C   UNL     1      -8.630  -5.321 -14.983  1.00  0.00     0.031 C 
ATOM     60  C   UNL     1     -13.735  -4.538 -11.787  1.00  0.00     0.029 A 
ATOM     61  C   UNL     1     -12.489  -4.335 -12.360  1.00  0.00     0.049 A 
ATOM     62  H   UNL     1     -11.172  -2.701 -12.131  1.00  0.00     0.167 HD
ATOM     63  C   UNL     1     -10.541  -4.928 -13.779  1.00  0.00     0.074 A 
ATOM     64  C   UNL     1      -9.821  -5.813 -14.670  1.00  0.00     0.031 C 
ATOM     65  C   UNL     1     -11.765  -5.197 -13.261  1.00  0.00     0.037 A 
BRANCH  52  66
ATOM     66  C   UNL     1     -13.924  -0.820  -9.463  1.00  0.00     0.064 A 
ATOM     67  C   UNL     1     -14.736   0.286  -9.762  1.00  0.00     0.173 A 
ATOM     68  C   UNL     1     -14.176  -1.511  -8.269  1.00  0.00     0.173 A 
ATOM     69  F   UNL     1     -14.530   0.991 -10.886  1.00  0.00    -0.203 F 
ATOM     70  C   UNL     1     -15.732   0.704  -8.883  1.00  0.00     0.198 A 
ATOM     71  C   UNL     1     -15.197  -1.112  -7.410  1.00  0.00     0.198 A 
ATOM     72  F   UNL     1     -13.436  -2.579  -7.935  1.00  0.00    -0.203 F 
ATOM     73  F   UNL     1     -16.453   1.799  -9.163  1.00  0.00    -0.200 F 
ATOM     74  C   UNL     1     -15.966   0.001  -7.712  1.00  0.00     0.200 A 
ATOM     75  F   UNL     1     -15.432  -1.802  -6.285  1.00  0.00    -0.200 F 
ATOM     76  F   UNL     1     -16.929   0.401  -6.870  1.00  0.00    -0.200 F 
ENDBRANCH  52  66
BRANCH  53  77
ATOM     77  C   UNL     1      -6.323  -3.554 -15.354  1.00  0.00     0.064 A 
ATOM     78  C   UNL     1      -6.481  -3.688 -16.741  1.00  0.00     0.173 A 
ATOM     79  C   UNL     1      -5.062  -3.839 -14.812  1.00  0.00     0.173 A 
ATOM     80  F   UNL     1      -7.673  -3.445 -17.305  1.00  0.00    -0.203 F 
ATOM     81  C   UNL     1      -5.428  -4.113 -17.549  1.00  0.00     0.198 A 
ATOM     82  C   UNL     1      -4.001  -4.235 -15.624  1.00  0.00     0.198 A 
ATOM     83  F   UNL     1      -4.855  -3.721 -13.492  1.00  0.00    -0.203 F 
ATOM     84  F   UNL     1      -5.622  -4.279 -18.864  1.00  0.00    -0.200 F 
ATOM     85  C   UNL     1      -4.188  -4.380 -16.991  1.00  0.00     0.200 A 
ATOM     86  F   UNL     1      -2.800  -4.477 -15.083  1.00  0.00    -0.200 F 
ATOM     87  F   UNL     1      -3.174  -4.786 -17.768  1.00  0.00    -0.200 F 
ENDBRANCH  53  77
BRANCH  65  88
ATOM     88  C   UNL     1     -12.431  -6.475 -13.684  1.00  0.00     0.064 A 
ATOM     89  C   UNL     1     -11.977  -7.727 -13.245  1.00  0.00     0.173 A 
ATOM     90  C   UNL     1     -13.571  -6.439 -14.502  1.00  0.00     0.173 A 
ATOM     91  F   UNL     1     -10.884  -7.817 -12.473  1.00  0.00    -0.203 F 
ATOM     92  C   UNL     1     -12.627  -8.898 -13.630  1.00  0.00     0.198 A 
ATOM     93  C   UNL     1     -14.237  -7.608 -14.857  1.00  0.00     0.198 A 
ATOM     94  F   UNL     1     -14.050  -5.266 -14.943  1.00  0.00    -0.203 F 
ATOM     95  F   UNL     1     -12.148 -10.087 -13.238  1.00  0.00    -0.200 F 
ATOM     96  C   UNL     1     -13.760  -8.837 -14.427  1.00  0.00     0.200 A 
ATOM     97  F   UNL     1     -15.341  -7.545 -15.613  1.00  0.00    -0.200 F 
ATOM     98  F   UNL     1     -14.390  -9.964 -14.786  1.00  0.00    -0.200 F 
ENDBRANCH  65  88
ENDBRANCH  39  40
ENDBRANCH  31  34
ENDBRANCH  29  30
ENDBRANCH  28  29
ENDBRANCH  27  28
ENDBRANCH  26  27
ENDBRANCH   1  26
TORSDOF 18
