REMARK SMILES O=C1C[C@H](c2cn[nH]c2C(=O)NCCCCCCNC(=O)c2ccc(-c3c4nc(c(-c5c(F)c(F)c(F)c(F)c5F)c5ccc([nH]5)c(-c5c(F)c(F)c(F)c(F)c5F)c5nc(c(-c6c(F)c(F)c(F)c(F)c6F)c6ccc3[nH]6)C=C5)C=C4)cc2)c2c(-c3cccs3)n[nH]c2N1
REMARK SMILES IDX 15 1 14 2 13 3 12 4 10 5 11 6 9 8 5 9 6 10 7 11 8 12 4 14
REMARK SMILES IDX 1 15 2 16 3 17 95 18 94 19 85 21 93 22 86 23 92 24 87 26
REMARK SMILES IDX 88 27 91 28 89 29 90 30 16 31 17 32 18 33 19 34 20 35 21 37
REMARK SMILES IDX 22 38 23 39 84 40 24 41 83 42 25 43 26 44 27 45 77 46 28 47
REMARK SMILES IDX 82 48 76 49 78 50 29 51 81 52 75 53 74 54 30 56 62 57 42 58
REMARK SMILES IDX 61 59 43 60 46 61 60 62 79 63 44 64 45 65 59 67 80 68 47 69
REMARK SMILES IDX 31 70 32 71 40 72 33 73 34 74 38 75 41 76 35 77 36 78 39 79
REMARK SMILES IDX 37 80 63 81 64 82 72 83 65 84 66 85 70 86 73 87 67 88 68 89
REMARK SMILES IDX 71 90 69 91 48 92 49 93 57 94 50 95 51 96 55 97 58 98 52 99
REMARK SMILES IDX 53 100 56 101 54 102
REMARK H PARENT 12 7 8 13 95 20 93 25 19 36 78 55 46 66
REMARK Flexibility Score: inf
ROOT
ATOM      1  C   UNL     1       4.957  -3.624   1.314  1.00  0.00     0.002 C 
ENDROOT
BRANCH   1   2
ATOM      2  C   UNL     1       4.208  -2.386   0.816  1.00  0.00     0.021 C 
BRANCH   2   3
ATOM      3  C   UNL     1       5.257  -1.082   0.310  1.00  0.00     0.116 C 
BRANCH   3   4
ATOM      4  N   UNL     1       5.713  -0.431  -1.698  1.00  0.00    -0.351 N 
ATOM      5  C   UNL     1       5.728   0.425  -2.830  1.00  0.00     0.269 C 
ATOM      6  O   UNL     1       6.353   0.007  -3.808  1.00  0.00    -0.268 OA
ATOM      7  H   UNL     1       6.225  -1.201  -2.036  1.00  0.00     0.163 HD
BRANCH   5   8
ATOM      8  C   UNL     1       5.142   1.743  -2.849  1.00  0.00     0.126 A 
ATOM      9  C   UNL     1       4.482   2.484  -1.881  1.00  0.00     0.011 A 
ATOM     10  C   UNL     1       4.253   3.736  -2.481  1.00  0.00     0.140 A 
ATOM     11  N   UNL     1       4.699   3.785  -3.737  1.00  0.00    -0.183 NA
ATOM     12  N   UNL     1       5.234   2.567  -3.934  1.00  0.00    -0.273 N 
ATOM     13  H   UNL     1       5.653   2.295  -4.782  1.00  0.00     0.190 HD
BRANCH   9  14
ATOM     14  C   UNL     1       4.175   2.006  -0.507  1.00  0.00     0.069 C 
ATOM     15  O   UNL     1       0.713   0.386  -0.431  1.00  0.00    -0.275 OA
ATOM     16  C   UNL     1       1.924   0.485  -0.665  1.00  0.00     0.226 C 
ATOM     17  C   UNL     1       2.662   1.797  -0.265  1.00  0.00     0.114 C 
ATOM     18  N   UNL     1       2.567  -0.609  -1.192  1.00  0.00    -0.311 N 
ATOM     19  C   UNL     1       3.922  -0.661  -1.073  1.00  0.00     0.132 A 
ATOM     20  H   UNL     1       2.067  -1.329  -1.639  1.00  0.00     0.171 HD
ATOM     21  C   UNL     1       4.835   0.704  -0.426  1.00  0.00     0.031 A 
ATOM     22  N   UNL     1       5.097  -2.071  -1.312  1.00  0.00    -0.262 N 
ATOM     23  C   UNL     1       6.684   0.137  -0.220  1.00  0.00     0.108 A 
ATOM     24  N   UNL     1       6.816  -1.550  -0.739  1.00  0.00    -0.173 NA
ATOM     25  H   UNL     1       4.862  -2.953  -1.679  1.00  0.00     0.192 HD
BRANCH  23  26
ATOM     26  C   UNL     1       7.799   1.092  -0.008  1.00  0.00     0.055 A 
ATOM     27  C   UNL     1       8.925   1.121  -0.795  1.00  0.00     0.022 A 
ATOM     28  S   UNL     1       7.746   2.357   1.124  1.00  0.00    -0.142 S 
ATOM     29  C   UNL     1       9.725   2.267  -0.508  1.00  0.00     0.012 A 
ATOM     30  C   UNL     1       9.233   2.990   0.559  1.00  0.00     0.065 A 
ENDBRANCH  23  26
ENDBRANCH   9  14
ENDBRANCH   5   8
ENDBRANCH   3   4
ENDBRANCH   2   3
ENDBRANCH   1   2
BRANCH   1  31
ATOM     31  C   UNL     1       6.124  -3.359   2.272  1.00  0.00     0.002 C 
BRANCH  31  32
ATOM     32  C   UNL     1       5.811  -2.441   3.466  1.00  0.00     0.021 C 
BRANCH  32  33
ATOM     33  C   UNL     1       4.643  -2.939   4.295  1.00  0.00     0.116 C 
BRANCH  33  34
ATOM     34  N   UNL     1       4.829  -4.335   4.700  1.00  0.00    -0.352 N 
ATOM     35  C   UNL     1       4.014  -5.144   5.457  1.00  0.00     0.251 C 
ATOM     36  H   UNL     1       5.661  -4.756   4.383  1.00  0.00     0.163 HD
ATOM     37  O   UNL     1       4.429  -6.164   5.989  1.00  0.00    -0.269 OA
BRANCH  35  38
ATOM     38  C   UNL     1       2.594  -4.808   5.506  1.00  0.00     0.039 A 
ATOM     39  C   UNL     1       1.741  -5.065   6.579  1.00  0.00     0.014 A 
ATOM     40  C   UNL     1       2.071  -4.306   4.331  1.00  0.00     0.014 A 
ATOM     41  C   UNL     1       0.380  -4.828   6.379  1.00  0.00     0.010 A 
ATOM     42  C   UNL     1       0.953  -3.567   4.432  1.00  0.00     0.010 A 
ATOM     43  C   UNL     1      -0.005  -4.170   5.202  1.00  0.00    -0.014 A 
BRANCH  43  44
ATOM     44  C   UNL     1      -1.330  -3.706   4.864  1.00  0.00     0.031 A 
ATOM     45  C   UNL     1      -1.787  -2.709   5.865  1.00  0.00     0.074 A 
ATOM     46  C   UNL     1      -1.899  -3.994   3.666  1.00  0.00     0.049 A 
ATOM     47  N   UNL     1      -2.551  -2.966   6.872  1.00  0.00    -0.248 NA
ATOM     48  C   UNL     1      -1.093  -1.409   5.989  1.00  0.00     0.031 C 
ATOM     49  C   UNL     1      -1.384  -4.760   2.518  1.00  0.00     0.029 A 
ATOM     50  N   UNL     1      -3.137  -3.626   3.221  1.00  0.00    -0.354 N 
ATOM     51  C   UNL     1      -2.667  -1.772   7.568  1.00  0.00     0.074 A 
ATOM     52  C   UNL     1      -1.542  -0.979   7.172  1.00  0.00     0.031 C 
ATOM     53  C   UNL     1      -2.198  -4.597   1.442  1.00  0.00     0.029 A 
ATOM     54  C   UNL     1      -3.364  -3.840   1.849  1.00  0.00     0.049 A 
ATOM     55  H   UNL     1      -3.820  -3.240   3.816  1.00  0.00     0.167 HD
ATOM     56  C   UNL     1      -3.861  -1.432   8.126  1.00  0.00     0.037 A 
ATOM     57  C   UNL     1      -4.463  -3.402   1.165  1.00  0.00     0.037 A 
ATOM     58  C   UNL     1      -4.727  -2.591   8.149  1.00  0.00     0.049 A 
ATOM     59  C   UNL     1      -5.515  -3.163   2.204  1.00  0.00     0.074 A 
ATOM     60  C   UNL     1      -4.663  -3.820   8.775  1.00  0.00     0.029 A 
ATOM     61  N   UNL     1      -5.556  -2.754   7.062  1.00  0.00    -0.354 N 
ATOM     62  N   UNL     1      -6.005  -4.133   2.934  1.00  0.00    -0.248 NA
ATOM     63  C   UNL     1      -5.518  -1.839   2.821  1.00  0.00     0.031 C 
ATOM     64  C   UNL     1      -5.061  -4.761   7.778  1.00  0.00     0.029 A 
ATOM     65  C   UNL     1      -5.499  -4.064   6.652  1.00  0.00     0.049 A 
ATOM     66  H   UNL     1      -6.101  -2.047   6.646  1.00  0.00     0.167 HD
ATOM     67  C   UNL     1      -5.959  -3.648   4.235  1.00  0.00     0.074 A 
ATOM     68  C   UNL     1      -5.640  -2.222   4.097  1.00  0.00     0.031 C 
ATOM     69  C   UNL     1      -5.829  -4.486   5.307  1.00  0.00     0.037 A 
BRANCH  56  70
ATOM     70  C   UNL     1      -4.407  -0.028   8.231  1.00  0.00     0.064 A 
ATOM     71  C   UNL     1      -5.640   0.160   8.888  1.00  0.00     0.173 A 
ATOM     72  C   UNL     1      -3.943   1.082   7.491  1.00  0.00     0.173 A 
ATOM     73  F   UNL     1      -6.177  -0.824   9.626  1.00  0.00    -0.203 F 
ATOM     74  C   UNL     1      -6.391   1.327   8.736  1.00  0.00     0.198 A 
ATOM     75  C   UNL     1      -4.675   2.263   7.378  1.00  0.00     0.198 A 
ATOM     76  F   UNL     1      -2.823   1.049   6.763  1.00  0.00    -0.203 F 
ATOM     77  F   UNL     1      -7.612   1.407   9.281  1.00  0.00    -0.200 F 
ATOM     78  C   UNL     1      -5.912   2.375   7.972  1.00  0.00     0.200 A 
ATOM     79  F   UNL     1      -4.198   3.261   6.621  1.00  0.00    -0.200 F 
ATOM     80  F   UNL     1      -6.654   3.471   7.776  1.00  0.00    -0.200 F 
ENDBRANCH  56  70
BRANCH  57  81
ATOM     81  C   UNL     1      -4.513  -2.751  -0.179  1.00  0.00     0.064 A 
ATOM     82  C   UNL     1      -5.724  -2.494  -0.857  1.00  0.00     0.173 A 
ATOM     83  C   UNL     1      -3.376  -2.101  -0.696  1.00  0.00     0.173 A 
ATOM     84  F   UNL     1      -6.872  -3.029  -0.417  1.00  0.00    -0.203 F 
ATOM     85  C   UNL     1      -5.787  -1.628  -1.963  1.00  0.00     0.198 A 
ATOM     86  C   UNL     1      -3.442  -1.234  -1.791  1.00  0.00     0.198 A 
ATOM     87  F   UNL     1      -2.187  -2.229  -0.092  1.00  0.00    -0.203 F 
ATOM     88  F   UNL     1      -6.963  -1.374  -2.557  1.00  0.00    -0.200 F 
ATOM     89  C   UNL     1      -4.647  -0.988  -2.418  1.00  0.00     0.200 A 
ATOM     90  F   UNL     1      -2.335  -0.600  -2.200  1.00  0.00    -0.200 F 
ATOM     91  F   UNL     1      -4.713  -0.114  -3.433  1.00  0.00    -0.200 F 
ENDBRANCH  57  81
BRANCH  69  92
ATOM     92  C   UNL     1      -5.903  -5.976   5.067  1.00  0.00     0.064 A 
ATOM     93  C   UNL     1      -4.956  -6.732   4.350  1.00  0.00     0.173 A 
ATOM     94  C   UNL     1      -6.896  -6.690   5.747  1.00  0.00     0.173 A 
ATOM     95  F   UNL     1      -3.910  -6.147   3.760  1.00  0.00    -0.203 F 
ATOM     96  C   UNL     1      -5.031  -8.126   4.282  1.00  0.00     0.198 A 
ATOM     97  C   UNL     1      -6.950  -8.081   5.708  1.00  0.00     0.198 A 
ATOM     98  F   UNL     1      -7.786  -6.034   6.506  1.00  0.00    -0.203 F 
ATOM     99  F   UNL     1      -4.115  -8.820   3.588  1.00  0.00    -0.200 F 
ATOM    100  C   UNL     1      -6.028  -8.799   4.965  1.00  0.00     0.200 A 
ATOM    101  F   UNL     1      -7.880  -8.725   6.424  1.00  0.00    -0.200 F 
ATOM    102  F   UNL     1      -6.087 -10.138   4.931  1.00  0.00    -0.200 F 
ENDBRANCH  69  92
ENDBRANCH  43  44
ENDBRANCH  35  38
ENDBRANCH  33  34
ENDBRANCH  32  33
ENDBRANCH  31  32
ENDBRANCH   1  31
TORSDOF 15
