REMARK SMILES COc1ccc2c(c1)c(Cc1nc(-c3ccc(C(=O)NCCCCCCNC(=O)c4ccc(-c5c6nc(c(-c7c(F)c(F)c(F)c(F)c7F)c7ccc([nH]7)c(-c7c(F)c(F)c(F)c(F)c7F)c7nc(c(-c8c(F)c(F)c(F)c(F)c8F)c8ccc5[nH]8)C=C7)C=C6)cc4)cc3)cs1)c(C)n2C(=O)c1ccc(Cl)cc1
REMARK SMILES IDX 22 1 21 2 20 3 18 4 19 5 17 7 14 8 15 9 94 10 16 11 93 12
REMARK SMILES IDX 13 13 11 14 12 15 96 16 95 17 10 18 9 19 3 20 4 21 8 22 5 23
REMARK SMILES IDX 7 24 6 25 99 26 97 27 98 28 2 29 1 30 100 31 101 32 102 33
REMARK SMILES IDX 103 34 108 35 104 36 107 37 105 38 106 39 23 40 24 41 25 42
REMARK SMILES IDX 26 43 27 44 28 45 29 47 30 48 31 49 92 50 32 51 91 52 33 53
REMARK SMILES IDX 34 54 35 55 85 56 36 57 90 58 84 59 86 60 37 61 89 62 83 63
REMARK SMILES IDX 82 64 38 66 70 67 50 68 69 69 51 70 54 71 68 72 87 73 52 74
REMARK SMILES IDX 53 75 67 77 88 78 55 79 39 80 40 81 48 82 41 83 42 84 46 85
REMARK SMILES IDX 49 86 43 87 44 88 47 89 45 90 71 91 72 92 80 93 73 94 74 95
REMARK SMILES IDX 78 96 81 97 75 98 76 99 79 100 77 101 56 102 57 103 65 104
REMARK SMILES IDX 58 105 59 106 63 107 66 108 60 109 61 110 64 111 62 112
REMARK H PARENT 20 6 27 46 86 65 54 76
REMARK Flexibility Score: inf
ROOT
ATOM      1  C   UNL     1      -5.463   2.357   6.001  1.00  0.00     0.021 C 
ENDROOT
BRANCH   1   2
ATOM      2  C   UNL     1      -4.059   1.827   5.728  1.00  0.00     0.116 C 
BRANCH   2   3
ATOM      3  N   UNL     1      -3.297   1.498   6.920  1.00  0.00    -0.352 N 
ATOM      4  C   UNL     1      -2.518   0.405   7.236  1.00  0.00     0.251 C 
ATOM      5  O   UNL     1      -1.973   0.381   8.339  1.00  0.00    -0.269 OA
ATOM      6  H   UNL     1      -3.345   2.177   7.630  1.00  0.00     0.163 HD
BRANCH   4   7
ATOM      7  C   UNL     1      -2.378  -0.775   6.336  1.00  0.00     0.039 A 
ATOM      8  C   UNL     1      -2.442  -3.129   4.782  1.00  0.00     0.001 A 
ATOM      9  C   UNL     1      -2.244  -3.202   6.164  1.00  0.00     0.011 A 
ATOM     10  C   UNL     1      -2.468  -1.865   4.176  1.00  0.00     0.011 A 
ATOM     11  C   UNL     1      -2.221  -2.034   6.935  1.00  0.00     0.014 A 
ATOM     12  C   UNL     1      -2.397  -0.699   4.944  1.00  0.00     0.014 A 
BRANCH   8  13
ATOM     13  C   UNL     1      -2.603  -4.318   3.957  1.00  0.00     0.081 A 
ATOM     14  C   UNL     1      -2.444  -5.469   2.067  1.00  0.00     0.098 A 
ATOM     15  N   UNL     1      -2.292  -4.282   2.614  1.00  0.00    -0.241 NA
ATOM     16  S   UNL     1      -3.116  -6.662   3.105  1.00  0.00    -0.126 S 
ATOM     17  C   UNL     1      -3.126  -5.521   4.389  1.00  0.00     0.095 A 
BRANCH  14  18
ATOM     18  C   UNL     1      -2.102  -5.779   0.638  1.00  0.00     0.105 C 
BRANCH  18  19
ATOM     19  C   UNL     1      -0.619  -5.696   0.362  1.00  0.00    -0.012 A 
ATOM     20  C   UNL     1       0.805  -2.148   0.496  1.00  0.00     0.119 A 
ATOM     21  C   UNL     1       2.078  -2.480   0.072  1.00  0.00     0.048 A 
ATOM     22  C   UNL     1      -0.155  -3.148   0.623  1.00  0.00     0.057 A 
ATOM     23  C   UNL     1       2.403  -3.807  -0.235  1.00  0.00     0.031 A 
ATOM     24  C   UNL     1       0.157  -4.503   0.353  1.00  0.00     0.008 A 
ATOM     25  C   UNL     1       1.456  -4.837  -0.038  1.00  0.00     0.057 A 
ATOM     26  N   UNL     1       1.528  -6.240  -0.163  1.00  0.00    -0.280 N 
ATOM     27  C   UNL     1       0.232  -6.747   0.039  1.00  0.00     0.028 A 
ATOM     28  C   UNL     1      -0.174  -8.186  -0.060  1.00  0.00     0.065 C 
BRANCH  20  29
ATOM     29  O   UNL     1       0.404  -0.888   0.847  1.00  0.00    -0.497 OA
ATOM     30  C   UNL     1       0.959   0.154   0.052  1.00  0.00     0.278 C 
ENDBRANCH  20  29
BRANCH  26  31
ATOM     31  C   UNL     1       2.702  -7.001  -0.463  1.00  0.00     0.262 C 
ATOM     32  O   UNL     1       2.604  -8.195  -0.702  1.00  0.00    -0.268 OA
BRANCH  31  33
ATOM     33  C   UNL     1       4.070  -6.451  -0.562  1.00  0.00     0.040 A 
ATOM     34  C   UNL     1       4.703  -5.873   0.543  1.00  0.00     0.015 A 
ATOM     35  C   UNL     1       4.703  -6.492  -1.810  1.00  0.00     0.015 A 
ATOM     36  C   UNL     1       5.937  -5.239   0.368  1.00  0.00     0.021 A 
ATOM     37  C   UNL     1       5.939  -5.868  -1.976  1.00  0.00     0.021 A 
ATOM     38  C   UNL     1       6.539  -5.224  -0.892  1.00  0.00     0.041 A 
ATOM     39  Cl  UNL     1       8.020  -4.380  -1.121  1.00  0.00    -0.084 Cl
ENDBRANCH  31  33
ENDBRANCH  26  31
ENDBRANCH  18  19
ENDBRANCH  14  18
ENDBRANCH   8  13
ENDBRANCH   4   7
ENDBRANCH   2   3
ENDBRANCH   1   2
BRANCH   1  40
ATOM     40  C   UNL     1      -5.565   3.727   6.670  1.00  0.00     0.002 C 
BRANCH  40  41
ATOM     41  C   UNL     1      -4.846   4.888   5.974  1.00  0.00     0.002 C 
BRANCH  41  42
ATOM     42  C   UNL     1      -5.171   5.129   4.491  1.00  0.00     0.021 C 
BRANCH  42  43
ATOM     43  C   UNL     1      -6.648   5.332   4.152  1.00  0.00     0.116 C 
BRANCH  43  44
ATOM     44  N   UNL     1      -7.290   6.366   4.936  1.00  0.00    -0.352 N 
ATOM     45  C   UNL     1      -7.583   7.690   4.785  1.00  0.00     0.251 C 
ATOM     46  H   UNL     1      -7.595   6.024   5.808  1.00  0.00     0.163 HD
ATOM     47  O   UNL     1      -8.291   8.176   5.673  1.00  0.00    -0.269 OA
BRANCH  45  48
ATOM     48  C   UNL     1      -7.098   8.594   3.703  1.00  0.00     0.039 A 
ATOM     49  C   UNL     1      -6.273   8.243   2.638  1.00  0.00     0.014 A 
ATOM     50  C   UNL     1      -7.475   9.950   3.831  1.00  0.00     0.014 A 
ATOM     51  C   UNL     1      -5.778   9.234   1.783  1.00  0.00     0.010 A 
ATOM     52  C   UNL     1      -6.989  10.938   2.977  1.00  0.00     0.010 A 
ATOM     53  C   UNL     1      -6.097  10.591   1.975  1.00  0.00    -0.014 A 
BRANCH  53  54
ATOM     54  C   UNL     1      -5.552  11.580   1.036  1.00  0.00     0.031 A 
ATOM     55  C   UNL     1      -5.834  11.277  -0.395  1.00  0.00     0.074 A 
ATOM     56  C   UNL     1      -4.887  12.713   1.362  1.00  0.00     0.049 A 
ATOM     57  N   UNL     1      -4.986  10.903  -1.297  1.00  0.00    -0.248 NA
ATOM     58  C   UNL     1      -7.232  11.260  -0.847  1.00  0.00     0.031 C 
ATOM     59  C   UNL     1      -4.723  13.334   2.679  1.00  0.00     0.029 A 
ATOM     60  N   UNL     1      -4.235  13.589   0.535  1.00  0.00    -0.354 N 
ATOM     61  C   UNL     1      -5.710  10.751  -2.477  1.00  0.00     0.074 A 
ATOM     62  C   UNL     1      -7.099  10.866  -2.115  1.00  0.00     0.031 C 
ATOM     63  C   UNL     1      -4.197  14.575   2.536  1.00  0.00     0.029 A 
ATOM     64  C   UNL     1      -3.835  14.776   1.144  1.00  0.00     0.049 A 
ATOM     65  H   UNL     1      -4.062  13.396  -0.415  1.00  0.00     0.167 HD
ATOM     66  C   UNL     1      -5.080  10.738  -3.684  1.00  0.00     0.037 A 
ATOM     67  C   UNL     1      -3.244  15.845   0.549  1.00  0.00     0.037 A 
ATOM     68  C   UNL     1      -3.674  10.466  -3.528  1.00  0.00     0.049 A 
ATOM     69  C   UNL     1      -2.598  15.353  -0.688  1.00  0.00     0.074 A 
ATOM     70  C   UNL     1      -2.915   9.398  -3.096  1.00  0.00     0.029 A 
ATOM     71  N   UNL     1      -2.835  11.549  -3.530  1.00  0.00    -0.354 N 
ATOM     72  N   UNL     1      -1.565  14.560  -0.709  1.00  0.00    -0.248 NA
ATOM     73  C   UNL     1      -3.342  15.453  -1.931  1.00  0.00     0.031 C 
ATOM     74  C   UNL     1      -1.786   9.980  -2.445  1.00  0.00     0.029 A 
ATOM     75  C   UNL     1      -1.890  11.367  -2.559  1.00  0.00     0.049 A 
ATOM     76  H   UNL     1      -2.901  12.327  -4.130  1.00  0.00     0.167 HD
ATOM     77  C   UNL     1      -1.790  13.734  -1.796  1.00  0.00     0.074 A 
ATOM     78  C   UNL     1      -2.822  14.408  -2.578  1.00  0.00     0.031 C 
ATOM     79  C   UNL     1      -1.316  12.455  -1.802  1.00  0.00     0.037 A 
BRANCH  66  80
ATOM     80  C   UNL     1      -5.625  11.372  -4.947  1.00  0.00     0.064 A 
ATOM     81  C   UNL     1      -4.872  11.276  -6.139  1.00  0.00     0.173 A 
ATOM     82  C   UNL     1      -6.656  12.334  -4.962  1.00  0.00     0.173 A 
ATOM     83  F   UNL     1      -3.860  10.401  -6.242  1.00  0.00    -0.203 F 
ATOM     84  C   UNL     1      -5.070  12.148  -7.214  1.00  0.00     0.198 A 
ATOM     85  C   UNL     1      -6.881  13.171  -6.055  1.00  0.00     0.198 A 
ATOM     86  F   UNL     1      -7.412  12.586  -3.888  1.00  0.00    -0.203 F 
ATOM     87  F   UNL     1      -4.238  12.110  -8.264  1.00  0.00    -0.200 F 
ATOM     88  C   UNL     1      -6.067  13.103  -7.166  1.00  0.00     0.200 A 
ATOM     89  F   UNL     1      -7.842  14.103  -5.983  1.00  0.00    -0.200 F 
ATOM     90  F   UNL     1      -6.213  13.987  -8.161  1.00  0.00    -0.200 F 
ENDBRANCH  66  80
BRANCH  67  91
ATOM     91  C   UNL     1      -3.466  17.298   0.771  1.00  0.00     0.064 A 
ATOM     92  C   UNL     1      -2.607  18.258   0.203  1.00  0.00     0.173 A 
ATOM     93  C   UNL     1      -4.700  17.774   1.249  1.00  0.00     0.173 A 
ATOM     94  F   UNL     1      -1.427  17.887  -0.316  1.00  0.00    -0.203 F 
ATOM     95  C   UNL     1      -2.983  19.601   0.073  1.00  0.00     0.198 A 
ATOM     96  C   UNL     1      -5.073  19.115   1.121  1.00  0.00     0.198 A 
ATOM     97  F   UNL     1      -5.612  16.928   1.749  1.00  0.00    -0.203 F 
ATOM     98  F   UNL     1      -2.171  20.468  -0.549  1.00  0.00    -0.200 F 
ATOM     99  C   UNL     1      -4.224  20.024   0.517  1.00  0.00     0.200 A 
ATOM    100  F   UNL     1      -6.293  19.505   1.518  1.00  0.00    -0.200 F 
ATOM    101  F   UNL     1      -4.618  21.290   0.322  1.00  0.00    -0.200 F 
ENDBRANCH  67  91
BRANCH  79 102
ATOM    102  C   UNL     1      -0.263  12.095  -0.792  1.00  0.00     0.064 A 
ATOM    103  C   UNL     1      -0.465  12.081   0.599  1.00  0.00     0.173 A 
ATOM    104  C   UNL     1       0.961  11.607  -1.272  1.00  0.00     0.173 A 
ATOM    105  F   UNL     1      -1.635  12.454   1.133  1.00  0.00    -0.203 F 
ATOM    106  C   UNL     1       0.527  11.622   1.466  1.00  0.00     0.198 A 
ATOM    107  C   UNL     1       1.932  11.114  -0.407  1.00  0.00     0.198 A 
ATOM    108  F   UNL     1       1.191  11.557  -2.594  1.00  0.00    -0.203 F 
ATOM    109  F   UNL     1       0.316  11.621   2.791  1.00  0.00    -0.200 F 
ATOM    110  C   UNL     1       1.719  11.128   0.961  1.00  0.00     0.200 A 
ATOM    111  F   UNL     1       3.063  10.594  -0.905  1.00  0.00    -0.200 F 
ATOM    112  F   UNL     1       2.651  10.637   1.790  1.00  0.00    -0.200 F 
ENDBRANCH  79 102
ENDBRANCH  53  54
ENDBRANCH  45  48
ENDBRANCH  43  44
ENDBRANCH  42  43
ENDBRANCH  41  42
ENDBRANCH  40  41
ENDBRANCH   1  40
TORSDOF 19
