REMARK SMILES O=C(/C=N\OCc1ccccc1)NCCCCCCNC(=O)c1ccc(-c2c3nc(c(-c4c(F)c(F)c(F)c(F)c4F)c4ccc([nH]4)c(-c4c(F)c(F)c(F)c(F)c4F)c4nc(c(-c5c(F)c(F)c(F)c(F)c5F)c5ccc2[nH]5)C=C4)C=C3)cc1
REMARK SMILES IDX 16 1 15 2 14 3 13 4 1 5 2 6 3 8 4 9 5 10 6 11 7 12 8 13
REMARK SMILES IDX 12 14 9 15 11 16 10 17 17 18 18 19 19 20 20 21 21 22 22 24
REMARK SMILES IDX 23 25 24 26 85 27 25 28 84 29 26 30 27 31 28 32 78 33 29 34
REMARK SMILES IDX 83 35 77 36 79 37 30 38 82 39 76 40 75 41 31 43 63 44 43 45
REMARK SMILES IDX 62 46 44 47 47 48 61 49 80 50 45 51 46 52 60 54 81 55 48 56
REMARK SMILES IDX 32 57 33 58 41 59 34 60 35 61 39 62 42 63 36 64 37 65 40 66
REMARK SMILES IDX 38 67 64 68 65 69 73 70 66 71 67 72 71 73 74 74 68 75 69 76
REMARK SMILES IDX 72 77 70 78 49 79 50 80 58 81 51 82 52 83 56 84 59 85 53 86
REMARK SMILES IDX 54 87 57 88 55 89
REMARK H PARENT 13 7 20 23 79 42 47 53
REMARK Flexibility Score: inf
ROOT
ATOM      1  C   UNL     1       4.160   0.287   3.645  1.00  0.00     0.002 C 
ENDROOT
BRANCH   1   2
ATOM      2  C   UNL     1       2.655   0.102   3.401  1.00  0.00     0.021 C 
BRANCH   2   3
ATOM      3  C   UNL     1       2.087   0.909   2.233  1.00  0.00     0.116 C 
BRANCH   3   4
ATOM      4  N   UNL     1       2.752   0.605   0.989  1.00  0.00    -0.351 N 
ATOM      5  O   UNL     1       1.048  -0.569  -0.039  1.00  0.00    -0.268 OA
ATOM      6  C   UNL     1       2.186  -0.121  -0.025  1.00  0.00     0.265 C 
ATOM      7  H   UNL     1       3.669   0.939   0.862  1.00  0.00     0.163 HD
BRANCH   6   8
ATOM      8  C   UNL     1       3.041  -0.308  -1.260  1.00  0.00     0.225 C 
ATOM      9  N   UNL     1       4.340  -0.292  -1.345  1.00  0.00    -0.089 NA
BRANCH   9  10
ATOM     10  O   UNL     1       4.978  -0.154  -0.103  1.00  0.00    -0.391 OA
BRANCH  10  11
ATOM     11  C   UNL     1       6.400  -0.241  -0.276  1.00  0.00     0.299 C 
BRANCH  11  12
ATOM     12  C   UNL     1       6.943  -1.650  -0.186  1.00  0.00    -0.008 A 
ATOM     13  C   UNL     1       6.118  -2.783  -0.221  1.00  0.00     0.007 A 
ATOM     14  C   UNL     1       8.333  -1.838  -0.106  1.00  0.00     0.007 A 
ATOM     15  C   UNL     1       6.664  -4.067  -0.181  1.00  0.00     0.000 A 
ATOM     16  C   UNL     1       8.879  -3.122  -0.064  1.00  0.00     0.000 A 
ATOM     17  C   UNL     1       8.044  -4.236  -0.104  1.00  0.00     0.000 A 
ENDBRANCH  11  12
ENDBRANCH  10  11
ENDBRANCH   9  10
ENDBRANCH   6   8
ENDBRANCH   3   4
ENDBRANCH   2   3
ENDBRANCH   1   2
BRANCH   1  18
ATOM     18  C   UNL     1       4.625   1.731   3.855  1.00  0.00     0.002 C 
BRANCH  18  19
ATOM     19  C   UNL     1       3.950   2.478   5.006  1.00  0.00     0.021 C 
BRANCH  19  20
ATOM     20  C   UNL     1       4.099   1.826   6.377  1.00  0.00     0.116 C 
BRANCH  20  21
ATOM     21  N   UNL     1       5.483   1.769   6.822  1.00  0.00    -0.352 N 
ATOM     22  C   UNL     1       6.041   2.172   8.010  1.00  0.00     0.251 C 
ATOM     23  H   UNL     1       6.114   1.383   6.173  1.00  0.00     0.163 HD
ATOM     24  O   UNL     1       7.261   2.193   8.138  1.00  0.00    -0.269 OA
BRANCH  22  25
ATOM     25  C   UNL     1       5.180   2.608   9.133  1.00  0.00     0.039 A 
ATOM     26  C   UNL     1       5.561   3.732   9.873  1.00  0.00     0.014 A 
ATOM     27  C   UNL     1       4.017   1.912   9.473  1.00  0.00     0.014 A 
ATOM     28  C   UNL     1       4.745   4.191  10.909  1.00  0.00     0.010 A 
ATOM     29  C   UNL     1       3.166   2.416  10.454  1.00  0.00     0.010 A 
ATOM     30  C   UNL     1       3.522   3.558  11.186  1.00  0.00    -0.014 A 
BRANCH  30  31
ATOM     31  C   UNL     1       2.606   4.090  12.229  1.00  0.00     0.031 A 
ATOM     32  C   UNL     1       2.281   3.277  13.451  1.00  0.00     0.074 A 
ATOM     33  C   UNL     1       2.026   5.293  12.049  1.00  0.00     0.049 A 
ATOM     34  N   UNL     1       1.500   3.574  14.460  1.00  0.00    -0.248 NA
ATOM     35  C   UNL     1       2.894   1.944  13.541  1.00  0.00     0.031 C 
ATOM     36  C   UNL     1       2.219   6.157  10.884  1.00  0.00     0.029 A 
ATOM     37  N   UNL     1       1.156   5.997  12.844  1.00  0.00    -0.354 N 
ATOM     38  C   UNL     1       1.516   2.462  15.292  1.00  0.00     0.074 A 
ATOM     39  C   UNL     1       2.340   1.464  14.644  1.00  0.00     0.031 C 
ATOM     40  C   UNL     1       1.525   7.293  11.059  1.00  0.00     0.029 A 
ATOM     41  C   UNL     1       0.806   7.220  12.327  1.00  0.00     0.049 A 
ATOM     42  H   UNL     1       0.815   5.657  13.703  1.00  0.00     0.167 HD
ATOM     43  C   UNL     1       0.917   2.295  16.496  1.00  0.00     0.037 A 
ATOM     44  C   UNL     1      -0.001   8.178  12.822  1.00  0.00     0.037 A 
ATOM     45  C   UNL     1       0.113   3.298  17.146  1.00  0.00     0.049 A 
ATOM     46  C   UNL     1      -0.666   7.961  14.154  1.00  0.00     0.074 A 
ATOM     47  C   UNL     1      -0.474   3.257  18.399  1.00  0.00     0.029 A 
ATOM     48  N   UNL     1      -0.230   4.521  16.587  1.00  0.00    -0.354 N 
ATOM     49  N   UNL     1      -0.571   6.944  14.974  1.00  0.00    -0.248 NA
ATOM     50  C   UNL     1      -1.549   9.036  14.630  1.00  0.00     0.031 C 
ATOM     51  C   UNL     1      -1.223   4.426  18.572  1.00  0.00     0.029 A 
ATOM     52  C   UNL     1      -1.051   5.227  17.454  1.00  0.00     0.049 A 
ATOM     53  H   UNL     1       0.066   4.841  15.704  1.00  0.00     0.167 HD
ATOM     54  C   UNL     1      -1.353   7.266  16.076  1.00  0.00     0.074 A 
ATOM     55  C   UNL     1      -1.900   8.584  15.825  1.00  0.00     0.031 C 
ATOM     56  C   UNL     1      -1.593   6.537  17.194  1.00  0.00     0.037 A 
BRANCH  43  57
ATOM     57  C   UNL     1       1.097   0.969  17.183  1.00  0.00     0.064 A 
ATOM     58  C   UNL     1       2.343   0.554  17.680  1.00  0.00     0.173 A 
ATOM     59  C   UNL     1       0.004   0.108  17.363  1.00  0.00     0.173 A 
ATOM     60  F   UNL     1       3.425   1.333  17.529  1.00  0.00    -0.203 F 
ATOM     61  C   UNL     1       2.495  -0.689  18.291  1.00  0.00     0.198 A 
ATOM     62  C   UNL     1       0.152  -1.118  18.006  1.00  0.00     0.198 A 
ATOM     63  F   UNL     1      -1.213   0.456  16.916  1.00  0.00    -0.203 F 
ATOM     64  F   UNL     1       3.707  -1.089  18.699  1.00  0.00    -0.200 F 
ATOM     65  C   UNL     1       1.399  -1.521  18.459  1.00  0.00     0.200 A 
ATOM     66  F   UNL     1      -0.912  -1.913  18.182  1.00  0.00    -0.200 F 
ATOM     67  F   UNL     1       1.546  -2.715  19.048  1.00  0.00    -0.200 F 
ENDBRANCH  43  57
BRANCH  44  68
ATOM     68  C   UNL     1      -0.190   9.450  12.076  1.00  0.00     0.064 A 
ATOM     69  C   UNL     1       0.330  10.654  12.573  1.00  0.00     0.173 A 
ATOM     70  C   UNL     1      -0.888   9.493  10.861  1.00  0.00     0.173 A 
ATOM     71  F   UNL     1       0.987  10.667  13.742  1.00  0.00    -0.203 F 
ATOM     72  C   UNL     1       0.142  11.855  11.893  1.00  0.00     0.198 A 
ATOM     73  C   UNL     1      -1.050  10.690  10.167  1.00  0.00     0.198 A 
ATOM     74  F   UNL     1      -1.401   8.369  10.340  1.00  0.00    -0.203 F 
ATOM     75  F   UNL     1       0.609  12.997  12.415  1.00  0.00    -0.200 F 
ATOM     76  C   UNL     1      -0.542  11.871  10.687  1.00  0.00     0.200 A 
ATOM     77  F   UNL     1      -1.698  10.700   8.994  1.00  0.00    -0.200 F 
ATOM     78  F   UNL     1      -0.718  13.026  10.031  1.00  0.00    -0.200 F 
ENDBRANCH  44  68
BRANCH  56  79
ATOM     79  C   UNL     1      -2.460   7.167  18.249  1.00  0.00     0.064 A 
ATOM     80  C   UNL     1      -3.833   7.379  18.049  1.00  0.00     0.173 A 
ATOM     81  C   UNL     1      -1.912   7.550  19.483  1.00  0.00     0.173 A 
ATOM     82  F   UNL     1      -4.405   7.046  16.882  1.00  0.00    -0.203 F 
ATOM     83  C   UNL     1      -4.614   7.987  19.029  1.00  0.00     0.198 A 
ATOM     84  C   UNL     1      -2.704   8.123  20.474  1.00  0.00     0.198 A 
ATOM     85  F   UNL     1      -0.607   7.363  19.731  1.00  0.00    -0.203 F 
ATOM     86  F   UNL     1      -5.909   8.238  18.790  1.00  0.00    -0.200 F 
ATOM     87  C   UNL     1      -4.051   8.351  20.243  1.00  0.00     0.200 A 
ATOM     88  F   UNL     1      -2.160   8.459  21.652  1.00  0.00    -0.200 F 
ATOM     89  F   UNL     1      -4.805   8.934  21.185  1.00  0.00    -0.200 F 
ENDBRANCH  56  79
ENDBRANCH  30  31
ENDBRANCH  22  25
ENDBRANCH  20  21
ENDBRANCH  19  20
ENDBRANCH  18  19
ENDBRANCH   1  18
TORSDOF 16
