REMARK SMILES Cc1ccccc1-c1c(Cl)ccc2c1C=C(C(=O)NCCCCCCNC(=O)c1ccc(-c3c4nc(c(-c5c(F)c(F)c(F)c(F)c5F)c5ccc([nH]5)c(-c5c(F)c(F)c(F)c(F)c5F)c5nc(c(-c6c(F)c(F)c(F)c(F)c6F)c6ccc3[nH]6)C=C5)C=C4)cc1)[C@@H](C(F)(F)F)O2
REMARK SMILES IDX 23 1 22 2 21 3 20 4 19 5 17 6 18 7 16 9 8 10 9 11 14 12
REMARK SMILES IDX 10 13 11 14 13 15 15 16 12 17 97 18 92 19 7 20 1 21 2 22
REMARK SMILES IDX 3 23 4 24 6 25 5 26 93 27 94 28 95 29 96 30 24 31 25 32
REMARK SMILES IDX 26 33 27 34 28 36 29 37 30 38 91 39 31 40 90 41 32 42 33 43
REMARK SMILES IDX 34 44 84 45 35 46 89 47 83 48 85 49 36 50 88 51 82 52 81 53
REMARK SMILES IDX 37 55 69 56 49 57 68 58 50 59 53 60 67 61 86 62 51 63 52 64
REMARK SMILES IDX 66 66 87 67 54 68 38 69 39 70 47 71 40 72 41 73 45 74 48 75
REMARK SMILES IDX 42 76 43 77 46 78 44 79 70 80 71 81 79 82 72 83 73 84 77 85
REMARK SMILES IDX 80 86 74 87 75 88 78 89 76 90 55 91 56 92 64 93 57 94 58 95
REMARK SMILES IDX 62 96 65 97 59 98 60 99 63 100 61 101
REMARK H PARENT 19 8 26 35 85 54 53 65
REMARK Flexibility Score: inf
ROOT
ATOM      1  C   UNL     1       7.182  -1.950   0.087  1.00  0.00     0.002 C 
ENDROOT
BRANCH   1   2
ATOM      2  C   UNL     1       7.449  -1.675  -1.402  1.00  0.00     0.002 C 
BRANCH   2   3
ATOM      3  C   UNL     1       6.237  -1.458  -2.321  1.00  0.00     0.021 C 
BRANCH   3   4
ATOM      4  C   UNL     1       5.218  -0.409  -1.876  1.00  0.00     0.116 C 
BRANCH   4   5
ATOM      5  N   UNL     1       5.769   0.923  -1.825  1.00  0.00    -0.352 N 
ATOM      6  C   UNL     1       5.206   2.129  -2.088  1.00  0.00     0.251 C 
ATOM      7  O   UNL     1       5.913   3.125  -1.941  1.00  0.00    -0.270 OA
ATOM      8  H   UNL     1       6.715   0.964  -1.554  1.00  0.00     0.163 HD
BRANCH   6   9
ATOM      9  C   UNL     1       3.788   2.251  -2.594  1.00  0.00     0.067 C 
ATOM     10  C   UNL     1       1.229   2.402   0.126  1.00  0.00     0.012 A 
ATOM     11  C   UNL     1       0.902   3.385   1.096  1.00  0.00     0.049 A 
ATOM     12  C   UNL     1       2.157   2.771  -0.884  1.00  0.00     0.027 A 
ATOM     13  Cl  UNL     1      -0.103   3.026   2.465  1.00  0.00    -0.084 Cl
ATOM     14  C   UNL     1       1.381   4.696   1.005  1.00  0.00     0.025 A 
ATOM     15  C   UNL     1       2.539   4.122  -1.018  1.00  0.00     0.128 A 
ATOM     16  C   UNL     1       2.839   1.783  -1.756  1.00  0.00     0.026 C 
ATOM     17  C   UNL     1       2.165   5.073  -0.076  1.00  0.00     0.049 A 
ATOM     18  O   UNL     1       3.295   4.602  -2.059  1.00  0.00    -0.475 OA
ATOM     19  C   UNL     1       3.571   3.665  -3.126  1.00  0.00     0.314 C 
BRANCH  10  20
ATOM     20  C   UNL     1       0.486   1.113   0.095  1.00  0.00    -0.013 A 
ATOM     21  C   UNL     1       2.466  -0.381   0.755  1.00  0.00     0.045 C 
ATOM     22  C   UNL     1       1.030  -0.153   0.385  1.00  0.00    -0.043 A 
ATOM     23  C   UNL     1       0.209  -1.299   0.308  1.00  0.00     0.004 A 
ATOM     24  C   UNL     1      -1.143  -1.203  -0.015  1.00  0.00     0.000 A 
ATOM     25  C   UNL     1      -0.888   1.175  -0.242  1.00  0.00     0.009 A 
ATOM     26  C   UNL     1      -1.696   0.039  -0.283  1.00  0.00     0.001 A 
ENDBRANCH  10  20
BRANCH  19  27
ATOM     27  C   UNL     1       2.502   3.713  -4.229  1.00  0.00     0.429 C 
ATOM     28  F   UNL     1       2.427   4.942  -4.793  1.00  0.00    -0.167 F 
ATOM     29  F   UNL     1       2.797   2.843  -5.228  1.00  0.00    -0.167 F 
ATOM     30  F   UNL     1       1.264   3.397  -3.784  1.00  0.00    -0.167 F 
ENDBRANCH  19  27
ENDBRANCH   6   9
ENDBRANCH   4   5
ENDBRANCH   3   4
ENDBRANCH   2   3
ENDBRANCH   1   2
BRANCH   1  31
ATOM     31  C   UNL     1       6.138  -3.016   0.429  1.00  0.00     0.021 C 
BRANCH  31  32
ATOM     32  C   UNL     1       6.459  -4.415  -0.088  1.00  0.00     0.116 C 
BRANCH  32  33
ATOM     33  N   UNL     1       6.695  -5.411   0.953  1.00  0.00    -0.352 N 
ATOM     34  C   UNL     1       7.050  -6.745   0.806  1.00  0.00     0.251 C 
ATOM     35  H   UNL     1       6.588  -5.096   1.880  1.00  0.00     0.163 HD
ATOM     36  O   UNL     1       7.254  -7.454   1.778  1.00  0.00    -0.269 OA
BRANCH  34  37
ATOM     37  C   UNL     1       7.295  -7.261  -0.562  1.00  0.00     0.039 A 
ATOM     38  C   UNL     1       8.538  -7.839  -0.840  1.00  0.00     0.014 A 
ATOM     39  C   UNL     1       6.412  -6.958  -1.593  1.00  0.00     0.014 A 
ATOM     40  C   UNL     1       8.993  -7.867  -2.158  1.00  0.00     0.010 A 
ATOM     41  C   UNL     1       6.898  -6.893  -2.886  1.00  0.00     0.010 A 
ATOM     42  C   UNL     1       8.216  -7.276  -3.157  1.00  0.00    -0.014 A 
BRANCH  42  43
ATOM     43  C   UNL     1       8.759  -6.879  -4.454  1.00  0.00     0.031 A 
ATOM     44  C   UNL     1       8.402  -7.591  -5.698  1.00  0.00     0.074 A 
ATOM     45  C   UNL     1       9.572  -5.802  -4.551  1.00  0.00     0.049 A 
ATOM     46  N   UNL     1       9.178  -7.641  -6.731  1.00  0.00    -0.248 NA
ATOM     47  C   UNL     1       7.150  -8.318  -5.876  1.00  0.00     0.031 C 
ATOM     48  C   UNL     1       9.991  -5.123  -5.776  1.00  0.00     0.029 A 
ATOM     49  N   UNL     1      10.360  -5.216  -3.547  1.00  0.00    -0.354 N 
ATOM     50  C   UNL     1       8.448  -8.154  -7.770  1.00  0.00     0.074 A 
ATOM     51  C   UNL     1       7.213  -8.622  -7.178  1.00  0.00     0.031 C 
ATOM     52  C   UNL     1      11.136  -4.469  -5.540  1.00  0.00     0.029 A 
ATOM     53  C   UNL     1      11.551  -4.793  -4.190  1.00  0.00     0.049 A 
ATOM     54  H   UNL     1      10.132  -5.120  -2.594  1.00  0.00     0.167 HD
ATOM     55  C   UNL     1       8.894  -8.031  -9.050  1.00  0.00     0.037 A 
ATOM     56  C   UNL     1      12.772  -5.278  -3.823  1.00  0.00     0.037 A 
ATOM     57  C   UNL     1      10.168  -7.332  -9.152  1.00  0.00     0.049 A 
ATOM     58  C   UNL     1      13.525  -6.002  -4.917  1.00  0.00     0.074 A 
ATOM     59  C   UNL     1      10.541  -6.040  -9.485  1.00  0.00     0.029 A 
ATOM     60  N   UNL     1      11.296  -7.921  -8.610  1.00  0.00    -0.354 N 
ATOM     61  N   UNL     1      13.075  -6.181  -6.127  1.00  0.00    -0.248 NA
ATOM     62  C   UNL     1      14.799  -6.688  -4.692  1.00  0.00     0.031 C 
ATOM     63  C   UNL     1      11.916  -5.871  -9.163  1.00  0.00     0.029 A 
ATOM     64  C   UNL     1      12.375  -7.058  -8.627  1.00  0.00     0.049 A 
ATOM     65  H   UNL     1      11.326  -8.839  -8.255  1.00  0.00     0.167 HD
ATOM     66  C   UNL     1      13.909  -7.036  -6.797  1.00  0.00     0.074 A 
ATOM     67  C   UNL     1      14.979  -7.322  -5.863  1.00  0.00     0.031 C 
ATOM     68  C   UNL     1      13.634  -7.494  -8.052  1.00  0.00     0.037 A 
BRANCH  55  69
ATOM     69  C   UNL     1       8.020  -8.374 -10.220  1.00  0.00     0.064 A 
ATOM     70  C   UNL     1       7.948  -7.542 -11.354  1.00  0.00     0.173 A 
ATOM     71  C   UNL     1       7.196  -9.514 -10.246  1.00  0.00     0.173 A 
ATOM     72  F   UNL     1       8.722  -6.457 -11.475  1.00  0.00    -0.203 F 
ATOM     73  C   UNL     1       7.047  -7.783 -12.392  1.00  0.00     0.198 A 
ATOM     74  C   UNL     1       6.257  -9.725 -11.258  1.00  0.00     0.198 A 
ATOM     75  F   UNL     1       7.282 -10.444  -9.282  1.00  0.00    -0.203 F 
ATOM     76  F   UNL     1       7.010  -6.953 -13.445  1.00  0.00    -0.200 F 
ATOM     77  C   UNL     1       6.178  -8.854 -12.328  1.00  0.00     0.200 A 
ATOM     78  F   UNL     1       5.417 -10.767 -11.181  1.00  0.00    -0.200 F 
ATOM     79  F   UNL     1       5.270  -9.047 -13.294  1.00  0.00    -0.200 F 
ENDBRANCH  55  69
BRANCH  56  80
ATOM     80  C   UNL     1      12.829  -5.614  -2.377  1.00  0.00     0.064 A 
ATOM     81  C   UNL     1      12.614  -4.573  -1.451  1.00  0.00     0.173 A 
ATOM     82  C   UNL     1      12.662  -6.929  -1.931  1.00  0.00     0.173 A 
ATOM     83  F   UNL     1      12.765  -3.294  -1.833  1.00  0.00    -0.203 F 
ATOM     84  C   UNL     1      12.098  -4.833  -0.186  1.00  0.00     0.198 A 
ATOM     85  C   UNL     1      12.174  -7.185  -0.651  1.00  0.00     0.198 A 
ATOM     86  F   UNL     1      12.843  -7.960  -2.769  1.00  0.00    -0.203 F 
ATOM     87  F   UNL     1      11.756  -3.815   0.617  1.00  0.00    -0.200 F 
ATOM     88  C   UNL     1      11.848  -6.138   0.200  1.00  0.00     0.200 A 
ATOM     89  F   UNL     1      11.914  -8.447  -0.282  1.00  0.00    -0.200 F 
ATOM     90  F   UNL     1      11.246  -6.387   1.371  1.00  0.00    -0.200 F 
ENDBRANCH  56  80
BRANCH  68  91
ATOM     91  C   UNL     1      14.540  -8.403  -8.831  1.00  0.00     0.064 A 
ATOM     92  C   UNL     1      15.929  -8.209  -8.892  1.00  0.00     0.173 A 
ATOM     93  C   UNL     1      14.022  -9.433  -9.646  1.00  0.00     0.173 A 
ATOM     94  F   UNL     1      16.513  -7.209  -8.216  1.00  0.00    -0.203 F 
ATOM     95  C   UNL     1      16.751  -9.027  -9.671  1.00  0.00     0.198 A 
ATOM     96  C   UNL     1      14.838 -10.214 -10.462  1.00  0.00     0.198 A 
ATOM     97  F   UNL     1      12.713  -9.723  -9.658  1.00  0.00    -0.203 F 
ATOM     98  F   UNL     1      18.078  -8.841  -9.659  1.00  0.00    -0.200 F 
ATOM     99  C   UNL     1      16.204 -10.021 -10.463  1.00  0.00     0.200 A 
ATOM    100  F   UNL     1      14.290 -11.156 -11.242  1.00  0.00    -0.200 F 
ATOM    101  F   UNL     1      16.992 -10.791 -11.226  1.00  0.00    -0.200 F 
ENDBRANCH  68  91
ENDBRANCH  42  43
ENDBRANCH  34  37
ENDBRANCH  32  33
ENDBRANCH  31  32
ENDBRANCH   1  31
TORSDOF 15
