REMARK SMILES Cc1cc(Cl)c(C)c2c1O[C@H](C(F)(F)F)C(C(=O)NCCCCCCNC(=O)c1ccc(-c3c4nc(c(-c5c(F)c(F)c(F)c(F)c5F)c5ccc([nH]5)c(-c5c(F)c(F)c(F)c(F)c5F)c5nc(c(-c6c(F)c(F)c(F)c(F)c6F)c6ccc3[nH]6)C=C5)C=C4)cc1)=C2
REMARK SMILES IDX 23 1 22 2 21 3 20 4 19 5 17 6 18 7 16 9 1 10 2 11 3 12 9 13
REMARK SMILES IDX 4 14 8 15 10 16 5 17 6 18 92 19 11 20 7 21 12 22 13 23 14 24
REMARK SMILES IDX 15 25 24 26 25 27 26 28 27 29 28 31 29 32 30 33 91 34 31 35
REMARK SMILES IDX 90 36 32 37 33 38 34 39 84 40 35 41 89 42 83 43 85 44 36 45
REMARK SMILES IDX 88 46 82 47 81 48 37 50 69 51 49 52 68 53 50 54 53 55 67 56
REMARK SMILES IDX 86 57 51 58 52 59 66 61 87 62 54 63 38 64 39 65 47 66 40 67
REMARK SMILES IDX 41 68 45 69 48 70 42 71 43 72 46 73 44 74 70 75 71 76 79 77
REMARK SMILES IDX 72 78 73 79 77 80 80 81 74 82 75 83 78 84 76 85 55 86 56 87
REMARK SMILES IDX 64 88 57 89 58 90 62 91 65 92 59 93 60 94 63 95 61 96
REMARK H PARENT 19 8 26 30 85 49 53 60
REMARK Flexibility Score: inf
ROOT
ATOM      1  C   UNL     1      -5.282  -2.577  -7.165  1.00  0.00     0.002 C 
ENDROOT
BRANCH   1   2
ATOM      2  C   UNL     1      -5.806  -1.639  -6.069  1.00  0.00     0.002 C 
BRANCH   2   3
ATOM      3  C   UNL     1      -4.878  -1.440  -4.866  1.00  0.00     0.021 C 
BRANCH   3   4
ATOM      4  C   UNL     1      -3.486  -0.929  -5.225  1.00  0.00     0.116 C 
BRANCH   4   5
ATOM      5  N   UNL     1      -3.466   0.512  -5.393  1.00  0.00    -0.352 N 
ATOM      6  C   UNL     1      -2.834   1.570  -4.836  1.00  0.00     0.251 C 
ATOM      7  O   UNL     1      -3.123   2.666  -5.328  1.00  0.00    -0.270 OA
ATOM      8  H   UNL     1      -4.081   0.798  -6.107  1.00  0.00     0.163 HD
BRANCH   6   9
ATOM      9  C   UNL     1      -1.847   1.505  -3.715  1.00  0.00     0.067 C 
ATOM     10  C   UNL     1       1.244   0.246   0.206  1.00  0.00     0.048 C 
ATOM     11  C   UNL     1       0.841   1.522  -0.478  1.00  0.00    -0.007 A 
ATOM     12  C   UNL     1       1.378   2.732  -0.031  1.00  0.00     0.028 A 
ATOM     13  C   UNL     1      -0.091   1.550  -1.522  1.00  0.00     0.131 A 
ATOM     14  C   UNL     1       1.010   3.944  -0.625  1.00  0.00     0.045 A 
ATOM     15  C   UNL     1      -0.474   2.757  -2.131  1.00  0.00     0.022 A 
ATOM     16  O   UNL     1      -0.643   0.350  -1.872  1.00  0.00    -0.475 OA
ATOM     17  Cl  UNL     1       1.740   5.371   0.026  1.00  0.00    -0.084 Cl
ATOM     18  C   UNL     1       0.087   3.980  -1.688  1.00  0.00    -0.021 A 
ATOM     19  C   UNL     1      -1.482   2.692  -3.196  1.00  0.00     0.026 C 
ATOM     20  C   UNL     1      -1.235   0.244  -3.190  1.00  0.00     0.314 C 
ATOM     21  C   UNL     1      -0.316   5.280  -2.341  1.00  0.00     0.047 C 
BRANCH  20  22
ATOM     22  C   UNL     1      -0.216  -0.384  -4.156  1.00  0.00     0.429 C 
ATOM     23  F   UNL     1       0.073  -1.655  -3.777  1.00  0.00    -0.167 F 
ATOM     24  F   UNL     1      -0.683  -0.465  -5.423  1.00  0.00    -0.167 F 
ATOM     25  F   UNL     1       0.948   0.300  -4.204  1.00  0.00    -0.167 F 
ENDBRANCH  20  22
ENDBRANCH   6   9
ENDBRANCH   4   5
ENDBRANCH   3   4
ENDBRANCH   2   3
ENDBRANCH   1   2
BRANCH   1  26
ATOM     26  C   UNL     1      -4.734  -3.922  -6.682  1.00  0.00     0.021 C 
BRANCH  26  27
ATOM     27  C   UNL     1      -5.714  -4.763  -5.873  1.00  0.00     0.116 C 
BRANCH  27  28
ATOM     28  N   UNL     1      -6.872  -5.172  -6.650  1.00  0.00    -0.352 N 
ATOM     29  C   UNL     1      -7.390  -6.430  -6.832  1.00  0.00     0.251 C 
ATOM     30  H   UNL     1      -7.351  -4.445  -7.111  1.00  0.00     0.163 HD
ATOM     31  O   UNL     1      -8.288  -6.624  -7.644  1.00  0.00    -0.269 OA
BRANCH  29  32
ATOM     32  C   UNL     1      -6.833  -7.561  -6.064  1.00  0.00     0.039 A 
ATOM     33  C   UNL     1      -6.453  -8.716  -6.750  1.00  0.00     0.014 A 
ATOM     34  C   UNL     1      -6.664  -7.472  -4.679  1.00  0.00     0.014 A 
ATOM     35  C   UNL     1      -5.838  -9.758  -6.055  1.00  0.00     0.010 A 
ATOM     36  C   UNL     1      -5.993  -8.484  -3.998  1.00  0.00     0.010 A 
ATOM     37  C   UNL     1      -5.571  -9.634  -4.681  1.00  0.00    -0.014 A 
BRANCH  37  38
ATOM     38  C   UNL     1      -4.830 -10.697  -3.959  1.00  0.00     0.031 A 
ATOM     39  C   UNL     1      -5.515 -11.523  -2.910  1.00  0.00     0.074 A 
ATOM     40  C   UNL     1      -3.526 -10.896  -4.235  1.00  0.00     0.049 A 
ATOM     41  N   UNL     1      -5.036 -12.510  -2.195  1.00  0.00    -0.248 NA
ATOM     42  C   UNL     1      -6.914 -11.186  -2.606  1.00  0.00     0.031 C 
ATOM     43  C   UNL     1      -2.741 -10.120  -5.196  1.00  0.00     0.029 A 
ATOM     44  N   UNL     1      -2.634 -11.815  -3.742  1.00  0.00    -0.354 N 
ATOM     45  C   UNL     1      -6.072 -12.911  -1.365  1.00  0.00     0.074 A 
ATOM     46  C   UNL     1      -7.187 -12.025  -1.617  1.00  0.00     0.031 C 
ATOM     47  C   UNL     1      -1.497 -10.622  -5.254  1.00  0.00     0.029 A 
ATOM     48  C   UNL     1      -1.390 -11.738  -4.319  1.00  0.00     0.049 A 
ATOM     49  H   UNL     1      -2.864 -12.467  -3.041  1.00  0.00     0.167 HD
ATOM     50  C   UNL     1      -6.100 -13.947  -0.493  1.00  0.00     0.037 A 
ATOM     51  C   UNL     1      -0.292 -12.495  -4.128  1.00  0.00     0.037 A 
ATOM     52  C   UNL     1      -4.997 -14.840  -0.262  1.00  0.00     0.049 A 
ATOM     53  C   UNL     1      -0.349 -13.639  -3.154  1.00  0.00     0.074 A 
ATOM     54  C   UNL     1      -4.942 -15.945   0.568  1.00  0.00     0.029 A 
ATOM     55  N   UNL     1      -3.754 -14.730  -0.868  1.00  0.00    -0.354 N 
ATOM     56  N   UNL     1      -1.357 -14.050  -2.424  1.00  0.00    -0.248 NA
ATOM     57  C   UNL     1       0.879 -14.428  -2.981  1.00  0.00     0.031 C 
ATOM     58  C   UNL     1      -3.656 -16.486   0.491  1.00  0.00     0.029 A 
ATOM     59  C   UNL     1      -2.921 -15.741  -0.418  1.00  0.00     0.049 A 
ATOM     60  H   UNL     1      -3.501 -14.037  -1.520  1.00  0.00     0.167 HD
ATOM     61  C   UNL     1      -0.896 -15.159  -1.728  1.00  0.00     0.074 A 
ATOM     62  C   UNL     1       0.481 -15.361  -2.126  1.00  0.00     0.031 C 
ATOM     63  C   UNL     1      -1.558 -15.938  -0.840  1.00  0.00     0.037 A 
BRANCH  50  64
ATOM     64  C   UNL     1      -7.374 -14.191   0.259  1.00  0.00     0.064 A 
ATOM     65  C   UNL     1      -8.506 -14.716  -0.382  1.00  0.00     0.173 A 
ATOM     66  C   UNL     1      -7.446 -13.961   1.640  1.00  0.00     0.173 A 
ATOM     67  F   UNL     1      -8.489 -14.942  -1.704  1.00  0.00    -0.203 F 
ATOM     68  C   UNL     1      -9.671 -14.986   0.331  1.00  0.00     0.198 A 
ATOM     69  C   UNL     1      -8.604 -14.258   2.354  1.00  0.00     0.198 A 
ATOM     70  F   UNL     1      -6.389 -13.466   2.301  1.00  0.00    -0.203 F 
ATOM     71  F   UNL     1     -10.751 -15.456  -0.309  1.00  0.00    -0.200 F 
ATOM     72  C   UNL     1      -9.716 -14.766   1.699  1.00  0.00     0.200 A 
ATOM     73  F   UNL     1      -8.644 -14.055   3.679  1.00  0.00    -0.200 F 
ATOM     74  F   UNL     1     -10.834 -15.040   2.386  1.00  0.00    -0.200 F 
ENDBRANCH  50  64
BRANCH  51  75
ATOM     75  C   UNL     1       0.930 -12.231  -4.928  1.00  0.00     0.064 A 
ATOM     76  C   UNL     1       1.315 -13.106  -5.954  1.00  0.00     0.173 A 
ATOM     77  C   UNL     1       1.720 -11.093  -4.710  1.00  0.00     0.173 A 
ATOM     78  F   UNL     1       0.600 -14.216  -6.188  1.00  0.00    -0.203 F 
ATOM     79  C   UNL     1       2.448 -12.858  -6.725  1.00  0.00     0.198 A 
ATOM     80  C   UNL     1       2.840 -10.834  -5.497  1.00  0.00     0.198 A 
ATOM     81  F   UNL     1       1.389 -10.222  -3.745  1.00  0.00    -0.203 F 
ATOM     82  F   UNL     1       2.808 -13.725  -7.681  1.00  0.00    -0.200 F 
ATOM     83  C   UNL     1       3.205 -11.718  -6.501  1.00  0.00     0.200 A 
ATOM     84  F   UNL     1       3.562  -9.725  -5.287  1.00  0.00    -0.200 F 
ATOM     85  F   UNL     1       4.289 -11.473  -7.251  1.00  0.00    -0.200 F 
ENDBRANCH  51  75
BRANCH  63  86
ATOM     86  C   UNL     1      -0.823 -17.102  -0.249  1.00  0.00     0.064 A 
ATOM     87  C   UNL     1       0.132 -16.925   0.761  1.00  0.00     0.173 A 
ATOM     88  C   UNL     1      -1.155 -18.413  -0.624  1.00  0.00     0.173 A 
ATOM     89  F   UNL     1       0.489 -15.690   1.143  1.00  0.00    -0.203 F 
ATOM     90  C   UNL     1       0.733 -18.021   1.374  1.00  0.00     0.198 A 
ATOM     91  C   UNL     1      -0.570 -19.506   0.007  1.00  0.00     0.198 A 
ATOM     92  F   UNL     1      -2.070 -18.631  -1.580  1.00  0.00    -0.203 F 
ATOM     93  F   UNL     1       1.657 -17.831   2.326  1.00  0.00    -0.200 F 
ATOM     94  C   UNL     1       0.373 -19.309   1.005  1.00  0.00     0.200 A 
ATOM     95  F   UNL     1      -0.928 -20.750  -0.340  1.00  0.00    -0.200 F 
ATOM     96  F   UNL     1       0.935 -20.363   1.613  1.00  0.00    -0.200 F 
ENDBRANCH  63  86
ENDBRANCH  37  38
ENDBRANCH  29  32
ENDBRANCH  27  28
ENDBRANCH  26  27
ENDBRANCH   1  26
TORSDOF 14
