REMARK SMILES C[C@@H](O)[C@@H](NC(=O)Nc1ccc(F)cc1F)C(=O)NCCCCCCNC(=O)c1ccc(-c2c3nc(c(-c4c(F)c(F)c(F)c(F)c4F)c4ccc([nH]4)c(-c4c(F)c(F)c(F)c(F)c4F)c4nc(c(-c5c(F)c(F)c(F)c(F)c5F)c5ccc2[nH]5)C=C4)C=C3)cc1
REMARK SMILES IDX 22 1 21 2 20 3 19 4 17 5 18 6 4 8 2 9 1 10 3 11 5 13 6 14
REMARK SMILES IDX 7 16 8 17 9 19 10 20 15 21 11 22 14 23 16 24 12 25 13 26
REMARK SMILES IDX 23 27 24 28 25 29 26 30 27 31 28 33 29 34 30 35 91 36 31 37
REMARK SMILES IDX 90 38 32 39 33 40 34 41 84 42 35 43 89 44 83 45 85 46 36 47
REMARK SMILES IDX 88 48 82 49 81 50 37 52 69 53 49 54 68 55 50 56 53 57 67 58
REMARK SMILES IDX 86 59 51 60 52 61 66 63 87 64 54 65 38 66 39 67 47 68 40 69
REMARK SMILES IDX 41 70 45 71 48 72 42 73 43 74 46 75 44 76 70 77 71 78 79 79
REMARK SMILES IDX 72 80 73 81 77 82 80 83 74 84 75 85 78 86 76 87 55 88 56 89
REMARK SMILES IDX 64 90 57 91 58 92 62 93 65 94 59 95 60 96 63 97 61 98
REMARK H PARENT 19 7 3 12 5 15 8 18 26 32 85 51 53 62
REMARK Flexibility Score: inf
ROOT
ATOM      1  C   UNL     1       0.952   5.932  -2.432  1.00  0.00     0.002 C 
ENDROOT
BRANCH   1   2
ATOM      2  C   UNL     1       1.434   4.888  -1.406  1.00  0.00     0.021 C 
BRANCH   2   3
ATOM      3  C   UNL     1       0.291   4.094  -0.770  1.00  0.00     0.116 C 
BRANCH   3   4
ATOM      4  N   UNL     1      -0.430   3.441  -1.835  1.00  0.00    -0.354 N 
ATOM      5  C   UNL     1      -0.327   2.127  -2.164  1.00  0.00     0.245 C 
ATOM      6  O   UNL     1       0.060   1.830  -3.297  1.00  0.00    -0.273 OA
ATOM      7  H   UNL     1      -1.048   3.993  -2.368  1.00  0.00     0.163 HD
BRANCH   5   8
ATOM      8  C   UNL     1      -0.604   1.056  -1.103  1.00  0.00     0.201 C 
BRANCH   8   9
ATOM      9  C   UNL     1       0.806   0.565  -0.668  1.00  0.00     0.143 C 
ATOM     10  C   UNL     1       0.812  -0.341   0.555  1.00  0.00     0.041 C 
BRANCH   9  11
ATOM     11  O   UNL     1       1.414  -0.197  -1.725  1.00  0.00    -0.391 OA
ATOM     12  H   UNL     1       0.888  -0.995  -1.891  1.00  0.00     0.211 HD
ENDBRANCH   9  11
ENDBRANCH   8   9
BRANCH   8  13
ATOM     13  N   UNL     1      -1.481   1.523  -0.013  1.00  0.00    -0.323 N 
ATOM     14  C   UNL     1      -2.675   2.153   0.041  1.00  0.00     0.320 C 
ATOM     15  H   UNL     1      -1.112   1.333   0.880  1.00  0.00     0.166 HD
ATOM     16  O   UNL     1      -3.117   2.398   1.167  1.00  0.00    -0.248 OA
ATOM     17  N   UNL     1      -3.298   2.695  -1.027  1.00  0.00    -0.305 N 
ATOM     18  H   UNL     1      -3.886   3.450  -0.797  1.00  0.00     0.171 HD
BRANCH  17  19
ATOM     19  C   UNL     1      -3.278   2.398  -2.395  1.00  0.00     0.079 A 
ATOM     20  C   UNL     1      -3.234   1.090  -2.874  1.00  0.00     0.032 A 
ATOM     21  C   UNL     1      -3.239   3.467  -3.305  1.00  0.00     0.149 A 
ATOM     22  C   UNL     1      -3.013   0.864  -4.235  1.00  0.00     0.041 A 
ATOM     23  C   UNL     1      -2.990   3.250  -4.654  1.00  0.00     0.080 A 
ATOM     24  F   UNL     1      -3.282   4.730  -2.852  1.00  0.00    -0.205 F 
ATOM     25  C   UNL     1      -2.858   1.944  -5.103  1.00  0.00     0.126 A 
ATOM     26  F   UNL     1      -2.563   1.718  -6.389  1.00  0.00    -0.207 F 
ENDBRANCH  17  19
ENDBRANCH   8  13
ENDBRANCH   5   8
ENDBRANCH   3   4
ENDBRANCH   2   3
ENDBRANCH   1   2
BRANCH   1  27
ATOM     27  C   UNL     1      -0.113   6.896  -1.897  1.00  0.00     0.002 C 
BRANCH  27  28
ATOM     28  C   UNL     1       0.314   7.648  -0.637  1.00  0.00     0.021 C 
BRANCH  28  29
ATOM     29  C   UNL     1       1.654   8.351  -0.774  1.00  0.00     0.116 C 
BRANCH  29  30
ATOM     30  N   UNL     1       1.643   9.359  -1.818  1.00  0.00    -0.352 N 
ATOM     31  C   UNL     1       2.275  10.579  -1.814  1.00  0.00     0.251 C 
ATOM     32  H   UNL     1       1.120   9.144  -2.624  1.00  0.00     0.163 HD
ATOM     33  O   UNL     1       2.064  11.407  -2.680  1.00  0.00    -0.269 OA
BRANCH  31  34
ATOM     34  C   UNL     1       3.198  10.871  -0.699  1.00  0.00     0.039 A 
ATOM     35  C   UNL     1       3.018  12.045   0.030  1.00  0.00     0.014 A 
ATOM     36  C   UNL     1       4.190   9.951  -0.346  1.00  0.00     0.014 A 
ATOM     37  C   UNL     1       3.815  12.280   1.149  1.00  0.00     0.010 A 
ATOM     38  C   UNL     1       4.926  10.148   0.814  1.00  0.00     0.010 A 
ATOM     39  C   UNL     1       4.755  11.321   1.564  1.00  0.00    -0.014 A 
BRANCH  39  40
ATOM     40  C   UNL     1       5.585  11.543   2.772  1.00  0.00     0.031 A 
ATOM     41  C   UNL     1       7.075  11.680   2.639  1.00  0.00     0.074 A 
ATOM     42  C   UNL     1       5.001  11.583   3.984  1.00  0.00     0.049 A 
ATOM     43  N   UNL     1       7.975  11.845   3.575  1.00  0.00    -0.248 NA
ATOM     44  C   UNL     1       7.633  11.593   1.280  1.00  0.00     0.031 C 
ATOM     45  C   UNL     1       3.569  11.417   4.237  1.00  0.00     0.029 A 
ATOM     46  N   UNL     1       5.538  11.776   5.232  1.00  0.00    -0.354 N 
ATOM     47  C   UNL     1       9.197  11.876   2.918  1.00  0.00     0.074 A 
ATOM     48  C   UNL     1       8.935  11.647   1.515  1.00  0.00     0.031 C 
ATOM     49  C   UNL     1       3.336  11.551   5.552  1.00  0.00     0.029 A 
ATOM     50  C   UNL     1       4.605  11.773   6.240  1.00  0.00     0.049 A 
ATOM     51  H   UNL     1       6.501  11.904   5.390  1.00  0.00     0.167 HD
ATOM     52  C   UNL     1      10.425  12.107   3.437  1.00  0.00     0.037 A 
ATOM     53  C   UNL     1       4.758  11.932   7.569  1.00  0.00     0.037 A 
ATOM     54  C   UNL     1      10.674  12.365   4.830  1.00  0.00     0.049 A 
ATOM     55  C   UNL     1       6.136  12.174   8.123  1.00  0.00     0.074 A 
ATOM     56  C   UNL     1      11.874  12.668   5.447  1.00  0.00     0.029 A 
ATOM     57  N   UNL     1       9.703  12.352   5.821  1.00  0.00    -0.354 N 
ATOM     58  N   UNL     1       7.277  12.265   7.485  1.00  0.00    -0.248 NA
ATOM     59  C   UNL     1       6.248  12.339   9.579  1.00  0.00     0.031 C 
ATOM     60  C   UNL     1      11.639  12.787   6.819  1.00  0.00     0.029 A 
ATOM     61  C   UNL     1      10.284  12.616   7.051  1.00  0.00     0.049 A 
ATOM     62  H   UNL     1       8.745  12.182   5.673  1.00  0.00     0.167 HD
ATOM     63  C   UNL     1       8.238  12.521   8.453  1.00  0.00     0.074 A 
ATOM     64  C   UNL     1       7.543  12.585   9.723  1.00  0.00     0.031 C 
ATOM     65  C   UNL     1       9.575  12.685   8.304  1.00  0.00     0.037 A 
BRANCH  52  66
ATOM     66  C   UNL     1      11.596  12.111   2.498  1.00  0.00     0.064 A 
ATOM     67  C   UNL     1      12.581  11.116   2.583  1.00  0.00     0.173 A 
ATOM     68  C   UNL     1      11.779  13.137   1.559  1.00  0.00     0.173 A 
ATOM     69  F   UNL     1      12.457  10.114   3.466  1.00  0.00    -0.203 F 
ATOM     70  C   UNL     1      13.714  11.158   1.774  1.00  0.00     0.198 A 
ATOM     71  C   UNL     1      12.897  13.159   0.730  1.00  0.00     0.198 A 
ATOM     72  F   UNL     1      10.860  14.106   1.429  1.00  0.00    -0.203 F 
ATOM     73  F   UNL     1      14.659  10.216   1.898  1.00  0.00    -0.200 F 
ATOM     74  C   UNL     1      13.868  12.176   0.846  1.00  0.00     0.200 A 
ATOM     75  F   UNL     1      13.031  14.129  -0.185  1.00  0.00    -0.200 F 
ATOM     76  F   UNL     1      14.954  12.209   0.060  1.00  0.00    -0.200 F 
ENDBRANCH  52  66
BRANCH  53  77
ATOM     77  C   UNL     1       3.564  11.904   8.454  1.00  0.00     0.064 A 
ATOM     78  C   UNL     1       2.834  10.724   8.662  1.00  0.00     0.173 A 
ATOM     79  C   UNL     1       3.112  13.069   9.088  1.00  0.00     0.173 A 
ATOM     80  F   UNL     1       3.221   9.583   8.073  1.00  0.00    -0.203 F 
ATOM     81  C   UNL     1       1.686  10.717   9.452  1.00  0.00     0.198 A 
ATOM     82  C   UNL     1       1.980  13.055   9.901  1.00  0.00     0.198 A 
ATOM     83  F   UNL     1       3.786  14.219   8.936  1.00  0.00    -0.203 F 
ATOM     84  F   UNL     1       0.987   9.584   9.603  1.00  0.00    -0.200 F 
ATOM     85  C   UNL     1       1.263  11.881  10.075  1.00  0.00     0.200 A 
ATOM     86  F   UNL     1       1.589  14.177  10.521  1.00  0.00    -0.200 F 
ATOM     87  F   UNL     1       0.167  11.870  10.845  1.00  0.00    -0.200 F 
ENDBRANCH  53  77
BRANCH  65  88
ATOM     88  C   UNL     1      10.386  12.971   9.533  1.00  0.00     0.064 A 
ATOM     89  C   UNL     1      10.988  14.227   9.710  1.00  0.00     0.173 A 
ATOM     90  C   UNL     1      10.650  11.976  10.484  1.00  0.00     0.173 A 
ATOM     91  F   UNL     1      10.775  15.210   8.822  1.00  0.00    -0.203 F 
ATOM     92  C   UNL     1      11.842  14.468  10.782  1.00  0.00     0.198 A 
ATOM     93  C   UNL     1      11.480  12.230  11.573  1.00  0.00     0.198 A 
ATOM     94  F   UNL     1      10.089  10.763  10.366  1.00  0.00    -0.203 F 
ATOM     95  F   UNL     1      12.440  15.661  10.905  1.00  0.00    -0.200 F 
ATOM     96  C   UNL     1      12.085  13.471  11.713  1.00  0.00     0.200 A 
ATOM     97  F   UNL     1      11.696  11.273  12.485  1.00  0.00    -0.200 F 
ATOM     98  F   UNL     1      12.903  13.704  12.748  1.00  0.00    -0.200 F 
ENDBRANCH  65  88
ENDBRANCH  39  40
ENDBRANCH  31  34
ENDBRANCH  29  30
ENDBRANCH  28  29
ENDBRANCH  27  28
ENDBRANCH   1  27
TORSDOF 17
