REMARK SMILES NC(=O)c1ccc(NC(=O)Cc2ccccc2C(=O)NCCCCCCNC(=O)c2ccc(-c3c4nc(c(-c5c(F)c(F)c(F)c(F)c5F)c5ccc([nH]5)c(-c5c(F)c(F)c(F)c(F)c5F)c5nc(c(-c6c(F)c(F)c(F)c(F)c6F)c6ccc3[nH]6)C=C5)C=C4)cc2)cc1
REMARK SMILES IDX 22 1 21 2 20 3 18 4 19 5 17 7 12 8 13 9 14 10 16 11 15 12
REMARK SMILES IDX 11 13 9 14 8 15 10 17 7 18 4 19 5 20 94 21 6 22 93 23 2 24
REMARK SMILES IDX 1 25 3 28 23 29 24 30 25 31 26 32 27 33 28 34 29 36 30 37
REMARK SMILES IDX 31 38 92 39 32 40 91 41 33 42 34 43 35 44 85 45 36 46 90 47
REMARK SMILES IDX 84 48 86 49 37 50 89 51 83 52 82 53 38 55 70 56 50 57 69 58
REMARK SMILES IDX 51 59 54 60 68 61 87 62 52 63 53 64 67 66 88 67 55 68 39 69
REMARK SMILES IDX 40 70 48 71 41 72 42 73 46 74 49 75 43 76 44 77 47 78 45 79
REMARK SMILES IDX 71 80 72 81 80 82 73 83 74 84 78 85 81 86 75 87 76 88 79 89
REMARK SMILES IDX 77 90 56 91 57 92 65 93 58 94 59 95 63 96 66 97 60 98 61 99
REMARK SMILES IDX 64 100 62 101
REMARK H PARENT 20 6 8 16 1 26 1 27 27 35 86 54 54 65
REMARK Flexibility Score: inf
ROOT
ATOM      1  C   UNL     1       2.200   3.481   6.949  1.00  0.00     0.021 C 
ENDROOT
BRANCH   1   2
ATOM      2  C   UNL     1       1.698   3.204   5.530  1.00  0.00     0.116 C 
BRANCH   2   3
ATOM      3  N   UNL     1       0.251   3.082   5.547  1.00  0.00    -0.352 N 
ATOM      4  C   UNL     1      -0.884   3.757   5.204  1.00  0.00     0.251 C 
ATOM      5  O   UNL     1      -1.913   3.175   5.575  1.00  0.00    -0.269 OA
ATOM      6  H   UNL     1       0.004   2.215   5.943  1.00  0.00     0.163 HD
BRANCH   4   7
ATOM      7  C   UNL     1      -1.064   5.006   4.370  1.00  0.00     0.043 A 
ATOM      8  C   UNL     1      -0.220   6.123   4.145  1.00  0.00    -0.026 A 
ATOM      9  C   UNL     1      -0.697   7.192   3.342  1.00  0.00     0.005 A 
ATOM     10  C   UNL     1      -1.923   7.135   2.688  1.00  0.00     0.000 A 
ATOM     11  C   UNL     1      -2.282   4.965   3.643  1.00  0.00     0.014 A 
ATOM     12  C   UNL     1      -2.703   6.001   2.808  1.00  0.00     0.001 A 
BRANCH   8  13
ATOM     13  C   UNL     1       1.169   6.320   4.684  1.00  0.00     0.136 C 
BRANCH  13  14
ATOM     14  C   UNL     1       2.352   6.476   3.707  1.00  0.00     0.228 C 
ATOM     15  N   UNL     1       2.732   5.704   2.645  1.00  0.00    -0.326 N 
ATOM     16  H   UNL     1       3.558   6.051   2.235  1.00  0.00     0.169 HD
ATOM     17  O   UNL     1       3.146   7.406   3.947  1.00  0.00    -0.274 OA
BRANCH  15  18
ATOM     18  C   UNL     1       2.279   4.553   1.970  1.00  0.00     0.041 A 
ATOM     19  C   UNL     1       1.391   2.235   0.583  1.00  0.00     0.039 A 
ATOM     20  C   UNL     1       0.689   2.723   1.669  1.00  0.00     0.016 A 
ATOM     21  C   UNL     1       2.555   2.898   0.180  1.00  0.00     0.016 A 
ATOM     22  C   UNL     1       1.157   3.849   2.335  1.00  0.00     0.027 A 
ATOM     23  C   UNL     1       2.989   4.057   0.868  1.00  0.00     0.027 A 
BRANCH  19  24
ATOM     24  C   UNL     1       0.828   1.031  -0.069  1.00  0.00     0.248 C 
ATOM     25  N   UNL     1       1.708   0.105  -0.541  1.00  0.00    -0.366 N 
ATOM     26  H   UNL     1       1.375  -0.711  -0.981  1.00  0.00     0.159 HD
ATOM     27  H   UNL     1       2.676   0.251  -0.441  1.00  0.00     0.159 HD
ATOM     28  O   UNL     1      -0.379   0.839  -0.119  1.00  0.00    -0.270 OA
ENDBRANCH  19  24
ENDBRANCH  15  18
ENDBRANCH  13  14
ENDBRANCH   8  13
ENDBRANCH   4   7
ENDBRANCH   2   3
ENDBRANCH   1   2
BRANCH   1  29
ATOM     29  C   UNL     1       3.262   2.476   7.387  1.00  0.00     0.002 C 
BRANCH  29  30
ATOM     30  C   UNL     1       4.597   2.631   6.655  1.00  0.00     0.002 C 
BRANCH  30  31
ATOM     31  C   UNL     1       5.307   3.966   6.889  1.00  0.00     0.021 C 
BRANCH  31  32
ATOM     32  C   UNL     1       5.457   4.357   8.355  1.00  0.00     0.116 C 
BRANCH  32  33
ATOM     33  N   UNL     1       6.121   3.320   9.130  1.00  0.00    -0.352 N 
ATOM     34  C   UNL     1       7.221   3.412   9.941  1.00  0.00     0.251 C 
ATOM     35  H   UNL     1       5.721   2.423   9.062  1.00  0.00     0.163 HD
ATOM     36  O   UNL     1       7.782   2.401  10.347  1.00  0.00    -0.269 OA
BRANCH  34  37
ATOM     37  C   UNL     1       7.731   4.743  10.317  1.00  0.00     0.039 A 
ATOM     38  C   UNL     1       9.107   4.977  10.285  1.00  0.00     0.014 A 
ATOM     39  C   UNL     1       6.848   5.751  10.715  1.00  0.00     0.014 A 
ATOM     40  C   UNL     1       9.596   6.238  10.621  1.00  0.00     0.010 A 
ATOM     41  C   UNL     1       7.330   7.029  10.966  1.00  0.00     0.010 A 
ATOM     42  C   UNL     1       8.710   7.278  10.945  1.00  0.00    -0.014 A 
BRANCH  42  43
ATOM     43  C   UNL     1       9.209   8.625  11.312  1.00  0.00     0.031 A 
ATOM     44  C   UNL     1       8.967   9.158  12.697  1.00  0.00     0.074 A 
ATOM     45  C   UNL     1       9.830   9.381  10.388  1.00  0.00     0.049 A 
ATOM     46  N   UNL     1       9.271  10.327  13.200  1.00  0.00    -0.248 NA
ATOM     47  C   UNL     1       8.259   8.268  13.632  1.00  0.00     0.031 C 
ATOM     48  C   UNL     1      10.078   8.987   9.000  1.00  0.00     0.029 A 
ATOM     49  N   UNL     1      10.359  10.643  10.476  1.00  0.00    -0.354 N 
ATOM     50  C   UNL     1       8.778  10.316  14.499  1.00  0.00     0.074 A 
ATOM     51  C   UNL     1       8.099   9.054  14.685  1.00  0.00     0.031 C 
ATOM     52  C   UNL     1      10.734   9.977   8.374  1.00  0.00     0.029 A 
ATOM     53  C   UNL     1      10.918  11.088   9.303  1.00  0.00     0.049 A 
ATOM     54  H   UNL     1      10.340  11.180  11.302  1.00  0.00     0.167 HD
ATOM     55  C   UNL     1       8.906  11.263  15.458  1.00  0.00     0.037 A 
ATOM     56  C   UNL     1      11.508  12.262   9.014  1.00  0.00     0.037 A 
ATOM     57  C   UNL     1       9.604  12.508  15.269  1.00  0.00     0.049 A 
ATOM     58  C   UNL     1      11.636  13.300  10.097  1.00  0.00     0.074 A 
ATOM     59  C   UNL     1       9.838  13.515  16.188  1.00  0.00     0.029 A 
ATOM     60  N   UNL     1      10.178  12.915  14.073  1.00  0.00    -0.354 N 
ATOM     61  N   UNL     1      11.228  13.254  11.342  1.00  0.00    -0.248 NA
ATOM     62  C   UNL     1      12.320  14.549   9.736  1.00  0.00     0.031 C 
ATOM     63  C   UNL     1      10.506  14.556  15.533  1.00  0.00     0.029 A 
ATOM     64  C   UNL     1      10.748  14.169  14.225  1.00  0.00     0.049 A 
ATOM     65  H   UNL     1      10.180  12.391  13.240  1.00  0.00     0.167 HD
ATOM     66  C   UNL     1      11.636  14.447  11.923  1.00  0.00     0.074 A 
ATOM     67  C   UNL     1      12.336  15.191  10.895  1.00  0.00     0.031 C 
ATOM     68  C   UNL     1      11.453  14.887  13.193  1.00  0.00     0.037 A 
BRANCH  55  69
ATOM     69  C   UNL     1       8.276  10.987  16.794  1.00  0.00     0.064 A 
ATOM     70  C   UNL     1       8.753   9.974  17.642  1.00  0.00     0.173 A 
ATOM     71  C   UNL     1       7.191  11.755  17.242  1.00  0.00     0.173 A 
ATOM     72  F   UNL     1       9.780   9.200  17.259  1.00  0.00    -0.203 F 
ATOM     73  C   UNL     1       8.145   9.717  18.868  1.00  0.00     0.198 A 
ATOM     74  C   UNL     1       6.608  11.519  18.485  1.00  0.00     0.198 A 
ATOM     75  F   UNL     1       6.696  12.739  16.477  1.00  0.00    -0.203 F 
ATOM     76  F   UNL     1       8.579   8.704  19.630  1.00  0.00    -0.200 F 
ATOM     77  C   UNL     1       7.078  10.494  19.291  1.00  0.00     0.200 A 
ATOM     78  F   UNL     1       5.586  12.281  18.899  1.00  0.00    -0.200 F 
ATOM     79  F   UNL     1       6.496  10.249  20.474  1.00  0.00    -0.200 F 
ENDBRANCH  55  69
BRANCH  56  80
ATOM     80  C   UNL     1      12.053  12.504   7.652  1.00  0.00     0.064 A 
ATOM     81  C   UNL     1      13.435  12.598   7.435  1.00  0.00     0.173 A 
ATOM     82  C   UNL     1      11.208  12.648   6.542  1.00  0.00     0.173 A 
ATOM     83  F   UNL     1      14.284  12.484   8.467  1.00  0.00    -0.203 F 
ATOM     84  C   UNL     1      13.949  12.851   6.165  1.00  0.00     0.198 A 
ATOM     85  C   UNL     1      11.725  12.870   5.267  1.00  0.00     0.198 A 
ATOM     86  F   UNL     1       9.878  12.559   6.694  1.00  0.00    -0.203 F 
ATOM     87  F   UNL     1      15.271  12.986   5.995  1.00  0.00    -0.200 F 
ATOM     88  C   UNL     1      13.094  12.981   5.081  1.00  0.00     0.200 A 
ATOM     89  F   UNL     1      10.896  12.977   4.220  1.00  0.00    -0.200 F 
ATOM     90  F   UNL     1      13.589  13.220   3.859  1.00  0.00    -0.200 F 
ENDBRANCH  56  80
BRANCH  68  91
ATOM     91  C   UNL     1      12.065  16.209  13.558  1.00  0.00     0.064 A 
ATOM     92  C   UNL     1      11.576  17.422  13.049  1.00  0.00     0.173 A 
ATOM     93  C   UNL     1      13.140  16.262  14.460  1.00  0.00     0.173 A 
ATOM     94  F   UNL     1      10.559  17.425  12.174  1.00  0.00    -0.203 F 
ATOM     95  C   UNL     1      12.164  18.634  13.401  1.00  0.00     0.198 A 
ATOM     96  C   UNL     1      13.701  17.479  14.837  1.00  0.00     0.198 A 
ATOM     97  F   UNL     1      13.640  15.133  14.984  1.00  0.00    -0.203 F 
ATOM     98  F   UNL     1      11.719  19.774  12.856  1.00  0.00    -0.200 F 
ATOM     99  C   UNL     1      13.220  18.662  14.300  1.00  0.00     0.200 A 
ATOM    100  F   UNL     1      14.709  17.505  15.720  1.00  0.00    -0.200 F 
ATOM    101  F   UNL     1      13.779  19.831  14.642  1.00  0.00    -0.200 F 
ENDBRANCH  68  91
ENDBRANCH  42  43
ENDBRANCH  34  37
ENDBRANCH  32  33
ENDBRANCH  31  32
ENDBRANCH  30  31
ENDBRANCH  29  30
ENDBRANCH   1  29
TORSDOF 17
