REMARK SMILES CCC[N@H+](CC(=O)NCCCCCCNC(=O)c1ccc(-c2c3nc(c(-c4c(F)c(F)c(F)c(F)c4F)c4ccc([nH]4)c(-c4c(F)c(F)c(F)c(F)c4F)c4nc(c(-c5c(F)c(F)c(F)c(F)c5F)c5ccc2[nH]5)C=C4)C=C3)cc1)[C@H]1CCOC2(CCCCC2)C1
REMARK SMILES IDX 11 1 10 2 9 3 8 4 6 5 7 6 5 8 4 9 3 11 2 12 1 13 81 14 82 15
REMARK SMILES IDX 91 16 83 17 85 18 84 19 86 20 90 21 87 22 89 23 88 24 12 25
REMARK SMILES IDX 13 26 14 27 15 28 16 29 17 31 18 32 19 33 80 34 20 35 79 36
REMARK SMILES IDX 21 37 22 38 23 39 73 40 24 41 78 42 72 43 74 44 25 45 77 46
REMARK SMILES IDX 71 47 70 48 26 50 58 51 38 52 57 53 39 54 42 55 56 56 75 57
REMARK SMILES IDX 40 58 41 59 55 61 76 62 43 63 27 64 28 65 36 66 29 67 30 68
REMARK SMILES IDX 34 69 37 70 31 71 32 72 35 73 33 74 59 75 60 76 68 77 61 78
REMARK SMILES IDX 62 79 66 80 69 81 63 82 64 83 67 84 65 85 44 86 45 87 53 88
REMARK SMILES IDX 46 89 47 90 51 91 54 92 48 93 49 94 52 95 50 96
REMARK H PARENT 8 7 4 10 15 30 74 49 42 60
REMARK Flexibility Score: inf
ROOT
ATOM      1  C   UNL     1      -1.744   7.729   0.244  1.00  0.00     0.002 C 
ENDROOT
BRANCH   1   2
ATOM      2  C   UNL     1      -0.919   6.507   0.644  1.00  0.00     0.021 C 
BRANCH   2   3
ATOM      3  C   UNL     1      -1.403   5.788   1.909  1.00  0.00     0.116 C 
BRANCH   3   4
ATOM      4  N   UNL     1      -2.358   4.742   1.584  1.00  0.00    -0.351 N 
ATOM      5  C   UNL     1      -2.218   3.379   1.566  1.00  0.00     0.275 C 
ATOM      6  O   UNL     1      -3.165   2.716   1.133  1.00  0.00    -0.269 OA
ATOM      7  H   UNL     1      -3.255   5.066   1.336  1.00  0.00     0.163 HD
BRANCH   5   8
ATOM      8  C   UNL     1      -0.945   2.704   2.111  1.00  0.00     0.363 C 
BRANCH   8   9
ATOM      9  N   UNL     1       0.047   2.315   1.051  1.00  0.00    -0.325 N 
ATOM     10  H   UNL     1      -0.373   1.744   0.317  1.00  0.00     0.348 HD
BRANCH   9  11
ATOM     11  C   UNL     1       0.523   3.528   0.366  1.00  0.00     0.262 C 
BRANCH  11  12
ATOM     12  C   UNL     1       1.566   3.503  -0.756  1.00  0.00     0.058 C 
ATOM     13  C   UNL     1       1.041   2.904  -2.050  1.00  0.00     0.010 C 
ENDBRANCH  11  12
ENDBRANCH   9  11
BRANCH   9  14
ATOM     14  C   UNL     1       1.097   1.446   1.653  1.00  0.00     0.189 C 
ATOM     15  C   UNL     1       1.715   0.496   0.617  1.00  0.00     0.093 C 
ATOM     16  C   UNL     1       2.169   2.192   2.466  1.00  0.00     0.100 C 
ATOM     17  C   UNL     1       2.863  -0.313   1.196  1.00  0.00     0.167 C 
ATOM     18  C   UNL     1       3.296   1.272   2.966  1.00  0.00     0.074 C 
ATOM     19  O   UNL     1       3.812   0.517   1.859  1.00  0.00    -0.375 OA
ATOM     20  C   UNL     1       2.848   0.349   4.121  1.00  0.00     0.036 C 
ATOM     21  C   UNL     1       4.453   2.163   3.478  1.00  0.00     0.036 C 
ATOM     22  C   UNL     1       4.009  -0.498   4.649  1.00  0.00     0.003 C 
ATOM     23  C   UNL     1       5.620   1.349   4.036  1.00  0.00     0.003 C 
ATOM     24  C   UNL     1       5.167   0.377   5.119  1.00  0.00     0.000 C 
ENDBRANCH   9  14
ENDBRANCH   8   9
ENDBRANCH   5   8
ENDBRANCH   3   4
ENDBRANCH   2   3
ENDBRANCH   1   2
BRANCH   1  25
ATOM     25  C   UNL     1      -1.550   8.957   1.134  1.00  0.00     0.002 C 
BRANCH  25  26
ATOM     26  C   UNL     1      -0.099   9.412   1.327  1.00  0.00     0.021 C 
BRANCH  26  27
ATOM     27  C   UNL     1       0.703   9.608   0.042  1.00  0.00     0.116 C 
BRANCH  27  28
ATOM     28  N   UNL     1       0.135  10.640  -0.808  1.00  0.00    -0.352 N 
ATOM     29  C   UNL     1       0.675  11.836  -1.208  1.00  0.00     0.251 C 
ATOM     30  H   UNL     1      -0.770  10.454  -1.147  1.00  0.00     0.163 HD
ATOM     31  O   UNL     1      -0.025  12.678  -1.760  1.00  0.00    -0.269 OA
BRANCH  29  32
ATOM     32  C   UNL     1       2.104  12.119  -0.962  1.00  0.00     0.039 A 
ATOM     33  C   UNL     1       2.465  13.358  -0.426  1.00  0.00     0.014 A 
ATOM     34  C   UNL     1       3.086  11.179  -1.288  1.00  0.00     0.014 A 
ATOM     35  C   UNL     1       3.809  13.636  -0.168  1.00  0.00     0.010 A 
ATOM     36  C   UNL     1       4.419  11.434  -0.975  1.00  0.00     0.010 A 
ATOM     37  C   UNL     1       4.794  12.667  -0.418  1.00  0.00    -0.014 A 
BRANCH  37  38
ATOM     38  C   UNL     1       6.225  12.930  -0.124  1.00  0.00     0.031 A 
ATOM     39  C   UNL     1       7.218  13.013  -1.249  1.00  0.00     0.074 A 
ATOM     40  C   UNL     1       6.639  13.028   1.153  1.00  0.00     0.049 A 
ATOM     41  N   UNL     1       8.520  13.143  -1.198  1.00  0.00    -0.248 NA
ATOM     42  C   UNL     1       6.679  12.909  -2.614  1.00  0.00     0.031 C 
ATOM     43  C   UNL     1       5.777  12.926   2.332  1.00  0.00     0.029 A 
ATOM     44  N   UNL     1       7.894  13.220   1.675  1.00  0.00    -0.354 N 
ATOM     45  C   UNL     1       8.955  13.116  -2.516  1.00  0.00     0.074 A 
ATOM     46  C   UNL     1       7.785  12.914  -3.344  1.00  0.00     0.031 C 
ATOM     47  C   UNL     1       6.527  13.068   3.437  1.00  0.00     0.029 A 
ATOM     48  C   UNL     1       7.924  13.237   3.047  1.00  0.00     0.049 A 
ATOM     49  H   UNL     1       8.698  13.334   1.117  1.00  0.00     0.167 HD
ATOM     50  C   UNL     1      10.213  13.267  -2.994  1.00  0.00     0.037 A 
ATOM     51  C   UNL     1       8.962  13.366   3.895  1.00  0.00     0.037 A 
ATOM     52  C   UNL     1      11.369  13.502  -2.171  1.00  0.00     0.049 A 
ATOM     53  C   UNL     1      10.349  13.541   3.337  1.00  0.00     0.074 A 
ATOM     54  C   UNL     1      12.677  13.727  -2.562  1.00  0.00     0.029 A 
ATOM     55  N   UNL     1      11.353  13.547  -0.784  1.00  0.00    -0.354 N 
ATOM     56  N   UNL     1      10.739  13.573   2.086  1.00  0.00    -0.248 NA
ATOM     57  C   UNL     1      11.439  13.705   4.309  1.00  0.00     0.031 C 
ATOM     58  C   UNL     1      13.460  13.872  -1.412  1.00  0.00     0.029 A 
ATOM     59  C   UNL     1      12.632  13.781  -0.305  1.00  0.00     0.049 A 
ATOM     60  H   UNL     1      10.552  13.430  -0.224  1.00  0.00     0.167 HD
ATOM     61  C   UNL     1      12.110  13.792   2.119  1.00  0.00     0.074 A 
ATOM     62  C   UNL     1      12.483  13.894   3.515  1.00  0.00     0.031 C 
ATOM     63  C   UNL     1      12.981  13.897   1.087  1.00  0.00     0.037 A 
BRANCH  50  64
ATOM     64  C   UNL     1      10.406  13.187  -4.480  1.00  0.00     0.064 A 
ATOM     65  C   UNL     1       9.960  14.207  -5.334  1.00  0.00     0.173 A 
ATOM     66  C   UNL     1      11.082  12.099  -5.053  1.00  0.00     0.173 A 
ATOM     67  F   UNL     1       9.299  15.263  -4.836  1.00  0.00    -0.203 F 
ATOM     68  C   UNL     1      10.161  14.129  -6.709  1.00  0.00     0.198 A 
ATOM     69  C   UNL     1      11.306  12.038  -6.426  1.00  0.00     0.198 A 
ATOM     70  F   UNL     1      11.533  11.100  -4.280  1.00  0.00    -0.203 F 
ATOM     71  F   UNL     1       9.688  15.094  -7.510  1.00  0.00    -0.200 F 
ATOM     72  C   UNL     1      10.840  13.048  -7.253  1.00  0.00     0.200 A 
ATOM     73  F   UNL     1      11.972  10.999  -6.949  1.00  0.00    -0.200 F 
ATOM     74  F   UNL     1      11.040  12.978  -8.577  1.00  0.00    -0.200 F 
ENDBRANCH  50  64
BRANCH  51  75
ATOM     75  C   UNL     1       8.730  13.359   5.362  1.00  0.00     0.064 A 
ATOM     76  C   UNL     1       8.886  14.528   6.119  1.00  0.00     0.173 A 
ATOM     77  C   UNL     1       8.357  12.188   6.037  1.00  0.00     0.173 A 
ATOM     78  F   UNL     1       9.262  15.668   5.521  1.00  0.00    -0.203 F 
ATOM     79  C   UNL     1       8.699  14.522   7.500  1.00  0.00     0.198 A 
ATOM     80  C   UNL     1       8.144  12.189   7.414  1.00  0.00     0.198 A 
ATOM     81  F   UNL     1       8.189  11.045   5.357  1.00  0.00    -0.203 F 
ATOM     82  F   UNL     1       8.899  15.643   8.206  1.00  0.00    -0.200 F 
ATOM     83  C   UNL     1       8.323  13.354   8.146  1.00  0.00     0.200 A 
ATOM     84  F   UNL     1       7.768  11.062   8.033  1.00  0.00    -0.200 F 
ATOM     85  F   UNL     1       8.141  13.348   9.473  1.00  0.00    -0.200 F 
ENDBRANCH  51  75
BRANCH  63  86
ATOM     86  C   UNL     1      14.415  14.179   1.423  1.00  0.00     0.064 A 
ATOM     87  C   UNL     1      15.249  13.195   1.973  1.00  0.00     0.173 A 
ATOM     88  C   UNL     1      14.973  15.438   1.148  1.00  0.00     0.173 A 
ATOM     89  F   UNL     1      14.758  11.982   2.268  1.00  0.00    -0.203 F 
ATOM     90  C   UNL     1      16.585  13.468   2.255  1.00  0.00     0.198 A 
ATOM     91  C   UNL     1      16.315  15.698   1.406  1.00  0.00     0.198 A 
ATOM     92  F   UNL     1      14.217  16.410   0.617  1.00  0.00    -0.203 F 
ATOM     93  F   UNL     1      17.354  12.526   2.818  1.00  0.00    -0.200 F 
ATOM     94  C   UNL     1      17.119  14.715   1.964  1.00  0.00     0.200 A 
ATOM     95  F   UNL     1      16.831  16.899   1.115  1.00  0.00    -0.200 F 
ATOM     96  F   UNL     1      18.407  14.972   2.229  1.00  0.00    -0.200 F 
ENDBRANCH  63  86
ENDBRANCH  37  38
ENDBRANCH  29  32
ENDBRANCH  27  28
ENDBRANCH  26  27
ENDBRANCH  25  26
ENDBRANCH   1  25
TORSDOF 17
