REMARK SMILES O=C(NCCCCCCNC(=O)c1cn(C2CC2)c2cc(N3CC[NH2+]CC3)ccc2c1=O)c1ccc(-c2c3nc(c(-c4c(F)c(F)c(F)c(F)c4F)c4ccc([nH]4)c(-c4c(F)c(F)c(F)c(F)c4F)c4nc(c(-c5c(F)c(F)c(F)c(F)c5F)c5ccc2[nH]5)C=C4)C=C3)cc1
REMARK SMILES IDX 6 1 5 2 4 3 3 4 1 5 2 6 33 8 34 9 95 10 35 11 94 12 36 13
REMARK SMILES IDX 37 14 38 15 88 16 39 17 93 18 87 19 89 20 40 21 92 22 86 23
REMARK SMILES IDX 85 24 41 26 73 27 53 28 72 29 54 30 57 31 71 32 90 33 55 34
REMARK SMILES IDX 56 35 70 37 91 38 58 39 42 40 43 41 51 42 44 43 45 44 49 45
REMARK SMILES IDX 52 46 46 47 47 48 50 49 48 50 74 51 75 52 83 53 76 54 77 55
REMARK SMILES IDX 81 56 84 57 78 58 79 59 82 60 80 61 59 62 60 63 68 64 61 65
REMARK SMILES IDX 62 66 66 67 69 68 63 69 64 70 67 71 65 72 7 73 8 74 9 75
REMARK SMILES IDX 10 76 11 77 12 79 13 80 14 81 31 82 15 83 30 84 32 85 19 86
REMARK SMILES IDX 29 87 20 88 28 89 21 90 16 91 17 92 18 93 22 94 23 95 27 96
REMARK SMILES IDX 24 97 26 98 25 99
REMARK H PARENT 3 7 89 25 57 36 10 78 25 100 25 101
REMARK Flexibility Score: inf
ROOT
ATOM      1  C   UNL     1       4.200  -1.218  -3.786  1.00  0.00     0.002 C 
ENDROOT
BRANCH   1   2
ATOM      2  C   UNL     1       4.709  -1.477  -2.366  1.00  0.00     0.021 C 
BRANCH   2   3
ATOM      3  C   UNL     1       4.451  -0.357  -1.364  1.00  0.00     0.116 C 
BRANCH   3   4
ATOM      4  N   UNL     1       3.036  -0.087  -1.186  1.00  0.00    -0.352 N 
ATOM      5  O   UNL     1       1.070   0.081  -0.108  1.00  0.00    -0.269 OA
ATOM      6  C   UNL     1       2.296   0.005  -0.037  1.00  0.00     0.251 C 
ATOM      7  H   UNL     1       2.530   0.051  -2.019  1.00  0.00     0.163 HD
BRANCH   6   8
ATOM      8  C   UNL     1       2.947   0.008   1.293  1.00  0.00     0.039 A 
ATOM      9  C   UNL     1       2.321  -0.674   2.342  1.00  0.00     0.014 A 
ATOM     10  C   UNL     1       4.116   0.735   1.537  1.00  0.00     0.014 A 
ATOM     11  C   UNL     1       2.868  -0.636   3.626  1.00  0.00     0.010 A 
ATOM     12  C   UNL     1       4.700   0.716   2.803  1.00  0.00     0.010 A 
ATOM     13  C   UNL     1       4.064   0.057   3.866  1.00  0.00    -0.014 A 
BRANCH  13  14
ATOM     14  C   UNL     1       4.609   0.182   5.242  1.00  0.00     0.031 A 
ATOM     15  C   UNL     1       4.622   1.528   5.915  1.00  0.00     0.074 A 
ATOM     16  C   UNL     1       5.098  -0.897   5.881  1.00  0.00     0.049 A 
ATOM     17  N   UNL     1       5.096   1.865   7.088  1.00  0.00    -0.248 NA
ATOM     18  C   UNL     1       4.043   2.651   5.160  1.00  0.00     0.031 C 
ATOM     19  C   UNL     1       5.153  -2.251   5.331  1.00  0.00     0.029 A 
ATOM     20  N   UNL     1       5.639  -1.023   7.136  1.00  0.00    -0.354 N 
ATOM     21  C   UNL     1       4.886   3.233   7.201  1.00  0.00     0.074 A 
ATOM     22  C   UNL     1       4.292   3.677   5.960  1.00  0.00     0.031 C 
ATOM     23  C   UNL     1       5.669  -3.078   6.256  1.00  0.00     0.029 A 
ATOM     24  C   UNL     1       6.011  -2.307   7.449  1.00  0.00     0.049 A 
ATOM     25  H   UNL     1       5.750  -0.264   7.754  1.00  0.00     0.167 HD
ATOM     26  C   UNL     1       5.137   4.042   8.257  1.00  0.00     0.037 A 
ATOM     27  C   UNL     1       6.564  -2.804   8.572  1.00  0.00     0.037 A 
ATOM     28  C   UNL     1       5.686   3.593   9.508  1.00  0.00     0.049 A 
ATOM     29  C   UNL     1       6.851  -1.881   9.726  1.00  0.00     0.074 A 
ATOM     30  C   UNL     1       5.933   4.328  10.653  1.00  0.00     0.029 A 
ATOM     31  N   UNL     1       6.064   2.287   9.778  1.00  0.00    -0.354 N 
ATOM     32  N   UNL     1       6.620  -0.595   9.832  1.00  0.00    -0.248 NA
ATOM     33  C   UNL     1       7.476  -2.478  10.915  1.00  0.00     0.031 C 
ATOM     34  C   UNL     1       6.493   3.474  11.607  1.00  0.00     0.029 A 
ATOM     35  C   UNL     1       6.558   2.198  11.069  1.00  0.00     0.049 A 
ATOM     36  H   UNL     1       5.992   1.535   9.148  1.00  0.00     0.167 HD
ATOM     37  C   UNL     1       7.051  -0.233  11.101  1.00  0.00     0.074 A 
ATOM     38  C   UNL     1       7.545  -1.437  11.735  1.00  0.00     0.031 C 
ATOM     39  C   UNL     1       7.041   0.990  11.685  1.00  0.00     0.037 A 
BRANCH  26  40
ATOM     40  C   UNL     1       4.802   5.497   8.114  1.00  0.00     0.064 A 
ATOM     41  C   UNL     1       3.472   5.943   8.099  1.00  0.00     0.173 A 
ATOM     42  C   UNL     1       5.820   6.460   8.043  1.00  0.00     0.173 A 
ATOM     43  F   UNL     1       2.464   5.060   8.152  1.00  0.00    -0.203 F 
ATOM     44  C   UNL     1       3.173   7.299   7.998  1.00  0.00     0.198 A 
ATOM     45  C   UNL     1       5.517   7.817   7.970  1.00  0.00     0.198 A 
ATOM     46  F   UNL     1       7.108   6.085   8.059  1.00  0.00    -0.203 F 
ATOM     47  F   UNL     1       1.895   7.699   7.945  1.00  0.00    -0.200 F 
ATOM     48  C   UNL     1       4.195   8.235   7.942  1.00  0.00     0.200 A 
ATOM     49  F   UNL     1       6.505   8.721   7.928  1.00  0.00    -0.200 F 
ATOM     50  F   UNL     1       3.905   9.540   7.856  1.00  0.00    -0.200 F 
ENDBRANCH  26  40
BRANCH  27  51
ATOM     51  C   UNL     1       6.850  -4.258   8.670  1.00  0.00     0.064 A 
ATOM     52  C   UNL     1       6.082  -5.084   9.503  1.00  0.00     0.173 A 
ATOM     53  C   UNL     1       7.877  -4.856   7.925  1.00  0.00     0.173 A 
ATOM     54  F   UNL     1       5.104  -4.553  10.252  1.00  0.00    -0.203 F 
ATOM     55  C   UNL     1       6.335  -6.451   9.593  1.00  0.00     0.198 A 
ATOM     56  C   UNL     1       8.114  -6.227   7.998  1.00  0.00     0.198 A 
ATOM     57  F   UNL     1       8.639  -4.109   7.112  1.00  0.00    -0.203 F 
ATOM     58  F   UNL     1       5.606  -7.212  10.420  1.00  0.00    -0.200 F 
ATOM     59  C   UNL     1       7.346  -7.022   8.835  1.00  0.00     0.200 A 
ATOM     60  F   UNL     1       9.083  -6.778   7.254  1.00  0.00    -0.200 F 
ATOM     61  F   UNL     1       7.582  -8.339   8.913  1.00  0.00    -0.200 F 
ENDBRANCH  27  51
BRANCH  39  62
ATOM     62  C   UNL     1       7.567   1.096  13.086  1.00  0.00     0.064 A 
ATOM     63  C   UNL     1       8.943   1.053  13.352  1.00  0.00     0.173 A 
ATOM     64  C   UNL     1       6.694   1.332  14.158  1.00  0.00     0.173 A 
ATOM     65  F   UNL     1       9.815   0.818  12.360  1.00  0.00    -0.203 F 
ATOM     66  C   UNL     1       9.425   1.235  14.645  1.00  0.00     0.198 A 
ATOM     67  C   UNL     1       7.182   1.538  15.445  1.00  0.00     0.198 A 
ATOM     68  F   UNL     1       5.370   1.390  13.952  1.00  0.00    -0.203 F 
ATOM     69  F   UNL     1      10.743   1.166  14.881  1.00  0.00    -0.200 F 
ATOM     70  C   UNL     1       8.546   1.488  15.688  1.00  0.00     0.200 A 
ATOM     71  F   UNL     1       6.332   1.796  16.449  1.00  0.00    -0.200 F 
ATOM     72  F   UNL     1       9.015   1.682  16.928  1.00  0.00    -0.200 F 
ENDBRANCH  39  62
ENDBRANCH  13  14
ENDBRANCH   6   8
ENDBRANCH   3   4
ENDBRANCH   2   3
ENDBRANCH   1   2
BRANCH   1  73
ATOM     73  C   UNL     1       4.695   0.072  -4.446  1.00  0.00     0.002 C 
BRANCH  73  74
ATOM     74  C   UNL     1       6.213   0.255  -4.492  1.00  0.00     0.021 C 
BRANCH  74  75
ATOM     75  C   UNL     1       6.992  -0.899  -5.113  1.00  0.00     0.116 C 
BRANCH  75  76
ATOM     76  N   UNL     1       6.628  -1.147  -6.499  1.00  0.00    -0.352 N 
ATOM     77  C   UNL     1       7.446  -1.300  -7.587  1.00  0.00     0.256 C 
ATOM     78  H   UNL     1       5.662  -1.215  -6.680  1.00  0.00     0.163 HD
ATOM     79  O   UNL     1       6.968  -1.533  -8.695  1.00  0.00    -0.269 OA
BRANCH  77  80
ATOM     80  C   UNL     1       8.900  -1.230  -7.369  1.00  0.00     0.104 A 
ATOM     81  C   UNL     1       9.480  -2.181  -6.623  1.00  0.00     0.104 A 
ATOM     82  C   UNL     1       9.735  -0.123  -7.871  1.00  0.00     0.202 A 
ATOM     83  N   UNL     1      10.797  -2.196  -6.208  1.00  0.00    -0.343 N 
ATOM     84  C   UNL     1      11.184  -0.178  -7.555  1.00  0.00     0.047 A 
ATOM     85  O   UNL     1       9.261   0.827  -8.485  1.00  0.00    -0.288 OA
ATOM     86  C   UNL     1      11.688  -1.214  -6.744  1.00  0.00     0.054 A 
ATOM     87  C   UNL     1      12.021   0.834  -8.038  1.00  0.00     0.016 A 
ATOM     88  C   UNL     1      13.067  -1.215  -6.477  1.00  0.00     0.053 A 
ATOM     89  C   UNL     1      13.375   0.833  -7.704  1.00  0.00     0.027 A 
ATOM     90  C   UNL     1      13.919  -0.188  -6.920  1.00  0.00     0.039 A 
BRANCH  83  91
ATOM     91  C   UNL     1      11.213  -3.082  -5.090  1.00  0.00     0.087 C 
ATOM     92  C   UNL     1      10.288  -3.901  -4.223  1.00  0.00     0.027 C 
ATOM     93  C   UNL     1      11.177  -4.580  -5.224  1.00  0.00     0.027 C 
ENDBRANCH  83  91
BRANCH  90  94
ATOM     94  N   UNL     1      15.251  -0.202  -6.564  1.00  0.00    -0.360 N 
ATOM     95  C   UNL     1      16.118  -1.280  -7.053  1.00  0.00     0.178 C 
ATOM     96  C   UNL     1      15.914   0.990  -6.026  1.00  0.00     0.178 C 
ATOM     97  C   UNL     1      17.221  -0.702  -7.971  1.00  0.00     0.282 C 
ATOM     98  C   UNL     1      17.040   1.474  -6.965  1.00  0.00     0.282 C 
ATOM     99  N   UNL     1      17.986   0.405  -7.355  1.00  0.00    -0.343 N 
ATOM    100  H   UNL     1      18.660   0.772  -8.027  1.00  0.00     0.346 HD
ATOM    101  H   UNL     1      18.488   0.068  -6.534  1.00  0.00     0.346 HD
ENDBRANCH  90  94
ENDBRANCH  77  80
ENDBRANCH  75  76
ENDBRANCH  74  75
ENDBRANCH  73  74
ENDBRANCH   1  73
TORSDOF 15
