REMARK SMILES CC1=C([C@@H](NC(=O)c2cc3c(s2)CCCCC3)C(=O)NCCCCCCNC(=O)c2ccc(-c3c4nc(c(-c5c(F)c(F)c(F)c(F)c5F)c5ccc([nH]5)c(-c5c(F)c(F)c(F)c(F)c5F)c5nc(c(-c6c(F)c(F)c(F)c(F)c6F)c6ccc3[nH]6)C=C5)C=C4)cc2)[C@H](C)N=N1
REMARK SMILES IDX 22 1 21 2 20 3 18 4 19 5 4 7 3 8 1 9 2 10 96 11 93 12 95 13
REMARK SMILES IDX 94 14 5 15 6 16 7 18 8 19 9 20 12 21 10 22 11 23 17 24 16 25
REMARK SMILES IDX 13 27 14 28 15 29 23 31 24 32 25 33 26 34 27 35 28 36 29 38
REMARK SMILES IDX 30 39 31 40 92 41 32 42 91 43 33 44 34 45 35 46 85 47 36 48
REMARK SMILES IDX 90 49 84 50 86 51 37 52 89 53 83 54 82 55 38 57 70 58 50 59
REMARK SMILES IDX 69 60 51 61 54 62 68 63 87 64 52 65 53 66 67 68 88 69 55 70
REMARK SMILES IDX 39 71 40 72 48 73 41 74 42 75 46 76 49 77 43 78 44 79 47 80
REMARK SMILES IDX 45 81 71 82 72 83 80 84 73 85 74 86 78 87 81 88 75 89 76 90
REMARK SMILES IDX 79 91 77 92 56 93 57 94 65 95 58 96 59 97 63 98 66 99 60 100
REMARK SMILES IDX 61 101 64 102 62 103
REMARK H PARENT 20 6 5 17 27 37 86 56 54 67
REMARK Flexibility Score: 90.00
ROOT
ATOM      1  C   UNL     1       1.762   6.076   2.287  1.00  0.00     0.021 C 
ENDROOT
BRANCH   1   2
ATOM      2  C   UNL     1       1.934   5.472   0.899  1.00  0.00     0.116 C 
BRANCH   2   3
ATOM      3  N   UNL     1       2.995   4.485   0.902  1.00  0.00    -0.354 N 
ATOM      4  C   UNL     1       3.049   3.253   0.319  1.00  0.00     0.247 C 
ATOM      5  O   UNL     1       3.931   2.480   0.708  1.00  0.00    -0.272 OA
ATOM      6  H   UNL     1       3.801   4.743   1.404  1.00  0.00     0.163 HD
BRANCH   4   7
ATOM      7  C   UNL     1       1.976   2.780  -0.689  1.00  0.00     0.202 C 
BRANCH   7   8
ATOM      8  C   UNL     1       0.871   2.062   0.054  1.00  0.00     0.011 C 
ATOM      9  C   UNL     1       1.163  -0.387  -0.610  1.00  0.00     0.069 C 
ATOM     10  C   UNL     1       0.483   0.779   0.009  1.00  0.00     0.064 C 
ATOM     11  N   UNL     1      -0.689   0.553   0.691  1.00  0.00    -0.160 NA
ATOM     12  C   UNL     1      -0.042   2.658   1.085  1.00  0.00     0.156 C 
ATOM     13  N   UNL     1      -1.096   1.619   1.220  1.00  0.00    -0.181 NA
ATOM     14  C   UNL     1       0.579   2.782   2.484  1.00  0.00     0.040 C 
ENDBRANCH   7   8
BRANCH   7  15
ATOM     15  N   UNL     1       1.386   3.775  -1.600  1.00  0.00    -0.336 N 
ATOM     16  C   UNL     1       2.002   4.677  -2.462  1.00  0.00     0.262 C 
ATOM     17  H   UNL     1       0.402   3.807  -1.599  1.00  0.00     0.165 HD
ATOM     18  O   UNL     1       1.282   5.200  -3.314  1.00  0.00    -0.268 OA
BRANCH  16  19
ATOM     19  C   UNL     1       3.357   5.132  -2.203  1.00  0.00     0.092 A 
ATOM     20  C   UNL     1       3.756   6.422  -1.883  1.00  0.00     0.029 A 
ATOM     21  S   UNL     1       4.723   4.112  -2.283  1.00  0.00    -0.135 S 
ATOM     22  C   UNL     1       5.013   6.421  -1.181  1.00  0.00    -0.033 A 
ATOM     23  C   UNL     1       5.603   5.172  -1.259  1.00  0.00     0.009 A 
BRANCH  22  24
ATOM     24  C   UNL     1       5.489   7.537  -0.294  1.00  0.00     0.037 C 
BRANCH  24  25
ATOM     25  C   UNL     1       6.981   7.849  -0.229  1.00  0.00     0.005 CG0
ATOM     26  G   UNL     1       7.923   6.960  -1.026  1.00  0.00     0.000 G0
ENDBRANCH  24  25
ENDBRANCH  22  24
BRANCH  23  27
ATOM     27  C   UNL     1       6.762   4.673  -0.459  1.00  0.00     0.047 C 
BRANCH  27  28
ATOM     28  C   UNL     1       8.033   5.518  -0.531  1.00  0.00     0.006 C 
BRANCH  28  29
ATOM     29  C   UNL     1       7.923   6.960  -1.026  1.00  0.00     0.001 CG0
ATOM     30  G   UNL     1       6.981   7.849  -0.229  1.00  0.00     0.000 G0
ENDBRANCH  28  29
ENDBRANCH  27  28
ENDBRANCH  23  27
ENDBRANCH  16  19
ENDBRANCH   7  15
ENDBRANCH   4   7
ENDBRANCH   2   3
ENDBRANCH   1   2
BRANCH   1  31
ATOM     31  C   UNL     1       2.824   7.124   2.615  1.00  0.00     0.002 C 
BRANCH  31  32
ATOM     32  C   UNL     1       2.799   8.372   1.724  1.00  0.00     0.002 C 
BRANCH  32  33
ATOM     33  C   UNL     1       1.464   9.105   1.588  1.00  0.00     0.021 C 
BRANCH  33  34
ATOM     34  C   UNL     1       0.844   9.498   2.913  1.00  0.00     0.116 C 
BRANCH  34  35
ATOM     35  N   UNL     1       1.708  10.375   3.694  1.00  0.00    -0.352 N 
ATOM     36  C   UNL     1       1.502  10.841   4.978  1.00  0.00     0.251 C 
ATOM     37  H   UNL     1       2.538  10.670   3.253  1.00  0.00     0.163 HD
ATOM     38  O   UNL     1       2.093  11.812   5.408  1.00  0.00    -0.269 OA
BRANCH  36  39
ATOM     39  C   UNL     1       0.539  10.115   5.821  1.00  0.00     0.039 A 
ATOM     40  C   UNL     1      -0.424  10.798   6.564  1.00  0.00     0.014 A 
ATOM     41  C   UNL     1       0.588   8.723   5.808  1.00  0.00     0.014 A 
ATOM     42  C   UNL     1      -1.387  10.060   7.244  1.00  0.00     0.010 A 
ATOM     43  C   UNL     1      -0.449   8.006   6.342  1.00  0.00     0.010 A 
ATOM     44  C   UNL     1      -1.400   8.663   7.114  1.00  0.00    -0.014 A 
BRANCH  44  45
ATOM     45  C   UNL     1      -2.463   7.869   7.714  1.00  0.00     0.031 A 
ATOM     46  C   UNL     1      -3.842   8.245   7.298  1.00  0.00     0.074 A 
ATOM     47  C   UNL     1      -2.207   6.740   8.408  1.00  0.00     0.049 A 
ATOM     48  N   UNL     1      -4.800   8.683   8.047  1.00  0.00    -0.248 NA
ATOM     49  C   UNL     1      -4.167   8.243   5.862  1.00  0.00     0.031 C 
ATOM     50  C   UNL     1      -0.918   6.072   8.624  1.00  0.00     0.029 A 
ATOM     51  N   UNL     1      -3.085   5.872   8.975  1.00  0.00    -0.354 N 
ATOM     52  C   UNL     1      -5.905   8.840   7.214  1.00  0.00     0.074 A 
ATOM     53  C   UNL     1      -5.415   8.716   5.867  1.00  0.00     0.031 C 
ATOM     54  C   UNL     1      -1.130   4.804   9.037  1.00  0.00     0.029 A 
ATOM     55  C   UNL     1      -2.549   4.628   9.279  1.00  0.00     0.049 A 
ATOM     56  H   UNL     1      -4.024   6.106   9.156  1.00  0.00     0.167 HD
ATOM     57  C   UNL     1      -7.171   8.825   7.721  1.00  0.00     0.037 A 
ATOM     58  C   UNL     1      -3.239   3.523   9.654  1.00  0.00     0.037 A 
ATOM     59  C   UNL     1      -7.159   9.046   9.146  1.00  0.00     0.049 A 
ATOM     60  C   UNL     1      -4.569   3.979  10.138  1.00  0.00     0.074 A 
ATOM     61  C   UNL     1      -6.689  10.059   9.961  1.00  0.00     0.029 A 
ATOM     62  N   UNL     1      -7.332   7.962   9.974  1.00  0.00    -0.354 N 
ATOM     63  N   UNL     1      -4.740   4.677  11.227  1.00  0.00    -0.248 NA
ATOM     64  C   UNL     1      -5.642   4.077   9.158  1.00  0.00     0.031 C 
ATOM     65  C   UNL     1      -6.113   9.388  11.082  1.00  0.00     0.029 A 
ATOM     66  C   UNL     1      -6.343   8.021  10.923  1.00  0.00     0.049 A 
ATOM     67  H   UNL     1      -8.033   7.275   9.901  1.00  0.00     0.167 HD
ATOM     68  C   UNL     1      -5.693   5.627  10.889  1.00  0.00     0.074 A 
ATOM     69  C   UNL     1      -6.270   5.158   9.630  1.00  0.00     0.031 C 
ATOM     70  C   UNL     1      -5.718   6.852  11.493  1.00  0.00     0.037 A 
BRANCH  57  71
ATOM     71  C   UNL     1      -8.374   8.246   7.013  1.00  0.00     0.064 A 
ATOM     72  C   UNL     1      -9.646   8.381   7.607  1.00  0.00     0.173 A 
ATOM     73  C   UNL     1      -8.294   7.310   5.959  1.00  0.00     0.173 A 
ATOM     74  F   UNL     1      -9.840   9.236   8.623  1.00  0.00    -0.203 F 
ATOM     75  C   UNL     1     -10.723   7.567   7.243  1.00  0.00     0.198 A 
ATOM     76  C   UNL     1      -9.386   6.539   5.562  1.00  0.00     0.198 A 
ATOM     77  F   UNL     1      -7.142   7.016   5.349  1.00  0.00    -0.203 F 
ATOM     78  F   UNL     1     -11.870   7.634   7.932  1.00  0.00    -0.200 F 
ATOM     79  C   UNL     1     -10.588   6.640   6.227  1.00  0.00     0.200 A 
ATOM     80  F   UNL     1      -9.230   5.636   4.584  1.00  0.00    -0.200 F 
ATOM     81  F   UNL     1     -11.595   5.811   5.923  1.00  0.00    -0.200 F 
ENDBRANCH  57  71
BRANCH  58  82
ATOM     82  C   UNL     1      -2.939   2.109   9.326  1.00  0.00     0.064 A 
ATOM     83  C   UNL     1      -3.561   1.057  10.017  1.00  0.00     0.173 A 
ATOM     84  C   UNL     1      -2.237   1.758   8.155  1.00  0.00     0.173 A 
ATOM     85  F   UNL     1      -4.285   1.308  11.116  1.00  0.00    -0.203 F 
ATOM     86  C   UNL     1      -3.504  -0.262   9.551  1.00  0.00     0.198 A 
ATOM     87  C   UNL     1      -2.174   0.442   7.696  1.00  0.00     0.198 A 
ATOM     88  F   UNL     1      -1.677   2.697   7.378  1.00  0.00    -0.203 F 
ATOM     89  F   UNL     1      -4.162  -1.230  10.204  1.00  0.00    -0.200 F 
ATOM     90  C   UNL     1      -2.819  -0.567   8.386  1.00  0.00     0.200 A 
ATOM     91  F   UNL     1      -1.536   0.168   6.549  1.00  0.00    -0.200 F 
ATOM     92  F   UNL     1      -2.814  -1.819   7.908  1.00  0.00    -0.200 F 
ENDBRANCH  58  82
BRANCH  70  93
ATOM     93  C   UNL     1      -4.851   7.068  12.704  1.00  0.00     0.064 A 
ATOM     94  C   UNL     1      -3.448   6.959  12.702  1.00  0.00     0.173 A 
ATOM     95  C   UNL     1      -5.453   7.550  13.873  1.00  0.00     0.173 A 
ATOM     96  F   UNL     1      -2.782   6.614  11.595  1.00  0.00    -0.203 F 
ATOM     97  C   UNL     1      -2.695   7.267  13.834  1.00  0.00     0.198 A 
ATOM     98  C   UNL     1      -4.695   7.895  14.990  1.00  0.00     0.198 A 
ATOM     99  F   UNL     1      -6.782   7.734  13.918  1.00  0.00    -0.203 F 
ATOM    100  F   UNL     1      -1.360   7.138  13.809  1.00  0.00    -0.200 F 
ATOM    101  C   UNL     1      -3.319   7.741  14.975  1.00  0.00     0.200 A 
ATOM    102  F   UNL     1      -5.300   8.403  16.072  1.00  0.00    -0.200 F 
ATOM    103  F   UNL     1      -2.593   8.075  16.051  1.00  0.00    -0.200 F 
ENDBRANCH  70  93
ENDBRANCH  44  45
ENDBRANCH  36  39
ENDBRANCH  34  35
ENDBRANCH  33  34
ENDBRANCH  32  33
ENDBRANCH  31  32
ENDBRANCH   1  31
TORSDOF 16
