REMARK SMILES N#C/C(=C/c1ccc(-c2cccc(C(=O)NCCCCCCNC(=O)c3ccc(-c4c5nc(c(-c6c(F)c(F)c(F)c(F)c6F)c6ccc([nH]6)c(-c6c(F)c(F)c(F)c(F)c6F)c6nc(c(-c7c(F)c(F)c(F)c(F)c7F)c7ccc4[nH]7)C=C6)C=C5)cc3)c2)o1)c1ccc(F)cc1
REMARK SMILES IDX 19 1 18 2 17 3 16 4 14 5 15 6 13 8 9 9 10 10 89 11 11 12
REMARK SMILES IDX 12 13 8 14 5 15 6 16 90 17 7 18 4 19 3 20 2 21 1 22 91 23
REMARK SMILES IDX 92 24 97 25 93 26 96 27 94 28 95 29 20 30 21 31 22 32 23 33
REMARK SMILES IDX 24 34 25 36 26 37 27 38 88 39 28 40 87 41 29 42 30 43 31 44
REMARK SMILES IDX 81 45 32 46 86 47 80 48 82 49 33 50 85 51 79 52 78 53 34 55
REMARK SMILES IDX 66 56 46 57 65 58 47 59 50 60 64 61 83 62 48 63 49 64 63 66
REMARK SMILES IDX 84 67 51 68 35 69 36 70 44 71 37 72 38 73 42 74 45 75 39 76
REMARK SMILES IDX 40 77 43 78 41 79 67 80 68 81 76 82 69 83 70 84 74 85 77 86
REMARK SMILES IDX 71 87 72 88 75 89 73 90 52 91 53 92 61 93 54 94 55 95 59 96
REMARK SMILES IDX 62 97 56 98 57 99 60 100 58 101
REMARK H PARENT 16 7 23 35 82 54 50 65
REMARK Flexibility Score: inf
ROOT
ATOM      1  C   UNL     1      11.097  -6.473  -2.455  1.00  0.00     0.002 C 
ENDROOT
BRANCH   1   2
ATOM      2  C   UNL     1      10.170  -5.293  -2.732  1.00  0.00     0.021 C 
BRANCH   2   3
ATOM      3  C   UNL     1      10.648  -3.924  -2.265  1.00  0.00     0.116 C 
BRANCH   3   4
ATOM      4  N   UNL     1      11.823  -3.411  -2.955  1.00  0.00    -0.352 N 
ATOM      5  C   UNL     1      12.123  -2.144  -3.423  1.00  0.00     0.251 C 
ATOM      6  O   UNL     1      13.193  -1.962  -4.000  1.00  0.00    -0.269 OA
ATOM      7  H   UNL     1      12.526  -4.082  -3.117  1.00  0.00     0.163 HD
BRANCH   5   8
ATOM      8  C   UNL     1      11.159  -1.014  -3.304  1.00  0.00     0.040 A 
ATOM      9  C   UNL     1       9.143  -0.102  -2.301  1.00  0.00     0.018 A 
ATOM     10  C   UNL     1       9.054   0.833  -3.334  1.00  0.00     0.012 A 
ATOM     11  C   UNL     1      10.276  -0.921  -2.235  1.00  0.00     0.025 A 
ATOM     12  C   UNL     1      10.056   0.890  -4.312  1.00  0.00     0.002 A 
ATOM     13  C   UNL     1      11.085  -0.058  -4.320  1.00  0.00     0.014 A 
BRANCH   9  14
ATOM     14  C   UNL     1       8.062  -0.386  -1.365  1.00  0.00     0.134 A 
ATOM     15  C   UNL     1       5.923  -0.736  -0.850  1.00  0.00     0.128 A 
ATOM     16  C   UNL     1       6.707  -1.248   0.180  1.00  0.00     0.051 A 
ATOM     17  O   UNL     1       6.779  -0.241  -1.815  1.00  0.00    -0.457 OA
ATOM     18  C   UNL     1       8.053  -0.966  -0.116  1.00  0.00     0.051 A 
BRANCH  15  19
ATOM     19  C   UNL     1       4.497  -0.647  -0.914  1.00  0.00     0.067 C 
ATOM     20  C   UNL     1       3.789  -0.064   0.077  1.00  0.00     0.063 C 
BRANCH  20  21
ATOM     21  C   UNL     1       2.269  -0.064   0.077  1.00  0.00     0.100 C 
ATOM     22  N   UNL     1       1.008  -0.064   0.077  1.00  0.00    -0.192 NA
ENDBRANCH  20  21
BRANCH  20  23
ATOM     23  C   UNL     1       4.429   0.632   1.237  1.00  0.00    -0.007 A 
ATOM     24  C   UNL     1       5.429   1.606   1.037  1.00  0.00     0.012 A 
ATOM     25  C   UNL     1       4.089   0.285   2.555  1.00  0.00     0.012 A 
ATOM     26  C   UNL     1       6.143   2.134   2.115  1.00  0.00     0.040 A 
ATOM     27  C   UNL     1       4.784   0.841   3.635  1.00  0.00     0.040 A 
ATOM     28  C   UNL     1       5.819   1.739   3.404  1.00  0.00     0.123 A 
ATOM     29  F   UNL     1       6.520   2.222   4.437  1.00  0.00    -0.207 F 
ENDBRANCH  20  23
ENDBRANCH  15  19
ENDBRANCH   9  14
ENDBRANCH   5   8
ENDBRANCH   3   4
ENDBRANCH   2   3
ENDBRANCH   1   2
BRANCH   1  30
ATOM     30  C   UNL     1      11.546  -6.664  -1.004  1.00  0.00     0.002 C 
BRANCH  30  31
ATOM     31  C   UNL     1      10.441  -6.694   0.056  1.00  0.00     0.021 C 
BRANCH  31  32
ATOM     32  C   UNL     1       9.320  -7.702  -0.176  1.00  0.00     0.116 C 
BRANCH  32  33
ATOM     33  N   UNL     1       9.793  -9.074  -0.211  1.00  0.00    -0.352 N 
ATOM     34  C   UNL     1       9.374 -10.169   0.505  1.00  0.00     0.251 C 
ATOM     35  H   UNL     1      10.526  -9.246  -0.845  1.00  0.00     0.163 HD
ATOM     36  O   UNL     1      10.005 -11.218   0.444  1.00  0.00    -0.269 OA
BRANCH  34  37
ATOM     37  C   UNL     1       8.177 -10.086   1.372  1.00  0.00     0.039 A 
ATOM     38  C   UNL     1       8.229 -10.668   2.642  1.00  0.00     0.014 A 
ATOM     39  C   UNL     1       7.002  -9.468   0.936  1.00  0.00     0.014 A 
ATOM     40  C   UNL     1       7.126 -10.576   3.496  1.00  0.00     0.010 A 
ATOM     41  C   UNL     1       5.929  -9.315   1.814  1.00  0.00     0.010 A 
ATOM     42  C   UNL     1       5.979  -9.870   3.102  1.00  0.00    -0.014 A 
BRANCH  42  43
ATOM     43  C   UNL     1       4.828  -9.698   4.028  1.00  0.00     0.031 A 
ATOM     44  C   UNL     1       3.486 -10.291   3.692  1.00  0.00     0.074 A 
ATOM     45  C   UNL     1       4.976  -8.956   5.144  1.00  0.00     0.049 A 
ATOM     46  N   UNL     1       2.352 -10.192   4.339  1.00  0.00    -0.248 NA
ATOM     47  C   UNL     1       3.400 -11.077   2.451  1.00  0.00     0.031 C 
ATOM     48  C   UNL     1       6.211  -8.287   5.556  1.00  0.00     0.029 A 
ATOM     49  N   UNL     1       4.077  -8.626   6.129  1.00  0.00    -0.354 N 
ATOM     50  C   UNL     1       1.419 -10.884   3.577  1.00  0.00     0.074 A 
ATOM     51  C   UNL     1       2.106 -11.361   2.397  1.00  0.00     0.031 C 
ATOM     52  C   UNL     1       5.997  -7.640   6.712  1.00  0.00     0.029 A 
ATOM     53  C   UNL     1       4.602  -7.812   7.104  1.00  0.00     0.049 A 
ATOM     54  H   UNL     1       3.145  -8.942   6.135  1.00  0.00     0.167 HD
ATOM     55  C   UNL     1       0.113 -11.116   3.849  1.00  0.00     0.037 A 
ATOM     56  C   UNL     1       4.021  -7.255   8.184  1.00  0.00     0.037 A 
ATOM     57  C   UNL     1      -0.559 -10.670   5.042  1.00  0.00     0.049 A 
ATOM     58  C   UNL     1       2.568  -7.538   8.463  1.00  0.00     0.074 A 
ATOM     59  C   UNL     1      -1.859 -10.925   5.444  1.00  0.00     0.029 A 
ATOM     60  N   UNL     1       0.014  -9.873   6.021  1.00  0.00    -0.354 N 
ATOM     61  N   UNL     1       1.719  -8.265   7.777  1.00  0.00    -0.248 NA
ATOM     62  C   UNL     1       1.994  -6.931   9.672  1.00  0.00     0.031 C 
ATOM     63  C   UNL     1      -2.091 -10.235   6.637  1.00  0.00     0.029 A 
ATOM     64  C   UNL     1      -0.917  -9.602   7.011  1.00  0.00     0.049 A 
ATOM     65  H   UNL     1       0.943  -9.549   6.014  1.00  0.00     0.167 HD
ATOM     66  C   UNL     1       0.525  -8.227   8.485  1.00  0.00     0.074 A 
ATOM     67  C   UNL     1       0.763  -7.422   9.664  1.00  0.00     0.031 C 
ATOM     68  C   UNL     1      -0.663  -8.807   8.185  1.00  0.00     0.037 A 
BRANCH  55  69
ATOM     69  C   UNL     1      -0.691 -11.890   2.843  1.00  0.00     0.064 A 
ATOM     70  C   UNL     1      -0.492 -13.263   2.637  1.00  0.00     0.173 A 
ATOM     71  C   UNL     1      -1.726 -11.264   2.131  1.00  0.00     0.173 A 
ATOM     72  F   UNL     1       0.490 -13.908   3.285  1.00  0.00    -0.203 F 
ATOM     73  C   UNL     1      -1.287 -13.977   1.744  1.00  0.00     0.198 A 
ATOM     74  C   UNL     1      -2.538 -11.986   1.261  1.00  0.00     0.198 A 
ATOM     75  F   UNL     1      -1.963  -9.953   2.295  1.00  0.00    -0.203 F 
ATOM     76  F   UNL     1      -1.055 -15.280   1.536  1.00  0.00    -0.200 F 
ATOM     77  C   UNL     1      -2.316 -13.341   1.065  1.00  0.00     0.200 A 
ATOM     78  F   UNL     1      -3.542 -11.373   0.618  1.00  0.00    -0.200 F 
ATOM     79  F   UNL     1      -3.092 -14.033   0.220  1.00  0.00    -0.200 F 
ENDBRANCH  55  69
BRANCH  56  80
ATOM     80  C   UNL     1       4.808  -6.373   9.087  1.00  0.00     0.064 A 
ATOM     81  C   UNL     1       5.093  -6.753  10.406  1.00  0.00     0.173 A 
ATOM     82  C   UNL     1       5.262  -5.116   8.661  1.00  0.00     0.173 A 
ATOM     83  F   UNL     1       4.664  -7.937  10.869  1.00  0.00    -0.203 F 
ATOM     84  C   UNL     1       5.772  -5.898  11.273  1.00  0.00     0.198 A 
ATOM     85  C   UNL     1       5.971  -4.276   9.517  1.00  0.00     0.198 A 
ATOM     86  F   UNL     1       5.022  -4.704   7.407  1.00  0.00    -0.203 F 
ATOM     87  F   UNL     1       5.975  -6.262  12.546  1.00  0.00    -0.200 F 
ATOM     88  C   UNL     1       6.213  -4.662  10.826  1.00  0.00     0.200 A 
ATOM     89  F   UNL     1       6.410  -3.090   9.076  1.00  0.00    -0.200 F 
ATOM     90  F   UNL     1       6.863  -3.839  11.660  1.00  0.00    -0.200 F 
ENDBRANCH  56  80
BRANCH  68  91
ATOM     91  C   UNL     1      -1.787  -8.626   9.165  1.00  0.00     0.064 A 
ATOM     92  C   UNL     1      -2.425  -7.389   9.338  1.00  0.00     0.173 A 
ATOM     93  C   UNL     1      -2.258  -9.717   9.911  1.00  0.00     0.173 A 
ATOM     94  F   UNL     1      -2.003  -6.311   8.659  1.00  0.00    -0.203 F 
ATOM     95  C   UNL     1      -3.473  -7.245  10.243  1.00  0.00     0.198 A 
ATOM     96  C   UNL     1      -3.328  -9.577  10.790  1.00  0.00     0.198 A 
ATOM     97  F   UNL     1      -1.688 -10.925   9.778  1.00  0.00    -0.203 F 
ATOM     98  F   UNL     1      -4.032  -6.041  10.431  1.00  0.00    -0.200 F 
ATOM     99  C   UNL     1      -3.929  -8.340  10.962  1.00  0.00     0.200 A 
ATOM    100  F   UNL     1      -3.778 -10.641  11.470  1.00  0.00    -0.200 F 
ATOM    101  F   UNL     1      -4.943  -8.200  11.826  1.00  0.00    -0.200 F 
ENDBRANCH  68  91
ENDBRANCH  42  43
ENDBRANCH  34  37
ENDBRANCH  32  33
ENDBRANCH  31  32
ENDBRANCH  30  31
ENDBRANCH   1  30
TORSDOF 17
