REMARK SMILES Cc1nn(Cc2ccc(Cl)cc2Cl)c(C)c1NC(=O)c1c(C(=O)NCCCCCCNC(=O)c2ccc(-c3c4nc(c(-c5c(F)c(F)c(F)c(F)c5F)c5ccc([nH]5)c(-c5c(F)c(F)c(F)c(F)c5F)c5nc(c(-c6c(F)c(F)c(F)c(F)c6F)c6ccc3[nH]6)C=C5)C=C4)cc2)cnn1C
REMARK SMILES IDX 26 1 25 2 24 3 22 4 23 5 21 7 20 8 99 9 97 10 98 11 100 12
REMARK SMILES IDX 18 13 17 14 19 16 16 17 1 18 2 19 3 20 4 21 14 22 15 23 5 24
REMARK SMILES IDX 6 25 7 26 12 27 8 28 11 29 13 30 9 31 10 32 27 33 28 34
REMARK SMILES IDX 29 35 30 36 31 37 32 38 33 40 34 41 35 42 96 43 36 44 95 45
REMARK SMILES IDX 37 46 38 47 39 48 89 49 40 50 94 51 88 52 90 53 41 54 93 55
REMARK SMILES IDX 87 56 86 57 42 59 74 60 54 61 73 62 55 63 58 64 72 65 91 66
REMARK SMILES IDX 56 67 57 68 71 70 92 71 59 72 43 73 44 74 52 75 45 76 46 77
REMARK SMILES IDX 50 78 53 79 47 80 48 81 51 82 49 83 75 84 76 85 84 86 77 87
REMARK SMILES IDX 78 88 82 89 85 90 79 91 80 92 83 93 81 94 60 95 61 96 69 97
REMARK SMILES IDX 62 98 63 99 67 100 70 101 64 102 65 103 68 104 66 105
REMARK H PARENT 24 6 17 15 31 39 90 58 58 69
REMARK Flexibility Score: inf
ROOT
ATOM      1  C   UNL     1      -2.480   6.562   1.509  1.00  0.00     0.021 C 
ENDROOT
BRANCH   1   2
ATOM      2  C   UNL     1      -1.007   6.678   1.921  1.00  0.00     0.116 C 
BRANCH   2   3
ATOM      3  N   UNL     1      -0.365   5.433   2.315  1.00  0.00    -0.352 N 
ATOM      4  C   UNL     1       0.942   5.011   2.222  1.00  0.00     0.255 C 
ATOM      5  O   UNL     1       1.231   3.944   2.778  1.00  0.00    -0.269 OA
ATOM      6  H   UNL     1      -0.975   4.774   2.720  1.00  0.00     0.163 HD
BRANCH   4   7
ATOM      7  C   UNL     1       1.931   5.764   1.471  1.00  0.00     0.090 A 
ATOM      8  C   UNL     1       3.029   5.234   0.784  1.00  0.00     0.138 A 
ATOM      9  N   UNL     1       3.662   6.315   0.213  1.00  0.00    -0.262 N 
ATOM     10  C   UNL     1       2.074   7.160   1.305  1.00  0.00     0.149 A 
ATOM     11  N   UNL     1       3.080   7.494   0.500  1.00  0.00    -0.180 NA
ATOM     12  C   UNL     1       4.733   6.305  -0.760  1.00  0.00     0.174 C 
BRANCH   8  13
ATOM     13  C   UNL     1       3.534   3.884   0.667  1.00  0.00     0.274 C 
ATOM     14  N   UNL     1       2.744   2.830   0.273  1.00  0.00    -0.317 N 
ATOM     15  H   UNL     1       3.159   1.946   0.397  1.00  0.00     0.170 HD
ATOM     16  O   UNL     1       4.710   3.625   0.932  1.00  0.00    -0.267 OA
BRANCH  14  17
ATOM     17  C   UNL     1       1.475   2.786  -0.264  1.00  0.00     0.085 A 
ATOM     18  C   UNL     1       0.892   0.249   0.113  1.00  0.00     0.071 C 
ATOM     19  C   UNL     1       0.608   1.652  -0.277  1.00  0.00     0.083 A 
ATOM     20  N   UNL     1      -0.628   1.986  -0.670  1.00  0.00    -0.175 NA
ATOM     21  N   UNL     1      -0.519   3.293  -0.963  1.00  0.00    -0.263 N 
ATOM     22  C   UNL     1       0.781   3.737  -0.981  1.00  0.00     0.060 A 
ATOM     23  C   UNL     1       1.166   4.986  -1.680  1.00  0.00     0.069 C 
BRANCH  21  24
ATOM     24  C   UNL     1      -1.702   4.146  -0.942  1.00  0.00     0.181 C 
BRANCH  24  25
ATOM     25  C   UNL     1      -2.406   4.219  -2.264  1.00  0.00    -0.008 A 
ATOM     26  C   UNL     1      -3.125   3.089  -2.685  1.00  0.00     0.009 A 
ATOM     27  C   UNL     1      -2.371   5.348  -3.100  1.00  0.00     0.047 A 
ATOM     28  C   UNL     1      -3.727   3.059  -3.937  1.00  0.00     0.021 A 
ATOM     29  C   UNL     1      -2.950   5.306  -4.371  1.00  0.00     0.041 A 
ATOM     30  Cl  UNL     1      -1.660   6.846  -2.608  1.00  0.00    -0.084 Cl
ATOM     31  C   UNL     1      -3.607   4.152  -4.786  1.00  0.00     0.042 A 
ATOM     32  Cl  UNL     1      -4.277   4.034  -6.362  1.00  0.00    -0.084 Cl
ENDBRANCH  24  25
ENDBRANCH  21  24
ENDBRANCH  14  17
ENDBRANCH   8  13
ENDBRANCH   4   7
ENDBRANCH   2   3
ENDBRANCH   1   2
BRANCH   1  33
ATOM     33  C   UNL     1      -3.402   5.753   2.419  1.00  0.00     0.002 C 
BRANCH  33  34
ATOM     34  C   UNL     1      -3.669   6.376   3.791  1.00  0.00     0.002 C 
BRANCH  34  35
ATOM     35  C   UNL     1      -4.131   7.840   3.783  1.00  0.00     0.021 C 
BRANCH  35  36
ATOM     36  C   UNL     1      -5.374   8.104   2.945  1.00  0.00     0.116 C 
BRANCH  36  37
ATOM     37  N   UNL     1      -6.585   7.534   3.527  1.00  0.00    -0.352 N 
ATOM     38  C   UNL     1      -7.879   7.686   3.079  1.00  0.00     0.251 C 
ATOM     39  H   UNL     1      -6.463   6.977   4.330  1.00  0.00     0.163 HD
ATOM     40  O   UNL     1      -8.835   7.510   3.837  1.00  0.00    -0.269 OA
BRANCH  38  41
ATOM     41  C   UNL     1      -8.111   8.053   1.673  1.00  0.00     0.039 A 
ATOM     42  C   UNL     1      -9.136   8.930   1.309  1.00  0.00     0.014 A 
ATOM     43  C   UNL     1      -7.282   7.491   0.702  1.00  0.00     0.014 A 
ATOM     44  C   UNL     1      -9.280   9.275  -0.032  1.00  0.00     0.010 A 
ATOM     45  C   UNL     1      -7.324   7.949  -0.590  1.00  0.00     0.010 A 
ATOM     46  C   UNL     1      -8.359   8.787  -0.977  1.00  0.00    -0.014 A 
BRANCH  46  47
ATOM     47  C   UNL     1      -8.412   9.233  -2.365  1.00  0.00     0.031 A 
ATOM     48  C   UNL     1      -8.388  10.713  -2.531  1.00  0.00     0.074 A 
ATOM     49  C   UNL     1      -8.294   8.398  -3.421  1.00  0.00     0.049 A 
ATOM     50  N   UNL     1      -9.314  11.470  -3.019  1.00  0.00    -0.248 NA
ATOM     51  C   UNL     1      -7.245  11.455  -1.971  1.00  0.00     0.031 C 
ATOM     52  C   UNL     1      -7.982   6.963  -3.441  1.00  0.00     0.029 A 
ATOM     53  N   UNL     1      -8.354   8.700  -4.746  1.00  0.00    -0.354 N 
ATOM     54  C   UNL     1      -8.810  12.768  -2.988  1.00  0.00     0.074 A 
ATOM     55  C   UNL     1      -7.606  12.719  -2.201  1.00  0.00     0.031 C 
ATOM     56  C   UNL     1      -7.655   6.582  -4.697  1.00  0.00     0.029 A 
ATOM     57  C   UNL     1      -7.916   7.691  -5.596  1.00  0.00     0.049 A 
ATOM     58  H   UNL     1      -8.683   9.566  -5.078  1.00  0.00     0.167 HD
ATOM     59  C   UNL     1      -9.316  13.739  -3.799  1.00  0.00     0.037 A 
ATOM     60  C   UNL     1      -7.762   7.781  -6.941  1.00  0.00     0.037 A 
ATOM     61  C   UNL     1     -10.624  13.380  -4.285  1.00  0.00     0.049 A 
ATOM     62  C   UNL     1      -8.552   8.946  -7.405  1.00  0.00     0.074 A 
ATOM     63  C   UNL     1     -11.833  13.105  -3.674  1.00  0.00     0.029 A 
ATOM     64  N   UNL     1     -10.729  12.857  -5.551  1.00  0.00    -0.354 N 
ATOM     65  N   UNL     1      -9.854   8.992  -7.377  1.00  0.00    -0.248 NA
ATOM     66  C   UNL     1      -7.874  10.233  -7.438  1.00  0.00     0.031 C 
ATOM     67  C   UNL     1     -12.368  11.999  -4.400  1.00  0.00     0.029 A 
ATOM     68  C   UNL     1     -11.500  11.725  -5.457  1.00  0.00     0.049 A 
ATOM     69  H   UNL     1     -10.328  13.226  -6.371  1.00  0.00     0.167 HD
ATOM     70  C   UNL     1     -10.147  10.278  -6.952  1.00  0.00     0.074 A 
ATOM     71  C   UNL     1      -8.889  11.016  -7.065  1.00  0.00     0.031 C 
ATOM     72  C   UNL     1     -11.299  10.553  -6.274  1.00  0.00     0.037 A 
BRANCH  59  73
ATOM     73  C   UNL     1      -8.492  14.841  -4.414  1.00  0.00     0.064 A 
ATOM     74  C   UNL     1      -9.134  15.883  -5.111  1.00  0.00     0.173 A 
ATOM     75  C   UNL     1      -7.093  14.763  -4.593  1.00  0.00     0.173 A 
ATOM     76  F   UNL     1     -10.465  16.035  -5.038  1.00  0.00    -0.203 F 
ATOM     77  C   UNL     1      -8.436  16.738  -5.970  1.00  0.00     0.198 A 
ATOM     78  C   UNL     1      -6.393  15.651  -5.408  1.00  0.00     0.198 A 
ATOM     79  F   UNL     1      -6.364  13.763  -4.084  1.00  0.00    -0.203 F 
ATOM     80  F   UNL     1      -9.107  17.637  -6.703  1.00  0.00    -0.200 F 
ATOM     81  C   UNL     1      -7.067  16.619  -6.120  1.00  0.00     0.200 A 
ATOM     82  F   UNL     1      -5.069  15.502  -5.557  1.00  0.00    -0.200 F 
ATOM     83  F   UNL     1      -6.405  17.399  -6.984  1.00  0.00    -0.200 F 
ENDBRANCH  59  73
BRANCH  60  84
ATOM     84  C   UNL     1      -6.681   7.203  -7.770  1.00  0.00     0.064 A 
ATOM     85  C   UNL     1      -6.841   6.998  -9.149  1.00  0.00     0.173 A 
ATOM     86  C   UNL     1      -5.368   7.138  -7.273  1.00  0.00     0.173 A 
ATOM     87  F   UNL     1      -8.052   7.126  -9.712  1.00  0.00    -0.203 F 
ATOM     88  C   UNL     1      -5.747   6.734  -9.982  1.00  0.00     0.198 A 
ATOM     89  C   UNL     1      -4.276   6.885  -8.105  1.00  0.00     0.198 A 
ATOM     90  F   UNL     1      -5.113   7.401  -5.982  1.00  0.00    -0.203 F 
ATOM     91  F   UNL     1      -5.928   6.594 -11.303  1.00  0.00    -0.200 F 
ATOM     92  C   UNL     1      -4.465   6.680  -9.459  1.00  0.00     0.200 A 
ATOM     93  F   UNL     1      -3.037   6.881  -7.591  1.00  0.00    -0.200 F 
ATOM     94  F   UNL     1      -3.410   6.476 -10.261  1.00  0.00    -0.200 F 
ENDBRANCH  60  84
BRANCH  72  95
ATOM     95  C   UNL     1     -12.342   9.469  -6.191  1.00  0.00     0.064 A 
ATOM     96  C   UNL     1     -12.144   8.224  -5.564  1.00  0.00     0.173 A 
ATOM     97  C   UNL     1     -13.636   9.759  -6.640  1.00  0.00     0.173 A 
ATOM     98  F   UNL     1     -10.965   7.905  -5.019  1.00  0.00    -0.203 F 
ATOM     99  C   UNL     1     -13.182   7.302  -5.435  1.00  0.00     0.198 A 
ATOM    100  C   UNL     1     -14.680   8.852  -6.477  1.00  0.00     0.198 A 
ATOM    101  F   UNL     1     -13.901  10.950  -7.199  1.00  0.00    -0.203 F 
ATOM    102  F   UNL     1     -12.962   6.118  -4.843  1.00  0.00    -0.200 F 
ATOM    103  C   UNL     1     -14.452   7.620  -5.885  1.00  0.00     0.200 A 
ATOM    104  F   UNL     1     -15.917   9.185  -6.871  1.00  0.00    -0.200 F 
ATOM    105  F   UNL     1     -15.461   6.753  -5.726  1.00  0.00    -0.200 F 
ENDBRANCH  72  95
ENDBRANCH  46  47
ENDBRANCH  38  41
ENDBRANCH  36  37
ENDBRANCH  35  36
ENDBRANCH  34  35
ENDBRANCH  33  34
ENDBRANCH   1  33
TORSDOF 17
