REMARK SMILES CCCc1c(C(=O)NCCCCCCNC(=O)c2ccc(-c3c4nc(c(-c5c(F)c(F)c(F)c(F)c5F)c5ccc([nH]5)c(-c5c(F)c(F)c(F)c(F)c5F)c5nc(c(-c6c(F)c(F)c(F)c(F)c6F)c6ccc3[nH]6)C=C5)C=C4)cc2)nnn1-c1ccccc1[N+](=O)[O-]
REMARK SMILES IDX 11 1 10 2 9 3 8 4 6 5 7 6 5 8 4 9 83 10 81 11 82 12 3 13
REMARK SMILES IDX 2 14 1 15 84 16 85 17 89 18 86 19 88 20 87 21 90 22 91 23
REMARK SMILES IDX 92 24 12 25 13 26 14 27 15 28 16 29 17 31 18 32 19 33 80 34
REMARK SMILES IDX 20 35 79 36 21 37 22 38 23 39 73 40 24 41 78 42 72 43 74 44
REMARK SMILES IDX 25 45 77 46 71 47 70 48 26 50 58 51 38 52 57 53 39 54 42 55
REMARK SMILES IDX 56 56 75 57 40 58 41 59 55 61 76 62 43 63 27 64 28 65 36 66
REMARK SMILES IDX 29 67 30 68 34 69 37 70 31 71 32 72 35 73 33 74 59 75 60 76
REMARK SMILES IDX 68 77 61 78 62 79 66 80 69 81 63 82 64 83 67 84 65 85 44 86
REMARK SMILES IDX 45 87 53 88 46 89 47 90 51 91 54 92 48 93 49 94 52 95 50 96
REMARK H PARENT 8 7 15 30 74 49 42 60
REMARK Flexibility Score: inf
ROOT
ATOM      1  C   UNL     1      -2.483  -3.217   4.584  1.00  0.00     0.002 C 
ENDROOT
BRANCH   1   2
ATOM      2  C   UNL     1      -1.385  -2.159   4.636  1.00  0.00     0.021 C 
BRANCH   2   3
ATOM      3  C   UNL     1      -1.325  -1.194   3.466  1.00  0.00     0.116 C 
BRANCH   3   4
ATOM      4  N   UNL     1      -2.183  -0.052   3.517  1.00  0.00    -0.351 N 
ATOM      5  C   UNL     1      -1.935   1.268   3.207  1.00  0.00     0.273 C 
ATOM      6  O   UNL     1      -2.933   1.994   3.265  1.00  0.00    -0.267 OA
ATOM      7  H   UNL     1      -3.101  -0.238   3.822  1.00  0.00     0.163 HD
BRANCH   5   8
ATOM      8  C   UNL     1      -0.609   1.852   2.905  1.00  0.00     0.174 A 
ATOM      9  C   UNL     1       0.617   1.445   2.342  1.00  0.00     0.078 A 
ATOM     10  N   UNL     1       1.384   2.623   2.365  1.00  0.00    -0.210 N 
ATOM     11  N   UNL     1      -0.470   3.174   3.297  1.00  0.00    -0.124 NA
ATOM     12  N   UNL     1       0.763   3.573   3.079  1.00  0.00    -0.061 NA
BRANCH   9  13
ATOM     13  C   UNL     1       1.242   0.140   1.925  1.00  0.00     0.059 C 
BRANCH  13  14
ATOM     14  C   UNL     1       0.444  -0.731   0.954  1.00  0.00     0.003 C 
ATOM     15  C   UNL     1       0.927  -0.680  -0.482  1.00  0.00     0.004 C 
ENDBRANCH  13  14
ENDBRANCH   9  13
BRANCH  10  16
ATOM     16  C   UNL     1       2.740   2.817   1.996  1.00  0.00     0.144 A 
ATOM     17  C   UNL     1       3.622   3.276   2.990  1.00  0.00     0.036 A 
ATOM     18  C   UNL     1       3.248   2.509   0.726  1.00  0.00     0.294 A 
ATOM     19  C   UNL     1       4.997   3.309   2.747  1.00  0.00     0.003 A 
ATOM     20  C   UNL     1       4.635   2.511   0.498  1.00  0.00     0.088 A 
ATOM     21  C   UNL     1       5.505   2.893   1.517  1.00  0.00     0.007 A 
BRANCH  18  22
ATOM     22  N   UNL     1       2.379   2.328  -0.439  1.00  0.00     0.065 N 
ATOM     23  O   UNL     1       2.843   1.699  -1.400  1.00  0.00    -0.258 OA
ATOM     24  O   UNL     1       1.246   2.820  -0.401  1.00  0.00    -0.258 OA
ENDBRANCH  18  22
ENDBRANCH  10  16
ENDBRANCH   5   8
ENDBRANCH   3   4
ENDBRANCH   2   3
ENDBRANCH   1   2
BRANCH   1  25
ATOM     25  C   UNL     1      -2.655  -3.996   3.269  1.00  0.00     0.002 C 
BRANCH  25  26
ATOM     26  C   UNL     1      -1.403  -4.604   2.620  1.00  0.00     0.021 C 
BRANCH  26  27
ATOM     27  C   UNL     1      -0.664  -5.622   3.475  1.00  0.00     0.116 C 
BRANCH  27  28
ATOM     28  N   UNL     1      -1.480  -6.787   3.801  1.00  0.00    -0.352 N 
ATOM     29  C   UNL     1      -1.170  -7.852   4.616  1.00  0.00     0.251 C 
ATOM     30  H   UNL     1      -2.371  -6.815   3.382  1.00  0.00     0.163 HD
ATOM     31  O   UNL     1      -1.784  -8.915   4.519  1.00  0.00    -0.269 OA
BRANCH  29  32
ATOM     32  C   UNL     1      -0.086  -7.719   5.603  1.00  0.00     0.039 A 
ATOM     33  C   UNL     1       0.793  -8.778   5.844  1.00  0.00     0.014 A 
ATOM     34  C   UNL     1       0.052  -6.513   6.288  1.00  0.00     0.014 A 
ATOM     35  C   UNL     1       1.861  -8.584   6.715  1.00  0.00     0.010 A 
ATOM     36  C   UNL     1       1.179  -6.276   7.038  1.00  0.00     0.010 A 
ATOM     37  C   UNL     1       2.065  -7.318   7.289  1.00  0.00    -0.014 A 
BRANCH  37  38
ATOM     38  C   UNL     1       3.293  -7.037   8.030  1.00  0.00     0.031 A 
ATOM     39  C   UNL     1       4.535  -7.323   7.259  1.00  0.00     0.074 A 
ATOM     40  C   UNL     1       3.314  -6.372   9.206  1.00  0.00     0.049 A 
ATOM     41  N   UNL     1       5.446  -8.199   7.528  1.00  0.00    -0.248 NA
ATOM     42  C   UNL     1       4.721  -6.659   5.957  1.00  0.00     0.031 C 
ATOM     43  C   UNL     1       2.179  -5.758   9.905  1.00  0.00     0.029 A 
ATOM     44  N   UNL     1       4.375  -5.997   9.979  1.00  0.00    -0.354 N 
ATOM     45  C   UNL     1       6.421  -8.057   6.543  1.00  0.00     0.074 A 
ATOM     46  C   UNL     1       5.838  -7.240   5.514  1.00  0.00     0.031 C 
ATOM     47  C   UNL     1       2.633  -4.896  10.841  1.00  0.00     0.029 A 
ATOM     48  C   UNL     1       4.076  -5.021  10.925  1.00  0.00     0.049 A 
ATOM     49  H   UNL     1       5.274  -6.384   9.875  1.00  0.00     0.167 HD
ATOM     50  C   UNL     1       7.715  -8.395   6.803  1.00  0.00     0.037 A 
ATOM     51  C   UNL     1       4.952  -4.340  11.704  1.00  0.00     0.037 A 
ATOM     52  C   UNL     1       7.789  -9.228   7.979  1.00  0.00     0.049 A 
ATOM     53  C   UNL     1       6.212  -5.114  11.726  1.00  0.00     0.074 A 
ATOM     54  C   UNL     1       7.328 -10.477   8.340  1.00  0.00     0.029 A 
ATOM     55  N   UNL     1       8.114  -8.584   9.143  1.00  0.00    -0.354 N 
ATOM     56  N   UNL     1       6.349  -6.268  12.313  1.00  0.00    -0.248 NA
ATOM     57  C   UNL     1       7.242  -4.782  10.755  1.00  0.00     0.031 C 
ATOM     58  C   UNL     1       7.031 -10.382   9.734  1.00  0.00     0.029 A 
ATOM     59  C   UNL     1       7.385  -9.106  10.174  1.00  0.00     0.049 A 
ATOM     60  H   UNL     1       8.771  -7.855   9.225  1.00  0.00     0.167 HD
ATOM     61  C   UNL     1       7.179  -6.986  11.471  1.00  0.00     0.074 A 
ATOM     62  C   UNL     1       7.820  -5.979  10.630  1.00  0.00     0.031 C 
ATOM     63  C   UNL     1       7.024  -8.337  11.345  1.00  0.00     0.037 A 
BRANCH  50  64
ATOM     64  C   UNL     1       8.925  -7.610   6.322  1.00  0.00     0.064 A 
ATOM     65  C   UNL     1      10.212  -8.069   6.681  1.00  0.00     0.173 A 
ATOM     66  C   UNL     1       8.876  -6.285   5.836  1.00  0.00     0.173 A 
ATOM     67  F   UNL     1      10.387  -9.309   7.161  1.00  0.00    -0.203 F 
ATOM     68  C   UNL     1      11.332  -7.231   6.662  1.00  0.00     0.198 A 
ATOM     69  C   UNL     1      10.006  -5.469   5.771  1.00  0.00     0.198 A 
ATOM     70  F   UNL     1       7.731  -5.678   5.511  1.00  0.00    -0.203 F 
ATOM     71  F   UNL     1      12.499  -7.670   7.153  1.00  0.00    -0.200 F 
ATOM     72  C   UNL     1      11.225  -5.928   6.219  1.00  0.00     0.200 A 
ATOM     73  F   UNL     1       9.876  -4.201   5.354  1.00  0.00    -0.200 F 
ATOM     74  F   UNL     1      12.277  -5.101   6.267  1.00  0.00    -0.200 F 
ENDBRANCH  50  64
BRANCH  51  75
ATOM     75  C   UNL     1       4.878  -2.957  12.233  1.00  0.00     0.064 A 
ATOM     76  C   UNL     1       5.730  -2.531  13.267  1.00  0.00     0.173 A 
ATOM     77  C   UNL     1       4.188  -1.946  11.536  1.00  0.00     0.173 A 
ATOM     78  F   UNL     1       6.454  -3.425  13.956  1.00  0.00    -0.203 F 
ATOM     79  C   UNL     1       5.916  -1.175  13.556  1.00  0.00     0.198 A 
ATOM     80  C   UNL     1       4.369  -0.593  11.831  1.00  0.00     0.198 A 
ATOM     81  F   UNL     1       3.407  -2.245  10.489  1.00  0.00    -0.203 F 
ATOM     82  F   UNL     1       6.797  -0.807  14.496  1.00  0.00    -0.200 F 
ATOM     83  C   UNL     1       5.246  -0.207  12.828  1.00  0.00     0.200 A 
ATOM     84  F   UNL     1       3.745   0.336  11.092  1.00  0.00    -0.200 F 
ATOM     85  F   UNL     1       5.480   1.093  13.052  1.00  0.00    -0.200 F 
ENDBRANCH  51  75
BRANCH  63  86
ATOM     86  C   UNL     1       6.261  -9.045  12.430  1.00  0.00     0.064 A 
ATOM     87  C   UNL     1       4.917  -8.802  12.762  1.00  0.00     0.173 A 
ATOM     88  C   UNL     1       6.918 -10.075  13.118  1.00  0.00     0.173 A 
ATOM     89  F   UNL     1       4.185  -7.907  12.086  1.00  0.00    -0.203 F 
ATOM     90  C   UNL     1       4.287  -9.514  13.783  1.00  0.00     0.198 A 
ATOM     91  C   UNL     1       6.273 -10.814  14.104  1.00  0.00     0.198 A 
ATOM     92  F   UNL     1       8.187 -10.387  12.810  1.00  0.00    -0.203 F 
ATOM     93  F   UNL     1       3.015  -9.238  14.109  1.00  0.00    -0.200 F 
ATOM     94  C   UNL     1       4.965 -10.521  14.449  1.00  0.00     0.200 A 
ATOM     95  F   UNL     1       6.919 -11.819  14.710  1.00  0.00    -0.200 F 
ATOM     96  F   UNL     1       4.351 -11.225  15.411  1.00  0.00    -0.200 F 
ENDBRANCH  63  86
ENDBRANCH  37  38
ENDBRANCH  29  32
ENDBRANCH  27  28
ENDBRANCH  26  27
ENDBRANCH  25  26
ENDBRANCH   1  25
TORSDOF 17
