REMARK SMILES Cc1ccccc1CNc1ccc(C(=O)NCCCCCCNC(=O)c2ccc(-c3c4nc(c(-c5c(F)c(F)c(F)c(F)c5F)c5ccc([nH]5)c(-c5c(F)c(F)c(F)c(F)c5F)c5nc(c(-c6c(F)c(F)c(F)c(F)c6F)c6ccc3[nH]6)C=C5)C=C4)cc2)c(F)c1F
REMARK SMILES IDX 19 1 18 2 17 3 16 4 14 5 15 6 13 8 10 9 11 10 91 11 12 12
REMARK SMILES IDX 89 13 92 14 90 15 9 16 8 18 7 19 1 20 2 21 3 22 4 23 6 24
REMARK SMILES IDX 5 25 20 26 21 27 22 28 23 29 24 30 25 32 26 33 27 34 88 35
REMARK SMILES IDX 28 36 87 37 29 38 30 39 31 40 81 41 32 42 86 43 80 44 82 45
REMARK SMILES IDX 33 46 85 47 79 48 78 49 34 51 66 52 46 53 65 54 47 55 50 56
REMARK SMILES IDX 64 57 83 58 48 59 49 60 63 62 84 63 51 64 35 65 36 66 44 67
REMARK SMILES IDX 37 68 38 69 42 70 45 71 39 72 40 73 43 74 41 75 67 76 68 77
REMARK SMILES IDX 76 78 69 79 70 80 74 81 77 82 71 83 72 84 75 85 73 86 52 87
REMARK SMILES IDX 53 88 61 89 54 90 55 91 59 92 62 93 56 94 57 95 60 96 58 97
REMARK H PARENT 16 7 9 17 23 31 82 50 50 61
REMARK Flexibility Score: inf
ROOT
ATOM      1  C   UNL     1       0.098  11.918   1.252  1.00  0.00     0.002 C 
ENDROOT
BRANCH   1   2
ATOM      2  C   UNL     1       0.808  10.714   0.626  1.00  0.00     0.021 C 
BRANCH   2   3
ATOM      3  C   UNL     1       0.102   9.364   0.684  1.00  0.00     0.116 C 
BRANCH   3   4
ATOM      4  N   UNL     1      -1.193   9.319   0.037  1.00  0.00    -0.352 N 
ATOM      5  C   UNL     1      -1.842   8.271  -0.579  1.00  0.00     0.254 C 
ATOM      6  O   UNL     1      -2.980   8.456  -1.002  1.00  0.00    -0.269 OA
ATOM      7  H   UNL     1      -1.687  10.171   0.037  1.00  0.00     0.163 HD
BRANCH   5   8
ATOM      8  C   UNL     1      -1.208   6.938  -0.732  1.00  0.00     0.078 A 
ATOM      9  C   UNL     1      -0.035   4.371  -1.065  1.00  0.00     0.074 A 
ATOM     10  C   UNL     1       0.192   5.126   0.087  1.00  0.00     0.030 A 
ATOM     11  C   UNL     1      -0.866   4.937  -2.047  1.00  0.00     0.182 A 
ATOM     12  C   UNL     1      -0.422   6.368   0.274  1.00  0.00     0.019 A 
ATOM     13  C   UNL     1      -1.442   6.199  -1.891  1.00  0.00     0.173 A 
ATOM     14  F   UNL     1      -1.123   4.235  -3.165  1.00  0.00    -0.201 F 
ATOM     15  F   UNL     1      -2.210   6.680  -2.880  1.00  0.00    -0.203 F 
BRANCH   9  16
ATOM     16  N   UNL     1       0.492   3.107  -1.251  1.00  0.00    -0.379 N 
ATOM     17  H   UNL     1       0.481   2.744  -2.166  1.00  0.00     0.161 HD
BRANCH  16  18
ATOM     18  C   UNL     1       1.062   2.269  -0.209  1.00  0.00     0.149 C 
BRANCH  18  19
ATOM     19  C   UNL     1       0.357   0.929  -0.161  1.00  0.00    -0.026 A 
ATOM     20  C   UNL     1       2.534  -0.447  -0.073  1.00  0.00     0.044 C 
ATOM     21  C   UNL     1       1.036  -0.303  -0.072  1.00  0.00    -0.046 A 
ATOM     22  C   UNL     1       0.284  -1.492  -0.006  1.00  0.00     0.004 A 
ATOM     23  C   UNL     1      -1.110  -1.471   0.012  1.00  0.00     0.000 A 
ATOM     24  C   UNL     1      -1.055   0.927  -0.118  1.00  0.00     0.006 A 
ATOM     25  C   UNL     1      -1.782  -0.259  -0.038  1.00  0.00     0.000 A 
ENDBRANCH  18  19
ENDBRANCH  16  18
ENDBRANCH   9  16
ENDBRANCH   5   8
ENDBRANCH   3   4
ENDBRANCH   2   3
ENDBRANCH   1   2
BRANCH   1  26
ATOM     26  C   UNL     1      -0.458  11.776   2.676  1.00  0.00     0.002 C 
BRANCH  26  27
ATOM     27  C   UNL     1       0.440  11.124   3.726  1.00  0.00     0.021 C 
BRANCH  27  28
ATOM     28  C   UNL     1       1.745  11.849   4.017  1.00  0.00     0.116 C 
BRANCH  28  29
ATOM     29  N   UNL     1       1.694  12.759   5.150  1.00  0.00    -0.352 N 
ATOM     30  C   UNL     1       2.691  13.557   5.690  1.00  0.00     0.251 C 
ATOM     31  H   UNL     1       0.821  12.818   5.601  1.00  0.00     0.163 HD
ATOM     32  O   UNL     1       2.483  14.180   6.716  1.00  0.00    -0.269 OA
BRANCH  30  33
ATOM     33  C   UNL     1       3.957  13.769   4.939  1.00  0.00     0.039 A 
ATOM     34  C   UNL     1       4.453  15.078   4.859  1.00  0.00     0.014 A 
ATOM     35  C   UNL     1       4.532  12.763   4.169  1.00  0.00     0.014 A 
ATOM     36  C   UNL     1       5.332  15.417   3.833  1.00  0.00     0.010 A 
ATOM     37  C   UNL     1       5.315  13.111   3.091  1.00  0.00     0.010 A 
ATOM     38  C   UNL     1       5.659  14.449   2.887  1.00  0.00    -0.014 A 
BRANCH  38  39
ATOM     39  C   UNL     1       6.269  14.749   1.602  1.00  0.00     0.031 A 
ATOM     40  C   UNL     1       7.696  14.460   1.368  1.00  0.00     0.074 A 
ATOM     41  C   UNL     1       5.483  15.182   0.590  1.00  0.00     0.049 A 
ATOM     42  N   UNL     1       8.403  15.039   0.460  1.00  0.00    -0.248 NA
ATOM     43  C   UNL     1       8.456  13.505   2.167  1.00  0.00     0.031 C 
ATOM     44  C   UNL     1       5.824  15.254  -0.828  1.00  0.00     0.029 A 
ATOM     45  N   UNL     1       4.240  15.831   0.683  1.00  0.00    -0.354 N 
ATOM     46  C   UNL     1       9.602  14.374   0.373  1.00  0.00     0.074 A 
ATOM     47  C   UNL     1       9.611  13.461   1.492  1.00  0.00     0.031 C 
ATOM     48  C   UNL     1       5.010  16.140  -1.424  1.00  0.00     0.029 A 
ATOM     49  C   UNL     1       4.223  16.766  -0.377  1.00  0.00     0.049 A 
ATOM     50  H   UNL     1       3.531  15.668   1.347  1.00  0.00     0.167 HD
ATOM     51  C   UNL     1      10.401  14.585  -0.712  1.00  0.00     0.037 A 
ATOM     52  C   UNL     1       4.165  18.109  -0.143  1.00  0.00     0.037 A 
ATOM     53  C   UNL     1       9.813  15.565  -1.617  1.00  0.00     0.049 A 
ATOM     54  C   UNL     1       5.330  18.878  -0.717  1.00  0.00     0.074 A 
ATOM     55  C   UNL     1       9.040  15.434  -2.759  1.00  0.00     0.029 A 
ATOM     56  N   UNL     1       9.700  16.889  -1.212  1.00  0.00    -0.354 N 
ATOM     57  N   UNL     1       6.479  18.338  -1.015  1.00  0.00    -0.248 NA
ATOM     58  C   UNL     1       5.301  20.312  -0.985  1.00  0.00     0.031 C 
ATOM     59  C   UNL     1       8.436  16.686  -3.027  1.00  0.00     0.029 A 
ATOM     60  C   UNL     1       8.857  17.580  -2.059  1.00  0.00     0.049 A 
ATOM     61  H   UNL     1      10.156  17.278  -0.431  1.00  0.00     0.167 HD
ATOM     62  C   UNL     1       7.328  19.302  -1.498  1.00  0.00     0.074 A 
ATOM     63  C   UNL     1       6.538  20.518  -1.472  1.00  0.00     0.031 C 
ATOM     64  C   UNL     1       8.609  19.001  -1.871  1.00  0.00     0.037 A 
BRANCH  51  65
ATOM     65  C   UNL     1      11.566  13.701  -1.079  1.00  0.00     0.064 A 
ATOM     66  C   UNL     1      11.879  13.432  -2.430  1.00  0.00     0.173 A 
ATOM     67  C   UNL     1      12.393  13.060  -0.139  1.00  0.00     0.173 A 
ATOM     68  F   UNL     1      11.233  14.038  -3.434  1.00  0.00    -0.203 F 
ATOM     69  C   UNL     1      12.863  12.515  -2.804  1.00  0.00     0.198 A 
ATOM     70  C   UNL     1      13.342  12.101  -0.511  1.00  0.00     0.198 A 
ATOM     71  F   UNL     1      12.331  13.372   1.162  1.00  0.00    -0.203 F 
ATOM     72  F   UNL     1      13.107  12.295  -4.103  1.00  0.00    -0.200 F 
ATOM     73  C   UNL     1      13.570  11.822  -1.844  1.00  0.00     0.200 A 
ATOM     74  F   UNL     1      14.032  11.447   0.434  1.00  0.00    -0.200 F 
ATOM     75  F   UNL     1      14.479  10.905  -2.201  1.00  0.00    -0.200 F 
ENDBRANCH  51  65
BRANCH  52  76
ATOM     76  C   UNL     1       3.438  18.446   1.109  1.00  0.00     0.064 A 
ATOM     77  C   UNL     1       2.068  18.123   1.183  1.00  0.00     0.173 A 
ATOM     78  C   UNL     1       4.117  18.669   2.312  1.00  0.00     0.173 A 
ATOM     79  F   UNL     1       1.373  17.898   0.057  1.00  0.00    -0.203 F 
ATOM     80  C   UNL     1       1.441  17.902   2.407  1.00  0.00     0.198 A 
ATOM     81  C   UNL     1       3.479  18.463   3.538  1.00  0.00     0.198 A 
ATOM     82  F   UNL     1       5.424  18.965   2.309  1.00  0.00    -0.203 F 
ATOM     83  F   UNL     1       0.172  17.472   2.440  1.00  0.00    -0.200 F 
ATOM     84  C   UNL     1       2.157  18.043   3.583  1.00  0.00     0.200 A 
ATOM     85  F   UNL     1       4.176  18.577   4.678  1.00  0.00    -0.200 F 
ATOM     86  F   UNL     1       1.587  17.733   4.756  1.00  0.00    -0.200 F 
ENDBRANCH  52  76
BRANCH  64  87
ATOM     87  C   UNL     1       9.732  19.968  -2.189  1.00  0.00     0.064 A 
ATOM     88  C   UNL     1       9.789  21.295  -1.738  1.00  0.00     0.173 A 
ATOM     89  C   UNL     1      10.899  19.511  -2.860  1.00  0.00     0.173 A 
ATOM     90  F   UNL     1       8.811  21.825  -0.994  1.00  0.00    -0.203 F 
ATOM     91  C   UNL     1      10.898  22.115  -1.980  1.00  0.00     0.198 A 
ATOM     92  C   UNL     1      12.026  20.310  -3.042  1.00  0.00     0.198 A 
ATOM     93  F   UNL     1      10.999  18.261  -3.334  1.00  0.00    -0.203 F 
ATOM     94  F   UNL     1      10.883  23.387  -1.559  1.00  0.00    -0.200 F 
ATOM     95  C   UNL     1      12.020  21.619  -2.615  1.00  0.00     0.200 A 
ATOM     96  F   UNL     1      13.124  19.792  -3.611  1.00  0.00    -0.200 F 
ATOM     97  F   UNL     1      13.099  22.392  -2.793  1.00  0.00    -0.200 F 
ENDBRANCH  64  87
ENDBRANCH  38  39
ENDBRANCH  30  33
ENDBRANCH  28  29
ENDBRANCH  27  28
ENDBRANCH  26  27
ENDBRANCH   1  26
TORSDOF 16
