REMARK SMILES C[C@H]([NH2+]CC(C)(C)C(=O)NCCCCCCNC(=O)c1ccc(-c2c3nc(c(-c4c(F)c(F)c(F)c(F)c4F)c4ccc([nH]4)c(-c4c(F)c(F)c(F)c(F)c4F)c4nc(c(-c5c(F)c(F)c(F)c(F)c5F)c5ccc2[nH]5)C=C4)C=C3)cc1)c1nccs1
REMARK SMILES IDX 12 1 11 2 10 3 8 4 9 5 5 7 6 8 7 9 4 10 3 11 2 14 1 15 83 16
REMARK SMILES IDX 84 17 87 18 85 19 86 20 13 21 14 22 15 23 16 24 17 25 18 26
REMARK SMILES IDX 19 28 20 29 21 30 82 31 22 32 81 33 23 34 24 35 25 36 75 37
REMARK SMILES IDX 26 38 80 39 74 40 76 41 27 42 79 43 73 44 72 45 28 47 60 48
REMARK SMILES IDX 40 49 59 50 41 51 44 52 58 53 77 54 42 55 43 56 57 58 78 59
REMARK SMILES IDX 45 60 29 61 30 62 38 63 31 64 32 65 36 66 39 67 33 68 34 69
REMARK SMILES IDX 37 70 35 71 61 72 62 73 70 74 63 75 64 76 68 77 71 78 65 79
REMARK SMILES IDX 66 80 69 81 67 82 46 83 47 84 55 85 48 86 49 87 53 88 56 89
REMARK SMILES IDX 50 90 51 91 54 92 52 93
REMARK H PARENT 10 6 3 12 3 13 17 27 76 46 44 57
REMARK Flexibility Score: inf
ROOT
ATOM      1  C   UNL     1       6.466  -2.778  -1.020  1.00  0.00     0.021 C 
ENDROOT
BRANCH   1   2
ATOM      2  C   UNL     1       5.086  -3.001  -0.400  1.00  0.00     0.116 C 
BRANCH   2   3
ATOM      3  N   UNL     1       4.594  -1.763   0.160  1.00  0.00    -0.355 N 
ATOM      4  C   UNL     1       3.678  -0.869  -0.296  1.00  0.00     0.231 C 
ATOM      5  O   UNL     1       3.798   0.273   0.159  1.00  0.00    -0.274 OA
ATOM      6  H   UNL     1       4.994  -1.524   1.028  1.00  0.00     0.163 HD
BRANCH   4   7
ATOM      7  C   UNL     1       2.589  -1.255  -1.325  1.00  0.00     0.092 C 
ATOM      8  C   UNL     1       1.788  -2.484  -0.866  1.00  0.00     0.027 C 
ATOM      9  C   UNL     1       3.224  -1.491  -2.711  1.00  0.00     0.027 C 
BRANCH   7  10
ATOM     10  C   UNL     1       1.623  -0.042  -1.513  1.00  0.00     0.277 C 
BRANCH  10  11
ATOM     11  N   UNL     1       0.880   0.360  -0.320  1.00  0.00    -0.337 N 
ATOM     12  H   UNL     1       0.134  -0.320  -0.175  1.00  0.00     0.346 HD
ATOM     13  H   UNL     1       1.571   0.396   0.430  1.00  0.00     0.346 HD
BRANCH  11  14
ATOM     14  C   UNL     1       0.262   1.708  -0.351  1.00  0.00     0.239 C 
ATOM     15  C   UNL     1       0.694   2.633  -1.501  1.00  0.00     0.083 C 
BRANCH  14  16
ATOM     16  C   UNL     1      -1.259   1.604  -0.295  1.00  0.00     0.150 A 
ATOM     17  N   UNL     1      -1.943   0.487  -0.477  1.00  0.00    -0.243 NA
ATOM     18  S   UNL     1      -2.215   2.992   0.085  1.00  0.00    -0.121 S 
ATOM     19  C   UNL     1      -3.293   0.741  -0.338  1.00  0.00     0.123 A 
ATOM     20  C   UNL     1      -3.632   2.046  -0.060  1.00  0.00     0.087 A 
ENDBRANCH  14  16
ENDBRANCH  11  14
ENDBRANCH  10  11
ENDBRANCH   7  10
ENDBRANCH   4   7
ENDBRANCH   2   3
ENDBRANCH   1   2
BRANCH   1  21
ATOM     21  C   UNL     1       7.569  -2.508   0.012  1.00  0.00     0.002 C 
BRANCH  21  22
ATOM     22  C   UNL     1       7.705  -3.578   1.101  1.00  0.00     0.002 C 
BRANCH  22  23
ATOM     23  C   UNL     1       7.831  -5.010   0.579  1.00  0.00     0.021 C 
BRANCH  23  24
ATOM     24  C   UNL     1       9.009  -5.229  -0.360  1.00  0.00     0.116 C 
BRANCH  24  25
ATOM     25  N   UNL     1      10.281  -5.030   0.314  1.00  0.00    -0.352 N 
ATOM     26  C   UNL     1      11.354  -5.880   0.397  1.00  0.00     0.251 C 
ATOM     27  H   UNL     1      10.388  -4.165   0.773  1.00  0.00     0.163 HD
ATOM     28  O   UNL     1      12.271  -5.654   1.177  1.00  0.00    -0.269 OA
BRANCH  26  29
ATOM     29  C   UNL     1      11.387  -7.087  -0.454  1.00  0.00     0.039 A 
ATOM     30  C   UNL     1      11.753  -8.308   0.116  1.00  0.00     0.014 A 
ATOM     31  C   UNL     1      11.057  -7.010  -1.810  1.00  0.00     0.014 A 
ATOM     32  C   UNL     1      11.742  -9.464  -0.666  1.00  0.00     0.010 A 
ATOM     33  C   UNL     1      10.972  -8.172  -2.567  1.00  0.00     0.010 A 
ATOM     34  C   UNL     1      11.325  -9.409  -2.006  1.00  0.00    -0.014 A 
BRANCH  34  35
ATOM     35  C   UNL     1      11.276 -10.629  -2.850  1.00  0.00     0.031 A 
ATOM     36  C   UNL     1      12.169 -10.741  -4.054  1.00  0.00     0.074 A 
ATOM     37  C   UNL     1      10.387 -11.601  -2.572  1.00  0.00     0.049 A 
ATOM     38  N   UNL     1      12.218 -11.677  -4.967  1.00  0.00    -0.248 NA
ATOM     39  C   UNL     1      13.116  -9.636  -4.278  1.00  0.00     0.031 C 
ATOM     40  C   UNL     1       9.442 -11.589  -1.455  1.00  0.00     0.029 A 
ATOM     41  N   UNL     1      10.124 -12.784  -3.217  1.00  0.00    -0.354 N 
ATOM     42  C   UNL     1      13.183 -11.267  -5.877  1.00  0.00     0.074 A 
ATOM     43  C   UNL     1      13.655  -9.972  -5.440  1.00  0.00     0.031 C 
ATOM     44  C   UNL     1       8.717 -12.719  -1.480  1.00  0.00     0.029 A 
ATOM     45  C   UNL     1       9.115 -13.514  -2.638  1.00  0.00     0.049 A 
ATOM     46  H   UNL     1      10.612 -13.080  -4.019  1.00  0.00     0.167 HD
ATOM     47  C   UNL     1      13.652 -11.924  -6.965  1.00  0.00     0.037 A 
ATOM     48  C   UNL     1       8.566 -14.687  -3.009  1.00  0.00     0.037 A 
ATOM     49  C   UNL     1      13.194 -13.223  -7.381  1.00  0.00     0.049 A 
ATOM     50  C   UNL     1       9.093 -15.388  -4.232  1.00  0.00     0.074 A 
ATOM     51  C   UNL     1      13.640 -13.997  -8.438  1.00  0.00     0.029 A 
ATOM     52  N   UNL     1      12.182 -13.940  -6.758  1.00  0.00    -0.354 N 
ATOM     53  N   UNL     1      10.050 -15.021  -5.050  1.00  0.00    -0.248 NA
ATOM     54  C   UNL     1       8.469 -16.672  -4.580  1.00  0.00     0.031 C 
ATOM     55  C   UNL     1      12.863 -15.159  -8.486  1.00  0.00     0.029 A 
ATOM     56  C   UNL     1      11.975 -15.138  -7.423  1.00  0.00     0.049 A 
ATOM     57  H   UNL     1      11.686 -13.642  -5.963  1.00  0.00     0.167 HD
ATOM     58  C   UNL     1      10.166 -16.041  -5.985  1.00  0.00     0.074 A 
ATOM     59  C   UNL     1       9.189 -17.048  -5.627  1.00  0.00     0.031 C 
ATOM     60  C   UNL     1      11.008 -16.137  -7.043  1.00  0.00     0.037 A 
BRANCH  47  61
ATOM     61  C   UNL     1      14.714 -11.245  -7.782  1.00  0.00     0.064 A 
ATOM     62  C   UNL     1      16.013 -11.050  -7.288  1.00  0.00     0.173 A 
ATOM     63  C   UNL     1      14.439 -10.813  -9.089  1.00  0.00     0.173 A 
ATOM     64  F   UNL     1      16.326 -11.434  -6.041  1.00  0.00    -0.203 F 
ATOM     65  C   UNL     1      16.986 -10.419  -8.058  1.00  0.00     0.198 A 
ATOM     66  C   UNL     1      15.425 -10.214  -9.869  1.00  0.00     0.198 A 
ATOM     67  F   UNL     1      13.216 -10.980  -9.614  1.00  0.00    -0.203 F 
ATOM     68  F   UNL     1      18.203 -10.194  -7.544  1.00  0.00    -0.200 F 
ATOM     69  C   UNL     1      16.694 -10.008  -9.350  1.00  0.00     0.200 A 
ATOM     70  F   UNL     1      15.145  -9.831 -11.122  1.00  0.00    -0.200 F 
ATOM     71  F   UNL     1      17.634  -9.408 -10.093  1.00  0.00    -0.200 F 
ENDBRANCH  47  61
BRANCH  48  72
ATOM     72  C   UNL     1       7.469 -15.283  -2.201  1.00  0.00     0.064 A 
ATOM     73  C   UNL     1       7.673 -16.462  -1.470  1.00  0.00     0.173 A 
ATOM     74  C   UNL     1       6.196 -14.697  -2.151  1.00  0.00     0.173 A 
ATOM     75  F   UNL     1       8.867 -17.071  -1.502  1.00  0.00    -0.203 F 
ATOM     76  C   UNL     1       6.640 -17.044  -0.739  1.00  0.00     0.198 A 
ATOM     77  C   UNL     1       5.172 -15.263  -1.394  1.00  0.00     0.198 A 
ATOM     78  F   UNL     1       5.950 -13.565  -2.827  1.00  0.00    -0.203 F 
ATOM     79  F   UNL     1       6.848 -18.198  -0.091  1.00  0.00    -0.200 F 
ATOM     80  C   UNL     1       5.391 -16.442  -0.697  1.00  0.00     0.200 A 
ATOM     81  F   UNL     1       3.972 -14.669  -1.344  1.00  0.00    -0.200 F 
ATOM     82  F   UNL     1       4.398 -17.000   0.007  1.00  0.00    -0.200 F 
ENDBRANCH  48  72
BRANCH  60  83
ATOM     83  C   UNL     1      10.950 -17.395  -7.862  1.00  0.00     0.064 A 
ATOM     84  C   UNL     1       9.868 -17.678  -8.707  1.00  0.00     0.173 A 
ATOM     85  C   UNL     1      12.020 -18.304  -7.835  1.00  0.00     0.173 A 
ATOM     86  F   UNL     1       8.815 -16.849  -8.758  1.00  0.00    -0.203 F 
ATOM     87  C   UNL     1       9.848 -18.839  -9.477  1.00  0.00     0.198 A 
ATOM     88  C   UNL     1      12.011 -19.445  -8.631  1.00  0.00     0.198 A 
ATOM     89  F   UNL     1      13.082 -18.075  -7.049  1.00  0.00    -0.203 F 
ATOM     90  F   UNL     1       8.782 -19.114 -10.242  1.00  0.00    -0.200 F 
ATOM     91  C   UNL     1      10.922 -19.716  -9.445  1.00  0.00     0.200 A 
ATOM     92  F   UNL     1      13.057 -20.282  -8.611  1.00  0.00    -0.200 F 
ATOM     93  F   UNL     1      10.905 -20.826 -10.196  1.00  0.00    -0.200 F 
ENDBRANCH  60  83
ENDBRANCH  34  35
ENDBRANCH  26  29
ENDBRANCH  24  25
ENDBRANCH  23  24
ENDBRANCH  22  23
ENDBRANCH  21  22
ENDBRANCH   1  21
TORSDOF 17
