REMARK SMILES C/C=C/C=C/C=C/C(=O)O[C@H]1C=C(C=O)[C@@](O)(C(=O)NCCCCCCNC(=O)c2ccc(-c3c4nc(c(-c5c(F)c(F)c(F)c(F)c5F)c5ccc([nH]5)c(-c5c(F)c(F)c(F)c(F)c5F)c5nc(c(-c6c(F)c(F)c(F)c(F)c6F)c6ccc3[nH]6)C=C5)C=C4)cc2)[C@]2(C)CCCC(C)(C)[C@@H]12
REMARK SMILES IDX 22 1 21 2 20 3 18 4 19 5 16 7 11 8 12 9 101 10 13 11 93 12
REMARK SMILES IDX 98 13 95 14 94 15 97 16 99 17 100 18 96 19 10 20 8 21 9 22
REMARK SMILES IDX 7 23 6 24 5 25 4 26 3 27 1 28 2 29 14 30 15 31 17 32 23 34
REMARK SMILES IDX 24 35 25 36 26 37 27 38 28 39 29 41 30 42 31 43 92 44 32 45
REMARK SMILES IDX 91 46 33 47 34 48 35 49 85 50 36 51 90 52 84 53 86 54 37 55
REMARK SMILES IDX 89 56 83 57 82 58 38 60 70 61 50 62 69 63 51 64 54 65 68 66
REMARK SMILES IDX 87 67 52 68 53 69 67 71 88 72 55 73 39 74 40 75 48 76 41 77
REMARK SMILES IDX 42 78 46 79 49 80 43 81 44 82 47 83 45 84 71 85 72 86 80 87
REMARK SMILES IDX 73 88 74 89 78 90 81 91 75 92 76 93 79 94 77 95 56 96 57 97
REMARK SMILES IDX 65 98 58 99 59 100 63 101 66 102 60 103 61 104 64 105 62 106
REMARK H PARENT 20 6 17 33 27 40 86 59 54 70
REMARK Flexibility Score: inf
ROOT
ATOM      1  C   UNL     1      -1.575   2.303  -9.669  1.00  0.00     0.021 C 
ENDROOT
BRANCH   1   2
ATOM      2  C   UNL     1      -2.937   2.060  -9.032  1.00  0.00     0.116 C 
BRANCH   2   3
ATOM      3  N   UNL     1      -3.911   1.438  -9.934  1.00  0.00    -0.353 N 
ATOM      4  C   UNL     1      -4.495   0.184  -9.906  1.00  0.00     0.257 C 
ATOM      5  O   UNL     1      -5.306  -0.102 -10.789  1.00  0.00    -0.271 OA
ATOM      6  H   UNL     1      -4.197   2.008 -10.684  1.00  0.00     0.163 HD
BRANCH   4   7
ATOM      7  C   UNL     1      -4.101  -0.829  -8.786  1.00  0.00     0.176 C 
ATOM      8  C   UNL     1      -3.290  -2.763  -6.782  1.00  0.00     0.204 C 
ATOM      9  C   UNL     1      -3.405  -3.094  -8.245  1.00  0.00     0.028 C 
ATOM     10  C   UNL     1      -3.964  -1.386  -6.332  1.00  0.00     0.049 C 
ATOM     11  C   UNL     1      -4.045  -2.299  -9.121  1.00  0.00     0.033 C 
ATOM     12  C   UNL     1      -4.870  -0.642  -7.415  1.00  0.00     0.017 C 
ATOM     13  C   UNL     1      -4.377  -1.191  -4.829  1.00  0.00    -0.028 C 
ATOM     14  C   UNL     1      -5.010   0.836  -6.937  1.00  0.00     0.011 C 
ATOM     15  C   UNL     1      -6.345  -1.127  -7.559  1.00  0.00     0.016 C 
ATOM     16  C   UNL     1      -4.652   0.309  -4.542  1.00  0.00     0.007 C 
ATOM     17  C   UNL     1      -5.588  -2.023  -4.374  1.00  0.00     0.011 C 
ATOM     18  C   UNL     1      -3.185  -1.560  -3.929  1.00  0.00     0.011 C 
ATOM     19  C   UNL     1      -5.602   0.956  -5.535  1.00  0.00     0.001 C 
BRANCH   8  20
ATOM     20  O   UNL     1      -3.776  -3.887  -6.025  1.00  0.00    -0.455 OA
BRANCH  20  21
ATOM     21  C   UNL     1      -2.915  -4.934  -5.923  1.00  0.00     0.331 C 
ATOM     22  O   UNL     1      -2.759  -5.830  -6.749  1.00  0.00    -0.247 OA
BRANCH  21  23
ATOM     23  C   UNL     1      -2.280  -4.925  -4.598  1.00  0.00     0.093 C 
ATOM     24  C   UNL     1      -1.164  -4.199  -4.417  1.00  0.00     0.007 C 
BRANCH  24  25
ATOM     25  C   UNL     1      -0.732  -3.795  -3.093  1.00  0.00     0.000 C 
ATOM     26  C   UNL     1      -0.072  -2.642  -2.892  1.00  0.00    -0.000 C 
BRANCH  26  27
ATOM     27  C   UNL     1       0.132  -2.064  -1.581  1.00  0.00    -0.005 C 
ATOM     28  C   UNL     1       0.781  -0.166  -0.075  1.00  0.00     0.035 C 
ATOM     29  C   UNL     1       0.621  -0.826  -1.407  1.00  0.00    -0.030 C 
ENDBRANCH  26  27
ENDBRANCH  24  25
ENDBRANCH  21  23
ENDBRANCH  20  21
ENDBRANCH   8  20
BRANCH  11  30
ATOM     30  C   UNL     1      -5.180  -3.024  -9.759  1.00  0.00     0.259 C 
ATOM     31  O   UNL     1      -5.843  -3.861  -9.148  1.00  0.00    -0.298 OA
ENDBRANCH  11  30
BRANCH   7  32
ATOM     32  O   UNL     1      -2.665  -0.573  -8.613  1.00  0.00    -0.375 OA
ATOM     33  H   UNL     1      -2.312  -1.160  -7.927  1.00  0.00     0.212 HD
ENDBRANCH   7  32
ENDBRANCH   4   7
ENDBRANCH   2   3
ENDBRANCH   1   2
BRANCH   1  34
ATOM     34  C   UNL     1      -1.438   3.697 -10.271  1.00  0.00     0.002 C 
BRANCH  34  35
ATOM     35  C   UNL     1      -1.603   4.853  -9.272  1.00  0.00     0.002 C 
BRANCH  35  36
ATOM     36  C   UNL     1      -0.684   4.813  -8.047  1.00  0.00     0.021 C 
BRANCH  36  37
ATOM     37  C   UNL     1       0.806   4.772  -8.369  1.00  0.00     0.116 C 
BRANCH  37  38
ATOM     38  N   UNL     1       1.225   5.922  -9.154  1.00  0.00    -0.352 N 
ATOM     39  C   UNL     1       2.218   6.835  -8.909  1.00  0.00     0.251 C 
ATOM     40  H   UNL     1       0.719   6.067  -9.986  1.00  0.00     0.163 HD
ATOM     41  O   UNL     1       2.289   7.863  -9.576  1.00  0.00    -0.269 OA
BRANCH  39  42
ATOM     42  C   UNL     1       3.197   6.588  -7.832  1.00  0.00     0.039 A 
ATOM     43  C   UNL     1       3.553   7.643  -6.988  1.00  0.00     0.014 A 
ATOM     44  C   UNL     1       3.778   5.327  -7.667  1.00  0.00     0.014 A 
ATOM     45  C   UNL     1       4.450   7.419  -5.943  1.00  0.00     0.010 A 
ATOM     46  C   UNL     1       4.614   5.087  -6.580  1.00  0.00     0.010 A 
ATOM     47  C   UNL     1       4.963   6.132  -5.711  1.00  0.00    -0.014 A 
BRANCH  47  48
ATOM     48  C   UNL     1       5.867   5.862  -4.565  1.00  0.00     0.031 A 
ATOM     49  C   UNL     1       7.281   5.412  -4.805  1.00  0.00     0.074 A 
ATOM     50  C   UNL     1       5.394   5.964  -3.308  1.00  0.00     0.049 A 
ATOM     51  N   UNL     1       8.199   5.067  -3.937  1.00  0.00    -0.248 NA
ATOM     52  C   UNL     1       7.713   5.307  -6.207  1.00  0.00     0.031 C 
ATOM     53  C   UNL     1       4.027   6.345  -2.948  1.00  0.00     0.029 A 
ATOM     54  N   UNL     1       6.006   5.745  -2.099  1.00  0.00    -0.354 N 
ATOM     55  C   UNL     1       9.307   4.695  -4.686  1.00  0.00     0.074 A 
ATOM     56  C   UNL     1       8.931   4.801  -6.079  1.00  0.00     0.031 C 
ATOM     57  C   UNL     1       3.910   6.354  -1.611  1.00  0.00     0.029 A 
ATOM     58  C   UNL     1       5.179   5.940  -1.020  1.00  0.00     0.049 A 
ATOM     59  H   UNL     1       6.948   5.474  -2.014  1.00  0.00     0.167 HD
ATOM     60  C   UNL     1      10.533   4.320  -4.251  1.00  0.00     0.037 A 
ATOM     61  C   UNL     1       5.414   5.792   0.298  1.00  0.00     0.037 A 
ATOM     62  C   UNL     1      10.909   4.238  -2.864  1.00  0.00     0.049 A 
ATOM     63  C   UNL     1       6.785   5.369   0.754  1.00  0.00     0.074 A 
ATOM     64  C   UNL     1      12.144   3.930  -2.321  1.00  0.00     0.029 A 
ATOM     65  N   UNL     1      10.049   4.461  -1.798  1.00  0.00    -0.354 N 
ATOM     66  N   UNL     1       7.846   5.089   0.038  1.00  0.00    -0.248 NA
ATOM     67  C   UNL     1       6.992   5.251   2.204  1.00  0.00     0.031 C 
ATOM     68  C   UNL     1      12.017   3.910  -0.929  1.00  0.00     0.029 A 
ATOM     69  C   UNL     1      10.720   4.269  -0.600  1.00  0.00     0.049 A 
ATOM     70  H   UNL     1       9.101   4.717  -1.880  1.00  0.00     0.167 HD
ATOM     71  C   UNL     1       8.853   4.791   0.947  1.00  0.00     0.074 A 
ATOM     72  C   UNL     1       8.279   4.940   2.268  1.00  0.00     0.031 C 
ATOM     73  C   UNL     1      10.137   4.426   0.708  1.00  0.00     0.037 A 
BRANCH  60  74
ATOM     74  C   UNL     1      11.563   3.966  -5.286  1.00  0.00     0.064 A 
ATOM     75  C   UNL     1      12.122   4.936  -6.134  1.00  0.00     0.173 A 
ATOM     76  C   UNL     1      12.030   2.648  -5.403  1.00  0.00     0.173 A 
ATOM     77  F   UNL     1      11.704   6.209  -6.072  1.00  0.00    -0.203 F 
ATOM     78  C   UNL     1      13.087   4.593  -7.078  1.00  0.00     0.198 A 
ATOM     79  C   UNL     1      13.020   2.316  -6.325  1.00  0.00     0.198 A 
ATOM     80  F   UNL     1      11.535   1.682  -4.614  1.00  0.00    -0.203 F 
ATOM     81  F   UNL     1      13.568   5.527  -7.910  1.00  0.00    -0.200 F 
ATOM     82  C   UNL     1      13.541   3.286  -7.167  1.00  0.00     0.200 A 
ATOM     83  F   UNL     1      13.468   1.055  -6.399  1.00  0.00    -0.200 F 
ATOM     84  F   UNL     1      14.477   2.961  -8.068  1.00  0.00    -0.200 F 
ENDBRANCH  60  74
BRANCH  61  85
ATOM     85  C   UNL     1       4.331   6.062   1.280  1.00  0.00     0.064 A 
ATOM     86  C   UNL     1       4.401   7.161   2.147  1.00  0.00     0.173 A 
ATOM     87  C   UNL     1       3.207   5.229   1.373  1.00  0.00     0.173 A 
ATOM     88  F   UNL     1       5.465   7.977   2.110  1.00  0.00    -0.203 F 
ATOM     89  C   UNL     1       3.401   7.402   3.087  1.00  0.00     0.198 A 
ATOM     90  C   UNL     1       2.192   5.489   2.291  1.00  0.00     0.198 A 
ATOM     91  F   UNL     1       3.087   4.168   0.561  1.00  0.00    -0.203 F 
ATOM     92  F   UNL     1       3.518   8.431   3.937  1.00  0.00    -0.200 F 
ATOM     93  C   UNL     1       2.294   6.569   3.154  1.00  0.00     0.200 A 
ATOM     94  F   UNL     1       1.116   4.691   2.340  1.00  0.00    -0.200 F 
ATOM     95  F   UNL     1       1.330   6.804   4.054  1.00  0.00    -0.200 F 
ENDBRANCH  61  85
BRANCH  73  96
ATOM     96  C   UNL     1      11.023   4.200   1.900  1.00  0.00     0.064 A 
ATOM     97  C   UNL     1      10.856   3.093   2.745  1.00  0.00     0.173 A 
ATOM     98  C   UNL     1      12.079   5.082   2.175  1.00  0.00     0.173 A 
ATOM     99  F   UNL     1       9.853   2.227   2.535  1.00  0.00    -0.203 F 
ATOM    100  C   UNL     1      11.696   2.894   3.838  1.00  0.00     0.198 A 
ATOM    101  C   UNL     1      12.938   4.861   3.247  1.00  0.00     0.198 A 
ATOM    102  F   UNL     1      12.288   6.152   1.393  1.00  0.00    -0.203 F 
ATOM    103  F   UNL     1      11.485   1.859   4.663  1.00  0.00    -0.200 F 
ATOM    104  C   UNL     1      12.741   3.773   4.083  1.00  0.00     0.200 A 
ATOM    105  F   UNL     1      13.957   5.702   3.472  1.00  0.00    -0.200 F 
ATOM    106  F   UNL     1      13.554   3.575   5.130  1.00  0.00    -0.200 F 
ENDBRANCH  73  96
ENDBRANCH  47  48
ENDBRANCH  39  42
ENDBRANCH  37  38
ENDBRANCH  36  37
ENDBRANCH  35  36
ENDBRANCH  34  35
ENDBRANCH   1  34
TORSDOF 20
