REMARK SMILES O=C(NCCCCCCNC(=O)[C@@H]1C[NH2+]C[C@H]1c1ccncc1)c1ccc(-c2c3nc(c(-c4c(F)c(F)c(F)c(F)c4F)c4ccc([nH]4)c(-c4c(F)c(F)c(F)c(F)c4F)c4nc(c(-c5c(F)c(F)c(F)c(F)c5F)c5ccc2[nH]5)C=C4)C=C3)cc1
REMARK SMILES IDX 6 1 5 2 4 3 3 4 1 5 2 6 24 8 25 9 86 10 26 11 85 12 27 13
REMARK SMILES IDX 28 14 29 15 79 16 30 17 84 18 78 19 80 20 31 21 83 22 77 23
REMARK SMILES IDX 76 24 32 26 64 27 44 28 63 29 45 30 48 31 62 32 81 33 46 34
REMARK SMILES IDX 47 35 61 37 82 38 49 39 33 40 34 41 42 42 35 43 36 44 40 45
REMARK SMILES IDX 43 46 37 47 38 48 41 49 39 50 65 51 66 52 74 53 67 54 68 55
REMARK SMILES IDX 72 56 75 57 69 58 70 59 73 60 71 61 50 62 51 63 59 64 52 65
REMARK SMILES IDX 53 66 57 67 60 68 54 69 55 70 58 71 56 72 7 73 8 74 9 75
REMARK SMILES IDX 10 76 11 77 12 79 13 80 14 81 17 82 15 83 16 84 18 87 19 88
REMARK SMILES IDX 23 89 20 90 22 91 21 92
REMARK H PARENT 3 7 80 25 48 36 10 78 15 85 15 86
REMARK Flexibility Score: inf
ROOT
ATOM      1  C   UNL     1       4.105  -2.865  -2.601  1.00  0.00     0.002 C 
ENDROOT
BRANCH   1   2
ATOM      2  C   UNL     1       4.533  -2.417  -1.204  1.00  0.00     0.021 C 
BRANCH   2   3
ATOM      3  C   UNL     1       4.328  -0.937  -0.909  1.00  0.00     0.116 C 
BRANCH   3   4
ATOM      4  N   UNL     1       2.928  -0.548  -0.896  1.00  0.00    -0.352 N 
ATOM      5  O   UNL     1       1.018   0.294  -0.030  1.00  0.00    -0.269 OA
ATOM      6  C   UNL     1       2.236   0.163   0.056  1.00  0.00     0.251 C 
ATOM      7  H   UNL     1       2.401  -0.833  -1.677  1.00  0.00     0.163 HD
BRANCH   6   8
ATOM      8  C   UNL     1       2.960   0.744   1.207  1.00  0.00     0.039 A 
ATOM      9  C   UNL     1       4.162   1.431   1.022  1.00  0.00     0.014 A 
ATOM     10  C   UNL     1       2.433   0.587   2.493  1.00  0.00     0.014 A 
ATOM     11  C   UNL     1       4.911   1.819   2.127  1.00  0.00     0.010 A 
ATOM     12  C   UNL     1       3.147   1.057   3.599  1.00  0.00     0.010 A 
ATOM     13  C   UNL     1       4.411   1.641   3.428  1.00  0.00    -0.014 A 
BRANCH  13  14
ATOM     14  C   UNL     1       5.218   2.110   4.584  1.00  0.00     0.031 A 
ATOM     15  C   UNL     1       5.774   1.142   5.591  1.00  0.00     0.074 A 
ATOM     16  C   UNL     1       5.484   3.426   4.695  1.00  0.00     0.049 A 
ATOM     17  N   UNL     1       6.545   1.379   6.624  1.00  0.00    -0.248 NA
ATOM     18  C   UNL     1       5.416  -0.274   5.426  1.00  0.00     0.031 C 
ATOM     19  C   UNL     1       4.985   4.462   3.788  1.00  0.00     0.029 A 
ATOM     20  N   UNL     1       6.256   4.114   5.595  1.00  0.00    -0.354 N 
ATOM     21  C   UNL     1       6.741   0.152   7.244  1.00  0.00     0.074 A 
ATOM     22  C   UNL     1       5.992  -0.827   6.484  1.00  0.00     0.031 C 
ATOM     23  C   UNL     1       5.511   5.644   4.141  1.00  0.00     0.029 A 
ATOM     24  C   UNL     1       6.336   5.459   5.329  1.00  0.00     0.049 A 
ATOM     25  H   UNL     1       6.708   3.686   6.357  1.00  0.00     0.167 HD
ATOM     26  C   UNL     1       7.484  -0.131   8.342  1.00  0.00     0.037 A 
ATOM     27  C   UNL     1       6.999   6.438   5.973  1.00  0.00     0.037 A 
ATOM     28  C   UNL     1       8.251   0.841   9.078  1.00  0.00     0.049 A 
ATOM     29  C   UNL     1       7.812   6.093   7.187  1.00  0.00     0.074 A 
ATOM     30  C   UNL     1       9.079   0.642  10.170  1.00  0.00     0.029 A 
ATOM     31  N   UNL     1       8.282   2.200   8.799  1.00  0.00    -0.354 N 
ATOM     32  N   UNL     1       8.025   4.922   7.734  1.00  0.00    -0.248 NA
ATOM     33  C   UNL     1       8.473   7.210   7.874  1.00  0.00     0.031 C 
ATOM     34  C   UNL     1       9.575   1.886  10.578  1.00  0.00     0.029 A 
ATOM     35  C   UNL     1       9.094   2.854   9.712  1.00  0.00     0.049 A 
ATOM     36  H   UNL     1       7.798   2.636   8.060  1.00  0.00     0.167 HD
ATOM     37  C   UNL     1       8.859   5.156   8.818  1.00  0.00     0.074 A 
ATOM     38  C   UNL     1       9.128   6.580   8.838  1.00  0.00     0.031 C 
ATOM     39  C   UNL     1       9.354   4.271   9.717  1.00  0.00     0.037 A 
BRANCH  26  40
ATOM     40  C   UNL     1       7.492  -1.551   8.832  1.00  0.00     0.064 A 
ATOM     41  C   UNL     1       8.168  -2.568   8.142  1.00  0.00     0.173 A 
ATOM     42  C   UNL     1       6.851  -1.888  10.034  1.00  0.00     0.173 A 
ATOM     43  F   UNL     1       8.788  -2.301   6.983  1.00  0.00    -0.203 F 
ATOM     44  C   UNL     1       8.182  -3.875   8.626  1.00  0.00     0.198 A 
ATOM     45  C   UNL     1       6.889  -3.190  10.528  1.00  0.00     0.198 A 
ATOM     46  F   UNL     1       6.197  -0.952  10.737  1.00  0.00    -0.203 F 
ATOM     47  F   UNL     1       8.799  -4.839   7.928  1.00  0.00    -0.200 F 
ATOM     48  C   UNL     1       7.548  -4.183   9.820  1.00  0.00     0.200 A 
ATOM     49  F   UNL     1       6.287  -3.483  11.689  1.00  0.00    -0.200 F 
ATOM     50  F   UNL     1       7.569  -5.439  10.287  1.00  0.00    -0.200 F 
ENDBRANCH  26  40
BRANCH  27  51
ATOM     51  C   UNL     1       6.932   7.830   5.463  1.00  0.00     0.064 A 
ATOM     52  C   UNL     1       8.054   8.437   4.884  1.00  0.00     0.173 A 
ATOM     53  C   UNL     1       5.745   8.574   5.528  1.00  0.00     0.173 A 
ATOM     54  F   UNL     1       9.216   7.771   4.817  1.00  0.00    -0.203 F 
ATOM     55  C   UNL     1       7.995   9.742   4.398  1.00  0.00     0.198 A 
ATOM     56  C   UNL     1       5.679   9.868   5.016  1.00  0.00     0.198 A 
ATOM     57  F   UNL     1       4.643   8.035   6.068  1.00  0.00    -0.203 F 
ATOM     58  F   UNL     1       9.091  10.312   3.881  1.00  0.00    -0.200 F 
ATOM     59  C   UNL     1       6.805  10.453   4.458  1.00  0.00     0.200 A 
ATOM     60  F   UNL     1       4.524  10.545   5.061  1.00  0.00    -0.200 F 
ATOM     61  F   UNL     1       6.746  11.704   3.981  1.00  0.00    -0.200 F 
ENDBRANCH  27  51
BRANCH  39  62
ATOM     62  C   UNL     1      10.261   4.818  10.779  1.00  0.00     0.064 A 
ATOM     63  C   UNL     1       9.769   5.595  11.838  1.00  0.00     0.173 A 
ATOM     64  C   UNL     1      11.638   4.548  10.745  1.00  0.00     0.173 A 
ATOM     65  F   UNL     1       8.463   5.896  11.904  1.00  0.00    -0.203 F 
ATOM     66  C   UNL     1      10.627   6.108  12.807  1.00  0.00     0.198 A 
ATOM     67  C   UNL     1      12.488   5.039  11.731  1.00  0.00     0.198 A 
ATOM     68  F   UNL     1      12.157   3.806   9.755  1.00  0.00    -0.203 F 
ATOM     69  F   UNL     1      10.143   6.893  13.780  1.00  0.00    -0.200 F 
ATOM     70  C   UNL     1      11.984   5.826  12.755  1.00  0.00     0.200 A 
ATOM     71  F   UNL     1      13.798   4.758  11.685  1.00  0.00    -0.200 F 
ATOM     72  F   UNL     1      12.808   6.321  13.689  1.00  0.00    -0.200 F 
ENDBRANCH  39  62
ENDBRANCH  13  14
ENDBRANCH   6   8
ENDBRANCH   3   4
ENDBRANCH   2   3
ENDBRANCH   1   2
BRANCH   1  73
ATOM     73  C   UNL     1       4.726  -2.085  -3.763  1.00  0.00     0.002 C 
BRANCH  73  74
ATOM     74  C   UNL     1       6.257  -1.990  -3.759  1.00  0.00     0.021 C 
BRANCH  74  75
ATOM     75  C   UNL     1       6.988  -3.330  -3.721  1.00  0.00     0.116 C 
BRANCH  75  76
ATOM     76  N   UNL     1       6.678  -4.136  -4.885  1.00  0.00    -0.356 N 
ATOM     77  C   UNL     1       7.512  -4.786  -5.742  1.00  0.00     0.229 C 
ATOM     78  H   UNL     1       5.718  -4.228  -5.086  1.00  0.00     0.163 HD
ATOM     79  O   UNL     1       7.008  -5.417  -6.671  1.00  0.00    -0.275 OA
BRANCH  77  80
ATOM     80  C   UNL     1       9.009  -4.694  -5.529  1.00  0.00     0.146 C 
ATOM     81  C   UNL     1       9.544  -3.491  -6.285  1.00  0.00     0.274 C 
ATOM     82  C   UNL     1       9.804  -5.867  -6.130  1.00  0.00     0.092 C 
ATOM     83  N   UNL     1      10.984  -3.739  -6.380  1.00  0.00    -0.345 N 
ATOM     84  C   UNL     1      11.113  -5.193  -6.598  1.00  0.00     0.269 C 
ATOM     85  H   UNL     1      11.452  -3.463  -5.517  1.00  0.00     0.346 HD
ATOM     86  H   UNL     1      11.414  -3.201  -7.133  1.00  0.00     0.346 HD
BRANCH  82  87
ATOM     87  C   UNL     1       9.876  -7.048  -5.171  1.00  0.00    -0.035 A 
ATOM     88  C   UNL     1       8.689  -7.725  -4.842  1.00  0.00     0.024 A 
ATOM     89  C   UNL     1      11.052  -7.518  -4.583  1.00  0.00     0.024 A 
ATOM     90  C   UNL     1       8.722  -8.779  -3.942  1.00  0.00     0.111 A 
ATOM     91  C   UNL     1      10.988  -8.592  -3.701  1.00  0.00     0.111 A 
ATOM     92  N   UNL     1       9.849  -9.225  -3.357  1.00  0.00    -0.265 NA
ENDBRANCH  82  87
ENDBRANCH  77  80
ENDBRANCH  75  76
ENDBRANCH  74  75
ENDBRANCH  73  74
ENDBRANCH   1  73
TORSDOF 14
