REMARK SMILES CN(Cc1ccc(Cl)cc1Cl)S(=O)(=O)CCCC(=O)NCCCCCCNC(=O)c1ccc(-c2c3nc(c(-c4c(F)c(F)c(F)c(F)c4F)c4ccc([nH]4)c(-c4c(F)c(F)c(F)c(F)c4F)c4nc(c(-c5c(F)c(F)c(F)c(F)c5F)c5ccc2[nH]5)C=C4)C=C3)cc1
REMARK SMILES IDX 21 1 20 2 18 3 19 4 17 6 16 7 15 8 12 9 13 10 14 11 2 12
REMARK SMILES IDX 1 13 3 14 4 15 5 16 10 17 6 18 9 19 11 20 7 21 8 22 22 23
REMARK SMILES IDX 23 24 24 25 25 26 26 27 27 28 28 29 29 31 30 32 31 33 92 34
REMARK SMILES IDX 32 35 91 36 33 37 34 38 35 39 85 40 36 41 90 42 84 43 86 44
REMARK SMILES IDX 37 45 89 46 83 47 82 48 38 50 70 51 50 52 69 53 51 54 54 55
REMARK SMILES IDX 68 56 87 57 52 58 53 59 67 61 88 62 55 63 39 64 40 65 48 66
REMARK SMILES IDX 41 67 42 68 46 69 49 70 43 71 44 72 47 73 45 74 71 75 72 76
REMARK SMILES IDX 80 77 73 78 74 79 78 80 81 81 75 82 76 83 79 84 77 85 56 86
REMARK SMILES IDX 57 87 65 88 58 89 59 90 63 91 66 92 60 93 61 94 64 95 62 96
REMARK H PARENT 20 5 27 30 86 49 54 60
REMARK Flexibility Score: inf
ROOT
ATOM      1  C   UNL     1      -1.970  -1.966  -3.144  1.00  0.00     0.116 C 
ENDROOT
BRANCH   1   2
ATOM      2  N   UNL     1      -1.995  -3.388  -2.919  1.00  0.00    -0.356 N 
ATOM      3  C   UNL     1      -1.103  -4.205  -2.306  1.00  0.00     0.220 C 
ATOM      4  O   UNL     1      -1.457  -5.369  -2.101  1.00  0.00    -0.275 OA
ATOM      5  H   UNL     1      -2.794  -3.844  -3.270  1.00  0.00     0.163 HD
BRANCH   3   6
ATOM      6  C   UNL     1       0.247  -3.713  -1.804  1.00  0.00     0.101 C 
BRANCH   6   7
ATOM      7  C   UNL     1       1.316  -3.321  -2.818  1.00  0.00     0.027 C 
BRANCH   7   8
ATOM      8  C   UNL     1       1.330  -1.936  -3.445  1.00  0.00     0.155 C 
BRANCH   8   9
ATOM      9  S   UNL     1       1.520  -0.426  -2.478  1.00  0.00     0.214 S 
ATOM     10  O   UNL     1       0.562   0.512  -3.014  1.00  0.00    -0.212 OA
ATOM     11  O   UNL     1       2.942  -0.123  -2.519  1.00  0.00    -0.212 OA
BRANCH   9  12
ATOM     12  N   UNL     1       1.128  -0.715  -0.872  1.00  0.00    -0.201 NA
ATOM     13  C   UNL     1       2.254  -0.694   0.089  1.00  0.00     0.124 C 
BRANCH  12  14
ATOM     14  C   UNL     1      -0.207  -0.430  -0.268  1.00  0.00     0.138 C 
BRANCH  14  15
ATOM     15  C   UNL     1      -0.893   0.908  -0.458  1.00  0.00    -0.014 A 
ATOM     16  C   UNL     1      -2.252   0.901  -0.836  1.00  0.00     0.008 A 
ATOM     17  C   UNL     1      -0.312   2.159  -0.208  1.00  0.00     0.047 A 
ATOM     18  C   UNL     1      -2.947   2.084  -1.099  1.00  0.00     0.021 A 
ATOM     19  C   UNL     1      -0.987   3.345  -0.527  1.00  0.00     0.041 A 
ATOM     20  Cl  UNL     1       1.192   2.341   0.609  1.00  0.00    -0.084 Cl
ATOM     21  C   UNL     1      -2.288   3.300  -1.007  1.00  0.00     0.042 A 
ATOM     22  Cl  UNL     1      -3.091   4.748  -1.469  1.00  0.00    -0.084 Cl
ENDBRANCH  14  15
ENDBRANCH  12  14
ENDBRANCH   9  12
ENDBRANCH   8   9
ENDBRANCH   7   8
ENDBRANCH   6   7
ENDBRANCH   3   6
ENDBRANCH   1   2
BRANCH   1  23
ATOM     23  C   UNL     1      -2.158  -1.607  -4.617  1.00  0.00     0.021 C 
BRANCH  23  24
ATOM     24  C   UNL     1      -3.586  -1.165  -4.944  1.00  0.00     0.002 C 
BRANCH  24  25
ATOM     25  C   UNL     1      -4.058   0.085  -4.191  1.00  0.00     0.002 C 
BRANCH  25  26
ATOM     26  C   UNL     1      -3.167   1.317  -4.362  1.00  0.00     0.021 C 
BRANCH  26  27
ATOM     27  C   UNL     1      -3.144   1.875  -5.773  1.00  0.00     0.116 C 
BRANCH  27  28
ATOM     28  N   UNL     1      -4.454   2.411  -6.121  1.00  0.00    -0.352 N 
ATOM     29  C   UNL     1      -4.864   3.718  -6.206  1.00  0.00     0.251 C 
ATOM     30  H   UNL     1      -5.144   1.739  -6.324  1.00  0.00     0.163 HD
ATOM     31  O   UNL     1      -6.057   3.987  -6.106  1.00  0.00    -0.269 OA
BRANCH  29  32
ATOM     32  C   UNL     1      -3.881   4.797  -6.451  1.00  0.00     0.039 A 
ATOM     33  C   UNL     1      -4.131   6.080  -5.955  1.00  0.00     0.014 A 
ATOM     34  C   UNL     1      -2.751   4.567  -7.239  1.00  0.00     0.014 A 
ATOM     35  C   UNL     1      -3.239   7.119  -6.233  1.00  0.00     0.010 A 
ATOM     36  C   UNL     1      -1.809   5.570  -7.420  1.00  0.00     0.010 A 
ATOM     37  C   UNL     1      -2.060   6.867  -6.953  1.00  0.00    -0.014 A 
BRANCH  37  38
ATOM     38  C   UNL     1      -1.095   7.943  -7.290  1.00  0.00     0.031 A 
ATOM     39  C   UNL     1      -0.801   8.251  -8.735  1.00  0.00     0.074 A 
ATOM     40  C   UNL     1      -0.428   8.578  -6.308  1.00  0.00     0.049 A 
ATOM     41  N   UNL     1       0.103   9.046  -9.249  1.00  0.00    -0.248 NA
ATOM     42  C   UNL     1      -1.607   7.537  -9.742  1.00  0.00     0.031 C 
ATOM     43  C   UNL     1      -0.596   8.334  -4.875  1.00  0.00     0.029 A 
ATOM     44  N   UNL     1       0.542   9.546  -6.369  1.00  0.00    -0.354 N 
ATOM     45  C   UNL     1      -0.006   8.902 -10.627  1.00  0.00     0.074 A 
ATOM     46  C   UNL     1      -1.021   7.903 -10.872  1.00  0.00     0.031 C 
ATOM     47  C   UNL     1       0.227   9.145  -4.191  1.00  0.00     0.029 A 
ATOM     48  C   UNL     1       1.015   9.928  -5.137  1.00  0.00     0.049 A 
ATOM     49  H   UNL     1       0.868   9.930  -7.215  1.00  0.00     0.167 HD
ATOM     50  C   UNL     1       0.663   9.564 -11.600  1.00  0.00     0.037 A 
ATOM     51  C   UNL     1       1.987  10.801  -4.813  1.00  0.00     0.037 A 
ATOM     52  C   UNL     1       1.641  10.588 -11.346  1.00  0.00     0.049 A 
ATOM     53  C   UNL     1       2.713  11.526  -5.916  1.00  0.00     0.074 A 
ATOM     54  C   UNL     1       2.329  11.368 -12.257  1.00  0.00     0.029 A 
ATOM     55  N   UNL     1       2.066  10.974 -10.083  1.00  0.00    -0.354 N 
ATOM     56  N   UNL     1       2.557  11.430  -7.215  1.00  0.00    -0.248 NA
ATOM     57  C   UNL     1       3.747  12.486  -5.508  1.00  0.00     0.031 C 
ATOM     58  C   UNL     1       3.209  12.191 -11.548  1.00  0.00     0.029 A 
ATOM     59  C   UNL     1       3.022  11.970 -10.193  1.00  0.00     0.049 A 
ATOM     60  H   UNL     1       1.736  10.598  -9.235  1.00  0.00     0.167 HD
ATOM     61  C   UNL     1       3.442  12.342  -7.775  1.00  0.00     0.074 A 
ATOM     62  C   UNL     1       4.123  12.990  -6.674  1.00  0.00     0.031 C 
ATOM     63  C   UNL     1       3.671  12.618  -9.082  1.00  0.00     0.037 A 
BRANCH  50  64
ATOM     64  C   UNL     1       0.357   9.212 -13.029  1.00  0.00     0.064 A 
ATOM     65  C   UNL     1      -0.879   9.520 -13.617  1.00  0.00     0.173 A 
ATOM     66  C   UNL     1       1.331   8.604 -13.836  1.00  0.00     0.173 A 
ATOM     67  F   UNL     1      -1.851  10.092 -12.890  1.00  0.00    -0.203 F 
ATOM     68  C   UNL     1      -1.138   9.209 -14.950  1.00  0.00     0.198 A 
ATOM     69  C   UNL     1       1.081   8.325 -15.177  1.00  0.00     0.198 A 
ATOM     70  F   UNL     1       2.533   8.291 -13.328  1.00  0.00    -0.203 F 
ATOM     71  F   UNL     1      -2.343   9.469 -15.475  1.00  0.00    -0.200 F 
ATOM     72  C   UNL     1      -0.155   8.620 -15.731  1.00  0.00     0.200 A 
ATOM     73  F   UNL     1       2.038   7.771 -15.935  1.00  0.00    -0.200 F 
ATOM     74  F   UNL     1      -0.401   8.334 -17.017  1.00  0.00    -0.200 F 
ENDBRANCH  50  64
BRANCH  51  75
ATOM     75  C   UNL     1       2.321  11.054  -3.386  1.00  0.00     0.064 A 
ATOM     76  C   UNL     1       2.061  12.300  -2.796  1.00  0.00     0.173 A 
ATOM     77  C   UNL     1       2.921  10.069  -2.588  1.00  0.00     0.173 A 
ATOM     78  F   UNL     1       1.504  13.281  -3.522  1.00  0.00    -0.203 F 
ATOM     79  C   UNL     1       2.419  12.561  -1.475  1.00  0.00     0.198 A 
ATOM     80  C   UNL     1       3.247  10.321  -1.256  1.00  0.00     0.198 A 
ATOM     81  F   UNL     1       3.185   8.858  -3.099  1.00  0.00    -0.203 F 
ATOM     82  F   UNL     1       2.214  13.780  -0.957  1.00  0.00    -0.200 F 
ATOM     83  C   UNL     1       3.007  11.570  -0.705  1.00  0.00     0.200 A 
ATOM     84  F   UNL     1       3.800   9.355  -0.510  1.00  0.00    -0.200 F 
ATOM     85  F   UNL     1       3.353  11.822   0.565  1.00  0.00    -0.200 F 
ENDBRANCH  51  75
BRANCH  63  86
ATOM     86  C   UNL     1       4.654  13.708  -9.396  1.00  0.00     0.064 A 
ATOM     87  C   UNL     1       6.032  13.544  -9.194  1.00  0.00     0.173 A 
ATOM     88  C   UNL     1       4.210  14.917  -9.955  1.00  0.00     0.173 A 
ATOM     89  F   UNL     1       6.505  12.412  -8.650  1.00  0.00    -0.203 F 
ATOM     90  C   UNL     1       6.927  14.560  -9.517  1.00  0.00     0.198 A 
ATOM     91  C   UNL     1       5.112  15.916 -10.309  1.00  0.00     0.198 A 
ATOM     92  F   UNL     1       2.903  15.121 -10.177  1.00  0.00    -0.203 F 
ATOM     93  F   UNL     1       8.235  14.400  -9.270  1.00  0.00    -0.200 F 
ATOM     94  C   UNL     1       6.468  15.740 -10.082  1.00  0.00     0.200 A 
ATOM     95  F   UNL     1       4.667  17.048 -10.873  1.00  0.00    -0.200 F 
ATOM     96  F   UNL     1       7.333  16.712 -10.404  1.00  0.00    -0.200 F 
ENDBRANCH  63  86
ENDBRANCH  37  38
ENDBRANCH  29  32
ENDBRANCH  27  28
ENDBRANCH  26  27
ENDBRANCH  25  26
ENDBRANCH  24  25
ENDBRANCH  23  24
ENDBRANCH   1  23
TORSDOF 19
