REMARK SMILES Cc1cccc([C@H]([NH3+])[C@H](O)C(=O)NCCCCCCNC(=O)c2ccc(-c3c4nc(c(-c5c(F)c(F)c(F)c(F)c5F)c5ccc([nH]5)c(-c5c(F)c(F)c(F)c(F)c5F)c5nc(c(-c6c(F)c(F)c(F)c(F)c6F)c6ccc3[nH]6)C=C5)C=C4)cc2)c1
REMARK SMILES IDX 16 1 15 2 14 3 13 4 11 5 12 6 9 8 7 9 6 10 1 11 2 12 3 13
REMARK SMILES IDX 86 14 4 15 5 16 8 17 10 21 17 23 18 24 19 25 20 26 21 27
REMARK SMILES IDX 22 29 23 30 24 31 85 32 25 33 84 34 26 35 27 36 28 37 78 38
REMARK SMILES IDX 29 39 83 40 77 41 79 42 30 43 82 44 76 45 75 46 31 48 63 49
REMARK SMILES IDX 43 50 62 51 44 52 47 53 61 54 80 55 45 56 46 57 60 59 81 60
REMARK SMILES IDX 48 61 32 62 33 63 41 64 34 65 35 66 39 67 42 68 36 69 37 70
REMARK SMILES IDX 40 71 38 72 64 73 65 74 73 75 66 76 67 77 71 78 74 79 68 80
REMARK SMILES IDX 69 81 72 82 70 83 49 84 50 85 58 86 51 87 52 88 56 89 59 90
REMARK SMILES IDX 53 91 54 92 57 93 55 94
REMARK H PARENT 13 7 8 18 8 19 8 20 10 22 20 28 79 47 47 58
REMARK Flexibility Score: inf
ROOT
ATOM      1  C   UNL     1      -1.542   7.739   0.250  1.00  0.00     0.002 C 
ENDROOT
BRANCH   1   2
ATOM      2  C   UNL     1      -1.162   6.253   0.252  1.00  0.00     0.021 C 
BRANCH   2   3
ATOM      3  C   UNL     1      -1.627   5.453   1.465  1.00  0.00     0.116 C 
BRANCH   3   4
ATOM      4  N   UNL     1      -3.025   5.109   1.438  1.00  0.00    -0.354 N 
ATOM      5  C   UNL     1      -3.627   3.893   1.458  1.00  0.00     0.255 C 
ATOM      6  O   UNL     1      -4.862   3.893   1.556  1.00  0.00    -0.272 OA
ATOM      7  H   UNL     1      -3.641   5.877   1.398  1.00  0.00     0.163 HD
BRANCH   5   8
ATOM      8  C   UNL     1      -2.888   2.544   1.257  1.00  0.00     0.266 C 
BRANCH   8   9
ATOM      9  C   UNL     1      -1.755   2.188   2.295  1.00  0.00     0.250 C 
BRANCH   9  10
ATOM     10  C   UNL     1      -0.262   2.250   1.923  1.00  0.00     0.013 A 
ATOM     11  C   UNL     1       3.058   1.797   3.800  1.00  0.00     0.044 C 
ATOM     12  C   UNL     1       2.071   2.081   2.707  1.00  0.00    -0.051 A 
ATOM     13  C   UNL     1       2.526   2.423   1.433  1.00  0.00     0.003 A 
ATOM     14  C   UNL     1       0.688   2.014   2.943  1.00  0.00     0.013 A 
ATOM     15  C   UNL     1       1.614   2.655   0.409  1.00  0.00     0.001 A 
ATOM     16  C   UNL     1       0.239   2.554   0.649  1.00  0.00     0.010 A 
ENDBRANCH   9  10
BRANCH   9  17
ATOM     17  N   UNL     1      -2.004   0.841   2.875  1.00  0.00    -0.349 N 
ATOM     18  H   UNL     1      -1.872   0.131   2.155  1.00  0.00     0.345 HD
ATOM     19  H   UNL     1      -2.961   0.794   3.227  1.00  0.00     0.345 HD
ATOM     20  H   UNL     1      -1.352   0.674   3.641  1.00  0.00     0.345 HD
ENDBRANCH   9  17
ENDBRANCH   8   9
BRANCH   8  21
ATOM     21  O   UNL     1      -2.570   2.316  -0.111  1.00  0.00    -0.378 OA
ATOM     22  H   UNL     1      -1.919   2.972  -0.406  1.00  0.00     0.211 HD
ENDBRANCH   8  21
ENDBRANCH   5   8
ENDBRANCH   3   4
ENDBRANCH   2   3
ENDBRANCH   1   2
BRANCH   1  23
ATOM     23  C   UNL     1      -1.266   8.530   1.540  1.00  0.00     0.002 C 
BRANCH  23  24
ATOM     24  C   UNL     1       0.108   8.331   2.188  1.00  0.00     0.021 C 
BRANCH  24  25
ATOM     25  C   UNL     1       1.265   8.947   1.414  1.00  0.00     0.116 C 
BRANCH  25  26
ATOM     26  N   UNL     1       1.733  10.216   1.962  1.00  0.00    -0.352 N 
ATOM     27  C   UNL     1       2.688  11.079   1.453  1.00  0.00     0.251 C 
ATOM     28  H   UNL     1       1.313  10.495   2.808  1.00  0.00     0.163 HD
ATOM     29  O   UNL     1       2.985  12.107   2.038  1.00  0.00    -0.269 OA
BRANCH  27  30
ATOM     30  C   UNL     1       3.253  10.789   0.114  1.00  0.00     0.039 A 
ATOM     31  C   UNL     1       3.127  11.772  -0.872  1.00  0.00     0.014 A 
ATOM     32  C   UNL     1       3.669   9.501  -0.213  1.00  0.00     0.014 A 
ATOM     33  C   UNL     1       3.171  11.394  -2.212  1.00  0.00     0.010 A 
ATOM     34  C   UNL     1       3.630   9.108  -1.538  1.00  0.00     0.010 A 
ATOM     35  C   UNL     1       3.303  10.040  -2.530  1.00  0.00    -0.014 A 
BRANCH  35  36
ATOM     36  C   UNL     1       2.941   9.502  -3.837  1.00  0.00     0.031 A 
ATOM     37  C   UNL     1       3.964   9.055  -4.802  1.00  0.00     0.074 A 
ATOM     38  C   UNL     1       1.635   9.371  -4.165  1.00  0.00     0.049 A 
ATOM     39  N   UNL     1       3.779   9.053  -6.081  1.00  0.00    -0.248 NA
ATOM     40  C   UNL     1       5.288   8.591  -4.407  1.00  0.00     0.031 C 
ATOM     41  C   UNL     1       1.079   8.668  -5.320  1.00  0.00     0.029 A 
ATOM     42  N   UNL     1       0.535  10.049  -3.610  1.00  0.00    -0.354 N 
ATOM     43  C   UNL     1       4.822   8.371  -6.651  1.00  0.00     0.074 A 
ATOM     44  C   UNL     1       5.766   8.150  -5.577  1.00  0.00     0.031 C 
ATOM     45  C   UNL     1      -0.132   9.177  -5.590  1.00  0.00     0.029 A 
ATOM     46  C   UNL     1      -0.343  10.297  -4.692  1.00  0.00     0.049 A 
ATOM     47  H   UNL     1       0.404  10.298  -2.666  1.00  0.00     0.167 HD
ATOM     48  C   UNL     1       4.739   7.960  -7.947  1.00  0.00     0.037 A 
ATOM     49  C   UNL     1      -0.651  11.570  -5.070  1.00  0.00     0.037 A 
ATOM     50  C   UNL     1       3.490   8.353  -8.586  1.00  0.00     0.049 A 
ATOM     51  C   UNL     1      -0.248  11.933  -6.484  1.00  0.00     0.074 A 
ATOM     52  C   UNL     1       2.299   7.706  -8.873  1.00  0.00     0.029 A 
ATOM     53  N   UNL     1       3.242   9.699  -8.776  1.00  0.00    -0.354 N 
ATOM     54  N   UNL     1       0.382  11.136  -7.301  1.00  0.00    -0.248 NA
ATOM     55  C   UNL     1      -0.429  13.273  -7.047  1.00  0.00     0.031 C 
ATOM     56  C   UNL     1       1.339   8.683  -9.261  1.00  0.00     0.029 A 
ATOM     57  C   UNL     1       1.948   9.922  -9.204  1.00  0.00     0.049 A 
ATOM     58  H   UNL     1       3.905  10.411  -8.626  1.00  0.00     0.167 HD
ATOM     59  C   UNL     1       0.747  11.834  -8.422  1.00  0.00     0.074 A 
ATOM     60  C   UNL     1       0.212  13.166  -8.222  1.00  0.00     0.031 C 
ATOM     61  C   UNL     1       1.507  11.287  -9.414  1.00  0.00     0.037 A 
BRANCH  48  62
ATOM     62  C   UNL     1       5.736   7.012  -8.550  1.00  0.00     0.064 A 
ATOM     63  C   UNL     1       5.329   5.967  -9.403  1.00  0.00     0.173 A 
ATOM     64  C   UNL     1       7.116   7.078  -8.286  1.00  0.00     0.173 A 
ATOM     65  F   UNL     1       4.053   5.834  -9.786  1.00  0.00    -0.203 F 
ATOM     66  C   UNL     1       6.221   5.002  -9.872  1.00  0.00     0.198 A 
ATOM     67  C   UNL     1       7.999   6.082  -8.710  1.00  0.00     0.198 A 
ATOM     68  F   UNL     1       7.639   8.116  -7.617  1.00  0.00    -0.203 F 
ATOM     69  F   UNL     1       5.780   4.022 -10.673  1.00  0.00    -0.200 F 
ATOM     70  C   UNL     1       7.549   5.038  -9.495  1.00  0.00     0.200 A 
ATOM     71  F   UNL     1       9.287   6.132  -8.340  1.00  0.00    -0.200 F 
ATOM     72  F   UNL     1       8.392   4.077  -9.896  1.00  0.00    -0.200 F 
ENDBRANCH  48  62
BRANCH  49  73
ATOM     73  C   UNL     1      -0.692  12.516  -3.925  1.00  0.00     0.064 A 
ATOM     74  C   UNL     1      -1.637  12.293  -2.904  1.00  0.00     0.173 A 
ATOM     75  C   UNL     1       0.371  13.381  -3.646  1.00  0.00     0.173 A 
ATOM     76  F   UNL     1      -2.674  11.467  -3.119  1.00  0.00    -0.203 F 
ATOM     77  C   UNL     1      -1.463  12.821  -1.628  1.00  0.00     0.198 A 
ATOM     78  C   UNL     1       0.532  13.924  -2.371  1.00  0.00     0.198 A 
ATOM     79  F   UNL     1       1.316  13.615  -4.567  1.00  0.00    -0.203 F 
ATOM     80  F   UNL     1      -2.318  12.497  -0.648  1.00  0.00    -0.200 F 
ATOM     81  C   UNL     1      -0.364  13.617  -1.356  1.00  0.00     0.200 A 
ATOM     82  F   UNL     1       1.608  14.677  -2.102  1.00  0.00    -0.200 F 
ATOM     83  F   UNL     1      -0.145  14.056  -0.109  1.00  0.00    -0.200 F 
ENDBRANCH  49  73
BRANCH  61  84
ATOM     84  C   UNL     1       1.907  12.014 -10.666  1.00  0.00     0.064 A 
ATOM     85  C   UNL     1       1.001  12.785 -11.410  1.00  0.00     0.173 A 
ATOM     86  C   UNL     1       3.192  11.852 -11.228  1.00  0.00     0.173 A 
ATOM     87  F   UNL     1      -0.266  12.942 -10.998  1.00  0.00    -0.203 F 
ATOM     88  C   UNL     1       1.371  13.393 -12.612  1.00  0.00     0.198 A 
ATOM     89  C   UNL     1       3.542  12.418 -12.452  1.00  0.00     0.198 A 
ATOM     90  F   UNL     1       4.151  11.161 -10.595  1.00  0.00    -0.203 F 
ATOM     91  F   UNL     1       0.490  14.164 -13.265  1.00  0.00    -0.200 F 
ATOM     92  C   UNL     1       2.636  13.200 -13.138  1.00  0.00     0.200 A 
ATOM     93  F   UNL     1       4.765  12.201 -12.958  1.00  0.00    -0.200 F 
ATOM     94  F   UNL     1       2.982  13.767 -14.301  1.00  0.00    -0.200 F 
ENDBRANCH  61  84
ENDBRANCH  35  36
ENDBRANCH  27  30
ENDBRANCH  25  26
ENDBRANCH  24  25
ENDBRANCH  23  24
ENDBRANCH   1  23
TORSDOF 17
