REMARK SMILES C[C@@H]1[C@H](C(=O)NCCCCCCNC(=O)c2ccc(-c3c4nc(c(-c5c(F)c(F)c(F)c(F)c5F)c5ccc([nH]5)c(-c5c(F)c(F)c(F)c(F)c5F)c5nc(c(-c6c(F)c(F)c(F)c(F)c6F)c6ccc3[nH]6)C=C5)C=C4)cc2)CCN1C(=O)/C=C/c1cccc(Br)c1
REMARK SMILES IDX 9 1 8 2 7 3 6 4 4 5 5 6 3 8 1 9 2 10 81 11 79 12 80 13 82 14
REMARK SMILES IDX 83 15 84 16 85 17 86 18 87 19 92 20 88 21 90 22 89 23 91 24
REMARK SMILES IDX 10 25 11 26 12 27 13 28 14 29 15 31 16 32 17 33 78 34 18 35
REMARK SMILES IDX 77 36 19 37 20 38 21 39 71 40 22 41 76 42 70 43 72 44 23 45
REMARK SMILES IDX 75 46 69 47 68 48 24 50 56 51 36 52 55 53 37 54 40 55 54 56
REMARK SMILES IDX 73 57 38 58 39 59 53 61 74 62 41 63 25 64 26 65 34 66 27 67
REMARK SMILES IDX 28 68 32 69 35 70 29 71 30 72 33 73 31 74 57 75 58 76 66 77
REMARK SMILES IDX 59 78 60 79 64 80 67 81 61 82 62 83 65 84 63 85 42 86 43 87
REMARK SMILES IDX 51 88 44 89 45 90 49 91 52 92 46 93 47 94 50 95 48 96
REMARK H PARENT 6 7 13 30 72 49 40 60
REMARK Flexibility Score: inf
ROOT
ATOM      1  C   UNL     1       3.430   3.007   3.274  1.00  0.00     0.002 C 
ENDROOT
BRANCH   1   2
ATOM      2  C   UNL     1       2.688   1.849   2.612  1.00  0.00     0.021 C 
BRANCH   2   3
ATOM      3  C   UNL     1       1.210   2.111   2.300  1.00  0.00     0.116 C 
BRANCH   3   4
ATOM      4  N   UNL     1       1.046   2.779   1.024  1.00  0.00    -0.356 N 
ATOM      5  C   UNL     1       0.538   2.402  -0.174  1.00  0.00     0.225 C 
ATOM      6  O   UNL     1       0.654   3.229  -1.087  1.00  0.00    -0.275 OA
ATOM      7  H   UNL     1       1.374   3.708   1.029  1.00  0.00     0.163 HD
BRANCH   5   8
ATOM      8  C   UNL     1      -0.118   1.062  -0.485  1.00  0.00     0.102 C 
ATOM      9  C   UNL     1       1.985  -0.272   0.217  1.00  0.00     0.032 C 
ATOM     10  C   UNL     1       0.797  -0.153  -0.718  1.00  0.00     0.094 C 
ATOM     11  N   UNL     1      -0.107  -1.307  -0.579  1.00  0.00    -0.336 N 
ATOM     12  C   UNL     1      -1.237   0.543   0.408  1.00  0.00     0.037 C 
ATOM     13  C   UNL     1      -1.412  -0.893  -0.078  1.00  0.00     0.121 C 
BRANCH  11  14
ATOM     14  C   UNL     1       0.113  -2.638  -0.875  1.00  0.00     0.246 C 
ATOM     15  O   UNL     1      -0.752  -3.499  -0.721  1.00  0.00    -0.270 OA
BRANCH  14  16
ATOM     16  C   UNL     1       1.482  -3.087  -1.249  1.00  0.00     0.072 C 
ATOM     17  C   UNL     1       2.230  -2.557  -2.227  1.00  0.00     0.014 C 
BRANCH  17  18
ATOM     18  C   UNL     1       3.617  -2.966  -2.463  1.00  0.00    -0.024 A 
ATOM     19  C   UNL     1       4.669  -2.337  -1.779  1.00  0.00     0.008 A 
ATOM     20  C   UNL     1       3.909  -3.954  -3.406  1.00  0.00     0.023 A 
ATOM     21  C   UNL     1       5.997  -2.678  -2.046  1.00  0.00     0.002 A 
ATOM     22  C   UNL     1       5.239  -4.285  -3.673  1.00  0.00     0.018 A 
ATOM     23  C   UNL     1       6.284  -3.650  -3.001  1.00  0.00     0.016 A 
ATOM     24  Br  UNL     1       5.631  -5.593  -4.979  1.00  0.00    -0.051 Br
ENDBRANCH  17  18
ENDBRANCH  14  16
ENDBRANCH  11  14
ENDBRANCH   5   8
ENDBRANCH   3   4
ENDBRANCH   2   3
ENDBRANCH   1   2
BRANCH   1  25
ATOM     25  C   UNL     1       2.954   3.361   4.683  1.00  0.00     0.002 C 
BRANCH  25  26
ATOM     26  C   UNL     1       2.859   2.188   5.663  1.00  0.00     0.021 C 
BRANCH  26  27
ATOM     27  C   UNL     1       4.124   1.343   5.799  1.00  0.00     0.116 C 
BRANCH  27  28
ATOM     28  N   UNL     1       5.260   2.126   6.252  1.00  0.00    -0.352 N 
ATOM     29  C   UNL     1       6.022   1.993   7.384  1.00  0.00     0.251 C 
ATOM     30  H   UNL     1       5.522   2.864   5.656  1.00  0.00     0.163 HD
ATOM     31  O   UNL     1       6.813   2.877   7.697  1.00  0.00    -0.269 OA
BRANCH  29  32
ATOM     32  C   UNL     1       5.892   0.793   8.238  1.00  0.00     0.039 A 
ATOM     33  C   UNL     1       5.862   0.960   9.625  1.00  0.00     0.014 A 
ATOM     34  C   UNL     1       5.857  -0.491   7.685  1.00  0.00     0.014 A 
ATOM     35  C   UNL     1       5.760  -0.156  10.456  1.00  0.00     0.010 A 
ATOM     36  C   UNL     1       5.692  -1.600   8.513  1.00  0.00     0.010 A 
ATOM     37  C   UNL     1       5.657  -1.444   9.907  1.00  0.00    -0.014 A 
BRANCH  37  38
ATOM     38  C   UNL     1       5.542  -2.635  10.785  1.00  0.00     0.031 A 
ATOM     39  C   UNL     1       6.658  -3.640  10.847  1.00  0.00     0.074 A 
ATOM     40  C   UNL     1       4.418  -2.828  11.500  1.00  0.00     0.049 A 
ATOM     41  N   UNL     1       6.737  -4.749  11.539  1.00  0.00    -0.248 NA
ATOM     42  C   UNL     1       7.834  -3.375  10.004  1.00  0.00     0.031 C 
ATOM     43  C   UNL     1       3.248  -1.949  11.488  1.00  0.00     0.029 A 
ATOM     44  N   UNL     1       4.074  -3.829  12.374  1.00  0.00    -0.354 N 
ATOM     45  C   UNL     1       7.959  -5.317  11.206  1.00  0.00     0.074 A 
ATOM     46  C   UNL     1       8.568  -4.459  10.213  1.00  0.00     0.031 C 
ATOM     47  C   UNL     1       2.325  -2.436  12.332  1.00  0.00     0.029 A 
ATOM     48  C   UNL     1       2.825  -3.673  12.924  1.00  0.00     0.049 A 
ATOM     49  H   UNL     1       4.666  -4.586  12.586  1.00  0.00     0.167 HD
ATOM     50  C   UNL     1       8.534  -6.439  11.702  1.00  0.00     0.037 A 
ATOM     51  C   UNL     1       2.162  -4.443  13.808  1.00  0.00     0.037 A 
ATOM     52  C   UNL     1       7.939  -7.275  12.711  1.00  0.00     0.049 A 
ATOM     53  C   UNL     1       2.825  -5.680  14.348  1.00  0.00     0.074 A 
ATOM     54  C   UNL     1       8.467  -8.397  13.325  1.00  0.00     0.029 A 
ATOM     55  N   UNL     1       6.678  -7.078  13.255  1.00  0.00    -0.354 N 
ATOM     56  N   UNL     1       4.012  -6.167  14.080  1.00  0.00    -0.248 NA
ATOM     57  C   UNL     1       2.059  -6.469  15.323  1.00  0.00     0.031 C 
ATOM     58  C   UNL     1       7.511  -8.902  14.212  1.00  0.00     0.029 A 
ATOM     59  C   UNL     1       6.403  -8.070  14.183  1.00  0.00     0.049 A 
ATOM     60  H   UNL     1       6.069  -6.342  13.017  1.00  0.00     0.167 HD
ATOM     61  C   UNL     1       4.145  -7.303  14.866  1.00  0.00     0.074 A 
ATOM     62  C   UNL     1       2.924  -7.423  15.636  1.00  0.00     0.031 C 
ATOM     63  C   UNL     1       5.184  -8.171  14.942  1.00  0.00     0.037 A 
BRANCH  50  64
ATOM     64  C   UNL     1       9.881  -6.824  11.165  1.00  0.00     0.064 A 
ATOM     65  C   UNL     1      11.034  -6.085  11.476  1.00  0.00     0.173 A 
ATOM     66  C   UNL     1      10.030  -7.962  10.359  1.00  0.00     0.173 A 
ATOM     67  F   UNL     1      10.944  -4.981  12.233  1.00  0.00    -0.203 F 
ATOM     68  C   UNL     1      12.280  -6.457  10.977  1.00  0.00     0.198 A 
ATOM     69  C   UNL     1      11.281  -8.347   9.886  1.00  0.00     0.198 A 
ATOM     70  F   UNL     1       8.961  -8.706  10.036  1.00  0.00    -0.203 F 
ATOM     71  F   UNL     1      13.358  -5.710  11.249  1.00  0.00    -0.200 F 
ATOM     72  C   UNL     1      12.403  -7.591  10.189  1.00  0.00     0.200 A 
ATOM     73  F   UNL     1      11.402  -9.449   9.133  1.00  0.00    -0.200 F 
ATOM     74  F   UNL     1      13.604  -7.950   9.714  1.00  0.00    -0.200 F 
ENDBRANCH  50  64
BRANCH  51  75
ATOM     75  C   UNL     1       0.805  -4.046  14.262  1.00  0.00     0.064 A 
ATOM     76  C   UNL     1       0.590  -3.589  15.570  1.00  0.00     0.173 A 
ATOM     77  C   UNL     1      -0.302  -4.117  13.405  1.00  0.00     0.173 A 
ATOM     78  F   UNL     1       1.615  -3.524  16.432  1.00  0.00    -0.203 F 
ATOM     79  C   UNL     1      -0.684  -3.236  16.009  1.00  0.00     0.198 A 
ATOM     80  C   UNL     1      -1.572  -3.738  13.837  1.00  0.00     0.198 A 
ATOM     81  F   UNL     1      -0.148  -4.543  12.143  1.00  0.00    -0.203 F 
ATOM     82  F   UNL     1      -0.868  -2.842  17.276  1.00  0.00    -0.200 F 
ATOM     83  C   UNL     1      -1.763  -3.305  15.140  1.00  0.00     0.200 A 
ATOM     84  F   UNL     1      -2.609  -3.794  12.991  1.00  0.00    -0.200 F 
ATOM     85  F   UNL     1      -2.987  -2.961  15.561  1.00  0.00    -0.200 F 
ENDBRANCH  51  75
BRANCH  63  86
ATOM     86  C   UNL     1       5.053  -9.312  15.907  1.00  0.00     0.064 A 
ATOM     87  C   UNL     1       4.198 -10.393  15.653  1.00  0.00     0.173 A 
ATOM     88  C   UNL     1       5.819  -9.340  17.083  1.00  0.00     0.173 A 
ATOM     89  F   UNL     1       3.434 -10.404  14.550  1.00  0.00    -0.203 F 
ATOM     90  C   UNL     1       4.095 -11.450  16.553  1.00  0.00     0.198 A 
ATOM     91  C   UNL     1       5.734 -10.412  17.967  1.00  0.00     0.198 A 
ATOM     92  F   UNL     1       6.657  -8.332  17.368  1.00  0.00    -0.203 F 
ATOM     93  F   UNL     1       3.236 -12.451  16.312  1.00  0.00    -0.200 F 
ATOM     94  C   UNL     1       4.867 -11.462  17.705  1.00  0.00     0.200 A 
ATOM     95  F   UNL     1       6.489 -10.427  19.073  1.00  0.00    -0.200 F 
ATOM     96  F   UNL     1       4.770 -12.483  18.567  1.00  0.00    -0.200 F 
ENDBRANCH  63  86
ENDBRANCH  37  38
ENDBRANCH  29  32
ENDBRANCH  27  28
ENDBRANCH  26  27
ENDBRANCH  25  26
ENDBRANCH   1  25
TORSDOF 16
