REMARK SMILES O=C(NCCCCCCNC(=O)[C@@]1([NH2+]C2CC2)CC[C@@H]([N@@H+]2CC[N@@H+]3CCC[C@@H]3C2)C1)c1ccc(-c2c3nc(c(-c4c(F)c(F)c(F)c(F)c4F)c4ccc([nH]4)c(-c4c(F)c(F)c(F)c(F)c4F)c4nc(c(-c5c(F)c(F)c(F)c(F)c5F)c5ccc2[nH]5)C=C4)C=C3)cc1
REMARK SMILES IDX 6 1 5 2 4 3 3 4 1 5 2 6 31 8 32 9 93 10 33 11 92 12 34 13
REMARK SMILES IDX 35 14 36 15 86 16 37 17 91 18 85 19 87 20 38 21 90 22 84 23
REMARK SMILES IDX 83 24 39 26 71 27 51 28 70 29 52 30 55 31 69 32 88 33 53 34
REMARK SMILES IDX 54 35 68 37 89 38 56 39 40 40 41 41 49 42 42 43 43 44 47 45
REMARK SMILES IDX 50 46 44 47 45 48 48 49 46 50 72 51 73 52 81 53 74 54 75 55
REMARK SMILES IDX 79 56 82 57 76 58 77 59 80 60 78 61 57 62 58 63 66 64 59 65
REMARK SMILES IDX 60 66 64 67 67 68 61 69 62 70 65 71 63 72 7 73 8 74 9 75
REMARK SMILES IDX 10 76 11 77 12 79 13 80 18 81 30 82 19 83 20 84 14 85 15 88
REMARK SMILES IDX 16 89 17 90 21 91 22 92 29 93 23 95 28 96 24 97 27 98 25 99
REMARK SMILES IDX 26 101
REMARK H PARENT 3 7 87 25 55 36 10 78 14 86 14 87 21 94 24 100
REMARK Flexibility Score: inf
ROOT
ATOM      1  C   UNL     1       3.638   2.719  -2.702  1.00  0.00     0.002 C 
ENDROOT
BRANCH   1   2
ATOM      2  C   UNL     1       4.238   1.396  -2.227  1.00  0.00     0.021 C 
BRANCH   2   3
ATOM      3  C   UNL     1       4.199   1.181  -0.718  1.00  0.00     0.116 C 
BRANCH   3   4
ATOM      4  N   UNL     1       2.840   1.067  -0.219  1.00  0.00    -0.352 N 
ATOM      5  O   UNL     1       0.979  -0.051   0.417  1.00  0.00    -0.269 OA
ATOM      6  C   UNL     1       2.191  -0.047   0.257  1.00  0.00     0.251 C 
ATOM      7  H   UNL     1       2.313   1.899  -0.222  1.00  0.00     0.163 HD
BRANCH   6   8
ATOM      8  C   UNL     1       2.987  -1.250   0.573  1.00  0.00     0.039 A 
ATOM      9  C   UNL     1       4.160  -1.126   1.321  1.00  0.00     0.014 A 
ATOM     10  C   UNL     1       2.561  -2.502   0.126  1.00  0.00     0.014 A 
ATOM     11  C   UNL     1       4.975  -2.231   1.508  1.00  0.00     0.010 A 
ATOM     12  C   UNL     1       3.332  -3.633   0.407  1.00  0.00     0.010 A 
ATOM     13  C   UNL     1       4.551  -3.504   1.091  1.00  0.00    -0.014 A 
BRANCH  13  14
ATOM     14  C   UNL     1       5.349  -4.686   1.498  1.00  0.00     0.031 A 
ATOM     15  C   UNL     1       6.019  -5.571   0.488  1.00  0.00     0.074 A 
ATOM     16  C   UNL     1       5.484  -4.928   2.817  1.00  0.00     0.049 A 
ATOM     17  N   UNL     1       6.766  -6.628   0.691  1.00  0.00    -0.248 NA
ATOM     18  C   UNL     1       5.825  -5.238  -0.930  1.00  0.00     0.031 C 
ATOM     19  C   UNL     1       4.858  -4.138   3.883  1.00  0.00     0.029 A 
ATOM     20  N   UNL     1       6.198  -5.883   3.491  1.00  0.00    -0.354 N 
ATOM     21  C   UNL     1       7.123  -7.091  -0.568  1.00  0.00     0.074 A 
ATOM     22  C   UNL     1       6.486  -6.219  -1.532  1.00  0.00     0.031 C 
ATOM     23  C   UNL     1       5.259  -4.605   5.072  1.00  0.00     0.029 A 
ATOM     24  C   UNL     1       6.100  -5.774   4.857  1.00  0.00     0.049 A 
ATOM     25  H   UNL     1       6.730  -6.578   3.041  1.00  0.00     0.167 HD
ATOM     26  C   UNL     1       7.917  -8.144  -0.882  1.00  0.00     0.037 A 
ATOM     27  C   UNL     1       6.608  -6.548   5.832  1.00  0.00     0.037 A 
ATOM     28  C   UNL     1       8.544  -9.004   0.092  1.00  0.00     0.049 A 
ATOM     29  C   UNL     1       7.448  -7.731   5.446  1.00  0.00     0.074 A 
ATOM     30  C   UNL     1       9.385 -10.083  -0.124  1.00  0.00     0.029 A 
ATOM     31  N   UNL     1       8.394  -8.887   1.467  1.00  0.00    -0.354 N 
ATOM     32  N   UNL     1       7.810  -8.135   4.253  1.00  0.00    -0.248 NA
ATOM     33  C   UNL     1       7.949  -8.567   6.543  1.00  0.00     0.031 C 
ATOM     34  C   UNL     1       9.697 -10.651   1.115  1.00  0.00     0.029 A 
ATOM     35  C   UNL     1       9.105  -9.890   2.109  1.00  0.00     0.049 A 
ATOM     36  H   UNL     1       7.862  -8.194   1.920  1.00  0.00     0.167 HD
ATOM     37  C   UNL     1       8.595  -9.260   4.455  1.00  0.00     0.074 A 
ATOM     38  C   UNL     1       8.684  -9.453   5.888  1.00  0.00     0.031 C 
ATOM     39  C   UNL     1       9.182 -10.067   3.537  1.00  0.00     0.037 A 
BRANCH  26  40
ATOM     40  C   UNL     1       8.149  -8.443  -2.336  1.00  0.00     0.064 A 
ATOM     41  C   UNL     1       8.940  -7.612  -3.143  1.00  0.00     0.173 A 
ATOM     42  C   UNL     1       7.635  -9.616  -2.912  1.00  0.00     0.173 A 
ATOM     43  F   UNL     1       9.448  -6.474  -2.646  1.00  0.00    -0.203 F 
ATOM     44  C   UNL     1       9.196  -7.935  -4.474  1.00  0.00     0.198 A 
ATOM     45  C   UNL     1       7.917  -9.951  -4.234  1.00  0.00     0.198 A 
ATOM     46  F   UNL     1       6.877 -10.451  -2.185  1.00  0.00    -0.203 F 
ATOM     47  F   UNL     1       9.926  -7.108  -5.234  1.00  0.00    -0.200 F 
ATOM     48  C   UNL     1       8.693  -9.109  -5.015  1.00  0.00     0.200 A 
ATOM     49  F   UNL     1       7.442 -11.093  -4.751  1.00  0.00    -0.200 F 
ATOM     50  F   UNL     1       8.954  -9.426  -6.291  1.00  0.00    -0.200 F 
ENDBRANCH  26  40
BRANCH  27  51
ATOM     51  C   UNL     1       6.313  -6.243   7.257  1.00  0.00     0.064 A 
ATOM     52  C   UNL     1       7.331  -5.867   8.144  1.00  0.00     0.173 A 
ATOM     53  C   UNL     1       5.008  -6.339   7.765  1.00  0.00     0.173 A 
ATOM     54  F   UNL     1       8.597  -5.776   7.711  1.00  0.00    -0.203 F 
ATOM     55  C   UNL     1       7.060  -5.631   9.490  1.00  0.00     0.198 A 
ATOM     56  C   UNL     1       4.733  -6.063   9.102  1.00  0.00     0.198 A 
ATOM     57  F   UNL     1       3.996  -6.686   6.957  1.00  0.00    -0.203 F 
ATOM     58  F   UNL     1       8.061  -5.334  10.329  1.00  0.00    -0.200 F 
ATOM     59  C   UNL     1       5.761  -5.723   9.967  1.00  0.00     0.200 A 
ATOM     60  F   UNL     1       3.472  -6.132   9.551  1.00  0.00    -0.200 F 
ATOM     61  F   UNL     1       5.502  -5.495  11.261  1.00  0.00    -0.200 F 
ENDBRANCH  27  51
BRANCH  39  62
ATOM     62  C   UNL     1       9.998 -11.211   4.067  1.00  0.00     0.064 A 
ATOM     63  C   UNL     1       9.402 -12.306   4.712  1.00  0.00     0.173 A 
ATOM     64  C   UNL     1      11.394 -11.213   3.925  1.00  0.00     0.173 A 
ATOM     65  F   UNL     1       8.072 -12.343   4.889  1.00  0.00    -0.203 F 
ATOM     66  C   UNL     1      10.177 -13.339   5.231  1.00  0.00     0.198 A 
ATOM     67  C   UNL     1      12.162 -12.267   4.412  1.00  0.00     0.198 A 
ATOM     68  F   UNL     1      12.014 -10.194   3.312  1.00  0.00    -0.203 F 
ATOM     69  F   UNL     1       9.591 -14.340   5.903  1.00  0.00    -0.200 F 
ATOM     70  C   UNL     1      11.555 -13.322   5.075  1.00  0.00     0.200 A 
ATOM     71  F   UNL     1      13.492 -12.256   4.247  1.00  0.00    -0.200 F 
ATOM     72  F   UNL     1      12.299 -14.318   5.575  1.00  0.00    -0.200 F 
ENDBRANCH  39  62
ENDBRANCH  13  14
ENDBRANCH   6   8
ENDBRANCH   3   4
ENDBRANCH   2   3
ENDBRANCH   1   2
BRANCH   1  73
ATOM     73  C   UNL     1       4.164   3.967  -1.994  1.00  0.00     0.002 C 
BRANCH  73  74
ATOM     74  C   UNL     1       5.683   4.073  -1.890  1.00  0.00     0.021 C 
BRANCH  74  75
ATOM     75  C   UNL     1       6.441   4.377  -3.192  1.00  0.00     0.116 C 
BRANCH  75  76
ATOM     76  N   UNL     1       6.589   5.814  -3.352  1.00  0.00    -0.351 N 
ATOM     77  C   UNL     1       7.612   6.694  -3.157  1.00  0.00     0.281 C 
ATOM     78  H   UNL     1       5.767   6.249  -3.674  1.00  0.00     0.163 HD
ATOM     79  O   UNL     1       7.242   7.875  -3.058  1.00  0.00    -0.268 OA
BRANCH  77  80
ATOM     80  C   UNL     1       9.140   6.341  -3.151  1.00  0.00     0.181 C 
ATOM     81  C   UNL     1       9.594   5.091  -3.915  1.00  0.00     0.085 C 
ATOM     82  C   UNL     1       9.761   7.430  -4.095  1.00  0.00     0.144 C 
ATOM     83  C   UNL     1      11.035   5.364  -4.349  1.00  0.00     0.072 C 
ATOM     84  C   UNL     1      11.114   6.882  -4.586  1.00  0.00     0.191 C 
BRANCH  80  85
ATOM     85  N   UNL     1       9.821   6.597  -1.860  1.00  0.00    -0.331 N 
ATOM     86  H   UNL     1       9.645   7.582  -1.661  1.00  0.00     0.347 HD
ATOM     87  H   UNL     1      10.742   6.220  -2.085  1.00  0.00     0.347 HD
BRANCH  85  88
ATOM     88  C   UNL     1       9.595   5.916  -0.600  1.00  0.00     0.183 C 
ATOM     89  C   UNL     1       8.486   4.974  -0.334  1.00  0.00     0.071 C 
ATOM     90  C   UNL     1       9.884   4.451  -0.411  1.00  0.00     0.071 C 
ENDBRANCH  85  88
ENDBRANCH  80  85
BRANCH  84  91
ATOM     91  N   UNL     1      11.499   7.265  -5.948  1.00  0.00    -0.323 N 
ATOM     92  C   UNL     1      11.885   8.689  -6.050  1.00  0.00     0.324 C 
ATOM     93  C   UNL     1      10.556   6.880  -7.002  1.00  0.00     0.328 C 
ATOM     94  H   UNL     1      12.329   6.700  -6.130  1.00  0.00     0.348 HD
ATOM     95  C   UNL     1      11.515   9.424  -7.367  1.00  0.00     0.324 C 
ATOM     96  C   UNL     1      11.094   7.229  -8.402  1.00  0.00     0.240 C 
ATOM     97  N   UNL     1      11.562   8.617  -8.592  1.00  0.00    -0.323 N 
ATOM     98  C   UNL     1      10.039   6.987  -9.481  1.00  0.00     0.077 C 
ATOM     99  C   UNL     1      10.791   9.219  -9.685  1.00  0.00     0.263 C 
ATOM    100  H   UNL     1      12.551   8.595  -8.838  1.00  0.00     0.348 HD
ATOM    101  C   UNL     1      10.351   8.036 -10.528  1.00  0.00     0.068 C 
ENDBRANCH  84  91
ENDBRANCH  77  80
ENDBRANCH  75  76
ENDBRANCH  74  75
ENDBRANCH  73  74
ENDBRANCH   1  73
TORSDOF 16
