REMARK SMILES Cc1ccc2c(=O)c3cccc(CC(=O)NCCCCCCNC(=O)c4ccc(-c5c6nc(c(-c7c(F)c(F)c(F)c(F)c7F)c7ccc([nH]7)c(-c7c(F)c(F)c(F)c(F)c7F)c7nc(c(-c8c(F)c(F)c(F)c(F)c8F)c8ccc5[nH]8)C=C7)C=C6)cc4)c3oc2c1C
REMARK SMILES IDX 20 1 19 2 18 3 17 4 16 5 14 6 15 7 13 9 12 10 1 11 2 12 3 13
REMARK SMILES IDX 92 14 4 15 91 16 93 17 5 18 90 19 6 20 89 21 7 22 8 23 9 24
REMARK SMILES IDX 11 25 10 26 21 27 22 28 23 29 24 30 25 32 26 33 27 34 88 35
REMARK SMILES IDX 28 36 87 37 29 38 30 39 31 40 81 41 32 42 86 43 80 44 82 45
REMARK SMILES IDX 33 46 85 47 79 48 78 49 34 51 66 52 46 53 65 54 47 55 50 56
REMARK SMILES IDX 64 57 83 58 48 59 49 60 63 62 84 63 51 64 35 65 36 66 44 67
REMARK SMILES IDX 37 68 38 69 42 70 45 71 39 72 40 73 43 74 41 75 67 76 68 77
REMARK SMILES IDX 76 78 69 79 70 80 74 81 77 82 71 83 72 84 75 85 73 86 52 87
REMARK SMILES IDX 53 88 61 89 54 90 55 91 59 92 62 93 56 94 57 95 60 96 58 97
REMARK H PARENT 16 8 23 31 82 50 50 61
REMARK Flexibility Score: inf
ROOT
ATOM      1  C   UNL     1       3.716   4.097   8.842  1.00  0.00     0.002 C 
ENDROOT
BRANCH   1   2
ATOM      2  C   UNL     1       3.116   3.014   7.937  1.00  0.00     0.002 C 
BRANCH   2   3
ATOM      3  C   UNL     1       1.611   2.764   8.109  1.00  0.00     0.021 C 
BRANCH   3   4
ATOM      4  C   UNL     1       0.740   3.997   7.863  1.00  0.00     0.116 C 
BRANCH   4   5
ATOM      5  N   UNL     1       0.742   4.377   6.465  1.00  0.00    -0.356 N 
ATOM      6  C   UNL     1      -0.224   4.210   5.516  1.00  0.00     0.224 C 
ATOM      7  O   UNL     1       0.015   4.606   4.373  1.00  0.00    -0.275 OA
ATOM      8  H   UNL     1       1.562   4.822   6.153  1.00  0.00     0.163 HD
BRANCH   6   9
ATOM      9  C   UNL     1      -1.585   3.645   5.886  1.00  0.00     0.139 C 
BRANCH   9  10
ATOM     10  C   UNL     1      -1.597   2.213   6.378  1.00  0.00     0.005 A 
ATOM     11  C   UNL     1       1.075   0.052  -0.075  1.00  0.00     0.045 C 
ATOM     12  C   UNL     1       0.617  -0.238   1.329  1.00  0.00    -0.044 A 
ATOM     13  C   UNL     1       0.630  -1.575   1.764  1.00  0.00     0.005 A 
ATOM     14  C   UNL     1       0.222   0.781   2.227  1.00  0.00    -0.005 A 
ATOM     15  C   UNL     1       0.232  -1.911   3.055  1.00  0.00     0.016 A 
ATOM     16  C   UNL     1      -0.202   0.427   3.526  1.00  0.00     0.141 A 
ATOM     17  C   UNL     1       0.230   2.240   1.841  1.00  0.00     0.049 C 
ATOM     18  C   UNL     1      -0.188  -0.908   3.927  1.00  0.00     0.066 A 
ATOM     19  O   UNL     1      -0.617   1.450   4.352  1.00  0.00    -0.455 OA
ATOM     20  C   UNL     1      -0.626  -1.248   5.285  1.00  0.00     0.200 A 
ATOM     21  C   UNL     1      -1.106   1.150   5.601  1.00  0.00     0.142 A 
ATOM     22  O   UNL     1      -0.579  -2.396   5.710  1.00  0.00    -0.288 OA
ATOM     23  C   UNL     1      -1.134  -0.148   6.113  1.00  0.00     0.066 A 
ATOM     24  C   UNL     1      -1.649  -0.411   7.386  1.00  0.00     0.016 A 
ATOM     25  C   UNL     1      -2.151   1.930   7.642  1.00  0.00     0.008 A 
ATOM     26  C   UNL     1      -2.164   0.631   8.148  1.00  0.00     0.001 A 
ENDBRANCH   9  10
ENDBRANCH   6   9
ENDBRANCH   4   5
ENDBRANCH   3   4
ENDBRANCH   2   3
ENDBRANCH   1   2
BRANCH   1  27
ATOM     27  C   UNL     1       3.464   3.914  10.339  1.00  0.00     0.021 C 
BRANCH  27  28
ATOM     28  C   UNL     1       4.022   2.624  10.931  1.00  0.00     0.116 C 
BRANCH  28  29
ATOM     29  N   UNL     1       5.477   2.584  10.928  1.00  0.00    -0.352 N 
ATOM     30  C   UNL     1       6.340   2.231  11.939  1.00  0.00     0.251 C 
ATOM     31  H   UNL     1       5.904   2.847  10.081  1.00  0.00     0.163 HD
ATOM     32  O   UNL     1       7.550   2.392  11.806  1.00  0.00    -0.269 OA
BRANCH  30  33
ATOM     33  C   UNL     1       5.804   1.692  13.209  1.00  0.00     0.039 A 
ATOM     34  C   UNL     1       4.795   0.728  13.206  1.00  0.00     0.014 A 
ATOM     35  C   UNL     1       6.307   2.176  14.421  1.00  0.00     0.014 A 
ATOM     36  C   UNL     1       4.173   0.379  14.400  1.00  0.00     0.010 A 
ATOM     37  C   UNL     1       5.736   1.759  15.627  1.00  0.00     0.010 A 
ATOM     38  C   UNL     1       4.628   0.897  15.624  1.00  0.00    -0.014 A 
BRANCH  38  39
ATOM     39  C   UNL     1       3.916   0.531  16.877  1.00  0.00     0.031 A 
ATOM     40  C   UNL     1       3.175   1.571  17.674  1.00  0.00     0.074 A 
ATOM     41  C   UNL     1       3.881  -0.760  17.261  1.00  0.00     0.049 A 
ATOM     42  N   UNL     1       2.454   1.421  18.758  1.00  0.00    -0.248 NA
ATOM     43  C   UNL     1       3.251   2.961  17.198  1.00  0.00     0.031 C 
ATOM     44  C   UNL     1       4.560  -1.858  16.572  1.00  0.00     0.029 A 
ATOM     45  N   UNL     1       3.228  -1.372  18.300  1.00  0.00    -0.354 N 
ATOM     46  C   UNL     1       2.008   2.691  19.100  1.00  0.00     0.074 A 
ATOM     47  C   UNL     1       2.562   3.608  18.128  1.00  0.00     0.031 C 
ATOM     48  C   UNL     1       4.242  -3.015  17.171  1.00  0.00     0.029 A 
ATOM     49  C   UNL     1       3.385  -2.736  18.319  1.00  0.00     0.049 A 
ATOM     50  H   UNL     1       2.697  -0.881  18.968  1.00  0.00     0.167 HD
ATOM     51  C   UNL     1       1.198   3.055  20.122  1.00  0.00     0.037 A 
ATOM     52  C   UNL     1       2.899  -3.662  19.168  1.00  0.00     0.037 A 
ATOM     53  C   UNL     1       0.620   2.137  21.069  1.00  0.00     0.049 A 
ATOM     54  C   UNL     1       2.025  -3.225  20.310  1.00  0.00     0.074 A 
ATOM     55  C   UNL     1      -0.249   2.410  22.111  1.00  0.00     0.029 A 
ATOM     56  N   UNL     1       0.851   0.770  21.087  1.00  0.00    -0.354 N 
ATOM     57  N   UNL     1       1.591  -2.024  20.604  1.00  0.00    -0.248 NA
ATOM     58  C   UNL     1       1.582  -4.270  21.243  1.00  0.00     0.031 C 
ATOM     59  C   UNL     1      -0.511   1.215  22.787  1.00  0.00     0.029 A 
ATOM     60  C   UNL     1       0.161   0.190  22.140  1.00  0.00     0.049 A 
ATOM     61  H   UNL     1       1.420   0.284  20.448  1.00  0.00     0.167 HD
ATOM     62  C   UNL     1       0.823  -2.167  21.750  1.00  0.00     0.074 A 
ATOM     63  C   UNL     1       0.827  -3.576  22.085  1.00  0.00     0.031 C 
ATOM     64  C   UNL     1       0.179  -1.213  22.464  1.00  0.00     0.037 A 
BRANCH  51  65
ATOM     65  C   UNL     1       0.875   4.511  20.281  1.00  0.00     0.064 A 
ATOM     66  C   UNL     1      -0.013   5.165  19.415  1.00  0.00     0.173 A 
ATOM     67  C   UNL     1       1.395   5.240  21.363  1.00  0.00     0.173 A 
ATOM     68  F   UNL     1      -0.529   4.516  18.361  1.00  0.00    -0.203 F 
ATOM     69  C   UNL     1      -0.361   6.498  19.620  1.00  0.00     0.198 A 
ATOM     70  C   UNL     1       1.025   6.565  21.578  1.00  0.00     0.198 A 
ATOM     71  F   UNL     1       2.242   4.658  22.225  1.00  0.00    -0.203 F 
ATOM     72  F   UNL     1      -1.192   7.110  18.765  1.00  0.00    -0.200 F 
ATOM     73  C   UNL     1       0.150   7.193  20.706  1.00  0.00     0.200 A 
ATOM     74  F   UNL     1       1.509   7.231  22.636  1.00  0.00    -0.200 F 
ATOM     75  F   UNL     1      -0.201   8.470  20.911  1.00  0.00    -0.200 F 
ENDBRANCH  51  65
BRANCH  52  76
ATOM     76  C   UNL     1       3.231  -5.094  18.959  1.00  0.00     0.064 A 
ATOM     77  C   UNL     1       2.254  -6.007  18.541  1.00  0.00     0.173 A 
ATOM     78  C   UNL     1       4.537  -5.572  19.142  1.00  0.00     0.173 A 
ATOM     79  F   UNL     1       0.987  -5.601  18.372  1.00  0.00    -0.203 F 
ATOM     80  C   UNL     1       2.570  -7.345  18.318  1.00  0.00     0.198 A 
ATOM     81  C   UNL     1       4.858  -6.904  18.892  1.00  0.00     0.198 A 
ATOM     82  F   UNL     1       5.508  -4.736  19.539  1.00  0.00    -0.203 F 
ATOM     83  F   UNL     1       1.611  -8.205  17.947  1.00  0.00    -0.200 F 
ATOM     84  C   UNL     1       3.873  -7.790  18.485  1.00  0.00     0.200 A 
ATOM     85  F   UNL     1       6.121  -7.325  19.039  1.00  0.00    -0.200 F 
ATOM     86  F   UNL     1       4.179  -9.075  18.256  1.00  0.00    -0.200 F 
ENDBRANCH  52  76
BRANCH  64  87
ATOM     87  C   UNL     1      -0.575  -1.651  23.684  1.00  0.00     0.064 A 
ATOM     88  C   UNL     1       0.095  -2.005  24.864  1.00  0.00     0.173 A 
ATOM     89  C   UNL     1      -1.977  -1.642  23.699  1.00  0.00     0.173 A 
ATOM     90  F   UNL     1       1.436  -2.040  24.893  1.00  0.00    -0.203 F 
ATOM     91  C   UNL     1      -0.613  -2.342  26.014  1.00  0.00     0.198 A 
ATOM     92  C   UNL     1      -2.682  -1.956  24.858  1.00  0.00     0.198 A 
ATOM     93  F   UNL     1      -2.663  -1.304  22.597  1.00  0.00    -0.203 F 
ATOM     94  F   UNL     1       0.047  -2.703  27.123  1.00  0.00    -0.200 F 
ATOM     95  C   UNL     1      -2.000  -2.308  26.012  1.00  0.00     0.200 A 
ATOM     96  F   UNL     1      -4.021  -1.909  24.859  1.00  0.00    -0.200 F 
ATOM     97  F   UNL     1      -2.679  -2.616  27.126  1.00  0.00    -0.200 F 
ENDBRANCH  64  87
ENDBRANCH  38  39
ENDBRANCH  30  33
ENDBRANCH  28  29
ENDBRANCH  27  28
ENDBRANCH   1  27
TORSDOF 14
