REMARK SMILES O=C(NCCCCCCNC(=O)[C@H](c1cnn(Cc2ccccc2)c1)[NH+]1CCOCC1)c1ccc(-c2c3nc(c(-c4c(F)c(F)c(F)c(F)c4F)c4ccc([nH]4)c(-c4c(F)c(F)c(F)c(F)c4F)c4nc(c(-c5c(F)c(F)c(F)c(F)c5F)c5ccc2[nH]5)C=C4)C=C3)cc1
REMARK SMILES IDX 7 1 6 2 5 3 4 4 3 5 1 6 2 7 32 9 33 10 94 11 34 12 93 13
REMARK SMILES IDX 35 14 36 15 37 16 87 17 38 18 92 19 86 20 88 21 39 22 91 23
REMARK SMILES IDX 85 24 84 25 40 27 72 28 52 29 71 30 53 31 56 32 70 33 89 34
REMARK SMILES IDX 54 35 55 36 69 38 90 39 57 40 41 41 42 42 50 43 43 44 44 45
REMARK SMILES IDX 48 46 51 47 45 48 46 49 49 50 47 51 73 52 74 53 82 54 75 55
REMARK SMILES IDX 76 56 80 57 83 58 77 59 78 60 81 61 79 62 58 63 59 64 67 65
REMARK SMILES IDX 60 66 61 67 65 68 68 69 62 70 63 71 66 72 64 73 8 74 9 75
REMARK SMILES IDX 10 76 11 77 12 79 13 80 26 81 27 82 31 83 28 85 30 86 29 87
REMARK SMILES IDX 14 88 15 89 25 90 16 91 17 92 18 93 19 94 20 95 24 96 21 97
REMARK SMILES IDX 23 98 22 99
REMARK H PARENT 3 8 88 26 56 37 10 78 26 84
REMARK Flexibility Score: inf
ROOT
ATOM      1  C   UNL     1       7.041  -0.576   2.622  1.00  0.00     0.002 C 
ENDROOT
BRANCH   1   2
ATOM      2  C   UNL     1       5.783  -1.089   3.337  1.00  0.00     0.002 C 
BRANCH   2   3
ATOM      3  C   UNL     1       4.473  -0.304   3.164  1.00  0.00     0.021 C 
BRANCH   3   4
ATOM      4  C   UNL     1       4.043   0.001   1.731  1.00  0.00     0.116 C 
BRANCH   4   5
ATOM      5  N   UNL     1       3.998  -1.147   0.851  1.00  0.00    -0.352 N 
ATOM      6  O   UNL     1       3.409  -2.874  -0.376  1.00  0.00    -0.269 OA
ATOM      7  C   UNL     1       3.095  -2.129   0.546  1.00  0.00     0.251 C 
ATOM      8  H   UNL     1       4.833  -1.247   0.339  1.00  0.00     0.163 HD
BRANCH   7   9
ATOM      9  C   UNL     1       1.812  -2.389   1.260  1.00  0.00     0.039 A 
ATOM     10  C   UNL     1       1.152  -1.517   2.124  1.00  0.00     0.014 A 
ATOM     11  C   UNL     1       1.218  -3.642   0.996  1.00  0.00     0.014 A 
ATOM     12  C   UNL     1      -0.046  -1.906   2.736  1.00  0.00     0.010 A 
ATOM     13  C   UNL     1       0.026  -4.035   1.602  1.00  0.00     0.010 A 
ATOM     14  C   UNL     1      -0.604  -3.170   2.488  1.00  0.00    -0.014 A 
BRANCH  14  15
ATOM     15  C   UNL     1      -1.950  -3.455   2.997  1.00  0.00     0.031 A 
ATOM     16  C   UNL     1      -3.013  -2.589   2.409  1.00  0.00     0.074 A 
ATOM     17  C   UNL     1      -2.292  -4.486   3.800  1.00  0.00     0.049 A 
ATOM     18  N   UNL     1      -3.781  -1.749   3.022  1.00  0.00    -0.248 NA
ATOM     19  C   UNL     1      -3.177  -2.588   0.947  1.00  0.00     0.031 C 
ATOM     20  C   UNL     1      -1.458  -5.612   4.220  1.00  0.00     0.029 A 
ATOM     21  N   UNL     1      -3.511  -4.786   4.349  1.00  0.00    -0.354 N 
ATOM     22  C   UNL     1      -4.637  -1.224   2.055  1.00  0.00     0.074 A 
ATOM     23  C   UNL     1      -4.134  -1.673   0.784  1.00  0.00     0.031 C 
ATOM     24  C   UNL     1      -2.239  -6.565   4.781  1.00  0.00     0.029 A 
ATOM     25  C   UNL     1      -3.602  -6.069   4.883  1.00  0.00     0.049 A 
ATOM     26  H   UNL     1      -4.260  -4.148   4.365  1.00  0.00     0.167 HD
ATOM     27  C   UNL     1      -5.817  -0.639   2.405  1.00  0.00     0.037 A 
ATOM     28  C   UNL     1      -4.721  -6.692   5.338  1.00  0.00     0.037 A 
ATOM     29  C   UNL     1      -5.807  -0.257   3.795  1.00  0.00     0.049 A 
ATOM     30  C   UNL     1      -5.733  -5.652   5.628  1.00  0.00     0.074 A 
ATOM     31  C   UNL     1      -5.045   0.590   4.576  1.00  0.00     0.029 A 
ATOM     32  N   UNL     1      -6.500  -1.048   4.674  1.00  0.00    -0.354 N 
ATOM     33  N   UNL     1      -5.663  -4.816   6.622  1.00  0.00    -0.248 NA
ATOM     34  C   UNL     1      -6.671  -5.298   4.575  1.00  0.00     0.031 C 
ATOM     35  C   UNL     1      -4.962  -0.051   5.848  1.00  0.00     0.029 A 
ATOM     36  C   UNL     1      -5.724  -1.218   5.786  1.00  0.00     0.049 A 
ATOM     37  H   UNL     1      -7.397  -1.426   4.530  1.00  0.00     0.167 HD
ATOM     38  C   UNL     1      -6.174  -3.635   6.111  1.00  0.00     0.074 A 
ATOM     39  C   UNL     1      -6.894  -4.024   4.903  1.00  0.00     0.031 C 
ATOM     40  C   UNL     1      -5.717  -2.432   6.563  1.00  0.00     0.037 A 
BRANCH  27  41
ATOM     41  C   UNL     1      -7.114  -0.781   1.632  1.00  0.00     0.064 A 
ATOM     42  C   UNL     1      -8.270  -0.132   2.123  1.00  0.00     0.173 A 
ATOM     43  C   UNL     1      -7.353  -1.775   0.659  1.00  0.00     0.173 A 
ATOM     44  F   UNL     1      -8.172   0.837   3.046  1.00  0.00    -0.203 F 
ATOM     45  C   UNL     1      -9.558  -0.540   1.767  1.00  0.00     0.198 A 
ATOM     46  C   UNL     1      -8.640  -2.143   0.268  1.00  0.00     0.198 A 
ATOM     47  F   UNL     1      -6.370  -2.508   0.126  1.00  0.00    -0.203 F 
ATOM     48  F   UNL     1     -10.620   0.001   2.381  1.00  0.00    -0.200 F 
ATOM     49  C   UNL     1      -9.742  -1.557   0.851  1.00  0.00     0.200 A 
ATOM     50  F   UNL     1      -8.799  -3.139  -0.616  1.00  0.00    -0.200 F 
ATOM     51  F   UNL     1     -10.972  -2.004   0.567  1.00  0.00    -0.200 F 
ENDBRANCH  27  41
BRANCH  28  52
ATOM     52  C   UNL     1      -5.092  -8.130   5.328  1.00  0.00     0.064 A 
ATOM     53  C   UNL     1      -6.158  -8.613   6.111  1.00  0.00     0.173 A 
ATOM     54  C   UNL     1      -4.618  -8.993   4.324  1.00  0.00     0.173 A 
ATOM     55  F   UNL     1      -6.700  -7.842   7.065  1.00  0.00    -0.203 F 
ATOM     56  C   UNL     1      -6.739  -9.864   5.875  1.00  0.00     0.198 A 
ATOM     57  C   UNL     1      -5.194 -10.245   4.093  1.00  0.00     0.198 A 
ATOM     58  F   UNL     1      -3.656  -8.597   3.479  1.00  0.00    -0.203 F 
ATOM     59  F   UNL     1      -7.801 -10.255   6.593  1.00  0.00    -0.200 F 
ATOM     60  C   UNL     1      -6.265 -10.672   4.856  1.00  0.00     0.200 A 
ATOM     61  F   UNL     1      -4.752 -11.003   3.080  1.00  0.00    -0.200 F 
ATOM     62  F   UNL     1      -6.866 -11.839   4.582  1.00  0.00    -0.200 F 
ENDBRANCH  28  52
BRANCH  40  63
ATOM     63  C   UNL     1      -4.957  -2.411   7.857  1.00  0.00     0.064 A 
ATOM     64  C   UNL     1      -3.750  -3.093   8.090  1.00  0.00     0.173 A 
ATOM     65  C   UNL     1      -5.427  -1.564   8.871  1.00  0.00     0.173 A 
ATOM     66  F   UNL     1      -3.181  -3.843   7.136  1.00  0.00    -0.203 F 
ATOM     67  C   UNL     1      -3.078  -2.969   9.305  1.00  0.00     0.198 A 
ATOM     68  C   UNL     1      -4.731  -1.409  10.065  1.00  0.00     0.198 A 
ATOM     69  F   UNL     1      -6.550  -0.851   8.685  1.00  0.00    -0.203 F 
ATOM     70  F   UNL     1      -1.940  -3.647   9.517  1.00  0.00    -0.200 F 
ATOM     71  C   UNL     1      -3.565  -2.121  10.287  1.00  0.00     0.200 A 
ATOM     72  F   UNL     1      -5.181  -0.550  10.990  1.00  0.00    -0.200 F 
ATOM     73  F   UNL     1      -2.897  -1.970  11.439  1.00  0.00    -0.200 F 
ENDBRANCH  40  63
ENDBRANCH  14  15
ENDBRANCH   7   9
ENDBRANCH   4   5
ENDBRANCH   3   4
ENDBRANCH   2   3
ENDBRANCH   1   2
BRANCH   1  74
ATOM     74  C   UNL     1       7.434   0.880   2.843  1.00  0.00     0.021 C 
BRANCH  74  75
ATOM     75  C   UNL     1       7.582   1.336   4.282  1.00  0.00     0.116 C 
BRANCH  75  76
ATOM     76  N   UNL     1       8.787   1.025   4.993  1.00  0.00    -0.351 N 
ATOM     77  C   UNL     1       9.305   1.733   6.054  1.00  0.00     0.283 C 
ATOM     78  H   UNL     1       9.290   0.232   4.696  1.00  0.00     0.163 HD
ATOM     79  O   UNL     1      10.275   1.225   6.636  1.00  0.00    -0.268 OA
BRANCH  77  80
ATOM     80  C   UNL     1       8.777   3.153   6.495  1.00  0.00     0.308 C 
BRANCH  80  81
ATOM     81  N   UNL     1       9.256   4.179   5.523  1.00  0.00    -0.317 N 
ATOM     82  C   UNL     1      10.310   5.042   6.112  1.00  0.00     0.292 C 
ATOM     83  C   UNL     1       8.299   5.059   4.836  1.00  0.00     0.292 C 
ATOM     84  H   UNL     1       9.587   3.556   4.786  1.00  0.00     0.349 HD
ATOM     85  C   UNL     1       9.732   6.170   6.986  1.00  0.00     0.221 C 
ATOM     86  C   UNL     1       7.767   6.227   5.683  1.00  0.00     0.221 C 
ATOM     87  O   UNL     1       8.841   7.001   6.231  1.00  0.00    -0.370 OA
ENDBRANCH  80  81
BRANCH  80  88
ATOM     88  C   UNL     1       7.334   3.212   6.946  1.00  0.00     0.057 A 
ATOM     89  C   UNL     1       6.131   3.126   6.208  1.00  0.00     0.145 A 
ATOM     90  C   UNL     1       6.863   3.413   8.243  1.00  0.00     0.119 A 
ATOM     91  N   UNL     1       5.048   3.069   6.965  1.00  0.00    -0.181 NA
ATOM     92  N   UNL     1       5.495   3.444   8.171  1.00  0.00    -0.268 N 
BRANCH  92  93
ATOM     93  C   UNL     1       4.526   3.866   9.180  1.00  0.00     0.179 C 
BRANCH  93  94
ATOM     94  C   UNL     1       3.659   5.006   8.670  1.00  0.00    -0.027 A 
ATOM     95  C   UNL     1       3.746   6.286   9.230  1.00  0.00     0.005 A 
ATOM     96  C   UNL     1       2.777   4.811   7.588  1.00  0.00     0.005 A 
ATOM     97  C   UNL     1       2.999   7.342   8.699  1.00  0.00     0.000 A 
ATOM     98  C   UNL     1       2.058   5.871   7.039  1.00  0.00     0.000 A 
ATOM     99  C   UNL     1       2.168   7.139   7.596  1.00  0.00     0.000 A 
ENDBRANCH  93  94
ENDBRANCH  92  93
ENDBRANCH  80  88
ENDBRANCH  77  80
ENDBRANCH  75  76
ENDBRANCH  74  75
ENDBRANCH   1  74
TORSDOF 17
