REMARK SMILES CSCC[C@H](C(=O)NCCCCCCNC(=O)c1ccc(-c2c3nc(c(-c4c(F)c(F)c(F)c(F)c4F)c4ccc([nH]4)c(-c4c(F)c(F)c(F)c(F)c4F)c4nc(c(-c5c(F)c(F)c(F)c(F)c5F)c5ccc2[nH]5)C=C4)C=C3)cc1)N1C(=O)/C(=C/c2ccc3ncccc3c2)SC1=S
REMARK SMILES IDX 11 1 10 2 9 3 8 4 6 5 7 6 5 8 4 9 3 10 2 11 1 12 81 13 82 14
REMARK SMILES IDX 97 15 83 16 84 17 96 18 98 19 85 20 86 21 87 22 95 23 88 24
REMARK SMILES IDX 94 25 89 26 93 27 90 28 92 29 91 30 12 31 13 32 14 33 15 34
REMARK SMILES IDX 16 35 17 37 18 38 19 39 80 40 20 41 79 42 21 43 22 44 23 45
REMARK SMILES IDX 73 46 24 47 78 48 72 49 74 50 25 51 77 52 71 53 70 54 26 56
REMARK SMILES IDX 58 57 38 58 57 59 39 60 42 61 56 62 75 63 40 64 41 65 55 67
REMARK SMILES IDX 76 68 43 69 27 70 28 71 36 72 29 73 30 74 34 75 37 76 31 77
REMARK SMILES IDX 32 78 35 79 33 80 59 81 60 82 68 83 61 84 62 85 66 86 69 87
REMARK SMILES IDX 63 88 64 89 67 90 65 91 44 92 45 93 53 94 46 95 47 96 51 97
REMARK SMILES IDX 54 98 48 99 49 100 52 101 50 102
REMARK H PARENT 8 7 15 36 74 55 42 66
REMARK Flexibility Score: inf
ROOT
ATOM      1  C   UNL     1       3.619   4.805  -2.547  1.00  0.00     0.002 C 
ENDROOT
BRANCH   1   2
ATOM      2  C   UNL     1       3.735   3.860  -1.350  1.00  0.00     0.021 C 
BRANCH   2   3
ATOM      3  C   UNL     1       3.214   4.418  -0.033  1.00  0.00     0.116 C 
BRANCH   3   4
ATOM      4  N   UNL     1       1.789   4.688  -0.047  1.00  0.00    -0.354 N 
ATOM      5  C   UNL     1       0.765   4.210   0.711  1.00  0.00     0.243 C 
ATOM      6  O   UNL     1      -0.260   4.903   0.734  1.00  0.00    -0.273 OA
ATOM      7  H   UNL     1       1.511   5.338  -0.732  1.00  0.00     0.163 HD
BRANCH   5   8
ATOM      8  C   UNL     1       0.836   2.931   1.570  1.00  0.00     0.182 C 
BRANCH   8   9
ATOM      9  C   UNL     1       1.700   1.736   1.149  1.00  0.00     0.046 C 
BRANCH   9  10
ATOM     10  C   UNL     1       1.436   1.087  -0.225  1.00  0.00     0.072 C 
BRANCH  10  11
ATOM     11  S   UNL     1      -0.214   1.223  -0.994  1.00  0.00    -0.165 SA
ATOM     12  C   UNL     1       0.057   2.574  -2.178  1.00  0.00     0.085 C 
ENDBRANCH  10  11
ENDBRANCH   9  10
ENDBRANCH   8   9
BRANCH   8  13
ATOM     13  N   UNL     1       0.802   3.196   3.035  1.00  0.00    -0.280 N 
ATOM     14  C   UNL     1       0.027   2.336   3.808  1.00  0.00     0.266 C 
ATOM     15  C   UNL     1       1.482   4.165   3.744  1.00  0.00     0.149 C 
ATOM     16  O   UNL     1      -0.477   1.284   3.438  1.00  0.00    -0.268 OA
ATOM     17  C   UNL     1      -0.117   2.859   5.185  1.00  0.00     0.081 C 
ATOM     18  S   UNL     1       0.890   4.224   5.401  1.00  0.00    -0.054 SA
ATOM     19  S   UNL     1       2.681   5.216   3.271  1.00  0.00    -0.052 S 
ATOM     20  C   UNL     1      -1.010   2.353   6.047  1.00  0.00     0.029 C 
BRANCH  20  21
ATOM     21  C   UNL     1      -1.409   3.054   7.267  1.00  0.00    -0.024 A 
ATOM     22  C   UNL     1      -0.890   2.741   8.520  1.00  0.00     0.010 A 
ATOM     23  C   UNL     1      -2.299   4.126   7.140  1.00  0.00     0.018 A 
ATOM     24  C   UNL     1      -1.254   3.515   9.630  1.00  0.00     0.029 A 
ATOM     25  C   UNL     1      -2.643   4.906   8.251  1.00  0.00     0.001 A 
ATOM     26  C   UNL     1      -2.114   4.604   9.522  1.00  0.00     0.070 A 
ATOM     27  C   UNL     1      -3.497   6.008   8.124  1.00  0.00     0.012 A 
ATOM     28  N   UNL     1      -2.411   5.341  10.607  1.00  0.00    -0.256 NA
ATOM     29  C   UNL     1      -3.796   6.774   9.241  1.00  0.00     0.021 A 
ATOM     30  C   UNL     1      -3.234   6.404  10.448  1.00  0.00     0.112 A 
ENDBRANCH  20  21
ENDBRANCH   8  13
ENDBRANCH   5   8
ENDBRANCH   3   4
ENDBRANCH   2   3
ENDBRANCH   1   2
BRANCH   1  31
ATOM     31  C   UNL     1       4.386   6.123  -2.417  1.00  0.00     0.002 C 
BRANCH  31  32
ATOM     32  C   UNL     1       5.852   5.988  -2.004  1.00  0.00     0.021 C 
BRANCH  32  33
ATOM     33  C   UNL     1       6.683   5.050  -2.872  1.00  0.00     0.116 C 
BRANCH  33  34
ATOM     34  N   UNL     1       6.814   5.531  -4.236  1.00  0.00    -0.352 N 
ATOM     35  C   UNL     1       7.960   5.787  -4.950  1.00  0.00     0.251 C 
ATOM     36  H   UNL     1       5.969   5.696  -4.713  1.00  0.00     0.163 HD
ATOM     37  O   UNL     1       7.914   6.350  -6.033  1.00  0.00    -0.269 OA
BRANCH  35  38
ATOM     38  C   UNL     1       9.263   5.387  -4.378  1.00  0.00     0.039 A 
ATOM     39  C   UNL     1      10.283   6.336  -4.287  1.00  0.00     0.014 A 
ATOM     40  C   UNL     1       9.461   4.082  -3.917  1.00  0.00     0.014 A 
ATOM     41  C   UNL     1      11.492   5.991  -3.679  1.00  0.00     0.010 A 
ATOM     42  C   UNL     1      10.644   3.758  -3.260  1.00  0.00     0.010 A 
ATOM     43  C   UNL     1      11.671   4.708  -3.138  1.00  0.00    -0.014 A 
BRANCH  43  44
ATOM     44  C   UNL     1      12.931   4.329  -2.451  1.00  0.00     0.031 A 
ATOM     45  C   UNL     1      13.818   3.273  -3.050  1.00  0.00     0.074 A 
ATOM     46  C   UNL     1      13.233   4.872  -1.256  1.00  0.00     0.049 A 
ATOM     47  N   UNL     1      14.901   2.725  -2.560  1.00  0.00    -0.248 NA
ATOM     48  C   UNL     1      13.417   2.741  -4.363  1.00  0.00     0.031 C 
ATOM     49  C   UNL     1      12.430   5.874  -0.553  1.00  0.00     0.029 A 
ATOM     50  N   UNL     1      14.292   4.644  -0.412  1.00  0.00    -0.354 N 
ATOM     51  C   UNL     1      15.291   1.768  -3.487  1.00  0.00     0.074 A 
ATOM     52  C   UNL     1      14.313   1.783  -4.553  1.00  0.00     0.031 C 
ATOM     53  C   UNL     1      13.029   6.182   0.609  1.00  0.00     0.029 A 
ATOM     54  C   UNL     1      14.238   5.376   0.750  1.00  0.00     0.049 A 
ATOM     55  H   UNL     1      15.020   4.016  -0.619  1.00  0.00     0.167 HD
ATOM     56  C   UNL     1      16.377   0.961  -3.457  1.00  0.00     0.037 A 
ATOM     57  C   UNL     1      15.067   5.386   1.811  1.00  0.00     0.037 A 
ATOM     58  C   UNL     1      17.377   0.988  -2.423  1.00  0.00     0.049 A 
ATOM     59  C   UNL     1      16.277   4.489   1.805  1.00  0.00     0.074 A 
ATOM     60  C   UNL     1      18.563   0.279  -2.352  1.00  0.00     0.029 A 
ATOM     61  N   UNL     1      17.308   1.770  -1.280  1.00  0.00    -0.354 N 
ATOM     62  N   UNL     1      16.680   3.647   0.885  1.00  0.00    -0.248 NA
ATOM     63  C   UNL     1      17.152   4.548   2.986  1.00  0.00     0.031 C 
ATOM     64  C   UNL     1      19.192   0.600  -1.146  1.00  0.00     0.029 A 
ATOM     65  C   UNL     1      18.419   1.542  -0.486  1.00  0.00     0.049 A 
ATOM     66  H   UNL     1      16.577   2.394  -1.065  1.00  0.00     0.167 HD
ATOM     67  C   UNL     1      17.868   3.106   1.357  1.00  0.00     0.074 A 
ATOM     68  C   UNL     1      18.127   3.719   2.642  1.00  0.00     0.031 C 
ATOM     69  C   UNL     1      18.672   2.182   0.778  1.00  0.00     0.037 A 
BRANCH  56  70
ATOM     70  C   UNL     1      16.554  -0.021  -4.576  1.00  0.00     0.064 A 
ATOM     71  C   UNL     1      16.930   0.389  -5.863  1.00  0.00     0.173 A 
ATOM     72  C   UNL     1      16.408  -1.397  -4.340  1.00  0.00     0.173 A 
ATOM     73  F   UNL     1      17.070   1.694  -6.142  1.00  0.00    -0.203 F 
ATOM     74  C   UNL     1      17.137  -0.541  -6.878  1.00  0.00     0.198 A 
ATOM     75  C   UNL     1      16.642  -2.325  -5.350  1.00  0.00     0.198 A 
ATOM     76  F   UNL     1      16.054  -1.841  -3.125  1.00  0.00    -0.203 F 
ATOM     77  F   UNL     1      17.462  -0.125  -8.110  1.00  0.00    -0.200 F 
ATOM     78  C   UNL     1      17.002  -1.897  -6.619  1.00  0.00     0.200 A 
ATOM     79  F   UNL     1      16.522  -3.636  -5.095  1.00  0.00    -0.200 F 
ATOM     80  F   UNL     1      17.215  -2.792  -7.594  1.00  0.00    -0.200 F 
ENDBRANCH  56  70
BRANCH  57  81
ATOM     81  C   UNL     1      14.799   6.282   2.966  1.00  0.00     0.064 A 
ATOM     82  C   UNL     1      15.638   7.373   3.237  1.00  0.00     0.173 A 
ATOM     83  C   UNL     1      13.727   6.052   3.838  1.00  0.00     0.173 A 
ATOM     84  F   UNL     1      16.690   7.620   2.443  1.00  0.00    -0.203 F 
ATOM     85  C   UNL     1      15.431   8.181   4.353  1.00  0.00     0.198 A 
ATOM     86  C   UNL     1      13.504   6.877   4.939  1.00  0.00     0.198 A 
ATOM     87  F   UNL     1      12.893   5.024   3.622  1.00  0.00    -0.203 F 
ATOM     88  F   UNL     1      16.282   9.182   4.619  1.00  0.00    -0.200 F 
ATOM     89  C   UNL     1      14.363   7.934   5.202  1.00  0.00     0.200 A 
ATOM     90  F   UNL     1      12.464   6.642   5.751  1.00  0.00    -0.200 F 
ATOM     91  F   UNL     1      14.168   8.707   6.279  1.00  0.00    -0.200 F 
ENDBRANCH  57  81
BRANCH  69  92
ATOM     92  C   UNL     1      19.933   1.814   1.502  1.00  0.00     0.064 A 
ATOM     93  C   UNL     1      19.913   1.010   2.650  1.00  0.00     0.173 A 
ATOM     94  C   UNL     1      21.179   2.229   1.007  1.00  0.00     0.173 A 
ATOM     95  F   UNL     1      18.745   0.602   3.168  1.00  0.00    -0.203 F 
ATOM     96  C   UNL     1      21.096   0.650   3.289  1.00  0.00     0.198 A 
ATOM     97  C   UNL     1      22.361   1.845   1.633  1.00  0.00     0.198 A 
ATOM     98  F   UNL     1      21.249   2.994  -0.092  1.00  0.00    -0.203 F 
ATOM     99  F   UNL     1      21.053  -0.086   4.408  1.00  0.00    -0.200 F 
ATOM    100  C   UNL     1      22.318   1.061   2.776  1.00  0.00     0.200 A 
ATOM    101  F   UNL     1      23.541   2.231   1.129  1.00  0.00    -0.200 F 
ATOM    102  F   UNL     1      23.456   0.704   3.387  1.00  0.00    -0.200 F 
ENDBRANCH  69  92
ENDBRANCH  43  44
ENDBRANCH  35  38
ENDBRANCH  33  34
ENDBRANCH  32  33
ENDBRANCH  31  32
ENDBRANCH   1  31
TORSDOF 18
