REMARK SMILES Cc1ccc(-c2cc(Cl)cc3c2O[C@@H](C(F)(F)F)C(C(=O)NCCCCCCNC(=O)c2ccc(-c4c5nc(c(-c6c(F)c(F)c(F)c(F)c6F)c6ccc([nH]6)c(-c6c(F)c(F)c(F)c(F)c6F)c6nc(c(-c7c(F)c(F)c(F)c(F)c7F)c7ccc4[nH]7)C=C6)C=C5)cc2)=C3)cc1
REMARK SMILES IDX 26 1 25 2 24 3 23 4 22 5 20 6 21 7 19 9 6 10 7 11 12 12 8 13
REMARK SMILES IDX 11 14 13 15 9 16 10 17 95 18 14 19 5 20 1 21 2 22 3 23 97 24
REMARK SMILES IDX 4 25 96 26 15 27 16 28 17 29 18 30 27 31 28 32 29 33 30 34
REMARK SMILES IDX 31 36 32 37 33 38 94 39 34 40 93 41 35 42 36 43 37 44 87 45
REMARK SMILES IDX 38 46 92 47 86 48 88 49 39 50 91 51 85 52 84 53 40 55 72 56
REMARK SMILES IDX 52 57 71 58 53 59 56 60 70 61 89 62 54 63 55 64 69 66 90 67
REMARK SMILES IDX 57 68 41 69 42 70 50 71 43 72 44 73 48 74 51 75 45 76 46 77
REMARK SMILES IDX 49 78 47 79 73 80 74 81 82 82 75 83 76 84 80 85 83 86 77 87
REMARK SMILES IDX 78 88 81 89 79 90 58 91 59 92 67 93 60 94 61 95 65 96 68 97
REMARK SMILES IDX 62 98 63 99 66 100 64 101
REMARK H PARENT 22 8 29 35 88 54 56 65
REMARK Flexibility Score: inf
ROOT
ATOM      1  C   UNL     1      -1.294  -3.081   7.175  1.00  0.00     0.002 C 
ENDROOT
BRANCH   1   2
ATOM      2  C   UNL     1      -1.415  -3.862   5.866  1.00  0.00     0.002 C 
BRANCH   2   3
ATOM      3  C   UNL     1      -2.765  -3.922   5.157  1.00  0.00     0.021 C 
BRANCH   3   4
ATOM      4  C   UNL     1      -3.710  -2.721   5.141  1.00  0.00     0.116 C 
BRANCH   4   5
ATOM      5  N   UNL     1      -3.269  -1.463   4.586  1.00  0.00    -0.352 N 
ATOM      6  C   UNL     1      -3.974  -0.357   4.174  1.00  0.00     0.251 C 
ATOM      7  O   UNL     1      -3.338   0.702   4.125  1.00  0.00    -0.270 OA
ATOM      8  H   UNL     1      -2.293  -1.383   4.486  1.00  0.00     0.163 HD
BRANCH   6   9
ATOM      9  C   UNL     1      -5.447  -0.362   3.720  1.00  0.00     0.067 C 
ATOM     10  C   UNL     1      -3.889  -1.172   0.146  1.00  0.00     0.026 A 
ATOM     11  C   UNL     1      -4.357  -0.541  -1.024  1.00  0.00     0.033 A 
ATOM     12  C   UNL     1      -4.696  -1.005   1.270  1.00  0.00     0.135 A 
ATOM     13  C   UNL     1      -5.314   0.478  -0.942  1.00  0.00     0.042 A 
ATOM     14  C   UNL     1      -5.388   0.221   1.439  1.00  0.00     0.019 A 
ATOM     15  O   UNL     1      -4.918  -2.067   2.176  1.00  0.00    -0.475 OA
ATOM     16  Cl  UNL     1      -5.813   1.287  -2.375  1.00  0.00    -0.084 Cl
ATOM     17  C   UNL     1      -5.754   0.933   0.303  1.00  0.00     0.032 A 
ATOM     18  C   UNL     1      -5.719   0.648   2.848  1.00  0.00     0.025 C 
ATOM     19  C   UNL     1      -5.971  -1.643   3.104  1.00  0.00     0.314 C 
BRANCH  10  20
ATOM     20  C   UNL     1      -2.407  -1.088   0.313  1.00  0.00    -0.015 A 
ATOM     21  C   UNL     1       1.878  -0.401   0.176  1.00  0.00     0.044 C 
ATOM     22  C   UNL     1       0.401  -0.646   0.281  1.00  0.00    -0.051 A 
ATOM     23  C   UNL     1      -0.136  -1.939   0.163  1.00  0.00     0.004 A 
ATOM     24  C   UNL     1      -0.468   0.421   0.485  1.00  0.00     0.004 A 
ATOM     25  C   UNL     1      -1.528  -2.160   0.174  1.00  0.00     0.009 A 
ATOM     26  C   UNL     1      -1.843   0.198   0.509  1.00  0.00     0.009 A 
ENDBRANCH  10  20
BRANCH  19  27
ATOM     27  C   UNL     1      -6.700  -2.593   4.073  1.00  0.00     0.429 C 
ATOM     28  F   UNL     1      -8.044  -2.383   4.006  1.00  0.00    -0.167 F 
ATOM     29  F   UNL     1      -6.497  -3.896   3.783  1.00  0.00    -0.167 F 
ATOM     30  F   UNL     1      -6.373  -2.397   5.372  1.00  0.00    -0.167 F 
ENDBRANCH  19  27
ENDBRANCH   6   9
ENDBRANCH   4   5
ENDBRANCH   3   4
ENDBRANCH   2   3
ENDBRANCH   1   2
BRANCH   1  31
ATOM     31  C   UNL     1      -2.313  -3.372   8.274  1.00  0.00     0.021 C 
BRANCH  31  32
ATOM     32  C   UNL     1      -2.242  -4.756   8.904  1.00  0.00     0.116 C 
BRANCH  32  33
ATOM     33  N   UNL     1      -1.417  -4.831  10.103  1.00  0.00    -0.352 N 
ATOM     34  C   UNL     1      -1.143  -5.922  10.916  1.00  0.00     0.251 C 
ATOM     35  H   UNL     1      -0.993  -3.986  10.376  1.00  0.00     0.163 HD
ATOM     36  O   UNL     1      -0.443  -5.802  11.899  1.00  0.00    -0.269 OA
BRANCH  34  37
ATOM     37  C   UNL     1      -1.620  -7.268  10.500  1.00  0.00     0.039 A 
ATOM     38  C   UNL     1      -0.698  -8.321  10.499  1.00  0.00     0.014 A 
ATOM     39  C   UNL     1      -2.888  -7.450   9.957  1.00  0.00     0.014 A 
ATOM     40  C   UNL     1      -0.963  -9.461   9.742  1.00  0.00     0.010 A 
ATOM     41  C   UNL     1      -3.117  -8.533   9.131  1.00  0.00     0.010 A 
ATOM     42  C   UNL     1      -2.127  -9.505   8.972  1.00  0.00    -0.014 A 
BRANCH  42  43
ATOM     43  C   UNL     1      -2.319 -10.452   7.881  1.00  0.00     0.031 A 
ATOM     44  C   UNL     1      -3.218 -11.613   8.019  1.00  0.00     0.074 A 
ATOM     45  C   UNL     1      -1.706 -10.229   6.696  1.00  0.00     0.049 A 
ATOM     46  N   UNL     1      -3.038 -12.732   7.399  1.00  0.00    -0.248 NA
ATOM     47  C   UNL     1      -4.392 -11.611   8.883  1.00  0.00     0.031 C 
ATOM     48  C   UNL     1      -1.949 -10.923   5.434  1.00  0.00     0.029 A 
ATOM     49  N   UNL     1      -0.576  -9.433   6.446  1.00  0.00    -0.354 N 
ATOM     50  C   UNL     1      -4.181 -13.477   7.554  1.00  0.00     0.074 A 
ATOM     51  C   UNL     1      -4.967 -12.770   8.542  1.00  0.00     0.031 C 
ATOM     52  C   UNL     1      -0.869 -10.784   4.651  1.00  0.00     0.029 A 
ATOM     53  C   UNL     1       0.146 -10.102   5.433  1.00  0.00     0.049 A 
ATOM     54  H   UNL     1      -0.338  -8.584   6.885  1.00  0.00     0.167 HD
ATOM     55  C   UNL     1      -4.421 -14.536   6.729  1.00  0.00     0.037 A 
ATOM     56  C   UNL     1       1.415 -10.556   5.638  1.00  0.00     0.037 A 
ATOM     57  C   UNL     1      -3.359 -14.713   5.747  1.00  0.00     0.049 A 
ATOM     58  C   UNL     1       1.577 -12.042   5.436  1.00  0.00     0.074 A 
ATOM     59  C   UNL     1      -3.242 -14.315   4.424  1.00  0.00     0.029 A 
ATOM     60  N   UNL     1      -2.085 -15.087   6.158  1.00  0.00    -0.354 N 
ATOM     61  N   UNL     1       0.584 -12.886   5.447  1.00  0.00    -0.248 NA
ATOM     62  C   UNL     1       2.866 -12.698   5.240  1.00  0.00     0.031 C 
ATOM     63  C   UNL     1      -1.886 -14.432   4.043  1.00  0.00     0.029 A 
ATOM     64  C   UNL     1      -1.177 -14.909   5.131  1.00  0.00     0.049 A 
ATOM     65  H   UNL     1      -1.861 -15.431   7.053  1.00  0.00     0.167 HD
ATOM     66  C   UNL     1       1.065 -14.161   5.286  1.00  0.00     0.074 A 
ATOM     67  C   UNL     1       2.497 -13.988   5.141  1.00  0.00     0.031 C 
ATOM     68  C   UNL     1       0.229 -15.243   5.293  1.00  0.00     0.037 A 
BRANCH  55  69
ATOM     69  C   UNL     1      -5.775 -15.194   6.640  1.00  0.00     0.064 A 
ATOM     70  C   UNL     1      -6.327 -15.587   5.403  1.00  0.00     0.173 A 
ATOM     71  C   UNL     1      -6.598 -15.414   7.759  1.00  0.00     0.173 A 
ATOM     72  F   UNL     1      -5.622 -15.522   4.267  1.00  0.00    -0.203 F 
ATOM     73  C   UNL     1      -7.639 -16.047   5.283  1.00  0.00     0.198 A 
ATOM     74  C   UNL     1      -7.928 -15.827   7.635  1.00  0.00     0.198 A 
ATOM     75  F   UNL     1      -6.125 -15.243   9.003  1.00  0.00    -0.203 F 
ATOM     76  F   UNL     1      -8.117 -16.387   4.077  1.00  0.00    -0.200 F 
ATOM     77  C   UNL     1      -8.453 -16.131   6.394  1.00  0.00     0.200 A 
ATOM     78  F   UNL     1      -8.703 -15.915   8.725  1.00  0.00    -0.200 F 
ATOM     79  F   UNL     1      -9.731 -16.514   6.270  1.00  0.00    -0.200 F 
ENDBRANCH  55  69
BRANCH  56  80
ATOM     80  C   UNL     1       2.183  -9.731   6.604  1.00  0.00     0.064 A 
ATOM     81  C   UNL     1       2.472  -8.398   6.254  1.00  0.00     0.173 A 
ATOM     82  C   UNL     1       2.283 -10.083   7.955  1.00  0.00     0.173 A 
ATOM     83  F   UNL     1       2.386  -8.010   4.971  1.00  0.00    -0.203 F 
ATOM     84  C   UNL     1       2.731  -7.434   7.224  1.00  0.00     0.198 A 
ATOM     85  C   UNL     1       2.558  -9.116   8.924  1.00  0.00     0.198 A 
ATOM     86  F   UNL     1       2.001 -11.332   8.352  1.00  0.00    -0.203 F 
ATOM     87  F   UNL     1       2.889  -6.151   6.867  1.00  0.00    -0.200 F 
ATOM     88  C   UNL     1       2.746  -7.788   8.562  1.00  0.00     0.200 A 
ATOM     89  F   UNL     1       2.552  -9.453  10.222  1.00  0.00    -0.200 F 
ATOM     90  F   UNL     1       2.903  -6.847   9.504  1.00  0.00    -0.200 F 
ENDBRANCH  56  80
BRANCH  68  91
ATOM     91  C   UNL     1       0.623 -16.703   5.334  1.00  0.00     0.064 A 
ATOM     92  C   UNL     1       1.833 -17.182   5.859  1.00  0.00     0.173 A 
ATOM     93  C   UNL     1      -0.307 -17.705   4.952  1.00  0.00     0.173 A 
ATOM     94  F   UNL     1       2.752 -16.352   6.369  1.00  0.00    -0.203 F 
ATOM     95  C   UNL     1       2.117 -18.550   5.939  1.00  0.00     0.198 A 
ATOM     96  C   UNL     1      -0.044 -19.067   5.088  1.00  0.00     0.198 A 
ATOM     97  F   UNL     1      -1.515 -17.394   4.459  1.00  0.00    -0.203 F 
ATOM     98  F   UNL     1       3.306 -18.953   6.410  1.00  0.00    -0.200 F 
ATOM     99  C   UNL     1       1.176 -19.491   5.565  1.00  0.00     0.200 A 
ATOM    100  F   UNL     1      -0.991 -19.962   4.770  1.00  0.00    -0.200 F 
ATOM    101  F   UNL     1       1.435 -20.799   5.688  1.00  0.00    -0.200 F 
ENDBRANCH  68  91
ENDBRANCH  42  43
ENDBRANCH  34  37
ENDBRANCH  32  33
ENDBRANCH  31  32
ENDBRANCH   1  31
TORSDOF 15
