REMARK SMILES CCOc1ccc(NC(=O)CC2(CC(=O)NCCCCCCNC(=O)c3ccc(-c4c5nc(c(-c6c(F)c(F)c(F)c(F)c6F)c6ccc([nH]6)c(-c6c(F)c(F)c(F)c(F)c6F)c6nc(c(-c7c(F)c(F)c(F)c(F)c7F)c7ccc4[nH]7)C=C6)C=C5)cc3)CCCCC2)cc1
REMARK SMILES IDX 17 1 16 2 14 3 15 4 13 6 12 7 89 8 93 9 90 10 92 11 91 12
REMARK SMILES IDX 11 13 9 14 8 15 10 17 7 18 4 19 5 20 95 21 6 22 94 23 3 24
REMARK SMILES IDX 2 25 1 26 18 27 19 28 20 29 21 30 22 31 23 32 24 33 25 35
REMARK SMILES IDX 26 36 27 37 88 38 28 39 87 40 29 41 30 42 31 43 81 44 32 45
REMARK SMILES IDX 86 46 80 47 82 48 33 49 85 50 79 51 78 52 34 54 66 55 46 56
REMARK SMILES IDX 65 57 47 58 50 59 64 60 83 61 48 62 49 63 63 65 84 66 51 67
REMARK SMILES IDX 35 68 36 69 44 70 37 71 38 72 42 73 45 74 39 75 40 76 43 77
REMARK SMILES IDX 41 78 67 79 68 80 76 81 69 82 70 83 74 84 77 85 71 86 72 87
REMARK SMILES IDX 75 88 73 89 52 90 53 91 61 92 54 93 55 94 59 95 62 96 56 97
REMARK SMILES IDX 57 98 60 99 58 100
REMARK H PARENT 16 5 8 16 23 34 82 53 50 64
REMARK Flexibility Score: inf
ROOT
ATOM      1  C   UNL     1       6.571   5.335   3.984  1.00  0.00     0.116 C 
ENDROOT
BRANCH   1   2
ATOM      2  N   UNL     1       6.319   4.194   3.157  1.00  0.00    -0.356 N 
ATOM      3  C   UNL     1       5.269   3.350   3.198  1.00  0.00     0.220 C 
ATOM      4  O   UNL     1       4.958   2.853   2.113  1.00  0.00    -0.275 OA
ATOM      5  H   UNL     1       6.998   4.002   2.470  1.00  0.00     0.163 HD
BRANCH   3   6
ATOM      6  C   UNL     1       4.430   3.110   4.453  1.00  0.00     0.107 C 
BRANCH   6   7
ATOM      7  C   UNL     1       4.982   2.542   5.811  1.00  0.00    -0.012 C 
ATOM      8  C   UNL     1       3.747   2.020   6.639  1.00  0.00     0.008 C 
ATOM      9  C   UNL     1       5.604   3.639   6.729  1.00  0.00     0.008 C 
ATOM     10  C   UNL     1       2.743   3.103   7.036  1.00  0.00     0.001 C 
ATOM     11  C   UNL     1       4.642   4.767   7.122  1.00  0.00     0.001 C 
ATOM     12  C   UNL     1       3.401   4.229   7.822  1.00  0.00     0.000 C 
BRANCH   7  13
ATOM     13  C   UNL     1       5.983   1.333   5.743  1.00  0.00     0.108 C 
BRANCH  13  14
ATOM     14  C   UNL     1       6.816   1.046   4.510  1.00  0.00     0.224 C 
ATOM     15  N   UNL     1       6.343   0.358   3.431  1.00  0.00    -0.326 N 
ATOM     16  H   UNL     1       7.034   0.116   2.772  1.00  0.00     0.169 HD
ATOM     17  O   UNL     1       7.980   1.463   4.459  1.00  0.00    -0.275 OA
BRANCH  15  18
ATOM     18  C   UNL     1       5.047  -0.067   3.089  1.00  0.00     0.041 A 
ATOM     19  C   UNL     1       2.368  -0.136   2.312  1.00  0.00     0.119 A 
ATOM     20  C   UNL     1       2.724  -0.474   3.613  1.00  0.00     0.048 A 
ATOM     21  C   UNL     1       3.355   0.104   1.365  1.00  0.00     0.048 A 
ATOM     22  C   UNL     1       4.068  -0.461   3.995  1.00  0.00     0.030 A 
ATOM     23  C   UNL     1       4.698   0.079   1.742  1.00  0.00     0.030 A 
BRANCH  19  24
ATOM     24  O   UNL     1       1.054   0.135   2.063  1.00  0.00    -0.494 OA
BRANCH  24  25
ATOM     25  C   UNL     1       0.432  -0.792   1.174  1.00  0.00     0.226 C 
ATOM     26  C   UNL     1       0.466  -0.300  -0.263  1.00  0.00     0.049 C 
ENDBRANCH  24  25
ENDBRANCH  19  24
ENDBRANCH  15  18
ENDBRANCH  13  14
ENDBRANCH   7  13
ENDBRANCH   6   7
ENDBRANCH   3   6
ENDBRANCH   1   2
BRANCH   1  27
ATOM     27  C   UNL     1       7.990   5.315   4.530  1.00  0.00     0.021 C 
BRANCH  27  28
ATOM     28  C   UNL     1       9.040   5.836   3.547  1.00  0.00     0.002 C 
BRANCH  28  29
ATOM     29  C   UNL     1       8.766   7.234   2.982  1.00  0.00     0.002 C 
BRANCH  29  30
ATOM     30  C   UNL     1       8.372   8.294   4.015  1.00  0.00     0.021 C 
BRANCH  30  31
ATOM     31  C   UNL     1       9.348   8.450   5.175  1.00  0.00     0.116 C 
BRANCH  31  32
ATOM     32  N   UNL     1      10.684   8.770   4.716  1.00  0.00    -0.352 N 
ATOM     33  C   UNL     1      11.492   9.819   5.061  1.00  0.00     0.251 C 
ATOM     34  H   UNL     1      11.066   8.142   4.061  1.00  0.00     0.163 HD
ATOM     35  O   UNL     1      12.506  10.055   4.414  1.00  0.00    -0.269 OA
BRANCH  33  36
ATOM     36  C   UNL     1      11.139  10.671   6.215  1.00  0.00     0.039 A 
ATOM     37  C   UNL     1      11.307  12.052   6.095  1.00  0.00     0.014 A 
ATOM     38  C   UNL     1      10.701  10.115   7.421  1.00  0.00     0.014 A 
ATOM     39  C   UNL     1      11.022  12.877   7.181  1.00  0.00     0.010 A 
ATOM     40  C   UNL     1      10.349  10.945   8.481  1.00  0.00     0.010 A 
ATOM     41  C   UNL     1      10.534  12.330   8.379  1.00  0.00    -0.014 A 
BRANCH  41  42
ATOM     42  C   UNL     1      10.265  13.206   9.544  1.00  0.00     0.031 A 
ATOM     43  C   UNL     1      11.123  13.108  10.774  1.00  0.00     0.074 A 
ATOM     44  C   UNL     1       9.245  14.082   9.492  1.00  0.00     0.049 A 
ATOM     45  N   UNL     1      11.076  13.816  11.874  1.00  0.00    -0.248 NA
ATOM     46  C   UNL     1      12.157  12.061  10.779  1.00  0.00     0.031 C 
ATOM     47  C   UNL     1       8.316  14.227   8.371  1.00  0.00     0.029 A 
ATOM     48  N   UNL     1       8.826  15.021  10.399  1.00  0.00    -0.354 N 
ATOM     49  C   UNL     1      12.065  13.297  12.699  1.00  0.00     0.074 A 
ATOM     50  C   UNL     1      12.656  12.177  12.000  1.00  0.00     0.031 C 
ATOM     51  C   UNL     1       7.459  15.226   8.639  1.00  0.00     0.029 A 
ATOM     52  C   UNL     1       7.766  15.774   9.957  1.00  0.00     0.049 A 
ATOM     53  H   UNL     1       9.244  15.143  11.281  1.00  0.00     0.167 HD
ATOM     54  C   UNL     1      12.465  13.735  13.916  1.00  0.00     0.037 A 
ATOM     55  C   UNL     1       7.129  16.802  10.546  1.00  0.00     0.037 A 
ATOM     56  C   UNL     1      11.887  14.864  14.596  1.00  0.00     0.049 A 
ATOM     57  C   UNL     1       7.604  17.283  11.890  1.00  0.00     0.074 A 
ATOM     58  C   UNL     1      12.244  15.418  15.812  1.00  0.00     0.029 A 
ATOM     59  N   UNL     1      10.826  15.614  14.110  1.00  0.00    -0.354 N 
ATOM     60  N   UNL     1       8.587  16.831  12.631  1.00  0.00    -0.248 NA
ATOM     61  C   UNL     1       6.891  18.428  12.471  1.00  0.00     0.031 C 
ATOM     62  C   UNL     1      11.375  16.482  16.079  1.00  0.00     0.029 A 
ATOM     63  C   UNL     1      10.506  16.619  15.008  1.00  0.00     0.049 A 
ATOM     64  H   UNL     1      10.367  15.455  13.253  1.00  0.00     0.167 HD
ATOM     65  C   UNL     1       8.633  17.653  13.748  1.00  0.00     0.074 A 
ATOM     66  C   UNL     1       7.585  18.640  13.580  1.00  0.00     0.031 C 
ATOM     67  C   UNL     1       9.467  17.598  14.815  1.00  0.00     0.037 A 
BRANCH  54  68
ATOM     68  C   UNL     1      13.585  12.990  14.584  1.00  0.00     0.064 A 
ATOM     69  C   UNL     1      14.900  13.047  14.095  1.00  0.00     0.173 A 
ATOM     70  C   UNL     1      13.348  12.224  15.735  1.00  0.00     0.173 A 
ATOM     71  F   UNL     1      15.178  13.755  12.990  1.00  0.00    -0.203 F 
ATOM     72  C   UNL     1      15.927  12.338  14.713  1.00  0.00     0.198 A 
ATOM     73  C   UNL     1      14.383  11.541  16.368  1.00  0.00     0.198 A 
ATOM     74  F   UNL     1      12.111  12.137  16.248  1.00  0.00    -0.203 F 
ATOM     75  F   UNL     1      17.163  12.365  14.195  1.00  0.00    -0.200 F 
ATOM     76  C   UNL     1      15.669  11.591  15.852  1.00  0.00     0.200 A 
ATOM     77  F   UNL     1      14.135  10.828  17.476  1.00  0.00    -0.200 F 
ATOM     78  F   UNL     1      16.659  10.912  16.448  1.00  0.00    -0.200 F 
ENDBRANCH  54  68
BRANCH  55  79
ATOM     79  C   UNL     1       6.016  17.483   9.837  1.00  0.00     0.064 A 
ATOM     80  C   UNL     1       6.179  18.777   9.322  1.00  0.00     0.173 A 
ATOM     81  C   UNL     1       4.777  16.855   9.648  1.00  0.00     0.173 A 
ATOM     82  F   UNL     1       7.341  19.424   9.493  1.00  0.00    -0.203 F 
ATOM     83  C   UNL     1       5.139  19.423   8.658  1.00  0.00     0.198 A 
ATOM     84  C   UNL     1       3.746  17.493   8.961  1.00  0.00     0.198 A 
ATOM     85  F   UNL     1       4.574  15.615  10.115  1.00  0.00    -0.203 F 
ATOM     86  F   UNL     1       5.310  20.674   8.208  1.00  0.00    -0.200 F 
ATOM     87  C   UNL     1       3.925  18.779   8.473  1.00  0.00     0.200 A 
ATOM     88  F   UNL     1       2.579  16.862   8.771  1.00  0.00    -0.200 F 
ATOM     89  F   UNL     1       2.928  19.398   7.828  1.00  0.00    -0.200 F 
ENDBRANCH  55  79
BRANCH  67  90
ATOM     90  C   UNL     1       9.306  18.659  15.863  1.00  0.00     0.064 A 
ATOM     91  C   UNL     1       8.211  18.669  16.740  1.00  0.00     0.173 A 
ATOM     92  C   UNL     1      10.278  19.660  16.011  1.00  0.00     0.173 A 
ATOM     93  F   UNL     1       7.249  17.740  16.629  1.00  0.00    -0.203 F 
ATOM     94  C   UNL     1       8.081  19.661  17.708  1.00  0.00     0.198 A 
ATOM     95  C   UNL     1      10.158  20.634  16.998  1.00  0.00     0.198 A 
ATOM     96  F   UNL     1      11.347  19.690  15.202  1.00  0.00    -0.203 F 
ATOM     97  F   UNL     1       7.001  19.680  18.502  1.00  0.00    -0.200 F 
ATOM     98  C   UNL     1       9.056  20.638  17.840  1.00  0.00     0.200 A 
ATOM     99  F   UNL     1      11.107  21.570  17.133  1.00  0.00    -0.200 F 
ATOM    100  F   UNL     1       8.929  21.590  18.774  1.00  0.00    -0.200 F 
ENDBRANCH  67  90
ENDBRANCH  41  42
ENDBRANCH  33  36
ENDBRANCH  31  32
ENDBRANCH  30  31
ENDBRANCH  29  30
ENDBRANCH  28  29
ENDBRANCH  27  28
ENDBRANCH   1  27
TORSDOF 19
