REMARK SMILES CS(=O)(=O)c1ccc(N2N=C(C(=O)NCCCCCCNC(=O)c3ccc(-c4c5nc(c(-c6c(F)c(F)c(F)c(F)c6F)c6ccc([nH]6)c(-c6c(F)c(F)c(F)c(F)c6F)c6nc(c(-c7c(F)c(F)c(F)c(F)c7F)c7ccc4[nH]7)C=C6)C=C5)cc3)C[C@H]2c2ccco2)cc1
REMARK SMILES IDX 17 1 16 2 15 3 14 4 12 5 13 6 11 8 9 9 10 10 88 11 87 12
REMARK SMILES IDX 8 13 5 14 6 15 95 16 7 17 94 18 2 19 1 20 3 21 4 22 89 23
REMARK SMILES IDX 90 24 93 25 91 26 92 27 18 28 19 29 20 30 21 31 22 32 23 34
REMARK SMILES IDX 24 35 25 36 86 37 26 38 85 39 27 40 28 41 29 42 79 43 30 44
REMARK SMILES IDX 84 45 78 46 80 47 31 48 83 49 77 50 76 51 32 53 64 54 44 55
REMARK SMILES IDX 63 56 45 57 48 58 62 59 81 60 46 61 47 62 61 64 82 65 49 66
REMARK SMILES IDX 33 67 34 68 42 69 35 70 36 71 40 72 43 73 37 74 38 75 41 76
REMARK SMILES IDX 39 77 65 78 66 79 74 80 67 81 68 82 72 83 75 84 69 85 70 86
REMARK SMILES IDX 73 87 71 88 50 89 51 90 59 91 52 92 53 93 57 94 60 95 54 96
REMARK SMILES IDX 55 97 58 98 56 99
REMARK H PARENT 14 7 21 33 80 52 48 63
REMARK Flexibility Score: inf
ROOT
ATOM      1  C   UNL     1       5.356  12.742   2.107  1.00  0.00     0.002 C 
ENDROOT
BRANCH   1   2
ATOM      2  C   UNL     1       4.239  11.702   2.216  1.00  0.00     0.021 C 
BRANCH   2   3
ATOM      3  C   UNL     1       3.712  11.214   0.871  1.00  0.00     0.116 C 
BRANCH   3   4
ATOM      4  N   UNL     1       4.648  10.305   0.244  1.00  0.00    -0.351 N 
ATOM      5  C   UNL     1       4.589   8.991  -0.145  1.00  0.00     0.267 C 
ATOM      6  O   UNL     1       5.624   8.476  -0.559  1.00  0.00    -0.268 OA
ATOM      7  H   UNL     1       5.519  10.721   0.056  1.00  0.00     0.163 HD
BRANCH   5   8
ATOM      8  C   UNL     1       3.314   8.162  -0.137  1.00  0.00     0.128 C 
ATOM      9  N   UNL     1       2.013   6.537  -0.598  1.00  0.00    -0.254 N 
ATOM     10  N   UNL     1       3.314   6.931  -0.552  1.00  0.00    -0.171 NA
ATOM     11  C   UNL     1       1.077   7.501  -0.014  1.00  0.00     0.180 C 
ATOM     12  C   UNL     1       1.992   8.683   0.311  1.00  0.00     0.099 C 
BRANCH   9  13
ATOM     13  C   UNL     1       1.690   5.200  -0.784  1.00  0.00     0.060 A 
ATOM     14  C   UNL     1       0.957   2.511  -1.138  1.00  0.00     0.067 A 
ATOM     15  C   UNL     1       1.945   2.840  -0.209  1.00  0.00     0.022 A 
ATOM     16  C   UNL     1       0.354   3.504  -1.909  1.00  0.00     0.022 A 
ATOM     17  C   UNL     1       2.312   4.183  -0.047  1.00  0.00     0.029 A 
ATOM     18  C   UNL     1       0.731   4.834  -1.735  1.00  0.00     0.029 A 
BRANCH  14  19
ATOM     19  S   UNL     1       0.389   0.850  -1.389  1.00  0.00     0.175 S 
ATOM     20  C   UNL     1       0.976  -0.120  -0.033  1.00  0.00     0.163 C 
ATOM     21  O   UNL     1       1.038   0.368  -2.594  1.00  0.00    -0.224 OA
ATOM     22  O   UNL     1      -1.057   0.893  -1.282  1.00  0.00    -0.224 OA
ENDBRANCH  14  19
ENDBRANCH   9  13
BRANCH  11  23
ATOM     23  C   UNL     1      -0.123   7.906  -0.821  1.00  0.00     0.128 A 
ATOM     24  C   UNL     1      -1.372   7.337  -0.989  1.00  0.00     0.048 A 
ATOM     25  O   UNL     1      -0.051   9.061  -1.549  1.00  0.00    -0.467 OA
ATOM     26  C   UNL     1      -2.080   8.170  -1.887  1.00  0.00     0.042 A 
ATOM     27  C   UNL     1      -1.240   9.216  -2.183  1.00  0.00     0.195 A 
ENDBRANCH  11  23
ENDBRANCH   5   8
ENDBRANCH   3   4
ENDBRANCH   2   3
ENDBRANCH   1   2
BRANCH   1  28
ATOM     28  C   UNL     1       4.994  13.995   1.301  1.00  0.00     0.002 C 
BRANCH  28  29
ATOM     29  C   UNL     1       3.692  14.684   1.719  1.00  0.00     0.021 C 
BRANCH  29  30
ATOM     30  C   UNL     1       3.638  15.099   3.184  1.00  0.00     0.116 C 
BRANCH  30  31
ATOM     31  N   UNL     1       4.673  16.063   3.515  1.00  0.00    -0.352 N 
ATOM     32  C   UNL     1       4.556  17.307   4.078  1.00  0.00     0.251 C 
ATOM     33  H   UNL     1       5.593  15.781   3.304  1.00  0.00     0.163 HD
ATOM     34  O   UNL     1       5.516  18.072   4.091  1.00  0.00    -0.269 OA
BRANCH  32  35
ATOM     35  C   UNL     1       3.265  17.735   4.655  1.00  0.00     0.039 A 
ATOM     36  C   UNL     1       2.808  19.029   4.395  1.00  0.00     0.014 A 
ATOM     37  C   UNL     1       2.515  16.871   5.458  1.00  0.00     0.014 A 
ATOM     38  C   UNL     1       1.571  19.438   4.897  1.00  0.00     0.010 A 
ATOM     39  C   UNL     1       1.248  17.252   5.889  1.00  0.00     0.010 A 
ATOM     40  C   UNL     1       0.766  18.542   5.619  1.00  0.00    -0.014 A 
BRANCH  40  41
ATOM     41  C   UNL     1      -0.583  18.939   6.096  1.00  0.00     0.031 A 
ATOM     42  C   UNL     1      -0.881  18.995   7.568  1.00  0.00     0.074 A 
ATOM     43  C   UNL     1      -1.553  19.199   5.199  1.00  0.00     0.049 A 
ATOM     44  N   UNL     1      -2.008  19.273   8.175  1.00  0.00    -0.248 NA
ATOM     45  C   UNL     1       0.226  18.669   8.481  1.00  0.00     0.031 C 
ATOM     46  C   UNL     1      -1.399  19.134   3.745  1.00  0.00     0.029 A 
ATOM     47  N   UNL     1      -2.865  19.563   5.377  1.00  0.00    -0.354 N 
ATOM     48  C   UNL     1      -1.747  19.147   9.533  1.00  0.00     0.074 A 
ATOM     49  C   UNL     1      -0.375  18.708   9.661  1.00  0.00     0.031 C 
ATOM     50  C   UNL     1      -2.559  19.476   3.164  1.00  0.00     0.029 A 
ATOM     51  C   UNL     1      -3.551  19.740   4.201  1.00  0.00     0.049 A 
ATOM     52  H   UNL     1      -3.274  19.687   6.264  1.00  0.00     0.167 HD
ATOM     53  C   UNL     1      -2.571  19.400  10.579  1.00  0.00     0.037 A 
ATOM     54  C   UNL     1      -4.839  20.069   3.984  1.00  0.00     0.037 A 
ATOM     55  C   UNL     1      -3.932  19.851  10.445  1.00  0.00     0.049 A 
ATOM     56  C   UNL     1      -5.739  20.322   5.163  1.00  0.00     0.074 A 
ATOM     57  C   UNL     1      -4.831  20.187  11.441  1.00  0.00     0.029 A 
ATOM     58  N   UNL     1      -4.593  20.021   9.237  1.00  0.00    -0.354 N 
ATOM     59  N   UNL     1      -5.462  20.269   6.444  1.00  0.00    -0.248 NA
ATOM     60  C   UNL     1      -7.131  20.686   4.866  1.00  0.00     0.031 C 
ATOM     61  C   UNL     1      -6.054  20.501  10.839  1.00  0.00     0.029 A 
ATOM     62  C   UNL     1      -5.898  20.427   9.465  1.00  0.00     0.049 A 
ATOM     63  H   UNL     1      -4.194  19.875   8.349  1.00  0.00     0.167 HD
ATOM     64  C   UNL     1      -6.631  20.623   7.103  1.00  0.00     0.074 A 
ATOM     65  C   UNL     1      -7.617  20.905   6.080  1.00  0.00     0.031 C 
ATOM     66  C   UNL     1      -6.868  20.708   8.436  1.00  0.00     0.037 A 
BRANCH  53  67
ATOM     67  C   UNL     1      -2.022  19.189  11.963  1.00  0.00     0.064 A 
ATOM     68  C   UNL     1      -1.015  20.011  12.492  1.00  0.00     0.173 A 
ATOM     69  C   UNL     1      -2.535  18.173  12.784  1.00  0.00     0.173 A 
ATOM     70  F   UNL     1      -0.481  20.991  11.746  1.00  0.00    -0.203 F 
ATOM     71  C   UNL     1      -0.518  19.802  13.776  1.00  0.00     0.198 A 
ATOM     72  C   UNL     1      -2.060  17.990  14.081  1.00  0.00     0.198 A 
ATOM     73  F   UNL     1      -3.503  17.361  12.333  1.00  0.00    -0.203 F 
ATOM     74  F   UNL     1       0.484  20.564  14.236  1.00  0.00    -0.200 F 
ATOM     75  C   UNL     1      -1.046  18.797  14.572  1.00  0.00     0.200 A 
ATOM     76  F   UNL     1      -2.583  17.028  14.854  1.00  0.00    -0.200 F 
ATOM     77  F   UNL     1      -0.572  18.602  15.810  1.00  0.00    -0.200 F 
ENDBRANCH  53  67
BRANCH  54  78
ATOM     78  C   UNL     1      -5.348  20.198   2.593  1.00  0.00     0.064 A 
ATOM     79  C   UNL     1      -5.729  21.445   2.076  1.00  0.00     0.173 A 
ATOM     80  C   UNL     1      -5.472  19.080   1.754  1.00  0.00     0.173 A 
ATOM     81  F   UNL     1      -5.647  22.540   2.846  1.00  0.00    -0.203 F 
ATOM     82  C   UNL     1      -6.235  21.565   0.784  1.00  0.00     0.198 A 
ATOM     83  C   UNL     1      -5.947  19.207   0.450  1.00  0.00     0.198 A 
ATOM     84  F   UNL     1      -5.116  17.865   2.196  1.00  0.00    -0.203 F 
ATOM     85  F   UNL     1      -6.638  22.761   0.334  1.00  0.00    -0.200 F 
ATOM     86  C   UNL     1      -6.337  20.448  -0.030  1.00  0.00     0.200 A 
ATOM     87  F   UNL     1      -6.028  18.127  -0.339  1.00  0.00    -0.200 F 
ATOM     88  F   UNL     1      -6.819  20.565  -1.275  1.00  0.00    -0.200 F 
ENDBRANCH  54  78
BRANCH  66  89
ATOM     89  C   UNL     1      -8.236  21.159   8.866  1.00  0.00     0.064 A 
ATOM     90  C   UNL     1      -9.370  20.350   8.694  1.00  0.00     0.173 A 
ATOM     91  C   UNL     1      -8.408  22.404   9.490  1.00  0.00     0.173 A 
ATOM     92  F   UNL     1      -9.263  19.157   8.090  1.00  0.00    -0.203 F 
ATOM     93  C   UNL     1     -10.628  20.785   9.102  1.00  0.00     0.198 A 
ATOM     94  C   UNL     1      -9.661  22.820   9.930  1.00  0.00     0.198 A 
ATOM     95  F   UNL     1      -7.356  23.213   9.686  1.00  0.00    -0.203 F 
ATOM     96  F   UNL     1     -11.705  20.020   8.876  1.00  0.00    -0.200 F 
ATOM     97  C   UNL     1     -10.771  22.015   9.727  1.00  0.00     0.200 A 
ATOM     98  F   UNL     1      -9.794  24.001  10.549  1.00  0.00    -0.200 F 
ATOM     99  F   UNL     1     -11.982  22.429  10.127  1.00  0.00    -0.200 F 
ENDBRANCH  66  89
ENDBRANCH  40  41
ENDBRANCH  32  35
ENDBRANCH  30  31
ENDBRANCH  29  30
ENDBRANCH  28  29
ENDBRANCH   1  28
TORSDOF 16
