REMARK SMILES CSCC[C@H](NC(=O)Cc1c(C)c2cc(Cl)c(O)cc2oc1=O)C(=O)NCCCCCCNC(=O)c1ccc(-c2c3nc(c(-c4c(F)c(F)c(F)c(F)c4F)c4ccc([nH]4)c(-c4c(F)c(F)c(F)c(F)c4F)c4nc(c(-c5c(F)c(F)c(F)c(F)c5F)c5ccc2[nH]5)C=C4)C=C3)cc1
REMARK SMILES IDX 28 1 27 2 26 3 24 4 25 5 5 7 4 8 3 9 2 10 1 11 6 12 7 13
REMARK SMILES IDX 8 15 9 16 10 17 11 18 22 19 12 20 13 21 21 22 23 23 14 24
REMARK SMILES IDX 20 25 15 26 19 27 16 28 17 29 18 30 29 32 30 33 31 34 32 35
REMARK SMILES IDX 33 36 34 37 35 39 36 40 37 41 98 42 38 43 97 44 39 45 40 46
REMARK SMILES IDX 41 47 91 48 42 49 96 50 90 51 92 52 43 53 95 54 89 55 88 56
REMARK SMILES IDX 44 58 76 59 56 60 75 61 57 62 60 63 74 64 93 65 58 66 59 67
REMARK SMILES IDX 73 69 94 70 61 71 45 72 46 73 54 74 47 75 48 76 52 77 55 78
REMARK SMILES IDX 49 79 50 80 53 81 51 82 77 83 78 84 86 85 79 86 80 87 84 88
REMARK SMILES IDX 87 89 81 90 82 91 85 92 83 93 62 94 63 95 71 96 64 97 65 98
REMARK SMILES IDX 69 99 72 100 66 101 67 102 70 103 68 104
REMARK H PARENT 26 6 6 14 18 31 33 38 92 57 60 68
REMARK Flexibility Score: inf
ROOT
ATOM      1  C   UNL     1      -0.360  -0.467  -6.956  1.00  0.00     0.021 C 
ENDROOT
BRANCH   1   2
ATOM      2  C   UNL     1       0.534   0.242  -5.939  1.00  0.00     0.116 C 
BRANCH   2   3
ATOM      3  N   UNL     1      -0.155   0.953  -4.886  1.00  0.00    -0.354 N 
ATOM      4  C   UNL     1       0.260   1.173  -3.601  1.00  0.00     0.242 C 
ATOM      5  O   UNL     1      -0.134   2.216  -3.066  1.00  0.00    -0.273 OA
ATOM      6  H   UNL     1      -1.035   1.326  -5.123  1.00  0.00     0.163 HD
BRANCH   4   7
ATOM      7  C   UNL     1       1.230   0.223  -2.819  1.00  0.00     0.172 C 
BRANCH   7   8
ATOM      8  C   UNL     1       2.537   0.931  -2.458  1.00  0.00     0.046 C 
BRANCH   8   9
ATOM      9  C   UNL     1       2.480   1.755  -1.163  1.00  0.00     0.072 C 
BRANCH   9  10
ATOM     10  S   UNL     1       2.612   0.724   0.347  1.00  0.00    -0.165 SA
ATOM     11  C   UNL     1       0.861   0.479   0.747  1.00  0.00     0.085 C 
ENDBRANCH   9  10
ENDBRANCH   8   9
ENDBRANCH   7   8
BRANCH   7  12
ATOM     12  N   UNL     1       1.294  -1.168  -3.295  1.00  0.00    -0.344 N 
ATOM     13  C   UNL     1       2.211  -2.119  -3.595  1.00  0.00     0.225 C 
ATOM     14  H   UNL     1       0.385  -1.517  -3.442  1.00  0.00     0.164 HD
ATOM     15  O   UNL     1       1.742  -3.247  -3.795  1.00  0.00    -0.275 OA
BRANCH  13  16
ATOM     16  C   UNL     1       3.731  -1.912  -3.667  1.00  0.00     0.143 C 
BRANCH  16  17
ATOM     17  C   UNL     1       4.206  -0.933  -4.716  1.00  0.00     0.051 A 
ATOM     18  C   UNL     1       5.184  -0.007  -4.581  1.00  0.00    -0.029 A 
ATOM     19  C   UNL     1       3.547  -1.083  -6.032  1.00  0.00     0.340 A 
ATOM     20  C   UNL     1       6.113   0.065  -3.399  1.00  0.00     0.046 C 
ATOM     21  C   UNL     1       5.297   1.066  -5.597  1.00  0.00     0.023 A 
ATOM     22  O   UNL     1       3.462   0.056  -6.807  1.00  0.00    -0.422 OA
ATOM     23  O   UNL     1       3.017  -2.128  -6.387  1.00  0.00    -0.246 OA
ATOM     24  C   UNL     1       6.234   2.106  -5.561  1.00  0.00     0.036 A 
ATOM     25  C   UNL     1       4.322   1.134  -6.587  1.00  0.00     0.142 A 
ATOM     26  C   UNL     1       6.126   3.200  -6.434  1.00  0.00     0.083 A 
ATOM     27  C   UNL     1       4.168   2.230  -7.438  1.00  0.00     0.095 A 
ATOM     28  Cl  UNL     1       7.312   4.450  -6.339  1.00  0.00    -0.080 Cl
ATOM     29  C   UNL     1       5.066   3.281  -7.340  1.00  0.00     0.137 A 
BRANCH  29  30
ATOM     30  O   UNL     1       4.911   4.383  -8.133  1.00  0.00    -0.506 OA
ATOM     31  H   UNL     1       5.517   5.095  -8.068  1.00  0.00     0.293 HD
ENDBRANCH  29  30
ENDBRANCH  16  17
ENDBRANCH  13  16
ENDBRANCH   7  12
ENDBRANCH   4   7
ENDBRANCH   2   3
ENDBRANCH   1   2
BRANCH   1  32
ATOM     32  C   UNL     1      -0.528   0.244  -8.310  1.00  0.00     0.002 C 
BRANCH  32  33
ATOM     33  C   UNL     1       0.748   0.600  -9.088  1.00  0.00     0.002 C 
BRANCH  33  34
ATOM     34  C   UNL     1       1.742  -0.535  -9.331  1.00  0.00     0.021 C 
BRANCH  34  35
ATOM     35  C   UNL     1       1.278  -1.660 -10.242  1.00  0.00     0.116 C 
BRANCH  35  36
ATOM     36  N   UNL     1       1.167  -1.250 -11.632  1.00  0.00    -0.352 N 
ATOM     37  C   UNL     1       1.863  -1.644 -12.752  1.00  0.00     0.251 C 
ATOM     38  H   UNL     1       0.473  -0.573 -11.802  1.00  0.00     0.163 HD
ATOM     39  O   UNL     1       1.696  -1.029 -13.803  1.00  0.00    -0.269 OA
BRANCH  37  40
ATOM     40  C   UNL     1       2.827  -2.772 -12.717  1.00  0.00     0.039 A 
ATOM     41  C   UNL     1       2.600  -3.916 -11.953  1.00  0.00     0.014 A 
ATOM     42  C   UNL     1       3.977  -2.705 -13.516  1.00  0.00     0.014 A 
ATOM     43  C   UNL     1       3.586  -4.894 -11.846  1.00  0.00     0.010 A 
ATOM     44  C   UNL     1       4.920  -3.741 -13.491  1.00  0.00     0.010 A 
ATOM     45  C   UNL     1       4.754  -4.828 -12.622  1.00  0.00    -0.014 A 
BRANCH  45  46
ATOM     46  C   UNL     1       5.767  -5.915 -12.518  1.00  0.00     0.031 A 
ATOM     47  C   UNL     1       7.162  -5.631 -12.026  1.00  0.00     0.074 A 
ATOM     48  C   UNL     1       5.409  -7.181 -12.814  1.00  0.00     0.049 A 
ATOM     49  N   UNL     1       8.168  -6.457 -11.869  1.00  0.00    -0.248 NA
ATOM     50  C   UNL     1       7.473  -4.239 -11.665  1.00  0.00     0.031 C 
ATOM     51  C   UNL     1       4.085  -7.591 -13.287  1.00  0.00     0.029 A 
ATOM     52  N   UNL     1       6.106  -8.361 -12.728  1.00  0.00    -0.354 N 
ATOM     53  C   UNL     1       9.228  -5.686 -11.409  1.00  0.00     0.074 A 
ATOM     54  C   UNL     1       8.757  -4.320 -11.342  1.00  0.00     0.031 C 
ATOM     55  C   UNL     1       4.043  -8.928 -13.378  1.00  0.00     0.029 A 
ATOM     56  C   UNL     1       5.356  -9.468 -13.045  1.00  0.00     0.049 A 
ATOM     57  H   UNL     1       7.054  -8.409 -12.465  1.00  0.00     0.167 HD
ATOM     58  C   UNL     1      10.475  -6.085 -11.059  1.00  0.00     0.037 A 
ATOM     59  C   UNL     1       5.688 -10.772 -13.076  1.00  0.00     0.037 A 
ATOM     60  C   UNL     1      10.935  -7.449 -11.102  1.00  0.00     0.049 A 
ATOM     61  C   UNL     1       7.093 -11.179 -12.734  1.00  0.00     0.074 A 
ATOM     62  C   UNL     1      12.181  -7.950 -10.767  1.00  0.00     0.029 A 
ATOM     63  N   UNL     1      10.163  -8.533 -11.496  1.00  0.00    -0.354 N 
ATOM     64  N   UNL     1       8.089 -10.435 -12.320  1.00  0.00    -0.248 NA
ATOM     65  C   UNL     1       7.425 -12.603 -12.881  1.00  0.00     0.031 C 
ATOM     66  C   UNL     1      12.175  -9.330 -10.993  1.00  0.00     0.029 A 
ATOM     67  C   UNL     1      10.912  -9.697 -11.427  1.00  0.00     0.049 A 
ATOM     68  H   UNL     1       9.222  -8.482 -11.782  1.00  0.00     0.167 HD
ATOM     69  C   UNL     1       9.161 -11.298 -12.148  1.00  0.00     0.074 A 
ATOM     70  C   UNL     1       8.688 -12.626 -12.479  1.00  0.00     0.031 C 
ATOM     71  C   UNL     1      10.427 -11.012 -11.758  1.00  0.00     0.037 A 
BRANCH  58  72
ATOM     72  C   UNL     1      11.444  -5.036 -10.595  1.00  0.00     0.064 A 
ATOM     73  C   UNL     1      11.324  -4.433  -9.335  1.00  0.00     0.173 A 
ATOM     74  C   UNL     1      12.547  -4.684 -11.388  1.00  0.00     0.173 A 
ATOM     75  F   UNL     1      10.282  -4.727  -8.542  1.00  0.00    -0.203 F 
ATOM     76  C   UNL     1      12.265  -3.508  -8.890  1.00  0.00     0.198 A 
ATOM     77  C   UNL     1      13.501  -3.779 -10.930  1.00  0.00     0.198 A 
ATOM     78  F   UNL     1      12.714  -5.238 -12.599  1.00  0.00    -0.203 F 
ATOM     79  F   UNL     1      12.114  -2.922  -7.694  1.00  0.00    -0.200 F 
ATOM     80  C   UNL     1      13.357  -3.189  -9.683  1.00  0.00     0.200 A 
ATOM     81  F   UNL     1      14.563  -3.482 -11.691  1.00  0.00    -0.200 F 
ATOM     82  F   UNL     1      14.271  -2.311  -9.246  1.00  0.00    -0.200 F 
ENDBRANCH  58  72
BRANCH  59  83
ATOM     83  C   UNL     1       4.664 -11.785 -13.444  1.00  0.00     0.064 A 
ATOM     84  C   UNL     1       4.178 -12.694 -12.495  1.00  0.00     0.173 A 
ATOM     85  C   UNL     1       4.133 -11.850 -14.741  1.00  0.00     0.173 A 
ATOM     86  F   UNL     1       4.672 -12.687 -11.248  1.00  0.00    -0.203 F 
ATOM     87  C   UNL     1       3.201 -13.630 -12.828  1.00  0.00     0.198 A 
ATOM     88  C   UNL     1       3.135 -12.766 -15.066  1.00  0.00     0.198 A 
ATOM     89  F   UNL     1       4.564 -11.004 -15.687  1.00  0.00    -0.203 F 
ATOM     90  F   UNL     1       2.777 -14.508 -11.910  1.00  0.00    -0.200 F 
ATOM     91  C   UNL     1       2.673 -13.659 -14.110  1.00  0.00     0.200 A 
ATOM     92  F   UNL     1       2.617 -12.780 -16.301  1.00  0.00    -0.200 F 
ATOM     93  F   UNL     1       1.723 -14.549 -14.427  1.00  0.00    -0.200 F 
ENDBRANCH  59  83
BRANCH  71  94
ATOM     94  C   UNL     1      11.392 -12.155 -11.654  1.00  0.00     0.064 A 
ATOM     95  C   UNL     1      11.928 -12.764 -12.797  1.00  0.00     0.173 A 
ATOM     96  C   UNL     1      11.833 -12.603 -10.399  1.00  0.00     0.173 A 
ATOM     97  F   UNL     1      11.525 -12.380 -14.018  1.00  0.00    -0.203 F 
ATOM     98  C   UNL     1      12.861 -13.791 -12.688  1.00  0.00     0.198 A 
ATOM     99  C   UNL     1      12.786 -13.612 -10.295  1.00  0.00     0.198 A 
ATOM    100  F   UNL     1      11.354 -12.047  -9.276  1.00  0.00    -0.203 F 
ATOM    101  F   UNL     1      13.336 -14.382 -13.793  1.00  0.00    -0.200 F 
ATOM    102  C   UNL     1      13.296 -14.207 -11.439  1.00  0.00     0.200 A 
ATOM    103  F   UNL     1      13.214 -14.004  -9.088  1.00  0.00    -0.200 F 
ATOM    104  F   UNL     1      14.205 -15.186 -11.337  1.00  0.00    -0.200 F 
ENDBRANCH  71  94
ENDBRANCH  45  46
ENDBRANCH  37  40
ENDBRANCH  35  36
ENDBRANCH  34  35
ENDBRANCH  33  34
ENDBRANCH  32  33
ENDBRANCH   1  32
TORSDOF 20
