REMARK SMILES O=C(NCCCCCCNC(=O)[C@H]1CSCN1C(=O)c1cccc2cccnc12)c1ccc(-c2c3nc(c(-c4c(F)c(F)c(F)c(F)c4F)c4ccc([nH]4)c(-c4c(F)c(F)c(F)c(F)c4F)c4nc(c(-c5c(F)c(F)c(F)c(F)c5F)c5ccc2[nH]5)C=C4)C=C3)cc1
REMARK SMILES IDX 6 1 5 2 4 3 3 4 1 5 2 6 30 8 31 9 92 10 32 11 91 12 33 13
REMARK SMILES IDX 34 14 35 15 85 16 36 17 90 18 84 19 86 20 37 21 89 22 83 23
REMARK SMILES IDX 82 24 38 26 70 27 50 28 69 29 51 30 54 31 68 32 87 33 52 34
REMARK SMILES IDX 53 35 67 37 88 38 55 39 39 40 40 41 48 42 41 43 42 44 46 45
REMARK SMILES IDX 49 46 43 47 44 48 47 49 45 50 71 51 72 52 80 53 73 54 74 55
REMARK SMILES IDX 78 56 81 57 75 58 76 59 79 60 77 61 56 62 57 63 65 64 58 65
REMARK SMILES IDX 59 66 63 67 66 68 60 69 61 70 64 71 62 72 7 73 8 74 9 75
REMARK SMILES IDX 10 76 11 77 12 79 13 80 14 81 17 82 15 83 16 84 18 85 19 86
REMARK SMILES IDX 20 87 21 88 29 89 22 90 24 91 28 92 23 93 25 94 27 95 26 96
REMARK H PARENT 3 7 86 25 54 36 10 78
REMARK Flexibility Score: inf
ROOT
ATOM      1  C   UNL     1       4.253  -2.172   3.109  1.00  0.00     0.002 C 
ENDROOT
BRANCH   1   2
ATOM      2  C   UNL     1       4.733  -0.907   2.397  1.00  0.00     0.021 C 
BRANCH   2   3
ATOM      3  C   UNL     1       4.447  -0.863   0.900  1.00  0.00     0.116 C 
BRANCH   3   4
ATOM      4  N   UNL     1       3.023  -0.895   0.608  1.00  0.00    -0.352 N 
ATOM      5  O   UNL     1       1.027  -0.090  -0.068  1.00  0.00    -0.269 OA
ATOM      6  C   UNL     1       2.252   0.012  -0.072  1.00  0.00     0.251 C 
ATOM      7  H   UNL     1       2.543  -1.684   0.947  1.00  0.00     0.163 HD
BRANCH   6   8
ATOM      8  C   UNL     1       2.890   1.130  -0.795  1.00  0.00     0.039 A 
ATOM      9  C   UNL     1       4.002   0.914  -1.615  1.00  0.00     0.014 A 
ATOM     10  C   UNL     1       2.349   2.411  -0.667  1.00  0.00     0.014 A 
ATOM     11  C   UNL     1       4.647   1.996  -2.208  1.00  0.00     0.010 A 
ATOM     12  C   UNL     1       2.952   3.485  -1.324  1.00  0.00     0.010 A 
ATOM     13  C   UNL     1       4.120   3.289  -2.078  1.00  0.00    -0.014 A 
BRANCH  13  14
ATOM     14  C   UNL     1       4.763   4.435  -2.768  1.00  0.00     0.031 A 
ATOM     15  C   UNL     1       5.364   5.562  -1.981  1.00  0.00     0.074 A 
ATOM     16  C   UNL     1       4.763   4.473  -4.113  1.00  0.00     0.049 A 
ATOM     17  N   UNL     1       5.870   6.692  -2.406  1.00  0.00    -0.248 NA
ATOM     18  C   UNL     1       5.388   5.404  -0.520  1.00  0.00     0.031 C 
ATOM     19  C   UNL     1       4.211   3.434  -4.984  1.00  0.00     0.029 A 
ATOM     20  N   UNL     1       5.225   5.427  -4.983  1.00  0.00    -0.354 N 
ATOM     21  C   UNL     1       6.250   7.390  -1.268  1.00  0.00     0.074 A 
ATOM     22  C   UNL     1       5.890   6.568  -0.132  1.00  0.00     0.031 C 
ATOM     23  C   UNL     1       4.369   3.804  -6.262  1.00  0.00     0.029 A 
ATOM     24  C   UNL     1       4.971   5.132  -6.300  1.00  0.00     0.049 A 
ATOM     25  H   UNL     1       5.693   6.243  -4.692  1.00  0.00     0.167 HD
ATOM     26  C   UNL     1       6.847   8.604  -1.183  1.00  0.00     0.037 A 
ATOM     27  C   UNL     1       5.164   5.865  -7.412  1.00  0.00     0.037 A 
ATOM     28  C   UNL     1       7.197   9.413  -2.324  1.00  0.00     0.049 A 
ATOM     29  C   UNL     1       5.778   7.231  -7.292  1.00  0.00     0.074 A 
ATOM     30  C   UNL     1       7.836  10.640  -2.349  1.00  0.00     0.029 A 
ATOM     31  N   UNL     1       6.920   9.081  -3.644  1.00  0.00    -0.354 N 
ATOM     32  N   UNL     1       6.167   7.869  -6.216  1.00  0.00    -0.248 NA
ATOM     33  C   UNL     1       5.982   7.978  -8.540  1.00  0.00     0.031 C 
ATOM     34  C   UNL     1       7.885  11.081  -3.675  1.00  0.00     0.029 A 
ATOM     35  C   UNL     1       7.347  10.094  -4.487  1.00  0.00     0.049 A 
ATOM     36  H   UNL     1       6.484   8.248  -3.937  1.00  0.00     0.167 HD
ATOM     37  C   UNL     1       6.692   9.076  -6.655  1.00  0.00     0.074 A 
ATOM     38  C   UNL     1       6.571   9.081  -8.099  1.00  0.00     0.031 C 
ATOM     39  C   UNL     1       7.233  10.082  -5.926  1.00  0.00     0.037 A 
BRANCH  26  40
ATOM     40  C   UNL     1       7.120   9.149   0.192  1.00  0.00     0.064 A 
ATOM     41  C   UNL     1       8.064   8.565   1.050  1.00  0.00     0.173 A 
ATOM     42  C   UNL     1       6.431  10.281   0.655  1.00  0.00     0.173 A 
ATOM     43  F   UNL     1       8.748   7.477   0.663  1.00  0.00    -0.203 F 
ATOM     44  C   UNL     1       8.274   9.065   2.334  1.00  0.00     0.198 A 
ATOM     45  C   UNL     1       6.670  10.801   1.925  1.00  0.00     0.198 A 
ATOM     46  F   UNL     1       5.524  10.889  -0.126  1.00  0.00    -0.203 F 
ATOM     47  F   UNL     1       9.133   8.448   3.158  1.00  0.00    -0.200 F 
ATOM     48  C   UNL     1       7.581  10.184   2.768  1.00  0.00     0.200 A 
ATOM     49  F   UNL     1       6.011  11.893   2.336  1.00  0.00    -0.200 F 
ATOM     50  F   UNL     1       7.783  10.662   4.004  1.00  0.00    -0.200 F 
ENDBRANCH  26  40
BRANCH  27  51
ATOM     51  C   UNL     1       4.756   5.307  -8.726  1.00  0.00     0.064 A 
ATOM     52  C   UNL     1       5.712   4.911  -9.670  1.00  0.00     0.173 A 
ATOM     53  C   UNL     1       3.403   5.113  -9.044  1.00  0.00     0.173 A 
ATOM     54  F   UNL     1       7.017   5.091  -9.417  1.00  0.00    -0.203 F 
ATOM     55  C   UNL     1       5.331   4.346 -10.885  1.00  0.00     0.198 A 
ATOM     56  C   UNL     1       3.024   4.520 -10.246  1.00  0.00     0.198 A 
ATOM     57  F   UNL     1       2.450   5.467  -8.170  1.00  0.00    -0.203 F 
ATOM     58  F   UNL     1       6.264   4.002 -11.782  1.00  0.00    -0.200 F 
ATOM     59  C   UNL     1       3.988   4.142 -11.168  1.00  0.00     0.200 A 
ATOM     60  F   UNL     1       1.727   4.306 -10.506  1.00  0.00    -0.200 F 
ATOM     61  F   UNL     1       3.624   3.581 -12.329  1.00  0.00    -0.200 F 
ENDBRANCH  27  51
BRANCH  39  62
ATOM     62  C   UNL     1       7.798  11.257  -6.673  1.00  0.00     0.064 A 
ATOM     63  C   UNL     1       6.977  12.201  -7.304  1.00  0.00     0.173 A 
ATOM     64  C   UNL     1       9.185  11.474  -6.691  1.00  0.00     0.173 A 
ATOM     65  F   UNL     1       5.646  12.031  -7.330  1.00  0.00    -0.203 F 
ATOM     66  C   UNL     1       7.525  13.315  -7.937  1.00  0.00     0.198 A 
ATOM     67  C   UNL     1       9.726  12.604  -7.296  1.00  0.00     0.198 A 
ATOM     68  F   UNL     1      10.014  10.602  -6.099  1.00  0.00    -0.203 F 
ATOM     69  F   UNL     1       6.725  14.187  -8.565  1.00  0.00    -0.200 F 
ATOM     70  C   UNL     1       8.896  13.521  -7.922  1.00  0.00     0.200 A 
ATOM     71  F   UNL     1      11.050  12.809  -7.266  1.00  0.00    -0.200 F 
ATOM     72  F   UNL     1       9.419  14.604  -8.514  1.00  0.00    -0.200 F 
ENDBRANCH  39  62
ENDBRANCH  13  14
ENDBRANCH   6   8
ENDBRANCH   3   4
ENDBRANCH   2   3
ENDBRANCH   1   2
BRANCH   1  73
ATOM     73  C   UNL     1       4.766  -3.492   2.526  1.00  0.00     0.002 C 
BRANCH  73  74
ATOM     74  C   UNL     1       6.288  -3.628   2.429  1.00  0.00     0.021 C 
BRANCH  74  75
ATOM     75  C   UNL     1       7.048  -3.398   3.731  1.00  0.00     0.116 C 
BRANCH  75  76
ATOM     76  N   UNL     1       6.648  -4.288   4.804  1.00  0.00    -0.354 N 
ATOM     77  C   UNL     1       7.441  -4.967   5.699  1.00  0.00     0.243 C 
ATOM     78  H   UNL     1       5.678  -4.425   4.905  1.00  0.00     0.163 HD
ATOM     79  O   UNL     1       6.905  -5.453   6.697  1.00  0.00    -0.273 OA
BRANCH  77  80
ATOM     80  C   UNL     1       8.963  -5.014   5.442  1.00  0.00     0.185 C 
ATOM     81  C   UNL     1       9.551  -3.635   5.771  1.00  0.00     0.106 C 
ATOM     82  N   UNL     1       9.668  -6.054   6.203  1.00  0.00    -0.316 N 
ATOM     83  S   UNL     1      10.726  -3.853   7.122  1.00  0.00    -0.138 SA
ATOM     84  C   UNL     1      10.894  -5.613   6.826  1.00  0.00     0.190 C 
BRANCH  82  85
ATOM     85  C   UNL     1       9.328  -7.389   5.970  1.00  0.00     0.257 C 
ATOM     86  O   UNL     1       8.472  -7.699   5.144  1.00  0.00    -0.269 OA
BRANCH  85  87
ATOM     87  C   UNL     1       9.971  -8.448   6.793  1.00  0.00     0.066 A 
ATOM     88  C   UNL     1       9.942  -8.311   8.194  1.00  0.00     0.016 A 
ATOM     89  C   UNL     1      10.518  -9.583   6.175  1.00  0.00     0.083 A 
ATOM     90  C   UNL     1      10.548  -9.263   9.004  1.00  0.00     0.002 A 
ATOM     91  C   UNL     1      11.085 -10.564   7.024  1.00  0.00     0.001 A 
ATOM     92  N   UNL     1      10.521  -9.760   4.832  1.00  0.00    -0.255 NA
ATOM     93  C   UNL     1      11.122 -10.385   8.418  1.00  0.00     0.010 A 
ATOM     94  C   UNL     1      11.604 -11.734   6.452  1.00  0.00     0.012 A 
ATOM     95  C   UNL     1      10.995 -10.914   4.317  1.00  0.00     0.112 A 
ATOM     96  C   UNL     1      11.541 -11.924   5.079  1.00  0.00     0.021 A 
ENDBRANCH  85  87
ENDBRANCH  82  85
ENDBRANCH  77  80
ENDBRANCH  75  76
ENDBRANCH  74  75
ENDBRANCH  73  74
ENDBRANCH   1  73
TORSDOF 15
