REMARK SMILES Cc1ccc(S(=O)(=O)N2c3ccc(C(=O)NCCCCCCNC(=O)c4ccc(-c5c6nc(c(-c7c(F)c(F)c(F)c(F)c7F)c7ccc([nH]7)c(-c7c(F)c(F)c(F)c(F)c7F)c7nc(c(-c8c(F)c(F)c(F)c(F)c8F)c8ccc5[nH]8)C=C7)C=C6)cc4)cc3C[C@H]2C)cc1
REMARK SMILES IDX 19 1 18 2 17 3 16 4 14 5 15 6 13 8 9 9 10 10 92 11 11 12
REMARK SMILES IDX 90 13 91 14 93 15 12 16 89 17 6 18 7 19 8 20 5 21 1 22 2 23
REMARK SMILES IDX 3 24 95 25 4 26 94 27 20 28 21 29 22 30 23 31 24 32 25 34
REMARK SMILES IDX 26 35 27 36 88 37 28 38 87 39 29 40 30 41 31 42 81 43 32 44
REMARK SMILES IDX 86 45 80 46 82 47 33 48 85 49 79 50 78 51 34 53 66 54 46 55
REMARK SMILES IDX 65 56 47 57 50 58 64 59 83 60 48 61 49 62 63 64 84 65 51 66
REMARK SMILES IDX 35 67 36 68 44 69 37 70 38 71 42 72 45 73 39 74 40 75 43 76
REMARK SMILES IDX 41 77 67 78 68 79 76 80 69 81 70 82 74 83 77 84 71 85 72 86
REMARK SMILES IDX 75 87 73 88 52 89 53 90 61 91 54 92 55 93 59 94 62 95 56 96
REMARK SMILES IDX 57 97 60 98 58 99
REMARK H PARENT 16 7 23 33 82 52 50 63
REMARK Flexibility Score: inf
ROOT
ATOM      1  C   UNL     1     -12.726   1.450   2.842  1.00  0.00     0.002 C 
ENDROOT
BRANCH   1   2
ATOM      2  C   UNL     1     -11.226   1.699   3.019  1.00  0.00     0.021 C 
BRANCH   2   3
ATOM      3  C   UNL     1     -10.307   1.362   1.850  1.00  0.00     0.116 C 
BRANCH   3   4
ATOM      4  N   UNL     1     -10.551   2.101   0.630  1.00  0.00    -0.352 N 
ATOM      5  C   UNL     1      -9.664   2.432  -0.372  1.00  0.00     0.251 C 
ATOM      6  O   UNL     1     -10.071   3.070  -1.341  1.00  0.00    -0.269 OA
ATOM      7  H   UNL     1     -11.476   2.410   0.498  1.00  0.00     0.163 HD
BRANCH   5   8
ATOM      8  C   UNL     1      -8.213   2.098  -0.272  1.00  0.00     0.040 A 
ATOM      9  N   UNL     1      -4.037   1.657   0.210  1.00  0.00    -0.263 N 
ATOM     10  C   UNL     1      -5.480   1.654   0.068  1.00  0.00     0.055 A 
ATOM     11  C   UNL     1      -3.609   3.008  -0.343  1.00  0.00     0.101 C 
ATOM     12  C   UNL     1      -6.373   0.700   0.521  1.00  0.00     0.028 A 
ATOM     13  C   UNL     1      -5.937   2.782  -0.609  1.00  0.00    -0.021 A 
ATOM     14  C   UNL     1      -4.795   3.562  -1.160  1.00  0.00     0.063 C 
ATOM     15  C   UNL     1      -3.306   3.935   0.842  1.00  0.00     0.032 C 
ATOM     16  C   UNL     1      -7.739   0.902   0.296  1.00  0.00     0.016 A 
ATOM     17  C   UNL     1      -7.294   3.027  -0.779  1.00  0.00     0.019 A 
BRANCH   9  18
ATOM     18  S   UNL     1      -3.319   0.255  -0.491  1.00  0.00     0.264 S 
ATOM     19  O   UNL     1      -3.420   0.385  -1.929  1.00  0.00    -0.201 OA
ATOM     20  O   UNL     1      -3.874  -0.904   0.190  1.00  0.00    -0.201 OA
BRANCH  18  21
ATOM     21  C   UNL     1      -1.574   0.200  -0.121  1.00  0.00     0.088 A 
ATOM     22  C   UNL     1       2.712  -0.177   0.127  1.00  0.00     0.044 C 
ATOM     23  C   UNL     1       1.218  -0.052   0.098  1.00  0.00    -0.051 A 
ATOM     24  C   UNL     1       0.427  -1.181  -0.128  1.00  0.00     0.005 A 
ATOM     25  C   UNL     1       0.595   1.186   0.290  1.00  0.00     0.005 A 
ATOM     26  C   UNL     1      -0.959  -1.056  -0.239  1.00  0.00     0.022 A 
ATOM     27  C   UNL     1      -0.796   1.311   0.191  1.00  0.00     0.022 A 
ENDBRANCH  18  21
ENDBRANCH   9  18
ENDBRANCH   5   8
ENDBRANCH   3   4
ENDBRANCH   2   3
ENDBRANCH   1   2
BRANCH   1  28
ATOM     28  C   UNL     1     -13.177   0.099   2.270  1.00  0.00     0.002 C 
BRANCH  28  29
ATOM     29  C   UNL     1     -12.526  -1.165   2.830  1.00  0.00     0.021 C 
BRANCH  29  30
ATOM     30  C   UNL     1     -12.738  -1.414   4.314  1.00  0.00     0.116 C 
BRANCH  30  31
ATOM     31  N   UNL     1     -13.876  -2.262   4.629  1.00  0.00    -0.352 N 
ATOM     32  C   UNL     1     -14.352  -2.691   5.859  1.00  0.00     0.251 C 
ATOM     33  H   UNL     1     -14.386  -2.580   3.850  1.00  0.00     0.163 HD
ATOM     34  O   UNL     1     -15.263  -3.493   5.909  1.00  0.00    -0.269 OA
BRANCH  32  35
ATOM     35  C   UNL     1     -13.848  -2.064   7.112  1.00  0.00     0.039 A 
ATOM     36  C   UNL     1     -14.786  -1.768   8.113  1.00  0.00     0.014 A 
ATOM     37  C   UNL     1     -12.540  -1.611   7.240  1.00  0.00     0.014 A 
ATOM     38  C   UNL     1     -14.477  -0.823   9.090  1.00  0.00     0.010 A 
ATOM     39  C   UNL     1     -12.264  -0.600   8.134  1.00  0.00     0.010 A 
ATOM     40  C   UNL     1     -13.257  -0.160   9.013  1.00  0.00    -0.014 A 
BRANCH  40  41
ATOM     41  C   UNL     1     -12.943   1.059   9.741  1.00  0.00     0.031 A 
ATOM     42  C   UNL     1     -12.040   1.017  10.906  1.00  0.00     0.074 A 
ATOM     43  C   UNL     1     -13.364   2.238   9.232  1.00  0.00     0.049 A 
ATOM     44  N   UNL     1     -11.932   1.960  11.777  1.00  0.00    -0.248 NA
ATOM     45  C   UNL     1     -11.203  -0.136  11.205  1.00  0.00     0.031 C 
ATOM     46  C   UNL     1     -12.894   3.576   9.580  1.00  0.00     0.029 A 
ATOM     47  N   UNL     1     -14.475   2.463   8.403  1.00  0.00    -0.354 N 
ATOM     48  C   UNL     1     -10.852   1.677  12.583  1.00  0.00     0.074 A 
ATOM     49  C   UNL     1     -10.476   0.328  12.226  1.00  0.00     0.031 C 
ATOM     50  C   UNL     1     -13.841   4.467   9.244  1.00  0.00     0.029 A 
ATOM     51  C   UNL     1     -15.003   3.707   8.819  1.00  0.00     0.049 A 
ATOM     52  H   UNL     1     -14.814   1.879   7.686  1.00  0.00     0.167 HD
ATOM     53  C   UNL     1     -10.338   2.674  13.362  1.00  0.00     0.037 A 
ATOM     54  C   UNL     1     -16.238   3.796   9.393  1.00  0.00     0.037 A 
ATOM     55  C   UNL     1     -11.176   3.871  13.284  1.00  0.00     0.049 A 
ATOM     56  C   UNL     1     -16.223   4.387  10.782  1.00  0.00     0.074 A 
ATOM     57  C   UNL     1     -11.078   5.042  12.550  1.00  0.00     0.029 A 
ATOM     58  N   UNL     1     -12.470   3.832  13.793  1.00  0.00    -0.354 N 
ATOM     59  N   UNL     1     -15.175   4.395  11.559  1.00  0.00    -0.248 NA
ATOM     60  C   UNL     1     -17.389   5.003  11.408  1.00  0.00     0.031 C 
ATOM     61  C   UNL     1     -12.340   5.687  12.580  1.00  0.00     0.029 A 
ATOM     62  C   UNL     1     -13.197   4.920  13.351  1.00  0.00     0.049 A 
ATOM     63  H   UNL     1     -12.819   3.127  14.384  1.00  0.00     0.167 HD
ATOM     64  C   UNL     1     -15.495   4.990  12.752  1.00  0.00     0.074 A 
ATOM     65  C   UNL     1     -16.888   5.366  12.602  1.00  0.00     0.031 C 
ATOM     66  C   UNL     1     -14.580   5.114  13.760  1.00  0.00     0.037 A 
BRANCH  53  67
ATOM     67  C   UNL     1      -8.947   2.678  13.973  1.00  0.00     0.064 A 
ATOM     68  C   UNL     1      -8.291   3.898  14.259  1.00  0.00     0.173 A 
ATOM     69  C   UNL     1      -8.175   1.533  14.243  1.00  0.00     0.173 A 
ATOM     70  F   UNL     1      -8.923   5.075  14.164  1.00  0.00    -0.203 F 
ATOM     71  C   UNL     1      -6.951   3.963  14.657  1.00  0.00     0.198 A 
ATOM     72  C   UNL     1      -6.821   1.596  14.594  1.00  0.00     0.198 A 
ATOM     73  F   UNL     1      -8.713   0.310  14.246  1.00  0.00    -0.203 F 
ATOM     74  F   UNL     1      -6.386   5.155  14.899  1.00  0.00    -0.200 F 
ATOM     75  C   UNL     1      -6.205   2.813  14.789  1.00  0.00     0.200 A 
ATOM     76  F   UNL     1      -6.123   0.462  14.747  1.00  0.00    -0.200 F 
ATOM     77  F   UNL     1      -4.911   2.873  15.130  1.00  0.00    -0.200 F 
ENDBRANCH  53  67
BRANCH  54  78
ATOM     78  C   UNL     1     -17.177   2.744   8.918  1.00  0.00     0.064 A 
ATOM     79  C   UNL     1     -17.526   2.735   7.553  1.00  0.00     0.173 A 
ATOM     80  C   UNL     1     -17.390   1.569   9.648  1.00  0.00     0.173 A 
ATOM     81  F   UNL     1     -17.339   3.836   6.808  1.00  0.00    -0.203 F 
ATOM     82  C   UNL     1     -17.944   1.567   6.920  1.00  0.00     0.198 A 
ATOM     83  C   UNL     1     -17.828   0.404   9.012  1.00  0.00     0.198 A 
ATOM     84  F   UNL     1     -17.064   1.508  10.947  1.00  0.00    -0.203 F 
ATOM     85  F   UNL     1     -18.149   1.562   5.595  1.00  0.00    -0.200 F 
ATOM     86  C   UNL     1     -18.066   0.394   7.645  1.00  0.00     0.200 A 
ATOM     87  F   UNL     1     -17.922  -0.739   9.707  1.00  0.00    -0.200 F 
ATOM     88  F   UNL     1     -18.371  -0.752   7.021  1.00  0.00    -0.200 F 
ENDBRANCH  54  78
BRANCH  66  89
ATOM     89  C   UNL     1     -14.860   5.514  15.194  1.00  0.00     0.064 A 
ATOM     90  C   UNL     1     -16.100   5.354  15.832  1.00  0.00     0.173 A 
ATOM     91  C   UNL     1     -13.801   5.947  16.035  1.00  0.00     0.173 A 
ATOM     92  F   UNL     1     -17.155   4.836  15.192  1.00  0.00    -0.203 F 
ATOM     93  C   UNL     1     -16.284   5.661  17.185  1.00  0.00     0.198 A 
ATOM     94  C   UNL     1     -13.974   6.191  17.396  1.00  0.00     0.198 A 
ATOM     95  F   UNL     1     -12.555   6.117  15.569  1.00  0.00    -0.203 F 
ATOM     96  F   UNL     1     -17.500   5.530  17.733  1.00  0.00    -0.200 F 
ATOM     97  C   UNL     1     -15.220   6.065  17.969  1.00  0.00     0.200 A 
ATOM     98  F   UNL     1     -12.918   6.527  18.152  1.00  0.00    -0.200 F 
ATOM     99  F   UNL     1     -15.392   6.307  19.275  1.00  0.00    -0.200 F 
ENDBRANCH  66  89
ENDBRANCH  40  41
ENDBRANCH  32  35
ENDBRANCH  30  31
ENDBRANCH  29  30
ENDBRANCH  28  29
ENDBRANCH   1  28
TORSDOF 15
