REMARK SMILES O=C(NCCCCCCNC(=O)c1ccn(-c2cc(-c3ccncc3)nc(-c3ccccc3F)n2)n1)c1ccc(-c2c3nc(c(-c4c(F)c(F)c(F)c(F)c4F)c4ccc([nH]4)c(-c4c(F)c(F)c(F)c(F)c4F)c4nc(c(-c5c(F)c(F)c(F)c(F)c5F)c5ccc2[nH]5)C=C4)C=C3)cc1
REMARK SMILES IDX 6 1 5 2 4 3 3 4 1 5 2 6 37 8 38 9 99 10 39 11 98 12 40 13
REMARK SMILES IDX 41 14 42 15 92 16 43 17 97 18 91 19 93 20 44 21 96 22 90 23
REMARK SMILES IDX 89 24 45 26 77 27 57 28 76 29 58 30 61 31 75 32 94 33 59 34
REMARK SMILES IDX 60 35 74 37 95 38 62 39 46 40 47 41 55 42 48 43 49 44 53 45
REMARK SMILES IDX 56 46 50 47 51 48 54 49 52 50 78 51 79 52 87 53 80 54 81 55
REMARK SMILES IDX 85 56 88 57 82 58 83 59 86 60 84 61 63 62 64 63 72 64 65 65
REMARK SMILES IDX 66 66 70 67 73 68 67 69 68 70 71 71 69 72 7 73 8 74 9 75
REMARK SMILES IDX 10 76 11 77 12 79 13 80 14 81 36 82 15 83 16 84 17 85 18 86
REMARK SMILES IDX 35 87 19 88 27 89 26 90 20 91 21 92 25 93 22 94 24 95 23 96
REMARK SMILES IDX 28 97 29 98 33 99 30 100 32 101 34 102 31 103
REMARK H PARENT 3 7 93 25 61 36 10 78
REMARK Flexibility Score: inf
ROOT
ATOM      1  C   UNL     1       4.251   3.064   1.646  1.00  0.00     0.002 C 
ENDROOT
BRANCH   1   2
ATOM      2  C   UNL     1       4.757   2.179   0.498  1.00  0.00     0.021 C 
BRANCH   2   3
ATOM      3  C   UNL     1       4.532   0.685   0.710  1.00  0.00     0.116 C 
BRANCH   3   4
ATOM      4  N   UNL     1       3.137   0.311   0.789  1.00  0.00    -0.352 N 
ATOM      5  O   UNL     1       1.110  -0.443   0.348  1.00  0.00    -0.269 OA
ATOM      6  C   UNL     1       2.184  -0.054  -0.119  1.00  0.00     0.251 C 
ATOM      7  H   UNL     1       2.794   0.322   1.712  1.00  0.00     0.163 HD
BRANCH   6   8
ATOM      8  C   UNL     1       2.309   0.077  -1.596  1.00  0.00     0.039 A 
ATOM      9  C   UNL     1       3.492   0.193  -2.328  1.00  0.00     0.014 A 
ATOM     10  C   UNL     1       1.087   0.098  -2.295  1.00  0.00     0.014 A 
ATOM     11  C   UNL     1       3.445   0.453  -3.700  1.00  0.00     0.010 A 
ATOM     12  C   UNL     1       1.034   0.343  -3.660  1.00  0.00     0.010 A 
ATOM     13  C   UNL     1       2.212   0.576  -4.358  1.00  0.00    -0.014 A 
BRANCH  13  14
ATOM     14  C   UNL     1       2.174   0.680  -5.820  1.00  0.00     0.031 A 
ATOM     15  C   UNL     1       2.736  -0.538  -6.484  1.00  0.00     0.074 A 
ATOM     16  C   UNL     1       1.552   1.675  -6.498  1.00  0.00     0.049 A 
ATOM     17  N   UNL     1       3.756  -0.605  -7.275  1.00  0.00    -0.248 NA
ATOM     18  C   UNL     1       2.205  -1.860  -6.094  1.00  0.00     0.031 C 
ATOM     19  C   UNL     1       0.775   2.794  -5.957  1.00  0.00     0.029 A 
ATOM     20  N   UNL     1       1.427   1.867  -7.851  1.00  0.00    -0.354 N 
ATOM     21  C   UNL     1       3.875  -1.945  -7.639  1.00  0.00     0.074 A 
ATOM     22  C   UNL     1       3.005  -2.689  -6.768  1.00  0.00     0.031 C 
ATOM     23  C   UNL     1       0.083   3.401  -6.952  1.00  0.00     0.029 A 
ATOM     24  C   UNL     1       0.465   2.817  -8.223  1.00  0.00     0.049 A 
ATOM     25  H   UNL     1       1.970   1.375  -8.508  1.00  0.00     0.167 HD
ATOM     26  C   UNL     1       4.503  -2.306  -8.791  1.00  0.00     0.037 A 
ATOM     27  C   UNL     1       0.015   3.079  -9.485  1.00  0.00     0.037 A 
ATOM     28  C   UNL     1       5.363  -1.255  -9.261  1.00  0.00     0.049 A 
ATOM     29  C   UNL     1       1.042   2.567 -10.425  1.00  0.00     0.074 A 
ATOM     30  C   UNL     1       6.499  -0.645  -8.768  1.00  0.00     0.029 A 
ATOM     31  N   UNL     1       4.850  -0.397 -10.198  1.00  0.00    -0.354 N 
ATOM     32  N   UNL     1       2.239   3.073 -10.521  1.00  0.00    -0.248 NA
ATOM     33  C   UNL     1       0.890   1.190 -10.866  1.00  0.00     0.031 C 
ATOM     34  C   UNL     1       6.333   0.738  -9.070  1.00  0.00     0.029 A 
ATOM     35  C   UNL     1       5.169   0.882  -9.824  1.00  0.00     0.049 A 
ATOM     36  H   UNL     1       4.341  -0.655 -11.001  1.00  0.00     0.167 HD
ATOM     37  C   UNL     1       3.068   1.966 -10.590  1.00  0.00     0.074 A 
ATOM     38  C   UNL     1       2.174   0.830 -10.823  1.00  0.00     0.031 C 
ATOM     39  C   UNL     1       4.356   2.029 -10.151  1.00  0.00     0.037 A 
BRANCH  26  40
ATOM     40  C   UNL     1       4.043  -3.438  -9.673  1.00  0.00     0.064 A 
ATOM     41  C   UNL     1       2.716  -3.923  -9.677  1.00  0.00     0.173 A 
ATOM     42  C   UNL     1       4.849  -3.868 -10.745  1.00  0.00     0.173 A 
ATOM     43  F   UNL     1       1.801  -3.486  -8.803  1.00  0.00    -0.203 F 
ATOM     44  C   UNL     1       2.239  -4.790 -10.657  1.00  0.00     0.198 A 
ATOM     45  C   UNL     1       4.351  -4.699 -11.756  1.00  0.00     0.198 A 
ATOM     46  F   UNL     1       6.107  -3.423 -10.874  1.00  0.00    -0.203 F 
ATOM     47  F   UNL     1       0.962  -5.197 -10.610  1.00  0.00    -0.200 F 
ATOM     48  C   UNL     1       3.049  -5.163 -11.708  1.00  0.00     0.200 A 
ATOM     49  F   UNL     1       5.121  -5.000 -12.810  1.00  0.00    -0.200 F 
ATOM     50  F   UNL     1       2.558  -5.924 -12.694  1.00  0.00    -0.200 F 
ENDBRANCH  26  40
BRANCH  27  51
ATOM     51  C   UNL     1      -1.380   3.328  -9.963  1.00  0.00     0.064 A 
ATOM     52  C   UNL     1      -2.489   2.848  -9.242  1.00  0.00     0.173 A 
ATOM     53  C   UNL     1      -1.639   3.732 -11.291  1.00  0.00     0.173 A 
ATOM     54  F   UNL     1      -2.341   2.378  -7.996  1.00  0.00    -0.203 F 
ATOM     55  C   UNL     1      -3.759   2.738  -9.819  1.00  0.00     0.198 A 
ATOM     56  C   UNL     1      -2.913   3.622 -11.867  1.00  0.00     0.198 A 
ATOM     57  F   UNL     1      -0.636   4.159 -12.074  1.00  0.00    -0.203 F 
ATOM     58  F   UNL     1      -4.763   2.201  -9.112  1.00  0.00    -0.200 F 
ATOM     59  C   UNL     1      -3.968   3.109 -11.134  1.00  0.00     0.200 A 
ATOM     60  F   UNL     1      -3.101   3.952 -13.154  1.00  0.00    -0.200 F 
ATOM     61  F   UNL     1      -5.169   2.930 -11.704  1.00  0.00    -0.200 F 
ENDBRANCH  27  51
BRANCH  39  62
ATOM     62  C   UNL     1       4.925   3.380  -9.808  1.00  0.00     0.064 A 
ATOM     63  C   UNL     1       6.086   3.783 -10.480  1.00  0.00     0.173 A 
ATOM     64  C   UNL     1       4.479   4.189  -8.747  1.00  0.00     0.173 A 
ATOM     65  F   UNL     1       6.581   3.026 -11.472  1.00  0.00    -0.203 F 
ATOM     66  C   UNL     1       6.786   4.922 -10.099  1.00  0.00     0.198 A 
ATOM     67  C   UNL     1       5.163   5.353  -8.390  1.00  0.00     0.198 A 
ATOM     68  F   UNL     1       3.424   3.835  -8.002  1.00  0.00    -0.203 F 
ATOM     69  F   UNL     1       7.934   5.233 -10.715  1.00  0.00    -0.200 F 
ATOM     70  C   UNL     1       6.323   5.710  -9.058  1.00  0.00     0.200 A 
ATOM     71  F   UNL     1       4.728   6.106  -7.368  1.00  0.00    -0.200 F 
ATOM     72  F   UNL     1       7.014   6.795  -8.679  1.00  0.00    -0.200 F 
ENDBRANCH  39  62
ENDBRANCH  13  14
ENDBRANCH   6   8
ENDBRANCH   3   4
ENDBRANCH   2   3
ENDBRANCH   1   2
BRANCH   1  73
ATOM     73  C   UNL     1       4.810   2.728   3.035  1.00  0.00     0.002 C 
BRANCH  73  74
ATOM     74  C   UNL     1       6.339   2.709   3.135  1.00  0.00     0.021 C 
BRANCH  74  75
ATOM     75  C   UNL     1       7.007   4.033   2.774  1.00  0.00     0.116 C 
BRANCH  75  76
ATOM     76  N   UNL     1       6.683   5.060   3.744  1.00  0.00    -0.351 N 
ATOM     77  C   UNL     1       7.536   5.692   4.612  1.00  0.00     0.271 C 
ATOM     78  H   UNL     1       5.739   5.337   3.785  1.00  0.00     0.163 HD
ATOM     79  O   UNL     1       7.064   6.368   5.532  1.00  0.00    -0.267 OA
BRANCH  77  80
ATOM     80  C   UNL     1       8.974   5.580   4.369  1.00  0.00     0.150 A 
ATOM     81  C   UNL     1       9.670   5.984   3.199  1.00  0.00     0.056 A 
ATOM     82  N   UNL     1       9.818   5.052   5.274  1.00  0.00    -0.161 NA
ATOM     83  C   UNL     1      10.997   5.822   3.500  1.00  0.00     0.118 A 
ATOM     84  N   UNL     1      11.051   5.318   4.778  1.00  0.00    -0.222 N 
BRANCH  84  85
ATOM     85  C   UNL     1      12.229   5.091   5.532  1.00  0.00     0.158 A 
ATOM     86  C   UNL     1      12.228   4.081   6.467  1.00  0.00     0.078 A 
ATOM     87  N   UNL     1      13.302   5.871   5.278  1.00  0.00    -0.209 NA
ATOM     88  C   UNL     1      13.426   3.863   7.114  1.00  0.00     0.077 A 
ATOM     89  C   UNL     1      14.385   5.649   6.039  1.00  0.00     0.165 A 
ATOM     90  N   UNL     1      14.500   4.663   6.946  1.00  0.00    -0.228 NA
BRANCH  88  91
ATOM     91  C   UNL     1      13.609   2.701   7.984  1.00  0.00     0.003 A 
ATOM     92  C   UNL     1      13.544   1.402   7.461  1.00  0.00     0.030 A 
ATOM     93  C   UNL     1      13.828   2.848   9.355  1.00  0.00     0.030 A 
ATOM     94  C   UNL     1      13.675   0.325   8.322  1.00  0.00     0.111 A 
ATOM     95  C   UNL     1      13.938   1.708  10.136  1.00  0.00     0.111 A 
ATOM     96  N   UNL     1      13.859   0.451   9.651  1.00  0.00    -0.265 NA
ENDBRANCH  88  91
BRANCH  89  97
ATOM     97  C   UNL     1      15.464   6.620   5.932  1.00  0.00     0.055 A 
ATOM     98  C   UNL     1      15.263   7.968   6.290  1.00  0.00     0.015 A 
ATOM     99  C   UNL     1      16.722   6.254   5.447  1.00  0.00     0.134 A 
ATOM    100  C   UNL     1      16.293   8.906   6.174  1.00  0.00     0.001 A 
ATOM    101  C   UNL     1      17.752   7.187   5.320  1.00  0.00     0.040 A 
ATOM    102  F   UNL     1      16.956   4.992   5.058  1.00  0.00    -0.206 F 
ATOM    103  C   UNL     1      17.538   8.515   5.687  1.00  0.00     0.003 A 
ENDBRANCH  89  97
ENDBRANCH  84  85
ENDBRANCH  77  80
ENDBRANCH  75  76
ENDBRANCH  74  75
ENDBRANCH  73  74
ENDBRANCH   1  73
TORSDOF 16
