REMARK SMILES CCn1nc(C(C)C)cc1C(=O)N[C@@H](CC(N)=O)C(=O)NCCCCCCNC(=O)c1ccc(-c2c3nc(c(-c4c(F)c(F)c(F)c(F)c4F)c4ccc([nH]4)c(-c4c(F)c(F)c(F)c(F)c4F)c4nc(c(-c5c(F)c(F)c(F)c(F)c5F)c5ccc2[nH]5)C=C4)C=C3)cc1
REMARK SMILES IDX 24 1 23 2 22 3 21 4 19 5 20 6 14 8 13 9 11 10 12 11 10 13
REMARK SMILES IDX 3 14 4 15 5 16 9 17 2 18 1 19 6 20 7 21 8 22 15 23 16 24
REMARK SMILES IDX 17 25 18 26 25 29 26 30 27 31 28 32 29 33 30 35 31 36 32 37
REMARK SMILES IDX 93 38 33 39 92 40 34 41 35 42 36 43 86 44 37 45 91 46 85 47
REMARK SMILES IDX 87 48 38 49 90 50 84 51 83 52 39 54 71 55 51 56 70 57 52 58
REMARK SMILES IDX 55 59 69 60 88 61 53 62 54 63 68 65 89 66 56 67 40 68 41 69
REMARK SMILES IDX 49 70 42 71 43 72 47 73 50 74 44 75 45 76 48 77 46 78 72 79
REMARK SMILES IDX 73 80 81 81 74 82 75 83 79 84 82 85 76 86 77 87 80 88 78 89
REMARK SMILES IDX 57 90 58 91 66 92 59 93 60 94 64 95 67 96 61 97 62 98 65 99
REMARK SMILES IDX 63 100
REMARK H PARENT 21 7 13 12 17 27 17 28 28 34 87 53 55 64
REMARK Flexibility Score: inf
ROOT
ATOM      1  C   UNL     1      -5.454  -6.843   0.619  1.00  0.00     0.002 C 
ENDROOT
BRANCH   1   2
ATOM      2  C   UNL     1      -4.364  -5.836   0.986  1.00  0.00     0.021 C 
BRANCH   2   3
ATOM      3  C   UNL     1      -2.942  -6.316   0.743  1.00  0.00     0.116 C 
BRANCH   3   4
ATOM      4  N   UNL     1      -2.607  -6.481  -0.654  1.00  0.00    -0.354 N 
ATOM      5  C   UNL     1      -1.415  -6.306  -1.290  1.00  0.00     0.243 C 
ATOM      6  O   UNL     1      -1.300  -6.795  -2.419  1.00  0.00    -0.273 OA
ATOM      7  H   UNL     1      -3.353  -6.761  -1.233  1.00  0.00     0.163 HD
BRANCH   5   8
ATOM      8  C   UNL     1      -0.205  -5.617  -0.623  1.00  0.00     0.181 C 
BRANCH   8   9
ATOM      9  N   UNL     1      -0.540  -4.298  -0.094  1.00  0.00    -0.338 N 
ATOM     10  C   UNL     1      -0.409  -3.036  -0.621  1.00  0.00     0.270 C 
ATOM     11  O   UNL     1      -1.035  -2.156  -0.026  1.00  0.00    -0.268 OA
ATOM     12  H   UNL     1      -0.932  -4.316   0.809  1.00  0.00     0.164 HD
BRANCH  10  13
ATOM     13  C   UNL     1       0.483  -2.750  -1.725  1.00  0.00     0.126 A 
ATOM     14  N   UNL     1       1.036  -1.503  -1.967  1.00  0.00    -0.260 N 
ATOM     15  N   UNL     1       2.022  -1.519  -2.897  1.00  0.00    -0.177 NA
ATOM     16  C   UNL     1       1.992  -2.761  -3.381  1.00  0.00     0.066 A 
ATOM     17  C   UNL     1       0.978  -3.518  -2.763  1.00  0.00     0.059 A 
BRANCH  14  18
ATOM     18  C   UNL     1       0.650  -0.224  -1.391  1.00  0.00     0.142 C 
ATOM     19  C   UNL     1       1.249   0.036  -0.020  1.00  0.00     0.029 C 
ENDBRANCH  14  18
BRANCH  16  20
ATOM     20  C   UNL     1       2.922  -3.259  -4.449  1.00  0.00     0.034 C 
ATOM     21  C   UNL     1       2.518  -2.752  -5.830  1.00  0.00     0.014 C 
ATOM     22  C   UNL     1       4.390  -2.966  -4.144  1.00  0.00     0.014 C 
ENDBRANCH  16  20
ENDBRANCH  10  13
ENDBRANCH   8   9
BRANCH   8  23
ATOM     23  C   UNL     1       0.647  -6.514   0.267  1.00  0.00     0.134 C 
BRANCH  23  24
ATOM     24  C   UNL     1      -0.032  -7.084   1.477  1.00  0.00     0.220 C 
ATOM     25  N   UNL     1      -0.359  -8.405   1.400  1.00  0.00    -0.370 N 
ATOM     26  O   UNL     1      -0.303  -6.423   2.473  1.00  0.00    -0.275 OA
ATOM     27  H   UNL     1      -0.134  -8.921   0.592  1.00  0.00     0.159 HD
ATOM     28  H   UNL     1      -0.820  -8.843   2.151  1.00  0.00     0.159 HD
ENDBRANCH  23  24
ENDBRANCH   8  23
ENDBRANCH   5   8
ENDBRANCH   3   4
ENDBRANCH   2   3
ENDBRANCH   1   2
BRANCH   1  29
ATOM     29  C   UNL     1      -5.268  -8.281   1.129  1.00  0.00     0.002 C 
BRANCH  29  30
ATOM     30  C   UNL     1      -4.961  -8.476   2.622  1.00  0.00     0.021 C 
BRANCH  30  31
ATOM     31  C   UNL     1      -6.014  -7.921   3.563  1.00  0.00     0.116 C 
BRANCH  31  32
ATOM     32  N   UNL     1      -7.316  -8.571   3.407  1.00  0.00    -0.352 N 
ATOM     33  C   UNL     1      -8.515  -8.252   4.022  1.00  0.00     0.251 C 
ATOM     34  H   UNL     1      -7.342  -9.333   2.785  1.00  0.00     0.163 HD
ATOM     35  O   UNL     1      -9.421  -9.062   4.106  1.00  0.00    -0.269 OA
BRANCH  33  36
ATOM     36  C   UNL     1      -8.676  -6.892   4.564  1.00  0.00     0.039 A 
ATOM     37  C   UNL     1      -9.320  -6.645   5.780  1.00  0.00     0.014 A 
ATOM     38  C   UNL     1      -8.120  -5.854   3.829  1.00  0.00     0.014 A 
ATOM     39  C   UNL     1      -9.330  -5.343   6.277  1.00  0.00     0.010 A 
ATOM     40  C   UNL     1      -7.936  -4.638   4.418  1.00  0.00     0.010 A 
ATOM     41  C   UNL     1      -8.620  -4.348   5.591  1.00  0.00    -0.014 A 
BRANCH  41  42
ATOM     42  C   UNL     1      -8.473  -2.995   6.112  1.00  0.00     0.031 A 
ATOM     43  C   UNL     1      -7.858  -2.923   7.464  1.00  0.00     0.074 A 
ATOM     44  C   UNL     1      -8.631  -1.917   5.308  1.00  0.00     0.049 A 
ATOM     45  N   UNL     1      -8.379  -2.436   8.541  1.00  0.00    -0.248 NA
ATOM     46  C   UNL     1      -6.564  -3.593   7.683  1.00  0.00     0.031 C 
ATOM     47  C   UNL     1      -8.946  -1.893   3.872  1.00  0.00     0.029 A 
ATOM     48  N   UNL     1      -8.414  -0.602   5.576  1.00  0.00    -0.354 N 
ATOM     49  C   UNL     1      -7.401  -2.550   9.525  1.00  0.00     0.074 A 
ATOM     50  C   UNL     1      -6.397  -3.434   8.998  1.00  0.00     0.031 C 
ATOM     51  C   UNL     1      -8.654  -0.679   3.358  1.00  0.00     0.029 A 
ATOM     52  C   UNL     1      -8.299   0.208   4.448  1.00  0.00     0.049 A 
ATOM     53  H   UNL     1      -8.344  -0.250   6.493  1.00  0.00     0.167 HD
ATOM     54  C   UNL     1      -7.378  -1.690  10.582  1.00  0.00     0.037 A 
ATOM     55  C   UNL     1      -7.905   1.506   4.420  1.00  0.00     0.037 A 
ATOM     56  C   UNL     1      -8.649  -1.022  10.726  1.00  0.00     0.049 A 
ATOM     57  C   UNL     1      -8.066   2.036   5.798  1.00  0.00     0.074 A 
ATOM     58  C   UNL     1      -9.946  -1.450  10.934  1.00  0.00     0.029 A 
ATOM     59  N   UNL     1      -8.755   0.266  10.260  1.00  0.00    -0.354 N 
ATOM     60  N   UNL     1      -9.225   2.200   6.373  1.00  0.00    -0.248 NA
ATOM     61  C   UNL     1      -6.931   1.906   6.700  1.00  0.00     0.031 C 
ATOM     62  C   UNL     1     -10.748  -0.602  10.115  1.00  0.00     0.029 A 
ATOM     63  C   UNL     1      -9.911   0.347   9.528  1.00  0.00     0.049 A 
ATOM     64  H   UNL     1      -8.116   0.997  10.423  1.00  0.00     0.167 HD
ATOM     65  C   UNL     1      -9.037   1.753   7.672  1.00  0.00     0.074 A 
ATOM     66  C   UNL     1      -7.587   1.655   7.836  1.00  0.00     0.031 C 
ATOM     67  C   UNL     1     -10.069   1.214   8.385  1.00  0.00     0.037 A 
BRANCH  54  68
ATOM     68  C   UNL     1      -6.116  -1.153  11.220  1.00  0.00     0.064 A 
ATOM     69  C   UNL     1      -6.231  -0.329  12.359  1.00  0.00     0.173 A 
ATOM     70  C   UNL     1      -4.851  -1.145  10.593  1.00  0.00     0.173 A 
ATOM     71  F   UNL     1      -7.388  -0.251  13.033  1.00  0.00    -0.203 F 
ATOM     72  C   UNL     1      -5.194   0.513  12.770  1.00  0.00     0.198 A 
ATOM     73  C   UNL     1      -3.801  -0.344  11.039  1.00  0.00     0.198 A 
ATOM     74  F   UNL     1      -4.604  -1.817   9.464  1.00  0.00    -0.203 F 
ATOM     75  F   UNL     1      -5.400   1.381  13.769  1.00  0.00    -0.200 F 
ATOM     76  C   UNL     1      -3.984   0.513  12.102  1.00  0.00     0.200 A 
ATOM     77  F   UNL     1      -2.640  -0.349  10.369  1.00  0.00    -0.200 F 
ATOM     78  F   UNL     1      -3.014   1.369  12.448  1.00  0.00    -0.200 F 
ENDBRANCH  54  68
BRANCH  55  79
ATOM     79  C   UNL     1      -7.130   2.220   3.374  1.00  0.00     0.064 A 
ATOM     80  C   UNL     1      -7.056   3.623   3.354  1.00  0.00     0.173 A 
ATOM     81  C   UNL     1      -6.221   1.536   2.542  1.00  0.00     0.173 A 
ATOM     82  F   UNL     1      -7.855   4.351   4.147  1.00  0.00    -0.203 F 
ATOM     83  C   UNL     1      -6.113   4.299   2.570  1.00  0.00     0.198 A 
ATOM     84  C   UNL     1      -5.285   2.212   1.756  1.00  0.00     0.198 A 
ATOM     85  F   UNL     1      -6.159   0.197   2.546  1.00  0.00    -0.203 F 
ATOM     86  F   UNL     1      -6.033   5.636   2.625  1.00  0.00    -0.200 F 
ATOM     87  C   UNL     1      -5.221   3.593   1.781  1.00  0.00     0.200 A 
ATOM     88  F   UNL     1      -4.404   1.515   1.024  1.00  0.00    -0.200 F 
ATOM     89  F   UNL     1      -4.277   4.236   1.079  1.00  0.00    -0.200 F 
ENDBRANCH  55  79
BRANCH  67  90
ATOM     90  C   UNL     1     -11.458   1.338   7.817  1.00  0.00     0.064 A 
ATOM     91  C   UNL     1     -11.872   0.759   6.604  1.00  0.00     0.173 A 
ATOM     92  C   UNL     1     -12.444   1.941   8.607  1.00  0.00     0.173 A 
ATOM     93  F   UNL     1     -11.017   0.074   5.837  1.00  0.00    -0.203 F 
ATOM     94  C   UNL     1     -13.201   0.821   6.185  1.00  0.00     0.198 A 
ATOM     95  C   UNL     1     -13.777   1.969   8.206  1.00  0.00     0.198 A 
ATOM     96  F   UNL     1     -12.121   2.460   9.802  1.00  0.00    -0.203 F 
ATOM     97  F   UNL     1     -13.565   0.268   5.018  1.00  0.00    -0.200 F 
ATOM     98  C   UNL     1     -14.153   1.420   6.990  1.00  0.00     0.200 A 
ATOM     99  F   UNL     1     -14.702   2.504   9.013  1.00  0.00    -0.200 F 
ATOM    100  F   UNL     1     -15.438   1.444   6.610  1.00  0.00    -0.200 F 
ENDBRANCH  67  90
ENDBRANCH  41  42
ENDBRANCH  33  36
ENDBRANCH  31  32
ENDBRANCH  30  31
ENDBRANCH  29  30
ENDBRANCH   1  29
TORSDOF 19
