REMARK SMILES O=C(NCCCCCCNC(=O)c1cc(Cl)cn(Cc2ccc(Cl)cc2)c1=O)c1ccc(-c2c3nc(c(-c4c(F)c(F)c(F)c(F)c4F)c4ccc([nH]4)c(-c4c(F)c(F)c(F)c(F)c4F)c4nc(c(-c5c(F)c(F)c(F)c(F)c5F)c5ccc2[nH]5)C=C4)C=C3)cc1
REMARK SMILES IDX 6 1 5 2 4 3 3 4 1 5 2 6 29 8 30 9 91 10 31 11 90 12 32 13
REMARK SMILES IDX 33 14 34 15 84 16 35 17 89 18 83 19 85 20 36 21 88 22 82 23
REMARK SMILES IDX 81 24 37 26 69 27 49 28 68 29 50 30 53 31 67 32 86 33 51 34
REMARK SMILES IDX 52 35 66 37 87 38 54 39 38 40 39 41 47 42 40 43 41 44 45 45
REMARK SMILES IDX 48 46 42 47 43 48 46 49 44 50 70 51 71 52 79 53 72 54 73 55
REMARK SMILES IDX 77 56 80 57 74 58 75 59 78 60 76 61 55 62 56 63 64 64 57 65
REMARK SMILES IDX 58 66 62 67 65 68 59 69 60 70 63 71 61 72 7 73 8 74 9 75
REMARK SMILES IDX 10 76 11 77 12 79 13 80 14 81 27 82 15 83 18 84 28 85 16 86
REMARK SMILES IDX 17 87 19 88 20 89 21 90 26 91 22 92 25 93 23 94 24 95
REMARK H PARENT 3 7 85 25 53 36 10 78
REMARK Flexibility Score: inf
ROOT
ATOM      1  C   UNL     1       4.254   3.550   1.706  1.00  0.00     0.002 C 
ENDROOT
BRANCH   1   2
ATOM      2  C   UNL     1       4.741   2.670   0.550  1.00  0.00     0.021 C 
BRANCH   2   3
ATOM      3  C   UNL     1       4.433   1.180   0.682  1.00  0.00     0.116 C 
BRANCH   3   4
ATOM      4  N   UNL     1       3.007   0.913   0.738  1.00  0.00    -0.352 N 
ATOM      5  O   UNL     1       1.030   0.038   0.116  1.00  0.00    -0.269 OA
ATOM      6  C   UNL     1       2.259  -0.000   0.045  1.00  0.00     0.251 C 
ATOM      7  H   UNL     1       2.502   1.473   1.371  1.00  0.00     0.163 HD
BRANCH   6   8
ATOM      8  C   UNL     1       2.902  -1.034  -0.795  1.00  0.00     0.039 A 
ATOM      9  C   UNL     1       2.335  -1.331  -2.040  1.00  0.00     0.014 A 
ATOM     10  C   UNL     1       4.001  -1.768  -0.338  1.00  0.00     0.014 A 
ATOM     11  C   UNL     1       2.880  -2.342  -2.835  1.00  0.00     0.010 A 
ATOM     12  C   UNL     1       4.572  -2.748  -1.151  1.00  0.00     0.010 A 
ATOM     13  C   UNL     1       4.007  -3.054  -2.399  1.00  0.00    -0.014 A 
BRANCH  13  14
ATOM     14  C   UNL     1       4.571  -4.168  -3.202  1.00  0.00     0.031 A 
ATOM     15  C   UNL     1       4.431  -5.583  -2.711  1.00  0.00     0.074 A 
ATOM     16  C   UNL     1       5.222  -3.916  -4.353  1.00  0.00     0.049 A 
ATOM     17  N   UNL     1       4.954  -6.683  -3.189  1.00  0.00    -0.248 NA
ATOM     18  C   UNL     1       3.598  -5.785  -1.514  1.00  0.00     0.031 C 
ATOM     19  C   UNL     1       5.404  -2.593  -4.950  1.00  0.00     0.029 A 
ATOM     20  N   UNL     1       5.856  -4.766  -5.226  1.00  0.00    -0.354 N 
ATOM     21  C   UNL     1       4.522  -7.702  -2.351  1.00  0.00     0.074 A 
ATOM     22  C   UNL     1       3.723  -7.089  -1.312  1.00  0.00     0.031 C 
ATOM     23  C   UNL     1       6.086  -2.721  -6.101  1.00  0.00     0.029 A 
ATOM     24  C   UNL     1       6.426  -4.128  -6.300  1.00  0.00     0.049 A 
ATOM     25  H   UNL     1       5.897  -5.740  -5.094  1.00  0.00     0.167 HD
ATOM     26  C   UNL     1       4.758  -9.032  -2.450  1.00  0.00     0.037 A 
ATOM     27  C   UNL     1       7.151  -4.623  -7.322  1.00  0.00     0.037 A 
ATOM     28  C   UNL     1       5.537  -9.646  -3.492  1.00  0.00     0.049 A 
ATOM     29  C   UNL     1       7.433  -6.101  -7.380  1.00  0.00     0.074 A 
ATOM     30  C   UNL     1       5.862 -10.981  -3.655  1.00  0.00     0.029 A 
ATOM     31  N   UNL     1       6.097  -8.964  -4.561  1.00  0.00    -0.354 N 
ATOM     32  N   UNL     1       7.050  -7.050  -6.562  1.00  0.00    -0.248 NA
ATOM     33  C   UNL     1       8.252  -6.575  -8.506  1.00  0.00     0.031 C 
ATOM     34  C   UNL     1       6.631 -11.106  -4.816  1.00  0.00     0.029 A 
ATOM     35  C   UNL     1       6.755  -9.854  -5.393  1.00  0.00     0.049 A 
ATOM     36  H   UNL     1       6.035  -7.992  -4.707  1.00  0.00     0.167 HD
ATOM     37  C   UNL     1       7.545  -8.233  -7.093  1.00  0.00     0.074 A 
ATOM     38  C   UNL     1       8.255  -7.886  -8.305  1.00  0.00     0.031 C 
ATOM     39  C   UNL     1       7.424  -9.495  -6.615  1.00  0.00     0.037 A 
BRANCH  26  40
ATOM     40  C   UNL     1       4.154  -9.928  -1.411  1.00  0.00     0.064 A 
ATOM     41  C   UNL     1       2.785 -10.235  -1.426  1.00  0.00     0.173 A 
ATOM     42  C   UNL     1       4.959 -10.549  -0.446  1.00  0.00     0.173 A 
ATOM     43  F   UNL     1       1.974  -9.654  -2.322  1.00  0.00    -0.203 F 
ATOM     44  C   UNL     1       2.244 -11.130  -0.508  1.00  0.00     0.198 A 
ATOM     45  C   UNL     1       4.418 -11.461   0.457  1.00  0.00     0.198 A 
ATOM     46  F   UNL     1       6.274 -10.290  -0.393  1.00  0.00    -0.203 F 
ATOM     47  F   UNL     1       0.930 -11.394  -0.527  1.00  0.00    -0.200 F 
ATOM     48  C   UNL     1       3.062 -11.750   0.425  1.00  0.00     0.200 A 
ATOM     49  F   UNL     1       5.211 -12.068   1.350  1.00  0.00    -0.200 F 
ATOM     50  F   UNL     1       2.542 -12.627   1.295  1.00  0.00    -0.200 F 
ENDBRANCH  26  40
BRANCH  27  51
ATOM     51  C   UNL     1       7.649  -3.720  -8.391  1.00  0.00     0.064 A 
ATOM     52  C   UNL     1       7.119  -3.789  -9.688  1.00  0.00     0.173 A 
ATOM     53  C   UNL     1       8.673  -2.793  -8.153  1.00  0.00     0.173 A 
ATOM     54  F   UNL     1       6.156  -4.679  -9.970  1.00  0.00    -0.203 F 
ATOM     55  C   UNL     1       7.609  -2.979 -10.710  1.00  0.00     0.198 A 
ATOM     56  C   UNL     1       9.145  -1.966  -9.169  1.00  0.00     0.198 A 
ATOM     57  F   UNL     1       9.214  -2.690  -6.930  1.00  0.00    -0.203 F 
ATOM     58  F   UNL     1       7.118  -3.100 -11.951  1.00  0.00    -0.200 F 
ATOM     59  C   UNL     1       8.618  -2.065 -10.449  1.00  0.00     0.200 A 
ATOM     60  F   UNL     1      10.114  -1.077  -8.912  1.00  0.00    -0.200 F 
ATOM     61  F   UNL     1       9.091  -1.288 -11.432  1.00  0.00    -0.200 F 
ENDBRANCH  27  51
BRANCH  39  62
ATOM     62  C   UNL     1       8.012 -10.605  -7.433  1.00  0.00     0.064 A 
ATOM     63  C   UNL     1       9.394 -10.831  -7.481  1.00  0.00     0.173 A 
ATOM     64  C   UNL     1       7.173 -11.488  -8.130  1.00  0.00     0.173 A 
ATOM     65  F   UNL     1      10.236 -10.006  -6.840  1.00  0.00    -0.203 F 
ATOM     66  C   UNL     1       9.918 -11.892  -8.214  1.00  0.00     0.198 A 
ATOM     67  C   UNL     1       7.699 -12.561  -8.843  1.00  0.00     0.198 A 
ATOM     68  F   UNL     1       5.843 -11.317  -8.108  1.00  0.00    -0.203 F 
ATOM     69  F   UNL     1      11.245 -12.070  -8.276  1.00  0.00    -0.200 F 
ATOM     70  C   UNL     1       9.071 -12.760  -8.888  1.00  0.00     0.200 A 
ATOM     71  F   UNL     1       6.879 -13.405  -9.483  1.00  0.00    -0.200 F 
ATOM     72  F   UNL     1       9.578 -13.786  -9.585  1.00  0.00    -0.200 F 
ENDBRANCH  39  62
ENDBRANCH  13  14
ENDBRANCH   6   8
ENDBRANCH   3   4
ENDBRANCH   2   3
ENDBRANCH   1   2
BRANCH   1  73
ATOM     73  C   UNL     1       4.760   3.161   3.098  1.00  0.00     0.002 C 
BRANCH  73  74
ATOM     74  C   UNL     1       6.281   3.067   3.247  1.00  0.00     0.021 C 
BRANCH  74  75
ATOM     75  C   UNL     1       7.056   4.316   2.836  1.00  0.00     0.116 C 
BRANCH  75  76
ATOM     76  N   UNL     1       6.734   5.469   3.660  1.00  0.00    -0.352 N 
ATOM     77  C   UNL     1       7.582   6.348   4.271  1.00  0.00     0.256 C 
ATOM     78  H   UNL     1       5.774   5.640   3.796  1.00  0.00     0.163 HD
ATOM     79  O   UNL     1       7.132   7.254   4.970  1.00  0.00    -0.269 OA
BRANCH  77  80
ATOM     80  C   UNL     1       9.036   6.110   4.174  1.00  0.00     0.106 A 
ATOM     81  C   UNL     1       9.674   5.831   5.323  1.00  0.00     0.041 A 
ATOM     82  C   UNL     1       9.775   6.102   2.874  1.00  0.00     0.263 A 
ATOM     83  C   UNL     1      11.063   5.459   5.312  1.00  0.00     0.058 A 
ATOM     84  N   UNL     1      11.109   5.681   2.941  1.00  0.00    -0.309 N 
ATOM     85  O   UNL     1       9.211   6.403   1.825  1.00  0.00    -0.268 OA
ATOM     86  Cl  UNL     1      11.831   5.074   6.801  1.00  0.00    -0.083 Cl
ATOM     87  C   UNL     1      11.720   5.369   4.149  1.00  0.00     0.110 A 
BRANCH  84  88
ATOM     88  C   UNL     1      11.877   5.582   1.699  1.00  0.00     0.161 C 
BRANCH  88  89
ATOM     89  C   UNL     1      12.734   6.801   1.439  1.00  0.00    -0.028 A 
ATOM     90  C   UNL     1      13.957   6.975   2.106  1.00  0.00     0.007 A 
ATOM     91  C   UNL     1      12.312   7.786   0.533  1.00  0.00     0.007 A 
ATOM     92  C   UNL     1      14.737   8.110   1.881  1.00  0.00     0.021 A 
ATOM     93  C   UNL     1      13.102   8.915   0.295  1.00  0.00     0.021 A 
ATOM     94  C   UNL     1      14.308   9.074   0.973  1.00  0.00     0.041 A 
ATOM     95  Cl  UNL     1      15.275  10.468   0.690  1.00  0.00    -0.084 Cl
ENDBRANCH  88  89
ENDBRANCH  84  88
ENDBRANCH  77  80
ENDBRANCH  75  76
ENDBRANCH  74  75
ENDBRANCH  73  74
ENDBRANCH   1  73
TORSDOF 15
