REMARK SMILES Cc1cc(-n2cnc(C(=O)NCCCCCCNC(=O)c3ccc(-c4c5nc(c(-c6c(F)c(F)c(F)c(F)c6F)c6ccc([nH]6)c(-c6c(F)c(F)c(F)c(F)c6F)c6nc(c(-c7c(F)c(F)c(F)c(F)c7F)c7ccc4[nH]7)C=C6)C=C5)cc3)c2)nc(Cl)n1
REMARK SMILES IDX 15 1 14 2 13 3 12 4 11 5 9 6 10 7 8 9 5 10 6 11 84 12 7 13
REMARK SMILES IDX 4 14 1 15 2 16 3 17 88 18 86 19 85 20 87 21 16 22 17 23
REMARK SMILES IDX 18 24 19 25 20 27 21 28 22 29 83 30 23 31 82 32 24 33 25 34
REMARK SMILES IDX 26 35 76 36 27 37 81 38 75 39 77 40 28 41 80 42 74 43 73 44
REMARK SMILES IDX 29 46 61 47 41 48 60 49 42 50 45 51 59 52 78 53 43 54 44 55
REMARK SMILES IDX 58 57 79 58 46 59 30 60 31 61 39 62 32 63 33 64 37 65 40 66
REMARK SMILES IDX 34 67 35 68 38 69 36 70 62 71 63 72 71 73 64 74 65 75 69 76
REMARK SMILES IDX 72 77 66 78 67 79 70 80 68 81 47 82 48 83 56 84 49 85 50 86
REMARK SMILES IDX 54 87 57 88 51 89 52 90 55 91 53 92
REMARK H PARENT 11 8 18 26 77 45 45 56
REMARK Flexibility Score: inf
ROOT
ATOM      1  C   UNL     1      -7.777  -0.741  -2.480  1.00  0.00     0.002 C 
ENDROOT
BRANCH   1   2
ATOM      2  C   UNL     1      -7.601   0.742  -2.846  1.00  0.00     0.002 C 
BRANCH   2   3
ATOM      3  C   UNL     1      -6.180   1.288  -2.701  1.00  0.00     0.021 C 
BRANCH   3   4
ATOM      4  C   UNL     1      -5.122   0.466  -3.432  1.00  0.00     0.116 C 
BRANCH   4   5
ATOM      5  N   UNL     1      -5.041   0.783  -4.842  1.00  0.00    -0.351 N 
ATOM      6  C   UNL     1      -4.093   1.401  -5.628  1.00  0.00     0.271 C 
ATOM      7  O   UNL     1      -4.399   1.548  -6.814  1.00  0.00    -0.267 OA
ATOM      8  H   UNL     1      -5.834   0.495  -5.349  1.00  0.00     0.163 HD
BRANCH   6   9
ATOM      9  C   UNL     1      -2.798   1.866  -5.103  1.00  0.00     0.146 A 
ATOM     10  N   UNL     1      -0.993   2.305  -3.889  1.00  0.00    -0.290 N 
ATOM     11  C   UNL     1      -0.948   3.010  -5.058  1.00  0.00     0.206 A 
ATOM     12  C   UNL     1      -2.145   1.555  -3.930  1.00  0.00     0.128 A 
ATOM     13  N   UNL     1      -1.987   2.743  -5.821  1.00  0.00    -0.231 NA
BRANCH  10  14
ATOM     14  C   UNL     1      -0.099   2.361  -2.795  1.00  0.00     0.143 A 
ATOM     15  C   UNL     1       1.048   0.163   0.015  1.00  0.00     0.067 C 
ATOM     16  C   UNL     1       0.804   1.349  -0.869  1.00  0.00     0.044 A 
ATOM     17  C   UNL     1       0.038   1.227  -2.007  1.00  0.00     0.071 A 
ATOM     18  N   UNL     1       1.344   2.525  -0.503  1.00  0.00    -0.223 NA
ATOM     19  C   UNL     1       1.158   3.552  -1.349  1.00  0.00     0.224 A 
ATOM     20  N   UNL     1       0.492   3.534  -2.511  1.00  0.00    -0.200 NA
ATOM     21  Cl  UNL     1       1.727   5.072  -0.824  1.00  0.00    -0.041 Cl
ENDBRANCH  10  14
ENDBRANCH   6   9
ENDBRANCH   4   5
ENDBRANCH   3   4
ENDBRANCH   2   3
ENDBRANCH   1   2
BRANCH   1  22
ATOM     22  C   UNL     1      -7.230  -1.167  -1.109  1.00  0.00     0.021 C 
BRANCH  22  23
ATOM     23  C   UNL     1      -8.030  -0.598   0.051  1.00  0.00     0.116 C 
BRANCH  23  24
ATOM     24  N   UNL     1      -9.383  -1.145   0.075  1.00  0.00    -0.352 N 
ATOM     25  C   UNL     1     -10.390  -0.914   0.975  1.00  0.00     0.251 C 
ATOM     26  H   UNL     1      -9.603  -1.766  -0.657  1.00  0.00     0.163 HD
ATOM     27  O   UNL     1     -11.347  -1.685   1.057  1.00  0.00    -0.269 OA
BRANCH  25  28
ATOM     28  C   UNL     1     -10.329   0.270   1.840  1.00  0.00     0.039 A 
ATOM     29  C   UNL     1     -10.756   0.195   3.171  1.00  0.00     0.014 A 
ATOM     30  C   UNL     1      -9.884   1.475   1.296  1.00  0.00     0.014 A 
ATOM     31  C   UNL     1     -10.692   1.331   3.968  1.00  0.00     0.010 A 
ATOM     32  C   UNL     1      -9.719   2.567   2.107  1.00  0.00     0.010 A 
ATOM     33  C   UNL     1     -10.172   2.510   3.425  1.00  0.00    -0.014 A 
BRANCH  33  34
ATOM     34  C   UNL     1     -10.033   3.711   4.234  1.00  0.00     0.031 A 
ATOM     35  C   UNL     1      -9.013   3.643   5.318  1.00  0.00     0.074 A 
ATOM     36  C   UNL     1     -10.594   4.868   3.825  1.00  0.00     0.049 A 
ATOM     37  N   UNL     1      -9.169   3.896   6.576  1.00  0.00    -0.248 NA
ATOM     38  C   UNL     1      -7.665   3.153   4.978  1.00  0.00     0.031 C 
ATOM     39  C   UNL     1     -11.366   5.115   2.601  1.00  0.00     0.029 A 
ATOM     40  N   UNL     1     -10.471   6.112   4.355  1.00  0.00    -0.354 N 
ATOM     41  C   UNL     1      -7.915   3.745   7.167  1.00  0.00     0.074 A 
ATOM     42  C   UNL     1      -7.061   3.158   6.167  1.00  0.00     0.031 C 
ATOM     43  C   UNL     1     -11.428   6.444   2.369  1.00  0.00     0.029 A 
ATOM     44  C   UNL     1     -10.827   7.140   3.491  1.00  0.00     0.049 A 
ATOM     45  H   UNL     1     -10.156   6.273   5.274  1.00  0.00     0.167 HD
ATOM     46  C   UNL     1      -7.623   4.295   8.378  1.00  0.00     0.037 A 
ATOM     47  C   UNL     1     -10.586   8.463   3.669  1.00  0.00     0.037 A 
ATOM     48  C   UNL     1      -8.817   4.685   9.077  1.00  0.00     0.049 A 
ATOM     49  C   UNL     1     -10.294   8.662   5.113  1.00  0.00     0.074 A 
ATOM     50  C   UNL     1      -9.911   3.998   9.565  1.00  0.00     0.029 A 
ATOM     51  N   UNL     1      -9.191   6.005   9.031  1.00  0.00    -0.354 N 
ATOM     52  N   UNL     1     -11.186   8.518   6.056  1.00  0.00    -0.248 NA
ATOM     53  C   UNL     1      -8.907   8.551   5.545  1.00  0.00     0.031 C 
ATOM     54  C   UNL     1     -11.022   4.853   9.309  1.00  0.00     0.029 A 
ATOM     55  C   UNL     1     -10.533   6.033   8.748  1.00  0.00     0.049 A 
ATOM     56  H   UNL     1      -8.607   6.785   9.173  1.00  0.00     0.167 HD
ATOM     57  C   UNL     1     -10.509   7.885   7.088  1.00  0.00     0.074 A 
ATOM     58  C   UNL     1      -9.092   8.010   6.753  1.00  0.00     0.031 C 
ATOM     59  C   UNL     1     -11.165   7.061   7.957  1.00  0.00     0.037 A 
BRANCH  46  60
ATOM     60  C   UNL     1      -6.260   4.771   8.809  1.00  0.00     0.064 A 
ATOM     61  C   UNL     1      -6.039   5.118  10.157  1.00  0.00     0.173 A 
ATOM     62  C   UNL     1      -5.258   5.173   7.902  1.00  0.00     0.173 A 
ATOM     63  F   UNL     1      -6.939   4.804  11.101  1.00  0.00    -0.203 F 
ATOM     64  C   UNL     1      -4.929   5.871  10.553  1.00  0.00     0.198 A 
ATOM     65  C   UNL     1      -4.125   5.876   8.309  1.00  0.00     0.198 A 
ATOM     66  F   UNL     1      -5.389   5.003   6.581  1.00  0.00    -0.203 F 
ATOM     67  F   UNL     1      -4.821   6.280  11.824  1.00  0.00    -0.200 F 
ATOM     68  C   UNL     1      -3.975   6.252   9.627  1.00  0.00     0.200 A 
ATOM     69  F   UNL     1      -3.221   6.253   7.394  1.00  0.00    -0.200 F 
ATOM     70  F   UNL     1      -2.941   7.021   9.992  1.00  0.00    -0.200 F 
ENDBRANCH  46  60
BRANCH  47  71
ATOM     71  C   UNL     1     -10.336   9.503   2.643  1.00  0.00     0.064 A 
ATOM     72  C   UNL     1     -10.415  10.870   2.958  1.00  0.00     0.173 A 
ATOM     73  C   UNL     1      -9.769   9.185   1.392  1.00  0.00     0.173 A 
ATOM     74  F   UNL     1     -10.899  11.261   4.146  1.00  0.00    -0.203 F 
ATOM     75  C   UNL     1      -9.938  11.854   2.085  1.00  0.00     0.198 A 
ATOM     76  C   UNL     1      -9.303  10.168   0.518  1.00  0.00     0.198 A 
ATOM     77  F   UNL     1      -9.570   7.910   1.029  1.00  0.00    -0.203 F 
ATOM     78  F   UNL     1      -9.976  13.144   2.448  1.00  0.00    -0.200 F 
ATOM     79  C   UNL     1      -9.375  11.502   0.870  1.00  0.00     0.200 A 
ATOM     80  F   UNL     1      -8.730   9.810  -0.640  1.00  0.00    -0.200 F 
ATOM     81  F   UNL     1      -8.866  12.441   0.059  1.00  0.00    -0.200 F 
ENDBRANCH  47  71
BRANCH  59  82
ATOM     82  C   UNL     1     -12.668   7.029   7.904  1.00  0.00     0.064 A 
ATOM     83  C   UNL     1     -13.399   6.569   6.794  1.00  0.00     0.173 A 
ATOM     84  C   UNL     1     -13.383   7.287   9.080  1.00  0.00     0.173 A 
ATOM     85  F   UNL     1     -12.784   6.199   5.667  1.00  0.00    -0.203 F 
ATOM     86  C   UNL     1     -14.782   6.407   6.851  1.00  0.00     0.198 A 
ATOM     87  C   UNL     1     -14.759   7.089   9.146  1.00  0.00     0.198 A 
ATOM     88  F   UNL     1     -12.732   7.670  10.190  1.00  0.00    -0.203 F 
ATOM     89  F   UNL     1     -15.451   5.965   5.776  1.00  0.00    -0.200 F 
ATOM     90  C   UNL     1     -15.459   6.657   8.031  1.00  0.00     0.200 A 
ATOM     91  F   UNL     1     -15.403   7.279  10.306  1.00  0.00    -0.200 F 
ATOM     92  F   UNL     1     -16.781   6.449   8.104  1.00  0.00    -0.200 F 
ENDBRANCH  59  82
ENDBRANCH  33  34
ENDBRANCH  25  28
ENDBRANCH  23  24
ENDBRANCH  22  23
ENDBRANCH   1  22
TORSDOF 14
