REMARK SMILES CCn1ccc([C@@H](C)NC(=O)c2cnn(CCC(=O)NCCCCCCNC(=O)c3ccc(-c4c5nc(c(-c6c(F)c(F)c(F)c(F)c6F)c6ccc([nH]6)c(-c6c(F)c(F)c(F)c(F)c6F)c6nc(c(-c7c(F)c(F)c(F)c(F)c7F)c7ccc4[nH]7)C=C6)C=C5)cc3)c2)n1
REMARK SMILES IDX 21 1 20 2 18 3 19 4 17 6 16 7 15 8 12 9 13 10 93 11 14 12
REMARK SMILES IDX 10 13 9 14 11 16 7 17 8 18 6 19 3 20 4 21 94 22 5 23 2 24
REMARK SMILES IDX 1 25 22 26 23 27 24 28 25 29 26 30 27 31 28 32 29 34 30 35
REMARK SMILES IDX 31 36 92 37 32 38 91 39 33 40 34 41 35 42 85 43 36 44 90 45
REMARK SMILES IDX 84 46 86 47 37 48 89 49 83 50 82 51 38 53 70 54 50 55 69 56
REMARK SMILES IDX 51 57 54 58 68 59 87 60 52 61 53 62 67 64 88 65 55 66 39 67
REMARK SMILES IDX 40 68 48 69 41 70 42 71 46 72 49 73 43 74 44 75 47 76 45 77
REMARK SMILES IDX 71 78 72 79 80 80 73 81 74 82 78 83 81 84 75 85 76 86 79 87
REMARK SMILES IDX 77 88 56 89 57 90 65 91 58 92 59 93 63 94 66 95 60 96 61 97
REMARK SMILES IDX 64 98 62 99
REMARK H PARENT 20 5 9 15 27 33 86 52 54 63
REMARK Flexibility Score: inf
ROOT
ATOM      1  C   UNL     1       3.388  -2.853   6.437  1.00  0.00     0.116 C 
ENDROOT
BRANCH   1   2
ATOM      2  N   UNL     1       3.529  -4.253   6.787  1.00  0.00    -0.356 N 
ATOM      3  C   UNL     1       2.622  -5.091   7.356  1.00  0.00     0.221 C 
ATOM      4  O   UNL     1       3.016  -6.166   7.811  1.00  0.00    -0.275 OA
ATOM      5  H   UNL     1       4.405  -4.653   6.585  1.00  0.00     0.163 HD
BRANCH   3   6
ATOM      6  C   UNL     1       1.153  -4.735   7.374  1.00  0.00     0.123 C 
BRANCH   6   7
ATOM      7  C   UNL     1       0.721  -4.045   8.659  1.00  0.00     0.154 C 
BRANCH   7   8
ATOM      8  N   UNL     1       0.826  -2.594   8.635  1.00  0.00    -0.271 N 
ATOM      9  C   UNL     1       0.467  -0.445   8.264  1.00  0.00     0.077 A 
ATOM     10  C   UNL     1       1.355  -0.672   9.335  1.00  0.00     0.149 A 
ATOM     11  C   UNL     1       0.123  -1.720   7.846  1.00  0.00     0.122 A 
ATOM     12  N   UNL     1       1.603  -1.969   9.539  1.00  0.00    -0.181 NA
BRANCH   9  13
ATOM     13  C   UNL     1      -0.138   0.806   7.859  1.00  0.00     0.254 C 
ATOM     14  N   UNL     1       0.172   1.371   6.651  1.00  0.00    -0.344 N 
ATOM     15  H   UNL     1      -0.499   2.001   6.303  1.00  0.00     0.164 HD
ATOM     16  O   UNL     1      -0.937   1.387   8.584  1.00  0.00    -0.269 OA
BRANCH  14  17
ATOM     17  C   UNL     1       1.341   1.185   5.799  1.00  0.00     0.130 C 
ATOM     18  C   UNL     1       2.309   2.350   6.045  1.00  0.00     0.038 C 
BRANCH  17  19
ATOM     19  C   UNL     1       0.908   1.170   4.354  1.00  0.00     0.084 A 
ATOM     20  N   UNL     1       0.551   0.433   2.391  1.00  0.00    -0.273 N 
ATOM     21  C   UNL     1       0.230   1.757   2.323  1.00  0.00     0.109 A 
ATOM     22  N   UNL     1       0.968   0.048   3.618  1.00  0.00    -0.176 NA
ATOM     23  C   UNL     1       0.451   2.267   3.577  1.00  0.00     0.047 A 
BRANCH  20  24
ATOM     24  C   UNL     1       0.402  -0.547   1.330  1.00  0.00     0.141 C 
ATOM     25  C   UNL     1       1.031  -0.130   0.009  1.00  0.00     0.029 C 
ENDBRANCH  20  24
ENDBRANCH  17  19
ENDBRANCH  14  17
ENDBRANCH   9  13
ENDBRANCH   7   8
ENDBRANCH   6   7
ENDBRANCH   3   6
ENDBRANCH   1   2
BRANCH   1  26
ATOM     26  C   UNL     1       4.107  -1.988   7.470  1.00  0.00     0.021 C 
BRANCH  26  27
ATOM     27  C   UNL     1       5.620  -1.892   7.256  1.00  0.00     0.002 C 
BRANCH  27  28
ATOM     28  C   UNL     1       6.070  -1.154   5.980  1.00  0.00     0.002 C 
BRANCH  28  29
ATOM     29  C   UNL     1       5.404   0.200   5.714  1.00  0.00     0.021 C 
BRANCH  29  30
ATOM     30  C   UNL     1       5.624   1.184   6.848  1.00  0.00     0.116 C 
BRANCH  30  31
ATOM     31  N   UNL     1       6.628   2.201   6.605  1.00  0.00    -0.352 N 
ATOM     32  C   UNL     1       6.768   3.439   7.204  1.00  0.00     0.251 C 
ATOM     33  H   UNL     1       7.301   1.980   5.922  1.00  0.00     0.163 HD
ATOM     34  O   UNL     1       7.613   4.221   6.784  1.00  0.00    -0.269 OA
BRANCH  32  35
ATOM     35  C   UNL     1       5.894   3.844   8.338  1.00  0.00     0.039 A 
ATOM     36  C   UNL     1       5.661   5.202   8.592  1.00  0.00     0.014 A 
ATOM     37  C   UNL     1       5.313   2.893   9.175  1.00  0.00     0.014 A 
ATOM     38  C   UNL     1       4.842   5.575   9.660  1.00  0.00     0.010 A 
ATOM     39  C   UNL     1       4.380   3.245  10.114  1.00  0.00     0.010 A 
ATOM     40  C   UNL     1       4.210   4.583  10.421  1.00  0.00    -0.014 A 
BRANCH  40  41
ATOM     41  C   UNL     1       3.300   4.906  11.512  1.00  0.00     0.031 A 
ATOM     42  C   UNL     1       2.139   5.735  11.111  1.00  0.00     0.074 A 
ATOM     43  C   UNL     1       3.378   4.315  12.726  1.00  0.00     0.049 A 
ATOM     44  N   UNL     1       1.880   6.947  11.470  1.00  0.00    -0.248 NA
ATOM     45  C   UNL     1       1.223   5.207  10.088  1.00  0.00     0.031 C 
ATOM     46  C   UNL     1       4.288   3.239  13.148  1.00  0.00     0.029 A 
ATOM     47  N   UNL     1       2.577   4.471  13.818  1.00  0.00    -0.354 N 
ATOM     48  C   UNL     1       0.661   7.268  10.881  1.00  0.00     0.074 A 
ATOM     49  C   UNL     1       0.403   6.244   9.904  1.00  0.00     0.031 C 
ATOM     50  C   UNL     1       3.844   2.691  14.300  1.00  0.00     0.029 A 
ATOM     51  C   UNL     1       2.737   3.489  14.790  1.00  0.00     0.049 A 
ATOM     52  H   UNL     1       1.940   5.216  13.911  1.00  0.00     0.167 HD
ATOM     53  C   UNL     1      -0.154   8.198  11.451  1.00  0.00     0.037 A 
ATOM     54  C   UNL     1       2.009   3.337  15.922  1.00  0.00     0.037 A 
ATOM     55  C   UNL     1       0.560   8.949  12.454  1.00  0.00     0.049 A 
ATOM     56  C   UNL     1       1.373   4.641  16.207  1.00  0.00     0.074 A 
ATOM     57  C   UNL     1       1.576   9.879  12.468  1.00  0.00     0.029 A 
ATOM     58  N   UNL     1       0.463   8.440  13.723  1.00  0.00    -0.354 N 
ATOM     59  N   UNL     1       2.033   5.703  16.571  1.00  0.00    -0.248 NA
ATOM     60  C   UNL     1       0.011   4.877  15.749  1.00  0.00     0.031 C 
ATOM     61  C   UNL     1       2.260   9.687  13.706  1.00  0.00     0.029 A 
ATOM     62  C   UNL     1       1.614   8.679  14.421  1.00  0.00     0.049 A 
ATOM     63  H   UNL     1      -0.324   7.968  14.080  1.00  0.00     0.167 HD
ATOM     64  C   UNL     1       1.353   6.747  15.975  1.00  0.00     0.074 A 
ATOM     65  C   UNL     1       0.037   6.209  15.655  1.00  0.00     0.031 C 
ATOM     66  C   UNL     1       2.033   7.839  15.521  1.00  0.00     0.037 A 
BRANCH  53  67
ATOM     67  C   UNL     1      -1.670   8.134  11.473  1.00  0.00     0.064 A 
ATOM     68  C   UNL     1      -2.383   9.204  12.058  1.00  0.00     0.173 A 
ATOM     69  C   UNL     1      -2.420   6.959  11.256  1.00  0.00     0.173 A 
ATOM     70  F   UNL     1      -1.773  10.369  12.323  1.00  0.00    -0.203 F 
ATOM     71  C   UNL     1      -3.711   9.071  12.474  1.00  0.00     0.198 A 
ATOM     72  C   UNL     1      -3.761   6.848  11.625  1.00  0.00     0.198 A 
ATOM     73  F   UNL     1      -1.869   5.834  10.791  1.00  0.00    -0.203 F 
ATOM     74  F   UNL     1      -4.303  10.069  13.144  1.00  0.00    -0.200 F 
ATOM     75  C   UNL     1      -4.396   7.890  12.265  1.00  0.00     0.200 A 
ATOM     76  F   UNL     1      -4.403   5.687  11.430  1.00  0.00    -0.200 F 
ATOM     77  F   UNL     1      -5.647   7.736  12.719  1.00  0.00    -0.200 F 
ENDBRANCH  53  67
BRANCH  54  78
ATOM     78  C   UNL     1       1.671   2.119  16.688  1.00  0.00     0.064 A 
ATOM     79  C   UNL     1       1.244   2.200  18.024  1.00  0.00     0.173 A 
ATOM     80  C   UNL     1       1.465   0.890  16.034  1.00  0.00     0.173 A 
ATOM     81  F   UNL     1       1.379   3.345  18.708  1.00  0.00    -0.203 F 
ATOM     82  C   UNL     1       0.600   1.131  18.653  1.00  0.00     0.198 A 
ATOM     83  C   UNL     1       0.826  -0.178  16.665  1.00  0.00     0.198 A 
ATOM     84  F   UNL     1       1.791   0.741  14.742  1.00  0.00    -0.203 F 
ATOM     85  F   UNL     1       0.139   1.271  19.904  1.00  0.00    -0.200 F 
ATOM     86  C   UNL     1       0.376  -0.051  17.968  1.00  0.00     0.200 A 
ATOM     87  F   UNL     1       0.584  -1.306  15.983  1.00  0.00    -0.200 F 
ATOM     88  F   UNL     1      -0.309  -1.049  18.545  1.00  0.00    -0.200 F 
ENDBRANCH  54  78
BRANCH  66  89
ATOM     89  C   UNL     1       3.399   8.072  16.098  1.00  0.00     0.064 A 
ATOM     90  C   UNL     1       4.505   7.229  15.898  1.00  0.00     0.173 A 
ATOM     91  C   UNL     1       3.604   9.245  16.834  1.00  0.00     0.173 A 
ATOM     92  F   UNL     1       4.412   6.134  15.135  1.00  0.00    -0.203 F 
ATOM     93  C   UNL     1       5.747   7.527  16.456  1.00  0.00     0.198 A 
ATOM     94  C   UNL     1       4.854   9.560  17.358  1.00  0.00     0.198 A 
ATOM     95  F   UNL     1       2.593  10.108  17.018  1.00  0.00    -0.203 F 
ATOM     96  F   UNL     1       6.783   6.694  16.276  1.00  0.00    -0.200 F 
ATOM     97  C   UNL     1       5.921   8.694  17.181  1.00  0.00     0.200 A 
ATOM     98  F   UNL     1       5.026  10.712  18.020  1.00  0.00    -0.200 F 
ATOM     99  F   UNL     1       7.122   8.997  17.693  1.00  0.00    -0.200 F 
ENDBRANCH  66  89
ENDBRANCH  40  41
ENDBRANCH  32  35
ENDBRANCH  30  31
ENDBRANCH  29  30
ENDBRANCH  28  29
ENDBRANCH  27  28
ENDBRANCH  26  27
ENDBRANCH   1  26
TORSDOF 19
