REMARK SMILES C[C@@H](NC(=O)[C@@H](C)NC(=O)C(C)(C)C)C(=O)NCCCCCCNC(=O)c1ccc(-c2c3nc(c(-c4c(F)c(F)c(F)c(F)c4F)c4ccc([nH]4)c(-c4c(F)c(F)c(F)c(F)c4F)c4nc(c(-c5c(F)c(F)c(F)c(F)c5F)c5ccc2[nH]5)C=C4)C=C3)cc1
REMARK SMILES IDX 19 1 18 2 17 3 15 4 16 5 2 7 1 8 3 9 4 10 5 12 6 13 7 14
REMARK SMILES IDX 8 15 9 16 10 18 11 19 12 20 13 21 14 22 20 23 21 24 22 25
REMARK SMILES IDX 23 26 24 27 25 28 26 30 27 31 28 32 89 33 29 34 88 35 30 36
REMARK SMILES IDX 31 37 32 38 82 39 33 40 87 41 81 42 83 43 34 44 86 45 80 46
REMARK SMILES IDX 79 47 35 49 67 50 47 51 66 52 48 53 51 54 65 55 84 56 49 57
REMARK SMILES IDX 50 58 64 60 85 61 52 62 36 63 37 64 45 65 38 66 39 67 43 68
REMARK SMILES IDX 46 69 40 70 41 71 44 72 42 73 68 74 69 75 77 76 70 77 71 78
REMARK SMILES IDX 75 79 78 80 72 81 73 82 76 83 74 84 53 85 54 86 62 87 55 88
REMARK SMILES IDX 56 89 60 90 63 91 57 92 58 93 61 94 59 95
REMARK H PARENT 17 6 3 11 8 17 24 29 83 48 51 59
REMARK Flexibility Score: inf
ROOT
ATOM      1  C   UNL     1      -1.588  -1.964   2.371  1.00  0.00     0.021 C 
ENDROOT
BRANCH   1   2
ATOM      2  C   UNL     1      -0.682  -1.483   1.234  1.00  0.00     0.116 C 
BRANCH   2   3
ATOM      3  N   UNL     1      -1.274  -0.388   0.487  1.00  0.00    -0.354 N 
ATOM      4  C   UNL     1      -0.853   0.284  -0.616  1.00  0.00     0.242 C 
ATOM      5  O   UNL     1      -1.600   1.163  -1.058  1.00  0.00    -0.273 OA
ATOM      6  H   UNL     1      -2.136  -0.075   0.845  1.00  0.00     0.163 HD
BRANCH   4   7
ATOM      7  C   UNL     1       0.529   0.078  -1.253  1.00  0.00     0.168 C 
ATOM      8  C   UNL     1       1.606   0.587  -0.284  1.00  0.00     0.041 C 
BRANCH   7   9
ATOM      9  N   UNL     1       0.885  -1.261  -1.714  1.00  0.00    -0.343 N 
ATOM     10  C   UNL     1       0.403  -2.006  -2.747  1.00  0.00     0.242 C 
ATOM     11  H   UNL     1       1.593  -1.700  -1.190  1.00  0.00     0.164 HD
ATOM     12  O   UNL     1       1.193  -2.837  -3.215  1.00  0.00    -0.273 OA
BRANCH  10  13
ATOM     13  C   UNL     1      -1.080  -2.030  -3.200  1.00  0.00     0.168 C 
ATOM     14  C   UNL     1      -1.937  -2.536  -2.058  1.00  0.00     0.041 C 
BRANCH  13  15
ATOM     15  N   UNL     1      -1.670  -0.848  -3.802  1.00  0.00    -0.344 N 
ATOM     16  C   UNL     1      -2.722  -0.739  -4.671  1.00  0.00     0.226 C 
ATOM     17  H   UNL     1      -1.250   0.005  -3.547  1.00  0.00     0.164 HD
ATOM     18  O   UNL     1      -3.026   0.417  -4.986  1.00  0.00    -0.275 OA
BRANCH  16  19
ATOM     19  C   UNL     1      -3.529  -1.954  -5.242  1.00  0.00     0.041 C 
ATOM     20  C   UNL     1      -2.658  -2.957  -6.014  1.00  0.00     0.021 C 
ATOM     21  C   UNL     1      -4.351  -2.680  -4.167  1.00  0.00     0.021 C 
ATOM     22  C   UNL     1      -4.559  -1.396  -6.259  1.00  0.00     0.021 C 
ENDBRANCH  16  19
ENDBRANCH  13  15
ENDBRANCH  10  13
ENDBRANCH   7   9
ENDBRANCH   4   7
ENDBRANCH   2   3
ENDBRANCH   1   2
BRANCH   1  23
ATOM     23  C   UNL     1      -3.042  -2.316   2.017  1.00  0.00     0.002 C 
BRANCH  23  24
ATOM     24  C   UNL     1      -3.285  -3.523   1.110  1.00  0.00     0.002 C 
BRANCH  24  25
ATOM     25  C   UNL     1      -2.599  -4.825   1.505  1.00  0.00     0.021 C 
BRANCH  25  26
ATOM     26  C   UNL     1      -2.833  -5.260   2.943  1.00  0.00     0.116 C 
BRANCH  26  27
ATOM     27  N   UNL     1      -4.236  -5.438   3.270  1.00  0.00    -0.352 N 
ATOM     28  C   UNL     1      -4.829  -6.407   4.045  1.00  0.00     0.251 C 
ATOM     29  H   UNL     1      -4.849  -4.772   2.883  1.00  0.00     0.163 HD
ATOM     30  O   UNL     1      -6.046  -6.467   4.138  1.00  0.00    -0.269 OA
BRANCH  28  31
ATOM     31  C   UNL     1      -3.982  -7.407   4.732  1.00  0.00     0.039 A 
ATOM     32  C   UNL     1      -4.356  -8.751   4.666  1.00  0.00     0.014 A 
ATOM     33  C   UNL     1      -2.819  -7.034   5.410  1.00  0.00     0.014 A 
ATOM     34  C   UNL     1      -3.527  -9.725   5.222  1.00  0.00     0.010 A 
ATOM     35  C   UNL     1      -1.950  -8.011   5.885  1.00  0.00     0.010 A 
ATOM     36  C   UNL     1      -2.296  -9.367   5.799  1.00  0.00    -0.014 A 
BRANCH  36  37
ATOM     37  C   UNL     1      -1.361 -10.408   6.293  1.00  0.00     0.031 A 
ATOM     38  C   UNL     1      -1.001 -10.483   7.750  1.00  0.00     0.074 A 
ATOM     39  C   UNL     1      -0.804 -11.263   5.414  1.00  0.00     0.049 A 
ATOM     40  N   UNL     1      -0.216 -11.332   8.365  1.00  0.00    -0.248 NA
ATOM     41  C   UNL     1      -1.574  -9.452   8.628  1.00  0.00     0.031 C 
ATOM     42  C   UNL     1      -1.027 -11.249   3.967  1.00  0.00     0.029 A 
ATOM     43  N   UNL     1       0.059 -12.312   5.607  1.00  0.00    -0.354 N 
ATOM     44  C   UNL     1      -0.197 -10.934   9.695  1.00  0.00     0.074 A 
ATOM     45  C   UNL     1      -0.995  -9.730   9.786  1.00  0.00     0.031 C 
ATOM     46  C   UNL     1      -0.358 -12.270   3.410  1.00  0.00     0.029 A 
ATOM     47  C   UNL     1       0.372 -12.985   4.451  1.00  0.00     0.049 A 
ATOM     48  H   UNL     1       0.420 -12.558   6.489  1.00  0.00     0.167 HD
ATOM     49  C   UNL     1       0.410 -11.532  10.748  1.00  0.00     0.037 A 
ATOM     50  C   UNL     1       1.156 -14.062   4.255  1.00  0.00     0.037 A 
ATOM     51  C   UNL     1       1.192 -12.738  10.650  1.00  0.00     0.049 A 
ATOM     52  C   UNL     1       1.826 -14.702   5.440  1.00  0.00     0.074 A 
ATOM     53  C   UNL     1       1.788 -13.466  11.665  1.00  0.00     0.029 A 
ATOM     54  N   UNL     1       1.497 -13.387   9.461  1.00  0.00    -0.354 N 
ATOM     55  N   UNL     1       1.762 -14.373   6.707  1.00  0.00    -0.248 NA
ATOM     56  C   UNL     1       2.672 -15.871   5.164  1.00  0.00     0.031 C 
ATOM     57  C   UNL     1       2.507 -14.517  11.085  1.00  0.00     0.029 A 
ATOM     58  C   UNL     1       2.306 -14.485   9.714  1.00  0.00     0.049 A 
ATOM     59  H   UNL     1       1.185 -13.110   8.570  1.00  0.00     0.167 HD
ATOM     60  C   UNL     1       2.538 -15.304   7.383  1.00  0.00     0.074 A 
ATOM     61  C   UNL     1       3.043 -16.226   6.386  1.00  0.00     0.031 C 
ATOM     62  C   UNL     1       2.811 -15.388   8.709  1.00  0.00     0.037 A 
BRANCH  49  63
ATOM     63  C   UNL     1       0.259 -10.883  12.095  1.00  0.00     0.064 A 
ATOM     64  C   UNL     1      -0.978 -10.826  12.758  1.00  0.00     0.173 A 
ATOM     65  C   UNL     1       1.371 -10.322  12.743  1.00  0.00     0.173 A 
ATOM     66  F   UNL     1      -2.077 -11.336  12.181  1.00  0.00    -0.203 F 
ATOM     67  C   UNL     1      -1.103 -10.197  13.994  1.00  0.00     0.198 A 
ATOM     68  C   UNL     1       1.249  -9.727  13.996  1.00  0.00     0.198 A 
ATOM     69  F   UNL     1       2.579 -10.352  12.161  1.00  0.00    -0.203 F 
ATOM     70  F   UNL     1      -2.307 -10.099  14.575  1.00  0.00    -0.200 F 
ATOM     71  C   UNL     1       0.011  -9.654  14.615  1.00  0.00     0.200 A 
ATOM     72  F   UNL     1       2.330  -9.215  14.601  1.00  0.00    -0.200 F 
ATOM     73  F   UNL     1      -0.111  -9.052  15.806  1.00  0.00    -0.200 F 
ENDBRANCH  49  63
BRANCH  50  74
ATOM     74  C   UNL     1       1.314 -14.623   2.888  1.00  0.00     0.064 A 
ATOM     75  C   UNL     1       0.767 -15.871   2.556  1.00  0.00     0.173 A 
ATOM     76  C   UNL     1       2.003 -13.926   1.885  1.00  0.00     0.173 A 
ATOM     77  F   UNL     1       0.116 -16.585   3.486  1.00  0.00    -0.203 F 
ATOM     78  C   UNL     1       0.918 -16.407   1.279  1.00  0.00     0.198 A 
ATOM     79  C   UNL     1       2.127 -14.450   0.600  1.00  0.00     0.198 A 
ATOM     80  F   UNL     1       2.540 -12.726   2.149  1.00  0.00    -0.203 F 
ATOM     81  F   UNL     1       0.423 -17.621   1.002  1.00  0.00    -0.200 F 
ATOM     82  C   UNL     1       1.592 -15.693   0.300  1.00  0.00     0.200 A 
ATOM     83  F   UNL     1       2.764 -13.748  -0.348  1.00  0.00    -0.200 F 
ATOM     84  F   UNL     1       1.729 -16.205  -0.930  1.00  0.00    -0.200 F 
ENDBRANCH  50  74
BRANCH  62  85
ATOM     85  C   UNL     1       3.680 -16.529   9.157  1.00  0.00     0.064 A 
ATOM     86  C   UNL     1       5.044 -16.590   8.831  1.00  0.00     0.173 A 
ATOM     87  C   UNL     1       3.147 -17.568   9.936  1.00  0.00     0.173 A 
ATOM     88  F   UNL     1       5.601 -15.630   8.077  1.00  0.00    -0.203 F 
ATOM     89  C   UNL     1       5.830 -17.666   9.234  1.00  0.00     0.198 A 
ATOM     90  C   UNL     1       3.945 -18.623  10.368  1.00  0.00     0.198 A 
ATOM     91  F   UNL     1       1.851 -17.556  10.284  1.00  0.00    -0.203 F 
ATOM     92  F   UNL     1       7.114 -17.734   8.855  1.00  0.00    -0.200 F 
ATOM     93  C   UNL     1       5.282 -18.678  10.007  1.00  0.00     0.200 A 
ATOM     94  F   UNL     1       3.417 -19.591  11.130  1.00  0.00    -0.200 F 
ATOM     95  F   UNL     1       6.041 -19.712  10.396  1.00  0.00    -0.200 F 
ENDBRANCH  62  85
ENDBRANCH  36  37
ENDBRANCH  28  31
ENDBRANCH  26  27
ENDBRANCH  25  26
ENDBRANCH  24  25
ENDBRANCH  23  24
ENDBRANCH   1  23
TORSDOF 17
