REMARK SMILES CC1(C)Oc2ccc(NC(=O)[C@H]3CC=CC[C@@H]3C(=O)NCCCCCCNC(=O)c3ccc(-c4c5nc(c(-c6c(F)c(F)c(F)c(F)c6F)c6ccc([nH]6)c(-c6c(F)c(F)c(F)c(F)c6F)c6nc(c(-c7c(F)c(F)c(F)c(F)c7F)c7ccc4[nH]7)C=C6)C=C5)cc3)cc2NC1=O
REMARK SMILES IDX 23 1 22 2 21 3 20 4 18 5 19 6 17 8 12 9 13 10 14 11 16 12
REMARK SMILES IDX 15 13 10 14 9 15 11 17 8 18 1 19 2 20 3 21 4 22 96 23 5 24
REMARK SMILES IDX 95 25 97 26 6 27 94 28 7 30 93 31 24 32 25 33 26 34 27 35
REMARK SMILES IDX 28 36 29 38 30 39 31 40 92 41 32 42 91 43 33 44 34 45 35 46
REMARK SMILES IDX 85 47 36 48 90 49 84 50 86 51 37 52 89 53 83 54 82 55 38 57
REMARK SMILES IDX 70 58 50 59 69 60 51 61 54 62 68 63 87 64 52 65 53 66 67 68
REMARK SMILES IDX 88 69 55 70 39 71 40 72 48 73 41 74 42 75 46 76 49 77 43 78
REMARK SMILES IDX 44 79 47 80 45 81 71 82 72 83 80 84 73 85 74 86 78 87 81 88
REMARK SMILES IDX 75 89 76 90 79 91 77 92 56 93 57 94 65 95 58 96 59 97 63 98
REMARK SMILES IDX 66 99 60 100 61 101 64 102 62 103
REMARK H PARENT 20 7 9 16 95 29 27 37 86 56 54 67
REMARK Flexibility Score: inf
ROOT
ATOM      1  C   UNL     1       4.277  -6.263   6.070  1.00  0.00     0.002 C 
ENDROOT
BRANCH   1   2
ATOM      2  C   UNL     1       3.766  -5.122   6.954  1.00  0.00     0.021 C 
BRANCH   2   3
ATOM      3  C   UNL     1       2.526  -4.396   6.436  1.00  0.00     0.116 C 
BRANCH   3   4
ATOM      4  N   UNL     1       1.329  -5.217   6.419  1.00  0.00    -0.356 N 
ATOM      5  C   UNL     1       0.010  -4.844   6.374  1.00  0.00     0.224 C 
ATOM      6  O   UNL     1      -0.828  -5.738   6.264  1.00  0.00    -0.275 OA
ATOM      7  H   UNL     1       1.489  -6.188   6.444  1.00  0.00     0.163 HD
BRANCH   5   8
ATOM      8  C   UNL     1      -0.360  -3.354   6.439  1.00  0.00     0.095 C 
ATOM      9  C   UNL     1      -0.261  -2.797   7.872  1.00  0.00     0.095 C 
ATOM     10  C   UNL     1      -1.421  -3.432   8.709  1.00  0.00     0.041 C 
ATOM     11  C   UNL     1      -2.754  -3.424   8.012  1.00  0.00    -0.030 C 
ATOM     12  C   UNL     1      -1.717  -3.053   5.783  1.00  0.00     0.041 C 
ATOM     13  C   UNL     1      -2.888  -3.230   6.695  1.00  0.00    -0.030 C 
BRANCH   9  14
ATOM     14  C   UNL     1      -0.223  -1.269   8.169  1.00  0.00     0.228 C 
ATOM     15  N   UNL     1       0.116  -0.236   7.349  1.00  0.00    -0.326 N 
ATOM     16  H   UNL     1      -0.054   0.639   7.767  1.00  0.00     0.169 HD
ATOM     17  O   UNL     1      -0.510  -0.888   9.319  1.00  0.00    -0.274 OA
BRANCH  15  18
ATOM     18  C   UNL     1       0.645  -0.110   6.063  1.00  0.00     0.043 A 
ATOM     19  C   UNL     1       1.154   0.615  -0.183  1.00  0.00     0.067 C 
ATOM     20  C   UNL     1       0.512   0.702   1.202  1.00  0.00     0.182 C 
ATOM     21  C   UNL     1      -0.995   0.402   1.063  1.00  0.00     0.067 C 
ATOM     22  O   UNL     1       1.168  -0.309   1.978  1.00  0.00    -0.476 OA
ATOM     23  C   UNL     1       0.625   2.126   1.796  1.00  0.00     0.268 C 
ATOM     24  C   UNL     1       1.106  -0.126   3.328  1.00  0.00     0.144 A 
ATOM     25  N   UNL     1       0.424   2.168   3.160  1.00  0.00    -0.319 N 
ATOM     26  O   UNL     1       0.755   3.151   1.136  1.00  0.00    -0.270 OA
ATOM     27  C   UNL     1       1.645  -1.123   4.121  1.00  0.00     0.051 A 
ATOM     28  C   UNL     1       0.592   1.018   3.936  1.00  0.00     0.086 A 
ATOM     29  H   UNL     1       0.161   3.014   3.590  1.00  0.00     0.170 HD
ATOM     30  C   UNL     1       1.491  -1.048   5.503  1.00  0.00     0.030 A 
ATOM     31  C   UNL     1       0.325   1.021   5.306  1.00  0.00     0.056 A 
ENDBRANCH  15  18
ENDBRANCH   9  14
ENDBRANCH   5   8
ENDBRANCH   3   4
ENDBRANCH   2   3
ENDBRANCH   1   2
BRANCH   1  32
ATOM     32  C   UNL     1       4.811  -5.855   4.694  1.00  0.00     0.002 C 
BRANCH  32  33
ATOM     33  C   UNL     1       5.982  -4.871   4.690  1.00  0.00     0.021 C 
BRANCH  33  34
ATOM     34  C   UNL     1       7.167  -5.239   5.577  1.00  0.00     0.116 C 
BRANCH  34  35
ATOM     35  N   UNL     1       7.788  -6.509   5.231  1.00  0.00    -0.352 N 
ATOM     36  C   UNL     1       9.123  -6.822   5.109  1.00  0.00     0.251 C 
ATOM     37  H   UNL     1       7.164  -7.251   5.061  1.00  0.00     0.163 HD
ATOM     38  O   UNL     1       9.469  -7.935   4.723  1.00  0.00    -0.269 OA
BRANCH  36  39
ATOM     39  C   UNL     1      10.146  -5.792   5.395  1.00  0.00     0.039 A 
ATOM     40  C   UNL     1      10.057  -4.997   6.538  1.00  0.00     0.014 A 
ATOM     41  C   UNL     1      11.181  -5.589   4.478  1.00  0.00     0.014 A 
ATOM     42  C   UNL     1      10.881  -3.883   6.666  1.00  0.00     0.010 A 
ATOM     43  C   UNL     1      12.066  -4.521   4.655  1.00  0.00     0.010 A 
ATOM     44  C   UNL     1      11.885  -3.623   5.718  1.00  0.00    -0.014 A 
BRANCH  44  45
ATOM     45  C   UNL     1      12.712  -2.393   5.847  1.00  0.00     0.031 A 
ATOM     46  C   UNL     1      12.639  -1.305   4.809  1.00  0.00     0.074 A 
ATOM     47  C   UNL     1      13.483  -2.227   6.939  1.00  0.00     0.049 A 
ATOM     48  N   UNL     1      13.269  -0.156   4.770  1.00  0.00    -0.248 NA
ATOM     49  C   UNL     1      11.746  -1.533   3.662  1.00  0.00     0.031 C 
ATOM     50  C   UNL     1      13.624  -3.201   8.022  1.00  0.00     0.029 A 
ATOM     51  N   UNL     1      14.270  -1.174   7.332  1.00  0.00    -0.354 N 
ATOM     52  C   UNL     1      12.862   0.463   3.595  1.00  0.00     0.074 A 
ATOM     53  C   UNL     1      11.957  -0.448   2.929  1.00  0.00     0.031 C 
ATOM     54  C   UNL     1      14.401  -2.679   8.982  1.00  0.00     0.029 A 
ATOM     55  C   UNL     1      14.866  -1.363   8.555  1.00  0.00     0.049 A 
ATOM     56  H   UNL     1      14.394  -0.361   6.791  1.00  0.00     0.167 HD
ATOM     57  C   UNL     1      13.200   1.687   3.123  1.00  0.00     0.037 A 
ATOM     58  C   UNL     1      15.706  -0.573   9.250  1.00  0.00     0.037 A 
ATOM     59  C   UNL     1      14.084   2.603   3.798  1.00  0.00     0.049 A 
ATOM     60  C   UNL     1      16.107   0.757   8.678  1.00  0.00     0.074 A 
ATOM     61  C   UNL     1      14.467   3.875   3.409  1.00  0.00     0.029 A 
ATOM     62  N   UNL     1      14.721   2.345   5.003  1.00  0.00    -0.354 N 
ATOM     63  N   UNL     1      15.709   1.333   7.570  1.00  0.00    -0.248 NA
ATOM     64  C   UNL     1      17.081   1.542   9.448  1.00  0.00     0.031 C 
ATOM     65  C   UNL     1      15.372   4.368   4.353  1.00  0.00     0.029 A 
ATOM     66  C   UNL     1      15.514   3.425   5.358  1.00  0.00     0.049 A 
ATOM     67  H   UNL     1      14.624   1.518   5.528  1.00  0.00     0.167 HD
ATOM     68  C   UNL     1      16.373   2.549   7.513  1.00  0.00     0.074 A 
ATOM     69  C   UNL     1      17.184   2.639   8.710  1.00  0.00     0.031 C 
ATOM     70  C   UNL     1      16.319   3.502   6.550  1.00  0.00     0.037 A 
BRANCH  57  71
ATOM     71  C   UNL     1      12.619   2.118   1.806  1.00  0.00     0.064 A 
ATOM     72  C   UNL     1      11.265   2.464   1.677  1.00  0.00     0.173 A 
ATOM     73  C   UNL     1      13.440   2.253   0.676  1.00  0.00     0.173 A 
ATOM     74  F   UNL     1      10.435   2.343   2.724  1.00  0.00    -0.203 F 
ATOM     75  C   UNL     1      10.753   2.913   0.463  1.00  0.00     0.198 A 
ATOM     76  C   UNL     1      12.930   2.729  -0.530  1.00  0.00     0.198 A 
ATOM     77  F   UNL     1      14.743   1.944   0.746  1.00  0.00    -0.203 F 
ATOM     78  F   UNL     1       9.449   3.203   0.354  1.00  0.00    -0.200 F 
ATOM     79  C   UNL     1      11.586   3.054  -0.637  1.00  0.00     0.200 A 
ATOM     80  F   UNL     1      13.741   2.878  -1.586  1.00  0.00    -0.200 F 
ATOM     81  F   UNL     1      11.094   3.500  -1.800  1.00  0.00    -0.200 F 
ENDBRANCH  57  71
BRANCH  58  82
ATOM     82  C   UNL     1      16.212  -1.030  10.570  1.00  0.00     0.064 A 
ATOM     83  C   UNL     1      15.793  -0.409  11.754  1.00  0.00     0.173 A 
ATOM     84  C   UNL     1      17.088  -2.120  10.677  1.00  0.00     0.173 A 
ATOM     85  F   UNL     1      14.972   0.650  11.701  1.00  0.00    -0.203 F 
ATOM     86  C   UNL     1      16.232  -0.862  12.996  1.00  0.00     0.198 A 
ATOM     87  C   UNL     1      17.502  -2.590  11.921  1.00  0.00     0.198 A 
ATOM     88  F   UNL     1      17.515  -2.750   9.573  1.00  0.00    -0.203 F 
ATOM     89  F   UNL     1      15.837  -0.235  14.113  1.00  0.00    -0.200 F 
ATOM     90  C   UNL     1      17.076  -1.959  13.079  1.00  0.00     0.200 A 
ATOM     91  F   UNL     1      18.303  -3.662  11.996  1.00  0.00    -0.200 F 
ATOM     92  F   UNL     1      17.481  -2.406  14.275  1.00  0.00    -0.200 F 
ENDBRANCH  58  82
BRANCH  70  93
ATOM     93  C   UNL     1      17.153   4.734   6.748  1.00  0.00     0.064 A 
ATOM     94  C   UNL     1      18.547   4.705   6.598  1.00  0.00     0.173 A 
ATOM     95  C   UNL     1      16.545   5.969   7.019  1.00  0.00     0.173 A 
ATOM     96  F   UNL     1      19.175   3.545   6.353  1.00  0.00    -0.203 F 
ATOM     97  C   UNL     1      19.304   5.866   6.728  1.00  0.00     0.198 A 
ATOM     98  C   UNL     1      17.303   7.133   7.120  1.00  0.00     0.198 A 
ATOM     99  F   UNL     1      15.214   6.051   7.164  1.00  0.00    -0.203 F 
ATOM    100  F   UNL     1      20.638   5.809   6.615  1.00  0.00    -0.200 F 
ATOM    101  C   UNL     1      18.681   7.080   6.978  1.00  0.00     0.200 A 
ATOM    102  F   UNL     1      16.698   8.307   7.346  1.00  0.00    -0.200 F 
ATOM    103  F   UNL     1      19.410   8.199   7.085  1.00  0.00    -0.200 F 
ENDBRANCH  70  93
ENDBRANCH  44  45
ENDBRANCH  36  39
ENDBRANCH  34  35
ENDBRANCH  33  34
ENDBRANCH  32  33
ENDBRANCH   1  32
TORSDOF 15
