REMARK SMILES Cc1onc2c(=O)n(C)nc(C(=O)NCCCCCCNC(=O)c3ccc(-c4c5nc(c(-c6c(F)c(F)c(F)c(F)c6F)c6ccc([nH]6)c(-c6c(F)c(F)c(F)c(F)c6F)c6nc(c(-c7c(F)c(F)c(F)c(F)c7F)c7ccc4[nH]7)C=C6)C=C5)cc3)c12
REMARK SMILES IDX 18 1 17 2 16 3 15 4 14 5 12 6 13 7 11 9 1 10 2 11 3 12 87 13
REMARK SMILES IDX 4 14 5 15 6 16 10 17 7 18 8 19 9 20 19 21 20 22 21 23 22 24
REMARK SMILES IDX 23 26 24 27 25 28 86 29 26 30 85 31 27 32 28 33 29 34 79 35
REMARK SMILES IDX 30 36 84 37 78 38 80 39 31 40 83 41 77 42 76 43 32 45 64 46
REMARK SMILES IDX 44 47 63 48 45 49 48 50 62 51 81 52 46 53 47 54 61 56 82 57
REMARK SMILES IDX 49 58 33 59 34 60 42 61 35 62 36 63 40 64 43 65 37 66 38 67
REMARK SMILES IDX 41 68 39 69 65 70 66 71 74 72 67 73 68 74 72 75 75 76 69 77
REMARK SMILES IDX 70 78 73 79 71 80 50 81 51 82 59 83 52 84 53 85 57 86 60 87
REMARK SMILES IDX 54 88 55 89 58 90 56 91
REMARK H PARENT 14 8 21 25 80 44 48 55
REMARK Flexibility Score: inf
ROOT
ATOM      1  C   UNL     1       3.610   5.319   5.019  1.00  0.00     0.002 C 
ENDROOT
BRANCH   1   2
ATOM      2  C   UNL     1       2.164   4.896   4.738  1.00  0.00     0.002 C 
BRANCH   2   3
ATOM      3  C   UNL     1       1.655   5.229   3.332  1.00  0.00     0.021 C 
BRANCH   3   4
ATOM      4  C   UNL     1       2.508   4.659   2.199  1.00  0.00     0.116 C 
BRANCH   4   5
ATOM      5  N   UNL     1       2.404   3.210   2.127  1.00  0.00    -0.351 N 
ATOM      6  C   UNL     1       1.911   2.360   1.163  1.00  0.00     0.272 C 
ATOM      7  O   UNL     1       1.945   1.155   1.396  1.00  0.00    -0.267 OA
ATOM      8  H   UNL     1       2.754   2.748   2.923  1.00  0.00     0.163 HD
BRANCH   6   9
ATOM      9  C   UNL     1       1.350   2.855  -0.180  1.00  0.00     0.161 A 
ATOM     10  C   UNL     1       0.589  -0.541  -0.406  1.00  0.00     0.091 C 
ATOM     11  C   UNL     1       0.430   0.657  -1.254  1.00  0.00     0.144 A 
ATOM     12  O   UNL     1      -0.165   0.422  -2.462  1.00  0.00    -0.360 OA
ATOM     13  C   UNL     1       0.727   1.998  -1.163  1.00  0.00     0.083 A 
ATOM     14  N   UNL     1      -0.268   1.602  -3.176  1.00  0.00    -0.074 NA
ATOM     15  C   UNL     1       0.269   2.535  -2.385  1.00  0.00     0.183 A 
ATOM     16  C   UNL     1       0.391   3.941  -2.697  1.00  0.00     0.296 A 
ATOM     17  N   UNL     1       1.461   4.125  -0.467  1.00  0.00    -0.164 NA
ATOM     18  O   UNL     1       0.007   4.454  -3.753  1.00  0.00    -0.265 OA
ATOM     19  N   UNL     1       0.996   4.669  -1.661  1.00  0.00    -0.230 N 
ATOM     20  C   UNL     1       1.184   6.096  -1.829  1.00  0.00     0.178 C 
ENDBRANCH   6   9
ENDBRANCH   4   5
ENDBRANCH   3   4
ENDBRANCH   2   3
ENDBRANCH   1   2
BRANCH   1  21
ATOM     21  C   UNL     1       3.905   6.820   4.847  1.00  0.00     0.021 C 
BRANCH  21  22
ATOM     22  C   UNL     1       3.186   7.742   5.842  1.00  0.00     0.116 C 
BRANCH  22  23
ATOM     23  N   UNL     1       3.580   7.413   7.199  1.00  0.00    -0.352 N 
ATOM     24  C   UNL     1       4.121   8.184   8.186  1.00  0.00     0.251 C 
ATOM     25  H   UNL     1       3.432   6.473   7.450  1.00  0.00     0.163 HD
ATOM     26  O   UNL     1       4.794   7.629   9.053  1.00  0.00    -0.269 OA
BRANCH  24  27
ATOM     27  C   UNL     1       3.881   9.640   8.288  1.00  0.00     0.039 A 
ATOM     28  C   UNL     1       4.869  10.406   8.919  1.00  0.00     0.014 A 
ATOM     29  C   UNL     1       2.648  10.221   7.975  1.00  0.00     0.014 A 
ATOM     30  C   UNL     1       4.627  11.737   9.247  1.00  0.00     0.010 A 
ATOM     31  C   UNL     1       2.407  11.562   8.300  1.00  0.00     0.010 A 
ATOM     32  C   UNL     1       3.392  12.324   8.945  1.00  0.00    -0.014 A 
BRANCH  32  33
ATOM     33  C   UNL     1       3.223  13.757   9.261  1.00  0.00     0.031 A 
ATOM     34  C   UNL     1       2.655  14.598   8.166  1.00  0.00     0.074 A 
ATOM     35  C   UNL     1       3.112  14.198  10.533  1.00  0.00     0.049 A 
ATOM     36  N   UNL     1       1.376  14.699   7.950  1.00  0.00    -0.248 NA
ATOM     37  C   UNL     1       3.478  15.170   7.102  1.00  0.00     0.031 C 
ATOM     38  C   UNL     1       2.497  13.420  11.615  1.00  0.00     0.029 A 
ATOM     39  N   UNL     1       3.295  15.450  11.078  1.00  0.00    -0.354 N 
ATOM     40  C   UNL     1       1.211  15.288   6.711  1.00  0.00     0.074 A 
ATOM     41  C   UNL     1       2.543  15.583   6.230  1.00  0.00     0.031 C 
ATOM     42  C   UNL     1       2.194  14.255  12.630  1.00  0.00     0.029 A 
ATOM     43  C   UNL     1       2.725  15.587  12.343  1.00  0.00     0.049 A 
ATOM     44  H   UNL     1       3.780  16.175  10.621  1.00  0.00     0.167 HD
ATOM     45  C   UNL     1      -0.012  15.480   6.152  1.00  0.00     0.037 A 
ATOM     46  C   UNL     1       2.187  16.737  12.837  1.00  0.00     0.037 A 
ATOM     47  C   UNL     1      -1.125  15.031   6.934  1.00  0.00     0.049 A 
ATOM     48  C   UNL     1       0.991  16.911  11.936  1.00  0.00     0.074 A 
ATOM     49  C   UNL     1      -1.907  13.900   7.020  1.00  0.00     0.029 A 
ATOM     50  N   UNL     1      -1.577  15.850   7.941  1.00  0.00    -0.354 N 
ATOM     51  N   UNL     1      -0.148  16.278  12.042  1.00  0.00    -0.248 NA
ATOM     52  C   UNL     1       1.206  17.573  10.647  1.00  0.00     0.031 C 
ATOM     53  C   UNL     1      -2.446  13.914   8.345  1.00  0.00     0.029 A 
ATOM     54  C   UNL     1      -1.920  15.034   8.986  1.00  0.00     0.049 A 
ATOM     55  H   UNL     1      -1.641  16.832   7.915  1.00  0.00     0.167 HD
ATOM     56  C   UNL     1      -0.666  16.236  10.746  1.00  0.00     0.074 A 
ATOM     57  C   UNL     1       0.200  17.073   9.943  1.00  0.00     0.031 C 
ATOM     58  C   UNL     1      -1.652  15.378  10.361  1.00  0.00     0.037 A 
BRANCH  45  59
ATOM     59  C   UNL     1      -0.289  16.204   4.898  1.00  0.00     0.064 A 
ATOM     60  C   UNL     1      -0.849  17.487   4.995  1.00  0.00     0.173 A 
ATOM     61  C   UNL     1      -0.276  15.580   3.648  1.00  0.00     0.173 A 
ATOM     62  F   UNL     1      -0.891  18.110   6.186  1.00  0.00    -0.203 F 
ATOM     63  C   UNL     1      -1.429  18.104   3.894  1.00  0.00     0.198 A 
ATOM     64  C   UNL     1      -0.848  16.206   2.541  1.00  0.00     0.198 A 
ATOM     65  F   UNL     1       0.232  14.346   3.513  1.00  0.00    -0.203 F 
ATOM     66  F   UNL     1      -2.014  19.301   4.033  1.00  0.00    -0.200 F 
ATOM     67  C   UNL     1      -1.440  17.458   2.669  1.00  0.00     0.200 A 
ATOM     68  F   UNL     1      -0.866  15.582   1.355  1.00  0.00    -0.200 F 
ATOM     69  F   UNL     1      -2.038  18.032   1.616  1.00  0.00    -0.200 F 
ENDBRANCH  45  59
BRANCH  46  70
ATOM     70  C   UNL     1       3.152  17.842  13.148  1.00  0.00     0.064 A 
ATOM     71  C   UNL     1       4.306  17.543  13.904  1.00  0.00     0.173 A 
ATOM     72  C   UNL     1       3.002  19.185  12.768  1.00  0.00     0.173 A 
ATOM     73  F   UNL     1       4.474  16.316  14.422  1.00  0.00    -0.203 F 
ATOM     74  C   UNL     1       5.304  18.491  14.143  1.00  0.00     0.198 A 
ATOM     75  C   UNL     1       4.013  20.127  12.982  1.00  0.00     0.198 A 
ATOM     76  F   UNL     1       1.882  19.615  12.172  1.00  0.00    -0.203 F 
ATOM     77  F   UNL     1       6.399  18.149  14.834  1.00  0.00    -0.200 F 
ATOM     78  C   UNL     1       5.171  19.775  13.651  1.00  0.00     0.200 A 
ATOM     79  F   UNL     1       3.865  21.376  12.516  1.00  0.00    -0.200 F 
ATOM     80  F   UNL     1       6.150  20.673  13.826  1.00  0.00    -0.200 F 
ENDBRANCH  46  70
BRANCH  58  81
ATOM     81  C   UNL     1      -2.291  14.596  11.451  1.00  0.00     0.064 A 
ATOM     82  C   UNL     1      -3.192  15.216  12.324  1.00  0.00     0.173 A 
ATOM     83  C   UNL     1      -2.060  13.220  11.601  1.00  0.00     0.173 A 
ATOM     84  F   UNL     1      -3.450  16.528  12.211  1.00  0.00    -0.203 F 
ATOM     85  C   UNL     1      -3.863  14.479  13.294  1.00  0.00     0.198 A 
ATOM     86  C   UNL     1      -2.752  12.482  12.556  1.00  0.00     0.198 A 
ATOM     87  F   UNL     1      -1.194  12.578  10.800  1.00  0.00    -0.203 F 
ATOM     88  F   UNL     1      -4.736  15.086  14.110  1.00  0.00    -0.200 F 
ATOM     89  C   UNL     1      -3.655  13.111  13.399  1.00  0.00     0.200 A 
ATOM     90  F   UNL     1      -2.565  11.157  12.642  1.00  0.00    -0.200 F 
ATOM     91  F   UNL     1      -4.338  12.395  14.303  1.00  0.00    -0.200 F 
ENDBRANCH  58  81
ENDBRANCH  32  33
ENDBRANCH  24  27
ENDBRANCH  22  23
ENDBRANCH  21  22
ENDBRANCH   1  21
TORSDOF 13
