REMARK SMILES O=C(CCc1ccco1)N[C@H]1CCCCC[C@H]1C(=O)NCCCCCCNC(=O)c1ccc(-c2c3nc(c(-c4c(F)c(F)c(F)c(F)c4F)c4ccc([nH]4)c(-c4c(F)c(F)c(F)c(F)c4F)c4nc(c(-c5c(F)c(F)c(F)c(F)c5F)c5ccc2[nH]5)C=C4)C=C3)cc1
REMARK SMILES IDX 22 1 21 2 20 3 18 4 19 5 17 7 11 8 10 10 1 11 2 12 3 14 4 15
REMARK SMILES IDX 5 16 6 17 9 18 7 19 8 20 16 21 15 22 14 23 13 24 12 25 23 27
REMARK SMILES IDX 24 28 25 29 26 30 27 31 28 32 29 34 30 35 31 36 92 37 32 38
REMARK SMILES IDX 91 39 33 40 34 41 35 42 85 43 36 44 90 45 84 46 86 47 37 48
REMARK SMILES IDX 89 49 83 50 82 51 38 53 70 54 50 55 69 56 51 57 54 58 68 59
REMARK SMILES IDX 87 60 52 61 53 62 67 64 88 65 55 66 39 67 40 68 48 69 41 70
REMARK SMILES IDX 42 71 46 72 49 73 43 74 44 75 47 76 45 77 71 78 72 79 80 80
REMARK SMILES IDX 73 81 74 82 78 83 81 84 75 85 76 86 79 87 77 88 56 89 57 90
REMARK SMILES IDX 65 91 58 92 59 93 63 94 66 95 60 96 61 97 64 98 62 99
REMARK H PARENT 20 6 10 13 27 33 86 52 54 63
REMARK Flexibility Score: 100.00
ROOT
ATOM      1  C   UNL     1       0.794  -0.569   6.398  1.00  0.00     0.021 C 
ENDROOT
BRANCH   1   2
ATOM      2  C   UNL     1       1.200  -1.922   5.839  1.00  0.00     0.116 C 
BRANCH   2   3
ATOM      3  N   UNL     1       0.334  -2.438   4.817  1.00  0.00    -0.356 N 
ATOM      4  C   UNL     1       0.615  -2.855   3.554  1.00  0.00     0.225 C 
ATOM      5  O   UNL     1      -0.275  -3.531   3.022  1.00  0.00    -0.275 OA
ATOM      6  H   UNL     1      -0.616  -2.499   5.071  1.00  0.00     0.163 HD
BRANCH   4   7
ATOM      7  C   UNL     1       1.913  -2.540   2.773  1.00  0.00     0.101 C 
BRANCH   7   8
ATOM      8  C   UNL     1       2.218  -1.066   2.415  1.00  0.00     0.094 CG0
ATOM      9  G   UNL     1       3.553  -0.439   2.861  1.00  0.00     0.000 G0
BRANCH   8  10
ATOM     10  N   UNL     1       1.058  -0.186   2.565  1.00  0.00    -0.353 N 
ATOM     11  O   UNL     1       0.083  -0.942   0.641  1.00  0.00    -0.275 OA
ATOM     12  C   UNL     1       0.010  -0.266   1.668  1.00  0.00     0.220 C 
ATOM     13  H   UNL     1       1.025   0.463   3.305  1.00  0.00     0.163 HD
BRANCH  12  14
ATOM     14  C   UNL     1      -1.241   0.550   1.943  1.00  0.00     0.108 C 
BRANCH  14  15
ATOM     15  C   UNL     1      -1.688   0.624   3.396  1.00  0.00     0.085 C 
BRANCH  15  16
ATOM     16  C   UNL     1      -1.072   1.740   4.170  1.00  0.00     0.104 A 
ATOM     17  C   UNL     1      -1.333   2.271   5.417  1.00  0.00     0.045 A 
ATOM     18  O   UNL     1       0.001   2.375   3.616  1.00  0.00    -0.469 OA
ATOM     19  C   UNL     1      -0.370   3.287   5.630  1.00  0.00     0.042 A 
ATOM     20  C   UNL     1       0.403   3.326   4.494  1.00  0.00     0.195 A 
ENDBRANCH  15  16
ENDBRANCH  14  15
ENDBRANCH  12  14
ENDBRANCH   8  10
ENDBRANCH   7   8
BRANCH   7  21
ATOM     21  C   UNL     1       3.125  -3.433   3.060  1.00  0.00     0.015 C 
BRANCH  21  22
ATOM     22  C   UNL     1       3.857  -3.289   4.382  1.00  0.00     0.001 C 
BRANCH  22  23
ATOM     23  C   UNL     1       4.654  -2.003   4.610  1.00  0.00     0.000 C 
BRANCH  23  24
ATOM     24  C   UNL     1       4.050  -0.634   4.283  1.00  0.00     0.002 C 
BRANCH  24  25
ATOM     25  C   UNL     1       3.553  -0.439   2.861  1.00  0.00     0.026 CG0
ATOM     26  G   UNL     1       2.218  -1.066   2.415  1.00  0.00     0.000 G0
ENDBRANCH  24  25
ENDBRANCH  23  24
ENDBRANCH  22  23
ENDBRANCH  21  22
ENDBRANCH   7  21
ENDBRANCH   4   7
ENDBRANCH   2   3
ENDBRANCH   1   2
BRANCH   1  27
ATOM     27  C   UNL     1      -0.018  -0.622   7.689  1.00  0.00     0.002 C 
BRANCH  27  28
ATOM     28  C   UNL     1       0.670  -1.328   8.864  1.00  0.00     0.002 C 
BRANCH  28  29
ATOM     29  C   UNL     1       2.094  -0.861   9.190  1.00  0.00     0.021 C 
BRANCH  29  30
ATOM     30  C   UNL     1       2.242   0.632   9.478  1.00  0.00     0.116 C 
BRANCH  30  31
ATOM     31  N   UNL     1       1.377   1.069  10.561  1.00  0.00    -0.352 N 
ATOM     32  C   UNL     1       1.686   1.538  11.807  1.00  0.00     0.251 C 
ATOM     33  H   UNL     1       0.413   1.019  10.366  1.00  0.00     0.163 HD
ATOM     34  O   UNL     1       0.796   1.639  12.658  1.00  0.00    -0.269 OA
BRANCH  32  35
ATOM     35  C   UNL     1       3.067   1.925  12.156  1.00  0.00     0.039 A 
ATOM     36  C   UNL     1       3.570   1.570  13.412  1.00  0.00     0.014 A 
ATOM     37  C   UNL     1       3.846   2.692  11.284  1.00  0.00     0.014 A 
ATOM     38  C   UNL     1       4.866   1.941  13.775  1.00  0.00     0.010 A 
ATOM     39  C   UNL     1       5.160   3.010  11.622  1.00  0.00     0.010 A 
ATOM     40  C   UNL     1       5.680   2.644  12.873  1.00  0.00    -0.014 A 
BRANCH  40  41
ATOM     41  C   UNL     1       7.075   3.012  13.226  1.00  0.00     0.031 A 
ATOM     42  C   UNL     1       7.462   4.456  13.380  1.00  0.00     0.074 A 
ATOM     43  C   UNL     1       8.007   2.047  13.344  1.00  0.00     0.049 A 
ATOM     44  N   UNL     1       8.641   4.979  13.609  1.00  0.00    -0.248 NA
ATOM     45  C   UNL     1       6.385   5.448  13.232  1.00  0.00     0.031 C 
ATOM     46  C   UNL     1       7.764   0.614  13.174  1.00  0.00     0.029 A 
ATOM     47  N   UNL     1       9.348   2.127  13.621  1.00  0.00    -0.354 N 
ATOM     48  C   UNL     1       8.451   6.354  13.613  1.00  0.00     0.074 A 
ATOM     49  C   UNL     1       7.053   6.589  13.321  1.00  0.00     0.031 C 
ATOM     50  C   UNL     1       8.914  -0.051  13.363  1.00  0.00     0.029 A 
ATOM     51  C   UNL     1       9.981   0.908  13.634  1.00  0.00     0.049 A 
ATOM     52  H   UNL     1       9.813   2.978  13.794  1.00  0.00     0.167 HD
ATOM     53  C   UNL     1       9.357   7.331  13.857  1.00  0.00     0.037 A 
ATOM     54  C   UNL     1      11.276   0.600  13.832  1.00  0.00     0.037 A 
ATOM     55  C   UNL     1      10.740   7.092  14.179  1.00  0.00     0.049 A 
ATOM     56  C   UNL     1      12.260   1.703  14.114  1.00  0.00     0.074 A 
ATOM     57  C   UNL     1      11.721   8.011  14.509  1.00  0.00     0.029 A 
ATOM     58  N   UNL     1      11.338   5.841  14.211  1.00  0.00    -0.354 N 
ATOM     59  N   UNL     1      12.056   2.996  14.179  1.00  0.00    -0.248 NA
ATOM     60  C   UNL     1      13.653   1.303  14.357  1.00  0.00     0.031 C 
ATOM     61  C   UNL     1      12.922   7.320  14.700  1.00  0.00     0.029 A 
ATOM     62  C   UNL     1      12.679   5.966  14.536  1.00  0.00     0.049 A 
ATOM     63  H   UNL     1      10.877   4.990  14.031  1.00  0.00     0.167 HD
ATOM     64  C   UNL     1      13.283   3.561  14.496  1.00  0.00     0.074 A 
ATOM     65  C   UNL     1      14.225   2.468  14.623  1.00  0.00     0.031 C 
ATOM     66  C   UNL     1      13.602   4.867  14.665  1.00  0.00     0.037 A 
BRANCH  53  67
ATOM     67  C   UNL     1       8.883   8.754  13.787  1.00  0.00     0.064 A 
ATOM     68  C   UNL     1       8.029   9.294  14.761  1.00  0.00     0.173 A 
ATOM     69  C   UNL     1       9.321   9.600  12.757  1.00  0.00     0.173 A 
ATOM     70  F   UNL     1       7.573   8.524  15.760  1.00  0.00    -0.203 F 
ATOM     71  C   UNL     1       7.609  10.620  14.690  1.00  0.00     0.198 A 
ATOM     72  C   UNL     1       8.922  10.933  12.706  1.00  0.00     0.198 A 
ATOM     73  F   UNL     1      10.143   9.136  11.803  1.00  0.00    -0.203 F 
ATOM     74  F   UNL     1       6.756  11.100  15.606  1.00  0.00    -0.200 F 
ATOM     75  C   UNL     1       8.062  11.440  13.668  1.00  0.00     0.200 A 
ATOM     76  F   UNL     1       9.370  11.728  11.724  1.00  0.00    -0.200 F 
ATOM     77  F   UNL     1       7.662  12.718  13.605  1.00  0.00    -0.200 F 
ENDBRANCH  53  67
BRANCH  54  78
ATOM     78  C   UNL     1      11.712  -0.819  13.796  1.00  0.00     0.064 A 
ATOM     79  C   UNL     1      12.103  -1.482  14.967  1.00  0.00     0.173 A 
ATOM     80  C   UNL     1      11.742  -1.542  12.594  1.00  0.00     0.173 A 
ATOM     81  F   UNL     1      12.109  -0.826  16.136  1.00  0.00    -0.203 F 
ATOM     82  C   UNL     1      12.524  -2.810  14.936  1.00  0.00     0.198 A 
ATOM     83  C   UNL     1      12.138  -2.878  12.569  1.00  0.00     0.198 A 
ATOM     84  F   UNL     1      11.372  -0.955  11.447  1.00  0.00    -0.203 F 
ATOM     85  F   UNL     1      12.931  -3.407  16.064  1.00  0.00    -0.200 F 
ATOM     86  C   UNL     1      12.535  -3.508  13.739  1.00  0.00     0.200 A 
ATOM     87  F   UNL     1      12.133  -3.554  11.412  1.00  0.00    -0.200 F 
ATOM     88  F   UNL     1      12.935  -4.787  13.710  1.00  0.00    -0.200 F 
ENDBRANCH  54  78
BRANCH  66  89
ATOM     89  C   UNL     1      15.020   5.187  15.038  1.00  0.00     0.064 A 
ATOM     90  C   UNL     1      16.066   5.079  14.110  1.00  0.00     0.173 A 
ATOM     91  C   UNL     1      15.328   5.645  16.328  1.00  0.00     0.173 A 
ATOM     92  F   UNL     1      15.824   4.630  12.870  1.00  0.00    -0.203 F 
ATOM     93  C   UNL     1      17.373   5.397  14.468  1.00  0.00     0.198 A 
ATOM     94  C   UNL     1      16.632   5.989  16.673  1.00  0.00     0.198 A 
ATOM     95  F   UNL     1      14.361   5.772  17.249  1.00  0.00    -0.203 F 
ATOM     96  F   UNL     1      18.365   5.244  13.579  1.00  0.00    -0.200 F 
ATOM     97  C   UNL     1      17.654   5.858  15.745  1.00  0.00     0.200 A 
ATOM     98  F   UNL     1      16.899   6.447  17.904  1.00  0.00    -0.200 F 
ATOM     99  F   UNL     1      18.912   6.171  16.085  1.00  0.00    -0.200 F 
ENDBRANCH  66  89
ENDBRANCH  40  41
ENDBRANCH  32  35
ENDBRANCH  30  31
ENDBRANCH  29  30
ENDBRANCH  28  29
ENDBRANCH  27  28
ENDBRANCH   1  27
TORSDOF 17
