REMARK SMILES C=CCn1nc(C(=O)NCCCCCCNC(=O)c2ccc(-c3c4nc(c(-c5c(F)c(F)c(F)c(F)c5F)c5ccc([nH]5)c(-c5c(F)c(F)c(F)c(F)c5F)c5nc(c(-c6c(F)c(F)c(F)c(F)c6F)c6ccc3[nH]6)C=C5)C=C4)cc2)c2c1CC[C@@H]([NH+]1CCC(C(C)(C)O)CC1)C2
REMARK SMILES IDX 12 1 11 2 10 3 9 4 7 5 8 6 6 8 4 9 5 10 83 11 82 12 84 13
REMARK SMILES IDX 97 14 85 15 86 16 3 17 2 18 1 19 87 20 88 21 96 22 89 24
REMARK SMILES IDX 95 25 90 26 91 27 92 28 93 29 94 30 13 32 14 33 15 34 16 35
REMARK SMILES IDX 17 36 18 38 19 39 20 40 81 41 21 42 80 43 22 44 23 45 24 46
REMARK SMILES IDX 74 47 25 48 79 49 73 50 75 51 26 52 78 53 72 54 71 55 27 57
REMARK SMILES IDX 59 58 39 59 58 60 40 61 43 62 57 63 76 64 41 65 42 66 56 68
REMARK SMILES IDX 77 69 44 70 28 71 29 72 37 73 30 74 31 75 35 76 38 77 32 78
REMARK SMILES IDX 33 79 36 80 34 81 60 82 61 83 69 84 62 85 63 86 67 87 70 88
REMARK SMILES IDX 64 89 65 90 68 91 66 92 45 93 46 94 54 95 47 96 48 97 52 98
REMARK SMILES IDX 55 99 49 100 50 101 53 102 51 103
REMARK H PARENT 9 7 87 23 94 31 16 37 75 56 43 67
REMARK Flexibility Score: inf
ROOT
ATOM      1  C   UNL     1      -4.073   9.367  -1.298  1.00  0.00     0.002 C 
ENDROOT
BRANCH   1   2
ATOM      2  C   UNL     1      -3.496   7.956  -1.301  1.00  0.00     0.021 C 
BRANCH   2   3
ATOM      3  C   UNL     1      -3.974   7.074  -0.133  1.00  0.00     0.116 C 
BRANCH   3   4
ATOM      4  N   UNL     1      -4.716   5.921  -0.596  1.00  0.00    -0.351 N 
ATOM      5  C   UNL     1      -4.447   4.577  -0.711  1.00  0.00     0.272 C 
ATOM      6  O   UNL     1      -5.438   3.889  -0.985  1.00  0.00    -0.267 OA
ATOM      7  H   UNL     1      -5.624   6.152  -0.899  1.00  0.00     0.163 HD
BRANCH   5   8
ATOM      8  C   UNL     1      -3.110   3.965  -0.516  1.00  0.00     0.153 A 
ATOM      9  N   UNL     1      -1.736   2.308  -0.297  1.00  0.00    -0.265 N 
ATOM     10  N   UNL     1      -3.046   2.633  -0.301  1.00  0.00    -0.167 NA
ATOM     11  C   UNL     1      -0.946   3.422  -0.251  1.00  0.00     0.043 A 
ATOM     12  C   UNL     1      -1.784   4.472  -0.579  1.00  0.00     0.012 A 
ATOM     13  C   UNL     1       0.521   3.532  -0.033  1.00  0.00     0.062 C 
ATOM     14  C   UNL     1      -1.253   5.798  -0.956  1.00  0.00     0.105 C 
ATOM     15  C   UNL     1       1.014   4.967  -0.326  1.00  0.00     0.072 C 
ATOM     16  C   UNL     1       0.231   5.804  -1.373  1.00  0.00     0.189 C 
BRANCH   9  17
ATOM     17  C   UNL     1      -1.437   0.876  -0.405  1.00  0.00     0.171 C 
BRANCH  17  18
ATOM     18  C   UNL     1      -0.034   0.476  -0.745  1.00  0.00    -0.011 C 
ATOM     19  C   UNL     1       0.802  -0.153   0.092  1.00  0.00     0.006 C 
ENDBRANCH  17  18
ENDBRANCH   9  17
BRANCH  16  20
ATOM     20  N   UNL     1       0.337   5.681  -2.841  1.00  0.00    -0.332 N 
ATOM     21  C   UNL     1       0.004   4.427  -3.492  1.00  0.00     0.262 C 
ATOM     22  C   UNL     1       1.518   6.257  -3.460  1.00  0.00     0.262 C 
ATOM     23  H   UNL     1      -0.466   6.281  -3.028  1.00  0.00     0.348 HD
ATOM     24  C   UNL     1       1.108   3.385  -3.417  1.00  0.00     0.068 C 
ATOM     25  C   UNL     1       2.755   5.404  -3.263  1.00  0.00     0.068 C 
ATOM     26  C   UNL     1       2.566   3.891  -3.543  1.00  0.00     0.031 C 
BRANCH  26  27
ATOM     27  C   UNL     1       3.585   3.037  -2.703  1.00  0.00     0.062 C 
ATOM     28  C   UNL     1       3.360   1.527  -2.824  1.00  0.00     0.042 C 
ATOM     29  C   UNL     1       5.027   3.380  -3.087  1.00  0.00     0.042 C 
BRANCH  27  30
ATOM     30  O   UNL     1       3.449   3.350  -1.315  1.00  0.00    -0.390 OA
ATOM     31  H   UNL     1       2.545   3.147  -1.024  1.00  0.00     0.211 HD
ENDBRANCH  27  30
ENDBRANCH  26  27
ENDBRANCH  16  20
ENDBRANCH   5   8
ENDBRANCH   3   4
ENDBRANCH   2   3
ENDBRANCH   1   2
BRANCH   1  32
ATOM     32  C   UNL     1      -3.666  10.205  -0.076  1.00  0.00     0.002 C 
BRANCH  32  33
ATOM     33  C   UNL     1      -2.168  10.513   0.088  1.00  0.00     0.021 C 
BRANCH  33  34
ATOM     34  C   UNL     1      -1.616  11.433  -0.986  1.00  0.00     0.116 C 
BRANCH  34  35
ATOM     35  N   UNL     1      -2.277  12.745  -0.997  1.00  0.00    -0.352 N 
ATOM     36  C   UNL     1      -2.070  13.830  -1.834  1.00  0.00     0.251 C 
ATOM     37  H   UNL     1      -2.969  12.873  -0.308  1.00  0.00     0.163 HD
ATOM     38  O   UNL     1      -2.449  14.947  -1.534  1.00  0.00    -0.269 OA
BRANCH  36  39
ATOM     39  C   UNL     1      -1.387  13.591  -3.116  1.00  0.00     0.039 A 
ATOM     40  C   UNL     1      -0.490  14.501  -3.682  1.00  0.00     0.014 A 
ATOM     41  C   UNL     1      -1.647  12.375  -3.731  1.00  0.00     0.014 A 
ATOM     42  C   UNL     1       0.165  14.131  -4.854  1.00  0.00     0.010 A 
ATOM     43  C   UNL     1      -0.785  11.903  -4.668  1.00  0.00     0.010 A 
ATOM     44  C   UNL     1       0.005  12.819  -5.330  1.00  0.00    -0.014 A 
BRANCH  44  45
ATOM     45  C   UNL     1       0.673  12.319  -6.513  1.00  0.00     0.031 A 
ATOM     46  C   UNL     1       2.144  12.409  -6.454  1.00  0.00     0.074 A 
ATOM     47  C   UNL     1       0.021  11.640  -7.481  1.00  0.00     0.049 A 
ATOM     48  N   UNL     1       2.888  13.237  -7.103  1.00  0.00    -0.248 NA
ATOM     49  C   UNL     1       2.861  11.616  -5.446  1.00  0.00     0.031 C 
ATOM     50  C   UNL     1      -1.381  11.204  -7.545  1.00  0.00     0.029 A 
ATOM     51  N   UNL     1       0.536  11.131  -8.629  1.00  0.00    -0.354 N 
ATOM     52  C   UNL     1       4.194  12.944  -6.738  1.00  0.00     0.074 A 
ATOM     53  C   UNL     1       4.105  12.080  -5.589  1.00  0.00     0.031 C 
ATOM     54  C   UNL     1      -1.544  10.329  -8.563  1.00  0.00     0.029 A 
ATOM     55  C   UNL     1      -0.311  10.277  -9.324  1.00  0.00     0.049 A 
ATOM     56  H   UNL     1       1.442  11.350  -8.945  1.00  0.00     0.167 HD
ATOM     57  C   UNL     1       5.223  13.252  -7.574  1.00  0.00     0.037 A 
ATOM     58  C   UNL     1       0.005   9.579 -10.443  1.00  0.00     0.037 A 
ATOM     59  C   UNL     1       4.790  14.167  -8.605  1.00  0.00     0.049 A 
ATOM     60  C   UNL     1       1.163  10.274 -11.066  1.00  0.00     0.074 A 
ATOM     61  C   UNL     1       4.271  15.449  -8.602  1.00  0.00     0.029 A 
ATOM     62  N   UNL     1       4.462  13.640  -9.833  1.00  0.00    -0.354 N 
ATOM     63  N   UNL     1       1.082  11.472 -11.581  1.00  0.00    -0.248 NA
ATOM     64  C   UNL     1       2.497   9.861 -10.653  1.00  0.00     0.031 C 
ATOM     65  C   UNL     1       3.248  15.436  -9.599  1.00  0.00     0.029 A 
ATOM     66  C   UNL     1       3.256  14.180 -10.207  1.00  0.00     0.049 A 
ATOM     67  H   UNL     1       4.995  12.994 -10.349  1.00  0.00     0.167 HD
ATOM     68  C   UNL     1       2.239  12.116 -11.165  1.00  0.00     0.074 A 
ATOM     69  C   UNL     1       3.104  11.053 -10.654  1.00  0.00     0.031 C 
ATOM     70  C   UNL     1       2.272  13.471 -10.994  1.00  0.00     0.037 A 
BRANCH  57  71
ATOM     71  C   UNL     1       6.494  12.454  -7.701  1.00  0.00     0.064 A 
ATOM     72  C   UNL     1       7.528  12.955  -8.517  1.00  0.00     0.173 A 
ATOM     73  C   UNL     1       6.620  11.102  -7.317  1.00  0.00     0.173 A 
ATOM     74  F   UNL     1       7.507  14.227  -8.942  1.00  0.00    -0.203 F 
ATOM     75  C   UNL     1       8.553  12.136  -8.993  1.00  0.00     0.198 A 
ATOM     76  C   UNL     1       7.674  10.302  -7.752  1.00  0.00     0.198 A 
ATOM     77  F   UNL     1       5.682  10.466  -6.608  1.00  0.00    -0.203 F 
ATOM     78  F   UNL     1       9.436  12.622  -9.876  1.00  0.00    -0.200 F 
ATOM     79  C   UNL     1       8.619  10.807  -8.619  1.00  0.00     0.200 A 
ATOM     80  F   UNL     1       7.712   9.011  -7.389  1.00  0.00    -0.200 F 
ATOM     81  F   UNL     1       9.558  10.001  -9.130  1.00  0.00    -0.200 F 
ENDBRANCH  57  71
BRANCH  58  82
ATOM     82  C   UNL     1      -0.403   8.200 -10.804  1.00  0.00     0.064 A 
ATOM     83  C   UNL     1      -0.234   7.704 -12.107  1.00  0.00     0.173 A 
ATOM     84  C   UNL     1      -0.703   7.248  -9.808  1.00  0.00     0.173 A 
ATOM     85  F   UNL     1       0.101   8.534 -13.105  1.00  0.00    -0.203 F 
ATOM     86  C   UNL     1      -0.335   6.336 -12.392  1.00  0.00     0.198 A 
ATOM     87  C   UNL     1      -0.804   5.885 -10.093  1.00  0.00     0.198 A 
ATOM     88  F   UNL     1      -0.805   7.610  -8.521  1.00  0.00    -0.203 F 
ATOM     89  F   UNL     1      -0.106   5.893 -13.636  1.00  0.00    -0.200 F 
ATOM     90  C   UNL     1      -0.608   5.427 -11.382  1.00  0.00     0.200 A 
ATOM     91  F   UNL     1      -1.025   5.013  -9.099  1.00  0.00    -0.200 F 
ATOM     92  F   UNL     1      -0.638   4.112 -11.641  1.00  0.00    -0.200 F 
ENDBRANCH  58  82
BRANCH  70  93
ATOM     93  C   UNL     1       1.083  14.264 -11.469  1.00  0.00     0.064 A 
ATOM     94  C   UNL     1      -0.206  14.156 -10.916  1.00  0.00     0.173 A 
ATOM     95  C   UNL     1       1.288  15.275 -12.415  1.00  0.00     0.173 A 
ATOM     96  F   UNL     1      -0.463  13.287  -9.934  1.00  0.00    -0.203 F 
ATOM     97  C   UNL     1      -1.247  14.989 -11.323  1.00  0.00     0.198 A 
ATOM     98  C   UNL     1       0.256  16.129 -12.797  1.00  0.00     0.198 A 
ATOM     99  F   UNL     1       2.510  15.468 -12.935  1.00  0.00    -0.203 F 
ATOM    100  F   UNL     1      -2.468  14.856 -10.783  1.00  0.00    -0.200 F 
ATOM    101  C   UNL     1      -1.013  15.980 -12.260  1.00  0.00     0.200 A 
ATOM    102  F   UNL     1       0.500  17.118 -13.668  1.00  0.00    -0.200 F 
ATOM    103  F   UNL     1      -2.002  16.808 -12.626  1.00  0.00    -0.200 F 
ENDBRANCH  70  93
ENDBRANCH  44  45
ENDBRANCH  36  39
ENDBRANCH  34  35
ENDBRANCH  33  34
ENDBRANCH  32  33
ENDBRANCH   1  32
TORSDOF 18
