REMARK SMILES COCCS(=O)(=O)N[C@@H]1C=C[C@@H](C(=O)NCCCCCCNC(=O)c2ccc(-c3c4nc(c(-c5c(F)c(F)c(F)c(F)c5F)c5ccc([nH]5)c(-c5c(F)c(F)c(F)c(F)c5F)c5nc(c(-c6c(F)c(F)c(F)c(F)c6F)c6ccc3[nH]6)C=C5)C=C4)cc2)C1
REMARK SMILES IDX 17 1 16 2 15 3 13 4 14 5 12 7 9 8 10 9 88 10 11 11 8 12 5 14
REMARK SMILES IDX 6 15 7 16 4 17 3 18 2 19 1 20 18 21 19 22 20 23 21 24 22 25
REMARK SMILES IDX 23 26 24 28 25 29 26 30 87 31 27 32 86 33 28 34 29 35 30 36
REMARK SMILES IDX 80 37 31 38 85 39 79 40 81 41 32 42 84 43 78 44 77 45 33 47
REMARK SMILES IDX 65 48 45 49 64 50 46 51 49 52 63 53 82 54 47 55 48 56 62 58
REMARK SMILES IDX 83 59 50 60 34 61 35 62 43 63 36 64 37 65 41 66 44 67 38 68
REMARK SMILES IDX 39 69 42 70 40 71 66 72 67 73 75 74 68 75 69 76 73 77 76 78
REMARK SMILES IDX 70 79 71 80 74 81 72 82 51 83 52 84 60 85 53 86 54 87 58 88
REMARK SMILES IDX 61 89 55 90 56 91 59 92 57 93
REMARK H PARENT 15 6 8 13 22 27 81 46 49 57
REMARK Flexibility Score: inf
ROOT
ATOM      1  C   UNL     1       0.330  -2.206   4.176  1.00  0.00     0.021 C 
ENDROOT
BRANCH   1   2
ATOM      2  C   UNL     1       1.502  -2.501   3.240  1.00  0.00     0.116 C 
BRANCH   2   3
ATOM      3  N   UNL     1       1.387  -3.806   2.625  1.00  0.00    -0.356 N 
ATOM      4  C   UNL     1       1.412  -4.202   1.324  1.00  0.00     0.226 C 
ATOM      5  O   UNL     1       1.335  -5.418   1.117  1.00  0.00    -0.274 OA
ATOM      6  H   UNL     1       1.269  -4.544   3.267  1.00  0.00     0.163 HD
BRANCH   4   7
ATOM      7  C   UNL     1       1.546  -3.237   0.138  1.00  0.00     0.103 C 
ATOM      8  C   UNL     1       1.109  -0.805   0.056  1.00  0.00     0.093 C 
ATOM      9  C   UNL     1       2.566  -1.131   0.092  1.00  0.00    -0.011 C 
ATOM     10  C   UNL     1       0.435  -2.187  -0.029  1.00  0.00     0.042 C 
ATOM     11  C   UNL     1       2.808  -2.442   0.160  1.00  0.00    -0.016 C 
BRANCH   8  12
ATOM     12  N   UNL     1       0.864   0.028  -1.114  1.00  0.00    -0.208 NA
ATOM     13  H   UNL     1       1.677  -0.070  -1.722  1.00  0.00     0.141 HD
BRANCH  12  14
ATOM     14  S   UNL     1       0.595   1.670  -0.922  1.00  0.00     0.214 S 
ATOM     15  O   UNL     1      -0.315   1.844   0.191  1.00  0.00    -0.212 OA
ATOM     16  O   UNL     1       0.227   2.138  -2.240  1.00  0.00    -0.212 OA
BRANCH  14  17
ATOM     17  C   UNL     1       2.211   2.355  -0.535  1.00  0.00     0.182 C 
BRANCH  17  18
ATOM     18  C   UNL     1       2.368   2.713   0.931  1.00  0.00     0.177 C 
BRANCH  18  19
ATOM     19  O   UNL     1       2.675   1.550   1.700  1.00  0.00    -0.384 OA
ATOM     20  C   UNL     1       1.826   1.395   2.829  1.00  0.00     0.194 C 
ENDBRANCH  18  19
ENDBRANCH  17  18
ENDBRANCH  14  17
ENDBRANCH  12  14
ENDBRANCH   8  12
ENDBRANCH   4   7
ENDBRANCH   2   3
ENDBRANCH   1   2
BRANCH   1  21
ATOM     21  C   UNL     1       0.333  -3.018   5.477  1.00  0.00     0.002 C 
BRANCH  21  22
ATOM     22  C   UNL     1       1.527  -2.766   6.406  1.00  0.00     0.002 C 
BRANCH  22  23
ATOM     23  C   UNL     1       1.716  -1.317   6.860  1.00  0.00     0.021 C 
BRANCH  23  24
ATOM     24  C   UNL     1       0.527  -0.710   7.600  1.00  0.00     0.116 C 
BRANCH  24  25
ATOM     25  N   UNL     1       0.237  -1.398   8.849  1.00  0.00    -0.352 N 
ATOM     26  C   UNL     1       0.114  -0.896  10.121  1.00  0.00     0.251 C 
ATOM     27  H   UNL     1       0.110  -2.371   8.770  1.00  0.00     0.163 HD
ATOM     28  O   UNL     1       0.040  -1.658  11.080  1.00  0.00    -0.269 OA
BRANCH  26  29
ATOM     29  C   UNL     1       0.093   0.567  10.344  1.00  0.00     0.039 A 
ATOM     30  C   UNL     1       0.835   1.098  11.403  1.00  0.00     0.014 A 
ATOM     31  C   UNL     1      -0.662   1.411   9.527  1.00  0.00     0.014 A 
ATOM     32  C   UNL     1       0.870   2.480  11.600  1.00  0.00     0.010 A 
ATOM     33  C   UNL     1      -0.563   2.792   9.675  1.00  0.00     0.010 A 
ATOM     34  C   UNL     1       0.202   3.342  10.715  1.00  0.00    -0.014 A 
BRANCH  34  35
ATOM     35  C   UNL     1       0.296   4.819  10.863  1.00  0.00     0.031 A 
ATOM     36  C   UNL     1      -0.934   5.634  11.152  1.00  0.00     0.074 A 
ATOM     37  C   UNL     1       1.482   5.432  10.681  1.00  0.00     0.049 A 
ATOM     38  N   UNL     1      -1.060   6.933  11.264  1.00  0.00    -0.248 NA
ATOM     39  C   UNL     1      -2.196   4.894  11.311  1.00  0.00     0.031 C 
ATOM     40  C   UNL     1       2.739   4.758  10.351  1.00  0.00     0.029 A 
ATOM     41  N   UNL     1       1.824   6.760  10.739  1.00  0.00    -0.354 N 
ATOM     42  C   UNL     1      -2.410   7.164  11.496  1.00  0.00     0.074 A 
ATOM     43  C   UNL     1      -3.072   5.878  11.447  1.00  0.00     0.031 C 
ATOM     44  C   UNL     1       3.718   5.672  10.263  1.00  0.00     0.029 A 
ATOM     45  C   UNL     1       3.153   6.999  10.486  1.00  0.00     0.049 A 
ATOM     46  H   UNL     1       1.178   7.474  10.943  1.00  0.00     0.167 HD
ATOM     47  C   UNL     1      -3.037   8.338  11.751  1.00  0.00     0.037 A 
ATOM     48  C   UNL     1       3.837   8.158  10.431  1.00  0.00     0.037 A 
ATOM     49  C   UNL     1      -2.371   9.613  11.813  1.00  0.00     0.049 A 
ATOM     50  C   UNL     1       3.112   9.451  10.694  1.00  0.00     0.074 A 
ATOM     51  C   UNL     1      -2.907  10.852  12.118  1.00  0.00     0.029 A 
ATOM     52  N   UNL     1      -1.022   9.814  11.555  1.00  0.00    -0.354 N 
ATOM     53  N   UNL     1       1.850   9.649  10.986  1.00  0.00    -0.248 NA
ATOM     54  C   UNL     1       3.912  10.683  10.629  1.00  0.00     0.031 C 
ATOM     55  C   UNL     1      -1.897  11.810  11.986  1.00  0.00     0.029 A 
ATOM     56  C   UNL     1      -0.716  11.162  11.665  1.00  0.00     0.049 A 
ATOM     57  H   UNL     1      -0.378   9.105  11.328  1.00  0.00     0.167 HD
ATOM     58  C   UNL     1       1.710  11.018  11.170  1.00  0.00     0.074 A 
ATOM     59  C   UNL     1       3.021  11.601  10.973  1.00  0.00     0.031 C 
ATOM     60  C   UNL     1       0.596  11.729  11.475  1.00  0.00     0.037 A 
BRANCH  47  61
ATOM     61  C   UNL     1      -4.522   8.299  11.980  1.00  0.00     0.064 A 
ATOM     62  C   UNL     1      -5.077   7.698  13.121  1.00  0.00     0.173 A 
ATOM     63  C   UNL     1      -5.399   8.906  11.069  1.00  0.00     0.173 A 
ATOM     64  F   UNL     1      -4.286   7.095  14.021  1.00  0.00    -0.203 F 
ATOM     65  C   UNL     1      -6.455   7.676  13.322  1.00  0.00     0.198 A 
ATOM     66  C   UNL     1      -6.774   8.913  11.291  1.00  0.00     0.198 A 
ATOM     67  F   UNL     1      -4.923   9.502   9.965  1.00  0.00    -0.203 F 
ATOM     68  F   UNL     1      -6.965   7.047  14.390  1.00  0.00    -0.200 F 
ATOM     69  C   UNL     1      -7.302   8.290  12.411  1.00  0.00     0.200 A 
ATOM     70  F   UNL     1      -7.589   9.522  10.418  1.00  0.00    -0.200 F 
ATOM     71  F   UNL     1      -8.627   8.276  12.611  1.00  0.00    -0.200 F 
ENDBRANCH  47  61
BRANCH  48  72
ATOM     72  C   UNL     1       5.294   8.150  10.129  1.00  0.00     0.064 A 
ATOM     73  C   UNL     1       6.234   8.525  11.099  1.00  0.00     0.173 A 
ATOM     74  C   UNL     1       5.777   7.781   8.865  1.00  0.00     0.173 A 
ATOM     75  F   UNL     1       5.823   8.906  12.318  1.00  0.00    -0.203 F 
ATOM     76  C   UNL     1       7.597   8.558  10.809  1.00  0.00     0.198 A 
ATOM     77  C   UNL     1       7.142   7.781   8.586  1.00  0.00     0.198 A 
ATOM     78  F   UNL     1       4.921   7.407   7.902  1.00  0.00    -0.203 F 
ATOM     79  F   UNL     1       8.468   8.974  11.738  1.00  0.00    -0.200 F 
ATOM     80  C   UNL     1       8.050   8.180   9.554  1.00  0.00     0.200 A 
ATOM     81  F   UNL     1       7.576   7.398   7.377  1.00  0.00    -0.200 F 
ATOM     82  F   UNL     1       9.360   8.208   9.276  1.00  0.00    -0.200 F 
ENDBRANCH  48  72
BRANCH  60  83
ATOM     83  C   UNL     1       0.750  13.213  11.657  1.00  0.00     0.064 A 
ATOM     84  C   UNL     1       1.023  14.067  10.579  1.00  0.00     0.173 A 
ATOM     85  C   UNL     1       0.584  13.791  12.925  1.00  0.00     0.173 A 
ATOM     86  F   UNL     1       1.205  13.565   9.348  1.00  0.00    -0.203 F 
ATOM     87  C   UNL     1       1.153  15.441  10.768  1.00  0.00     0.198 A 
ATOM     88  C   UNL     1       0.678  15.168  13.105  1.00  0.00     0.198 A 
ATOM     89  F   UNL     1       0.314  13.021  13.990  1.00  0.00    -0.203 F 
ATOM     90  F   UNL     1       1.468  16.231   9.733  1.00  0.00    -0.200 F 
ATOM     91  C   UNL     1       0.972  15.991  12.029  1.00  0.00     0.200 A 
ATOM     92  F   UNL     1       0.485  15.698  14.320  1.00  0.00    -0.200 F 
ATOM     93  F   UNL     1       1.088  17.314  12.207  1.00  0.00    -0.200 F 
ENDBRANCH  60  83
ENDBRANCH  34  35
ENDBRANCH  26  29
ENDBRANCH  24  25
ENDBRANCH  23  24
ENDBRANCH  22  23
ENDBRANCH  21  22
ENDBRANCH   1  21
TORSDOF 18
