REMARK SMILES CN(C(=O)N1Cc2nc[nH]c2C[C@@H]1C(=O)NCCCCCCNC(=O)c1ccc(-c2c3nc(c(-c4c(F)c(F)c(F)c(F)c4F)c4ccc([nH]4)c(-c4c(F)c(F)c(F)c(F)c4F)c4nc(c(-c5c(F)c(F)c(F)c(F)c5F)c5ccc2[nH]5)C=C4)C=C3)cc1)C1CC1
REMARK SMILES IDX 19 1 18 2 17 3 16 4 14 5 15 6 13 8 5 9 6 10 7 11 12 12 8 13
REMARK SMILES IDX 11 14 9 15 10 16 3 18 4 19 2 20 1 21 89 22 90 23 91 24 20 25
REMARK SMILES IDX 21 26 22 27 23 28 24 29 25 31 26 32 27 33 88 34 28 35 87 36
REMARK SMILES IDX 29 37 30 38 31 39 81 40 32 41 86 42 80 43 82 44 33 45 85 46
REMARK SMILES IDX 79 47 78 48 34 50 66 51 46 52 65 53 47 54 50 55 64 56 83 57
REMARK SMILES IDX 48 58 49 59 63 61 84 62 51 63 35 64 36 65 44 66 37 67 38 68
REMARK SMILES IDX 42 69 45 70 39 71 40 72 43 73 41 74 67 75 68 76 76 77 69 78
REMARK SMILES IDX 70 79 74 80 77 81 71 82 72 83 75 84 73 85 52 86 53 87 61 88
REMARK SMILES IDX 54 89 55 90 59 91 62 92 56 93 57 94 60 95 58 96
REMARK H PARENT 16 7 10 17 23 30 82 49 50 60
REMARK Flexibility Score: inf
ROOT
ATOM      1  C   UNL     1       1.773   0.974  -2.957  1.00  0.00     0.002 C 
ENDROOT
BRANCH   1   2
ATOM      2  C   UNL     1       1.711  -0.562  -2.840  1.00  0.00     0.021 C 
BRANCH   2   3
ATOM      3  C   UNL     1       2.008  -1.315  -1.518  1.00  0.00     0.116 C 
BRANCH   3   4
ATOM      4  N   UNL     1       1.263  -0.846  -0.363  1.00  0.00    -0.354 N 
ATOM      5  C   UNL     1       0.430  -1.657   0.418  1.00  0.00     0.243 C 
ATOM      6  O   UNL     1       0.804  -2.264   1.415  1.00  0.00    -0.273 OA
ATOM      7  H   UNL     1       1.348   0.102  -0.113  1.00  0.00     0.163 HD
BRANCH   5   8
ATOM      8  C   UNL     1      -0.963  -1.827  -0.199  1.00  0.00     0.182 C 
ATOM      9  N   UNL     1      -1.303  -0.863  -1.264  1.00  0.00    -0.306 N 
ATOM     10  C   UNL     1      -1.799  -1.586  -2.482  1.00  0.00     0.180 C 
ATOM     11  C   UNL     1      -2.729  -2.699  -2.055  1.00  0.00     0.081 A 
ATOM     12  C   UNL     1      -2.299  -2.330   0.438  1.00  0.00     0.091 C 
ATOM     13  N   UNL     1      -3.111  -3.733  -2.873  1.00  0.00    -0.240 NA
ATOM     14  C   UNL     1      -2.994  -3.016  -0.729  1.00  0.00     0.042 A 
ATOM     15  C   UNL     1      -3.679  -4.612  -2.075  1.00  0.00     0.197 A 
ATOM     16  N   UNL     1      -3.719  -4.173  -0.772  1.00  0.00    -0.348 N 
ATOM     17  H   UNL     1      -4.180  -4.608  -0.018  1.00  0.00     0.167 HD
BRANCH   9  18
ATOM     18  C   UNL     1      -1.399   0.517  -1.225  1.00  0.00     0.321 C 
ATOM     19  O   UNL     1      -1.851   1.090  -2.226  1.00  0.00    -0.248 OA
BRANCH  18  20
ATOM     20  N   UNL     1      -0.839   1.304  -0.200  1.00  0.00    -0.325 N 
ATOM     21  C   UNL     1      -0.410   1.012   1.186  1.00  0.00     0.149 C 
BRANCH  20  22
ATOM     22  C   UNL     1      -0.466   2.673  -0.591  1.00  0.00     0.086 C 
ATOM     23  C   UNL     1      -1.475   3.747  -0.875  1.00  0.00     0.027 C 
ATOM     24  C   UNL     1      -0.554   3.885   0.299  1.00  0.00     0.027 C 
ENDBRANCH  20  22
ENDBRANCH  18  20
ENDBRANCH   9  18
ENDBRANCH   5   8
ENDBRANCH   3   4
ENDBRANCH   2   3
ENDBRANCH   1   2
BRANCH   1  25
ATOM     25  C   UNL     1       2.837   1.747  -2.172  1.00  0.00     0.002 C 
BRANCH  25  26
ATOM     26  C   UNL     1       4.210   1.788  -2.848  1.00  0.00     0.021 C 
BRANCH  26  27
ATOM     27  C   UNL     1       4.313   2.793  -4.000  1.00  0.00     0.116 C 
BRANCH  27  28
ATOM     28  N   UNL     1       4.487   4.180  -3.563  1.00  0.00    -0.352 N 
ATOM     29  C   UNL     1       4.421   5.314  -4.362  1.00  0.00     0.251 C 
ATOM     30  H   UNL     1       4.668   4.323  -2.606  1.00  0.00     0.163 HD
ATOM     31  O   UNL     1       4.982   6.346  -4.072  1.00  0.00    -0.269 OA
BRANCH  29  32
ATOM     32  C   UNL     1       3.602   5.222  -5.585  1.00  0.00     0.039 A 
ATOM     33  C   UNL     1       4.119   5.564  -6.836  1.00  0.00     0.014 A 
ATOM     34  C   UNL     1       2.319   4.693  -5.444  1.00  0.00     0.014 A 
ATOM     35  C   UNL     1       3.361   5.276  -7.968  1.00  0.00     0.010 A 
ATOM     36  C   UNL     1       1.616   4.323  -6.565  1.00  0.00     0.010 A 
ATOM     37  C   UNL     1       2.122   4.626  -7.828  1.00  0.00    -0.014 A 
BRANCH  37  38
ATOM     38  C   UNL     1       1.423   4.115  -9.006  1.00  0.00     0.031 A 
ATOM     39  C   UNL     1       2.240   3.209  -9.864  1.00  0.00     0.074 A 
ATOM     40  C   UNL     1       0.097   4.269  -9.205  1.00  0.00     0.049 A 
ATOM     41  N   UNL     1       2.666   3.435 -11.063  1.00  0.00    -0.248 NA
ATOM     42  C   UNL     1       2.753   1.957  -9.284  1.00  0.00     0.031 C 
ATOM     43  C   UNL     1      -0.892   4.863  -8.296  1.00  0.00     0.029 A 
ATOM     44  N   UNL     1      -0.675   3.834 -10.242  1.00  0.00    -0.354 N 
ATOM     45  C   UNL     1       3.345   2.285 -11.463  1.00  0.00     0.074 A 
ATOM     46  C   UNL     1       3.502   1.478 -10.283  1.00  0.00     0.031 C 
ATOM     47  C   UNL     1      -2.139   4.551  -8.711  1.00  0.00     0.029 A 
ATOM     48  C   UNL     1      -2.043   3.901 -10.004  1.00  0.00     0.049 A 
ATOM     49  H   UNL     1      -0.295   3.501 -11.087  1.00  0.00     0.167 HD
ATOM     50  C   UNL     1       3.506   1.997 -12.786  1.00  0.00     0.037 A 
ATOM     51  C   UNL     1      -3.032   3.458 -10.816  1.00  0.00     0.037 A 
ATOM     52  C   UNL     1       3.153   3.133 -13.597  1.00  0.00     0.049 A 
ATOM     53  C   UNL     1      -2.468   3.371 -12.180  1.00  0.00     0.074 A 
ATOM     54  C   UNL     1       3.698   4.366 -13.876  1.00  0.00     0.029 A 
ATOM     55  N   UNL     1       1.830   3.183 -13.948  1.00  0.00    -0.354 N 
ATOM     56  N   UNL     1      -2.106   4.411 -12.877  1.00  0.00    -0.248 NA
ATOM     57  C   UNL     1      -1.953   2.093 -12.649  1.00  0.00     0.031 C 
ATOM     58  C   UNL     1       2.587   5.229 -14.118  1.00  0.00     0.029 A 
ATOM     59  C   UNL     1       1.412   4.482 -14.031  1.00  0.00     0.049 A 
ATOM     60  H   UNL     1       1.263   2.397 -14.118  1.00  0.00     0.167 HD
ATOM     61  C   UNL     1      -0.990   3.985 -13.574  1.00  0.00     0.074 A 
ATOM     62  C   UNL     1      -1.055   2.528 -13.538  1.00  0.00     0.031 C 
ATOM     63  C   UNL     1       0.027   4.854 -13.841  1.00  0.00     0.037 A 
BRANCH  50  64
ATOM     64  C   UNL     1       3.523   0.608 -13.392  1.00  0.00     0.064 A 
ATOM     65  C   UNL     1       3.808   0.464 -14.768  1.00  0.00     0.173 A 
ATOM     66  C   UNL     1       2.952  -0.522 -12.771  1.00  0.00     0.173 A 
ATOM     67  F   UNL     1       4.333   1.481 -15.468  1.00  0.00    -0.203 F 
ATOM     68  C   UNL     1       3.474  -0.695 -15.478  1.00  0.00     0.198 A 
ATOM     69  C   UNL     1       2.667  -1.694 -13.472  1.00  0.00     0.198 A 
ATOM     70  F   UNL     1       2.539  -0.499 -11.499  1.00  0.00    -0.203 F 
ATOM     71  F   UNL     1       3.650  -0.739 -16.806  1.00  0.00    -0.200 F 
ATOM     72  C   UNL     1       2.898  -1.771 -14.829  1.00  0.00     0.200 A 
ATOM     73  F   UNL     1       2.085  -2.718 -12.831  1.00  0.00    -0.200 F 
ATOM     74  F   UNL     1       2.521  -2.858 -15.515  1.00  0.00    -0.200 F 
ENDBRANCH  50  64
BRANCH  51  75
ATOM     75  C   UNL     1      -4.357   2.899 -10.473  1.00  0.00     0.064 A 
ATOM     76  C   UNL     1      -5.393   2.845 -11.421  1.00  0.00     0.173 A 
ATOM     77  C   UNL     1      -4.532   2.130  -9.307  1.00  0.00     0.173 A 
ATOM     78  F   UNL     1      -5.287   3.521 -12.575  1.00  0.00    -0.203 F 
ATOM     79  C   UNL     1      -6.517   2.035 -11.233  1.00  0.00     0.198 A 
ATOM     80  C   UNL     1      -5.655   1.323  -9.120  1.00  0.00     0.198 A 
ATOM     81  F   UNL     1      -3.565   2.070  -8.379  1.00  0.00    -0.203 F 
ATOM     82  F   UNL     1      -7.450   1.953 -12.192  1.00  0.00    -0.200 F 
ATOM     83  C   UNL     1      -6.639   1.262 -10.090  1.00  0.00     0.200 A 
ATOM     84  F   UNL     1      -5.744   0.550  -8.028  1.00  0.00    -0.200 F 
ATOM     85  F   UNL     1      -7.678   0.429  -9.944  1.00  0.00    -0.200 F 
ENDBRANCH  51  75
BRANCH  63  86
ATOM     86  C   UNL     1      -0.291   6.319 -13.762  1.00  0.00     0.064 A 
ATOM     87  C   UNL     1      -0.629   7.003 -12.583  1.00  0.00     0.173 A 
ATOM     88  C   UNL     1      -0.161   7.077 -14.933  1.00  0.00     0.173 A 
ATOM     89  F   UNL     1      -0.690   6.366 -11.408  1.00  0.00    -0.203 F 
ATOM     90  C   UNL     1      -0.870   8.376 -12.589  1.00  0.00     0.198 A 
ATOM     91  C   UNL     1      -0.364   8.452 -14.930  1.00  0.00     0.198 A 
ATOM     92  F   UNL     1       0.205   6.483 -16.080  1.00  0.00    -0.203 F 
ATOM     93  F   UNL     1      -1.214   9.004 -11.455  1.00  0.00    -0.200 F 
ATOM     94  C   UNL     1      -0.731   9.100 -13.762  1.00  0.00     0.200 A 
ATOM     95  F   UNL     1      -0.184   9.153 -16.057  1.00  0.00    -0.200 F 
ATOM     96  F   UNL     1      -0.929  10.425 -13.762  1.00  0.00    -0.200 F 
ENDBRANCH  63  86
ENDBRANCH  37  38
ENDBRANCH  29  32
ENDBRANCH  27  28
ENDBRANCH  26  27
ENDBRANCH  25  26
ENDBRANCH   1  25
TORSDOF 16
