REMARK SMILES Cc1cnn(C2(C(=O)NCCCCCCNC(=O)c3ccc(-c4c5nc(c(-c6c(F)c(F)c(F)c(F)c6F)c6ccc([nH]6)c(-c6c(F)c(F)c(F)c(F)c6F)c6nc(c(-c7c(F)c(F)c(F)c(F)c7F)c7ccc4[nH]7)C=C6)C=C5)cc3)CCN(C(=O)c3cc4ccccc4[nH]3)CC2)c1
REMARK SMILES IDX 13 1 12 2 11 3 10 4 9 5 7 6 8 7 6 9 82 10 97 11 83 12 96 13
REMARK SMILES IDX 84 14 85 15 86 16 5 17 1 18 2 19 3 20 98 21 4 22 87 23 88 24
REMARK SMILES IDX 95 25 89 26 94 27 90 29 93 30 91 31 92 32 14 33 15 34 16 35
REMARK SMILES IDX 17 36 18 38 19 39 20 40 81 41 21 42 80 43 22 44 23 45 24 46
REMARK SMILES IDX 74 47 25 48 79 49 73 50 75 51 26 52 78 53 72 54 71 55 27 57
REMARK SMILES IDX 59 58 39 59 58 60 40 61 43 62 57 63 76 64 41 65 42 66 56 68
REMARK SMILES IDX 77 69 44 70 28 71 29 72 37 73 30 74 31 75 35 76 38 77 32 78
REMARK SMILES IDX 33 79 36 80 34 81 60 82 61 83 69 84 62 85 63 86 67 87 70 88
REMARK SMILES IDX 64 89 65 90 68 91 66 92 45 93 46 94 54 95 47 96 48 97 52 98
REMARK SMILES IDX 55 99 49 100 50 101 53 102 51 103
REMARK H PARENT 9 8 95 28 16 37 75 56 43 67
REMARK Flexibility Score: inf
ROOT
ATOM      1  C   UNL     1      -3.646  -7.959  -5.686  1.00  0.00     0.002 C 
ENDROOT
BRANCH   1   2
ATOM      2  C   UNL     1      -2.321  -7.271  -6.050  1.00  0.00     0.002 C 
BRANCH   2   3
ATOM      3  C   UNL     1      -2.320  -5.738  -5.981  1.00  0.00     0.021 C 
BRANCH   3   4
ATOM      4  C   UNL     1      -2.781  -5.165  -4.641  1.00  0.00     0.116 C 
BRANCH   4   5
ATOM      5  N   UNL     1      -1.845  -5.499  -3.582  1.00  0.00    -0.354 N 
ATOM      6  C   UNL     1      -1.089  -4.751  -2.716  1.00  0.00     0.248 C 
ATOM      7  O   UNL     1      -0.342  -5.448  -2.026  1.00  0.00    -0.272 OA
ATOM      8  H   UNL     1      -1.730  -6.469  -3.460  1.00  0.00     0.163 HD
BRANCH   6   9
ATOM      9  C   UNL     1      -1.224  -3.188  -2.640  1.00  0.00     0.144 C 
ATOM     10  C   UNL     1      -0.801  -2.619  -4.025  1.00  0.00     0.062 C 
ATOM     11  C   UNL     1      -2.694  -2.904  -2.222  1.00  0.00     0.062 C 
ATOM     12  C   UNL     1      -1.529  -1.353  -4.459  1.00  0.00     0.123 C 
ATOM     13  C   UNL     1      -3.263  -1.581  -2.711  1.00  0.00     0.123 C 
ATOM     14  N   UNL     1      -2.942  -1.362  -4.116  1.00  0.00    -0.337 N 
ATOM     15  C   UNL     1      -3.889  -1.160  -5.120  1.00  0.00     0.270 C 
ATOM     16  O   UNL     1      -3.614  -1.320  -6.307  1.00  0.00    -0.267 OA
BRANCH   9  17
ATOM     17  N   UNL     1      -0.343  -2.545  -1.610  1.00  0.00    -0.257 N 
ATOM     18  C   UNL     1       1.179   0.220   0.255  1.00  0.00     0.048 C 
ATOM     19  C   UNL     1       0.702  -1.040  -0.353  1.00  0.00    -0.013 A 
ATOM     20  C   UNL     1       1.084  -2.356  -0.045  1.00  0.00     0.138 A 
ATOM     21  C   UNL     1      -0.227  -1.196  -1.356  1.00  0.00     0.113 A 
ATOM     22  N   UNL     1       0.444  -3.256  -0.786  1.00  0.00    -0.180 NA
ENDBRANCH   9  17
BRANCH  15  23
ATOM     23  C   UNL     1      -5.227  -0.810  -4.709  1.00  0.00     0.105 A 
ATOM     24  C   UNL     1      -5.682   0.224  -3.907  1.00  0.00     0.042 A 
ATOM     25  N   UNL     1      -6.339  -1.484  -5.151  1.00  0.00    -0.351 N 
ATOM     26  C   UNL     1      -7.095   0.112  -3.797  1.00  0.00     0.000 A 
ATOM     27  C   UNL     1      -7.474  -1.003  -4.543  1.00  0.00     0.046 A 
ATOM     28  H   UNL     1      -6.325  -2.213  -5.813  1.00  0.00     0.167 HD
ATOM     29  C   UNL     1      -8.090   0.847  -3.125  1.00  0.00     0.010 A 
ATOM     30  C   UNL     1      -8.796  -1.454  -4.613  1.00  0.00     0.026 A 
ATOM     31  C   UNL     1      -9.422   0.422  -3.200  1.00  0.00     0.001 A 
ATOM     32  C   UNL     1      -9.764  -0.720  -3.921  1.00  0.00     0.002 A 
ENDBRANCH  15  23
ENDBRANCH   6   9
ENDBRANCH   4   5
ENDBRANCH   3   4
ENDBRANCH   2   3
ENDBRANCH   1   2
BRANCH   1  33
ATOM     33  C   UNL     1      -4.901  -7.450  -6.406  1.00  0.00     0.021 C 
BRANCH  33  34
ATOM     34  C   UNL     1      -4.841  -7.575  -7.920  1.00  0.00     0.116 C 
BRANCH  34  35
ATOM     35  N   UNL     1      -4.845  -8.960  -8.380  1.00  0.00    -0.352 N 
ATOM     36  C   UNL     1      -4.799  -9.417  -9.685  1.00  0.00     0.251 C 
ATOM     37  H   UNL     1      -4.884  -9.651  -7.679  1.00  0.00     0.163 HD
ATOM     38  O   UNL     1      -5.172 -10.539  -9.979  1.00  0.00    -0.269 OA
BRANCH  36  39
ATOM     39  C   UNL     1      -4.293  -8.500 -10.724  1.00  0.00     0.039 A 
ATOM     40  C   UNL     1      -4.932  -8.385 -11.959  1.00  0.00     0.014 A 
ATOM     41  C   UNL     1      -3.188  -7.709 -10.418  1.00  0.00     0.014 A 
ATOM     42  C   UNL     1      -4.504  -7.397 -12.842  1.00  0.00     0.010 A 
ATOM     43  C   UNL     1      -2.877  -6.635 -11.215  1.00  0.00     0.010 A 
ATOM     44  C   UNL     1      -3.497  -6.494 -12.450  1.00  0.00    -0.014 A 
BRANCH  44  45
ATOM     45  C   UNL     1      -3.174  -5.336 -13.284  1.00  0.00     0.031 A 
ATOM     46  C   UNL     1      -4.361  -4.580 -13.764  1.00  0.00     0.074 A 
ATOM     47  C   UNL     1      -1.920  -4.883 -13.511  1.00  0.00     0.049 A 
ATOM     48  N   UNL     1      -4.803  -4.534 -14.976  1.00  0.00    -0.248 NA
ATOM     49  C   UNL     1      -5.239  -3.917 -12.789  1.00  0.00     0.031 C 
ATOM     50  C   UNL     1      -0.664  -5.358 -12.915  1.00  0.00     0.029 A 
ATOM     51  N   UNL     1      -1.504  -3.837 -14.286  1.00  0.00    -0.354 N 
ATOM     52  C   UNL     1      -5.898  -3.676 -14.961  1.00  0.00     0.074 A 
ATOM     53  C   UNL     1      -6.215  -3.451 -13.575  1.00  0.00     0.031 C 
ATOM     54  C   UNL     1       0.328  -4.475 -13.166  1.00  0.00     0.029 A 
ATOM     55  C   UNL     1      -0.171  -3.486 -14.101  1.00  0.00     0.049 A 
ATOM     56  H   UNL     1      -2.096  -3.372 -14.920  1.00  0.00     0.167 HD
ATOM     57  C   UNL     1      -6.271  -3.030 -16.101  1.00  0.00     0.037 A 
ATOM     58  C   UNL     1       0.509  -2.485 -14.706  1.00  0.00     0.037 A 
ATOM     59  C   UNL     1      -5.602  -3.595 -17.246  1.00  0.00     0.049 A 
ATOM     60  C   UNL     1      -0.169  -2.206 -15.987  1.00  0.00     0.074 A 
ATOM     61  C   UNL     1      -5.742  -4.709 -18.041  1.00  0.00     0.029 A 
ATOM     62  N   UNL     1      -4.336  -3.110 -17.436  1.00  0.00    -0.354 N 
ATOM     63  N   UNL     1      -0.193  -3.054 -16.977  1.00  0.00    -0.248 NA
ATOM     64  C   UNL     1      -1.135  -1.117 -16.069  1.00  0.00     0.031 C 
ATOM     65  C   UNL     1      -4.447  -4.977 -18.581  1.00  0.00     0.029 A 
ATOM     66  C   UNL     1      -3.563  -3.999 -18.131  1.00  0.00     0.049 A 
ATOM     67  H   UNL     1      -4.023  -2.234 -17.115  1.00  0.00     0.167 HD
ATOM     68  C   UNL     1      -1.435  -2.867 -17.548  1.00  0.00     0.074 A 
ATOM     69  C   UNL     1      -1.882  -1.559 -17.085  1.00  0.00     0.031 C 
ATOM     70  C   UNL     1      -2.123  -3.920 -18.072  1.00  0.00     0.037 A 
BRANCH  57  71
ATOM     71  C   UNL     1      -6.822  -1.623 -16.170  1.00  0.00     0.064 A 
ATOM     72  C   UNL     1      -7.255  -1.120 -17.417  1.00  0.00     0.173 A 
ATOM     73  C   UNL     1      -6.616  -0.656 -15.164  1.00  0.00     0.173 A 
ATOM     74  F   UNL     1      -7.469  -1.948 -18.451  1.00  0.00    -0.203 F 
ATOM     75  C   UNL     1      -7.388   0.252 -17.656  1.00  0.00     0.198 A 
ATOM     76  C   UNL     1      -6.796   0.708 -15.394  1.00  0.00     0.198 A 
ATOM     77  F   UNL     1      -6.122  -0.976 -13.963  1.00  0.00    -0.203 F 
ATOM     78  F   UNL     1      -7.681   0.689 -18.888  1.00  0.00    -0.200 F 
ATOM     79  C   UNL     1      -7.150   1.165 -16.646  1.00  0.00     0.200 A 
ATOM     80  F   UNL     1      -6.538   1.580 -14.409  1.00  0.00    -0.200 F 
ATOM     81  F   UNL     1      -7.213   2.481 -16.887  1.00  0.00    -0.200 F 
ENDBRANCH  57  71
BRANCH  58  82
ATOM     82  C   UNL     1       1.618  -1.656 -14.192  1.00  0.00     0.064 A 
ATOM     83  C   UNL     1       2.495  -0.979 -15.053  1.00  0.00     0.173 A 
ATOM     84  C   UNL     1       1.648  -1.279 -12.836  1.00  0.00     0.173 A 
ATOM     85  F   UNL     1       2.502  -1.256 -16.365  1.00  0.00    -0.203 F 
ATOM     86  C   UNL     1       3.328   0.045 -14.591  1.00  0.00     0.198 A 
ATOM     87  C   UNL     1       2.477  -0.256 -12.376  1.00  0.00     0.198 A 
ATOM     88  F   UNL     1       0.798  -1.831 -11.957  1.00  0.00    -0.203 F 
ATOM     89  F   UNL     1       4.106   0.715 -15.452  1.00  0.00    -0.200 F 
ATOM     90  C   UNL     1       3.306   0.417 -13.256  1.00  0.00     0.200 A 
ATOM     91  F   UNL     1       2.419   0.121 -11.091  1.00  0.00    -0.200 F 
ATOM     92  F   UNL     1       4.049   1.446 -12.827  1.00  0.00    -0.200 F 
ENDBRANCH  58  82
BRANCH  70  93
ATOM     93  C   UNL     1      -1.327  -5.129 -18.450  1.00  0.00     0.064 A 
ATOM     94  C   UNL     1      -0.710  -5.992 -17.531  1.00  0.00     0.173 A 
ATOM     95  C   UNL     1      -1.242  -5.459 -19.808  1.00  0.00     0.173 A 
ATOM     96  F   UNL     1      -0.810  -5.781 -16.213  1.00  0.00    -0.203 F 
ATOM     97  C   UNL     1      -0.004  -7.114 -17.959  1.00  0.00     0.198 A 
ATOM     98  C   UNL     1      -0.565  -6.597 -20.231  1.00  0.00     0.198 A 
ATOM     99  F   UNL     1      -1.849  -4.689 -20.724  1.00  0.00    -0.203 F 
ATOM    100  F   UNL     1       0.595  -7.915 -17.064  1.00  0.00    -0.200 F 
ATOM    101  C   UNL     1       0.063  -7.419 -19.309  1.00  0.00     0.200 A 
ATOM    102  F   UNL     1      -0.537  -6.907 -21.535  1.00  0.00    -0.200 F 
ATOM    103  F   UNL     1       0.717  -8.514 -19.721  1.00  0.00    -0.200 F 
ENDBRANCH  70  93
ENDBRANCH  44  45
ENDBRANCH  36  39
ENDBRANCH  34  35
ENDBRANCH  33  34
ENDBRANCH   1  33
TORSDOF 15
