REMARK SMILES Cc1cc(S(=O)(=O)N[C@H](CO)C(C)C)sc1C(=O)NCCCCCCNC(=O)c1ccc(-c2c3nc(c(-c4c(F)c(F)c(F)c(F)c4F)c4ccc([nH]4)c(-c4c(F)c(F)c(F)c(F)c4F)c4nc(c(-c5c(F)c(F)c(F)c(F)c5F)c5ccc2[nH]5)C=C4)C=C3)cc1
REMARK SMILES IDX 21 1 20 2 19 3 17 4 18 5 16 7 1 8 2 9 3 10 4 11 15 12 5 13
REMARK SMILES IDX 6 14 7 15 8 16 9 18 12 19 13 20 14 21 10 22 11 23 22 25
REMARK SMILES IDX 23 26 24 27 25 28 26 29 27 30 28 32 29 33 30 34 91 35 31 36
REMARK SMILES IDX 90 37 32 38 33 39 34 40 84 41 35 42 89 43 83 44 85 45 36 46
REMARK SMILES IDX 88 47 82 48 81 49 37 51 69 52 49 53 68 54 50 55 53 56 67 57
REMARK SMILES IDX 86 58 51 59 52 60 66 62 87 63 54 64 38 65 39 66 47 67 40 68
REMARK SMILES IDX 41 69 45 70 48 71 42 72 43 73 46 74 44 75 70 76 71 77 79 78
REMARK SMILES IDX 72 79 73 80 77 81 80 82 74 83 75 84 78 85 76 86 55 87 56 88
REMARK SMILES IDX 64 89 57 90 58 91 62 92 65 93 59 94 60 95 63 96 61 97
REMARK H PARENT 19 6 8 17 11 24 26 31 85 50 53 61
REMARK Flexibility Score: inf
ROOT
ATOM      1  C   UNL     1     -10.320  -2.670   5.030  1.00  0.00     0.021 C 
ENDROOT
BRANCH   1   2
ATOM      2  C   UNL     1      -9.047  -2.500   5.865  1.00  0.00     0.116 C 
BRANCH   2   3
ATOM      3  N   UNL     1      -7.878  -2.636   5.039  1.00  0.00    -0.351 N 
ATOM      4  C   UNL     1      -6.876  -1.783   4.678  1.00  0.00     0.261 C 
ATOM      5  O   UNL     1      -5.900  -2.385   4.210  1.00  0.00    -0.268 OA
ATOM      6  H   UNL     1      -7.779  -3.535   4.652  1.00  0.00     0.163 HD
BRANCH   4   7
ATOM      7  C   UNL     1      -6.911  -0.321   4.760  1.00  0.00     0.096 A 
ATOM      8  C   UNL     1      -9.343   0.697   4.771  1.00  0.00     0.046 C 
ATOM      9  C   UNL     1      -7.855   0.711   4.697  1.00  0.00    -0.026 A 
ATOM     10  C   UNL     1      -7.210   1.952   4.306  1.00  0.00     0.038 A 
ATOM     11  C   UNL     1      -5.855   1.821   4.114  1.00  0.00     0.135 A 
ATOM     12  S   UNL     1      -5.316   0.394   4.855  1.00  0.00    -0.117 S 
BRANCH  11  13
ATOM     13  S   UNL     1      -4.629   2.820   3.326  1.00  0.00     0.250 S 
ATOM     14  O   UNL     1      -5.356   3.673   2.411  1.00  0.00    -0.206 OA
ATOM     15  O   UNL     1      -3.839   3.377   4.400  1.00  0.00    -0.206 OA
BRANCH  13  16
ATOM     16  N   UNL     1      -3.604   1.826   2.434  1.00  0.00    -0.205 NA
ATOM     17  H   UNL     1      -3.566   0.938   2.934  1.00  0.00     0.141 HD
BRANCH  16  18
ATOM     18  C   UNL     1      -3.861   1.481   0.996  1.00  0.00     0.098 C 
BRANCH  18  19
ATOM     19  C   UNL     1      -5.197   0.743   0.754  1.00  0.00     0.003 C 
ATOM     20  C   UNL     1      -5.509   0.557  -0.738  1.00  0.00     0.009 C 
ATOM     21  C   UNL     1      -5.208  -0.646   1.403  1.00  0.00     0.009 C 
ENDBRANCH  18  19
BRANCH  18  22
ATOM     22  C   UNL     1      -3.653   2.727   0.110  1.00  0.00     0.176 C 
BRANCH  22  23
ATOM     23  O   UNL     1      -2.571   3.519   0.603  1.00  0.00    -0.395 OA
ATOM     24  H   UNL     1      -2.770   3.813   1.506  1.00  0.00     0.210 HD
ENDBRANCH  22  23
ENDBRANCH  18  22
ENDBRANCH  16  18
ENDBRANCH  13  16
ENDBRANCH  11  13
ENDBRANCH   4   7
ENDBRANCH   2   3
ENDBRANCH   1   2
BRANCH   1  25
ATOM     25  C   UNL     1     -10.974  -4.051   5.173  1.00  0.00     0.002 C 
BRANCH  25  26
ATOM     26  C   UNL     1     -11.457  -4.394   6.588  1.00  0.00     0.002 C 
BRANCH  26  27
ATOM     27  C   UNL     1     -12.376  -3.355   7.238  1.00  0.00     0.021 C 
BRANCH  27  28
ATOM     28  C   UNL     1     -13.676  -3.093   6.483  1.00  0.00     0.116 C 
BRANCH  28  29
ATOM     29  N   UNL     1     -14.524  -4.273   6.444  1.00  0.00    -0.352 N 
ATOM     30  C   UNL     1     -15.792  -4.459   6.932  1.00  0.00     0.251 C 
ATOM     31  H   UNL     1     -14.129  -5.057   5.998  1.00  0.00     0.163 HD
ATOM     32  O   UNL     1     -16.262  -5.591   7.003  1.00  0.00    -0.269 OA
BRANCH  30  33
ATOM     33  C   UNL     1     -16.598  -3.304   7.381  1.00  0.00     0.039 A 
ATOM     34  C   UNL     1     -17.336  -3.415   8.564  1.00  0.00     0.014 A 
ATOM     35  C   UNL     1     -16.671  -2.136   6.616  1.00  0.00     0.014 A 
ATOM     36  C   UNL     1     -18.108  -2.338   9.005  1.00  0.00     0.010 A 
ATOM     37  C   UNL     1     -17.396  -1.043   7.085  1.00  0.00     0.010 A 
ATOM     38  C   UNL     1     -18.127  -1.137   8.279  1.00  0.00    -0.014 A 
BRANCH  38  39
ATOM     39  C   UNL     1     -18.917   0.029   8.745  1.00  0.00     0.031 A 
ATOM     40  C   UNL     1     -20.109   0.493   7.958  1.00  0.00     0.074 A 
ATOM     41  C   UNL     1     -18.521   0.708   9.837  1.00  0.00     0.049 A 
ATOM     42  N   UNL     1     -20.875   1.537   8.152  1.00  0.00    -0.248 NA
ATOM     43  C   UNL     1     -20.474  -0.310   6.780  1.00  0.00     0.031 C 
ATOM     44  C   UNL     1     -17.357   0.380  10.661  1.00  0.00     0.029 A 
ATOM     45  N   UNL     1     -19.048   1.826  10.434  1.00  0.00    -0.354 N 
ATOM     46  C   UNL     1     -21.795   1.528   7.112  1.00  0.00     0.074 A 
ATOM     47  C   UNL     1     -21.470   0.398   6.269  1.00  0.00     0.031 C 
ATOM     48  C   UNL     1     -17.266   1.268  11.664  1.00  0.00     0.029 A 
ATOM     49  C   UNL     1     -18.345   2.243  11.536  1.00  0.00     0.049 A 
ATOM     50  H   UNL     1     -19.854   2.285  10.102  1.00  0.00     0.167 HD
ATOM     51  C   UNL     1     -22.827   2.377   6.891  1.00  0.00     0.037 A 
ATOM     52  C   UNL     1     -18.547   3.297  12.349  1.00  0.00     0.037 A 
ATOM     53  C   UNL     1     -23.171   3.478   7.751  1.00  0.00     0.049 A 
ATOM     54  C   UNL     1     -19.711   4.213  12.093  1.00  0.00     0.074 A 
ATOM     55  C   UNL     1     -24.238   4.354   7.651  1.00  0.00     0.029 A 
ATOM     56  N   UNL     1     -22.451   3.853   8.876  1.00  0.00    -0.354 N 
ATOM     57  N   UNL     1     -20.607   4.163  11.139  1.00  0.00    -0.248 NA
ATOM     58  C   UNL     1     -19.893   5.330  13.031  1.00  0.00     0.031 C 
ATOM     59  C   UNL     1     -24.147   5.278   8.698  1.00  0.00     0.029 A 
ATOM     60  C   UNL     1     -23.042   4.957   9.470  1.00  0.00     0.049 A 
ATOM     61  H   UNL     1     -21.639   3.402   9.204  1.00  0.00     0.167 HD
ATOM     62  C   UNL     1     -21.471   5.224  11.371  1.00  0.00     0.074 A 
ATOM     63  C   UNL     1     -20.998   5.895  12.565  1.00  0.00     0.031 C 
ATOM     64  C   UNL     1     -22.559   5.608  10.660  1.00  0.00     0.037 A 
BRANCH  51  65
ATOM     65  C   UNL     1     -23.663   2.143   5.669  1.00  0.00     0.064 A 
ATOM     66  C   UNL     1     -24.553   1.062   5.584  1.00  0.00     0.173 A 
ATOM     67  C   UNL     1     -23.593   3.025   4.580  1.00  0.00     0.173 A 
ATOM     68  F   UNL     1     -24.645   0.184   6.593  1.00  0.00    -0.203 F 
ATOM     69  C   UNL     1     -25.322   0.856   4.442  1.00  0.00     0.198 A 
ATOM     70  C   UNL     1     -24.383   2.830   3.449  1.00  0.00     0.198 A 
ATOM     71  F   UNL     1     -22.761   4.076   4.613  1.00  0.00    -0.203 F 
ATOM     72  F   UNL     1     -26.131  -0.210   4.364  1.00  0.00    -0.200 F 
ATOM     73  C   UNL     1     -25.241   1.742   3.378  1.00  0.00     0.200 A 
ATOM     74  F   UNL     1     -24.310   3.692   2.426  1.00  0.00    -0.200 F 
ATOM     75  F   UNL     1     -25.983   1.544   2.280  1.00  0.00    -0.200 F 
ENDBRANCH  51  65
BRANCH  52  76
ATOM     76  C   UNL     1     -17.638   3.522  13.501  1.00  0.00     0.064 A 
ATOM     77  C   UNL     1     -18.067   3.267  14.810  1.00  0.00     0.173 A 
ATOM     78  C   UNL     1     -16.326   3.981  13.318  1.00  0.00     0.173 A 
ATOM     79  F   UNL     1     -19.321   2.847  15.033  1.00  0.00    -0.203 F 
ATOM     80  C   UNL     1     -17.221   3.474  15.896  1.00  0.00     0.198 A 
ATOM     81  C   UNL     1     -15.474   4.167  14.403  1.00  0.00     0.198 A 
ATOM     82  F   UNL     1     -15.869   4.234  12.083  1.00  0.00    -0.203 F 
ATOM     83  F   UNL     1     -17.666   3.254  17.141  1.00  0.00    -0.200 F 
ATOM     84  C   UNL     1     -15.923   3.918  15.692  1.00  0.00     0.200 A 
ATOM     85  F   UNL     1     -14.217   4.585  14.201  1.00  0.00    -0.200 F 
ATOM     86  F   UNL     1     -15.107   4.111  16.737  1.00  0.00    -0.200 F 
ENDBRANCH  52  76
BRANCH  64  87
ATOM     87  C   UNL     1     -23.324   6.792  11.167  1.00  0.00     0.064 A 
ATOM     88  C   UNL     1     -22.838   8.098  11.011  1.00  0.00     0.173 A 
ATOM     89  C   UNL     1     -24.574   6.621  11.780  1.00  0.00     0.173 A 
ATOM     90  F   UNL     1     -21.641   8.309  10.444  1.00  0.00    -0.203 F 
ATOM     91  C   UNL     1     -23.569   9.191  11.468  1.00  0.00     0.198 A 
ATOM     92  C   UNL     1     -25.312   7.717  12.216  1.00  0.00     0.198 A 
ATOM     93  F   UNL     1     -25.081   5.391  11.948  1.00  0.00    -0.203 F 
ATOM     94  F   UNL     1     -23.070  10.428  11.344  1.00  0.00    -0.200 F 
ATOM     95  C   UNL     1     -24.807   9.000  12.065  1.00  0.00     0.200 A 
ATOM     96  F   UNL     1     -26.511   7.532  12.785  1.00  0.00    -0.200 F 
ATOM     97  F   UNL     1     -25.511  10.054  12.501  1.00  0.00    -0.200 F 
ENDBRANCH  64  87
ENDBRANCH  38  39
ENDBRANCH  30  33
ENDBRANCH  28  29
ENDBRANCH  27  28
ENDBRANCH  26  27
ENDBRANCH  25  26
ENDBRANCH   1  25
TORSDOF 19
