REMARK SMILES CC(C)[NH2+][C@@]1(C(=O)NCCCCCCNC(=O)c2ccc(-c3c4nc(c(-c5c(F)c(F)c(F)c(F)c5F)c5ccc([nH]5)c(-c5c(F)c(F)c(F)c(F)c5F)c5nc(c(-c6c(F)c(F)c(F)c(F)c6F)c6ccc3[nH]6)C=C5)C=C4)cc2)CCC[C@@H]1CCOC1CCOCC1
REMARK SMILES IDX 10 1 9 2 8 3 6 4 7 5 5 7 81 8 84 9 82 10 83 11 4 12 2 15
REMARK SMILES IDX 1 16 3 17 85 18 86 19 87 20 88 21 89 22 93 23 90 24 92 25
REMARK SMILES IDX 91 26 11 27 12 28 13 29 14 30 15 31 16 32 17 34 18 35 19 36
REMARK SMILES IDX 80 37 20 38 79 39 21 40 22 41 23 42 73 43 24 44 78 45 72 46
REMARK SMILES IDX 74 47 25 48 77 49 71 50 70 51 26 53 58 54 38 55 57 56 39 57
REMARK SMILES IDX 42 58 56 59 75 60 40 61 41 62 55 64 76 65 43 66 27 67 28 68
REMARK SMILES IDX 36 69 29 70 30 71 34 72 37 73 31 74 32 75 35 76 33 77 59 78
REMARK SMILES IDX 60 79 68 80 61 81 62 82 66 83 69 84 63 85 64 86 67 87 65 88
REMARK SMILES IDX 44 89 45 90 53 91 46 92 47 93 51 94 54 95 48 96 49 97 52 98
REMARK SMILES IDX 50 99
REMARK H PARENT 8 6 4 13 4 14 15 33 74 52 42 63
REMARK Flexibility Score: inf
ROOT
ATOM      1  C   UNL     1      -2.338   2.286   6.526  1.00  0.00     0.021 C 
ENDROOT
BRANCH   1   2
ATOM      2  C   UNL     1      -1.061   2.597   5.748  1.00  0.00     0.116 C 
BRANCH   2   3
ATOM      3  N   UNL     1      -0.553   1.399   5.132  1.00  0.00    -0.351 N 
ATOM      4  C   UNL     1      -0.653   0.890   3.880  1.00  0.00     0.281 C 
ATOM      5  O   UNL     1      -0.344  -0.309   3.810  1.00  0.00    -0.268 OA
ATOM      6  H   UNL     1      -0.026   0.836   5.744  1.00  0.00     0.163 HD
BRANCH   4   7
ATOM      7  C   UNL     1      -1.112   1.707   2.613  1.00  0.00     0.178 C 
ATOM      8  C   UNL     1      -0.720   3.208   2.563  1.00  0.00     0.079 C 
ATOM      9  C   UNL     1      -2.649   1.802   2.452  1.00  0.00     0.063 C 
ATOM     10  C   UNL     1      -1.992   4.056   2.758  1.00  0.00     0.008 C 
ATOM     11  C   UNL     1      -3.108   3.089   3.113  1.00  0.00     0.011 C 
BRANCH   7  12
ATOM     12  N   UNL     1      -0.621   0.995   1.393  1.00  0.00    -0.331 N 
ATOM     13  H   UNL     1      -1.054   0.071   1.400  1.00  0.00     0.347 HD
ATOM     14  H   UNL     1      -0.872   1.633   0.639  1.00  0.00     0.347 HD
BRANCH  12  15
ATOM     15  C   UNL     1       0.811   0.784   1.182  1.00  0.00     0.176 C 
ATOM     16  C   UNL     1       0.927  -0.321   0.122  1.00  0.00     0.075 C 
ATOM     17  C   UNL     1       1.553   2.020   0.669  1.00  0.00     0.075 C 
ENDBRANCH  12  15
ENDBRANCH   7  12
BRANCH   9  18
ATOM     18  C   UNL     1      -3.591   0.615   2.631  1.00  0.00     0.039 C 
BRANCH  18  19
ATOM     19  C   UNL     1      -4.735   0.718   1.585  1.00  0.00     0.161 C 
BRANCH  19  20
ATOM     20  O   UNL     1      -4.183   0.512   0.282  1.00  0.00    -0.378 OA
BRANCH  20  21
ATOM     21  C   UNL     1      -4.324   1.494  -0.750  1.00  0.00     0.122 C 
ATOM     22  C   UNL     1      -3.811   2.909  -0.450  1.00  0.00     0.060 C 
ATOM     23  C   UNL     1      -5.734   1.558  -1.326  1.00  0.00     0.060 C 
ATOM     24  C   UNL     1      -4.000   3.854  -1.620  1.00  0.00     0.163 C 
ATOM     25  C   UNL     1      -5.733   2.521  -2.509  1.00  0.00     0.163 C 
ATOM     26  O   UNL     1      -5.342   3.828  -2.086  1.00  0.00    -0.381 OA
ENDBRANCH  20  21
ENDBRANCH  19  20
ENDBRANCH  18  19
ENDBRANCH   9  18
ENDBRANCH   4   7
ENDBRANCH   2   3
ENDBRANCH   1   2
BRANCH   1  27
ATOM     27  C   UNL     1      -2.079   2.016   8.006  1.00  0.00     0.002 C 
BRANCH  27  28
ATOM     28  C   UNL     1      -1.479   3.209   8.760  1.00  0.00     0.002 C 
BRANCH  28  29
ATOM     29  C   UNL     1      -2.246   4.526   8.599  1.00  0.00     0.021 C 
BRANCH  29  30
ATOM     30  C   UNL     1      -3.720   4.440   8.986  1.00  0.00     0.116 C 
BRANCH  30  31
ATOM     31  N   UNL     1      -3.875   3.966  10.352  1.00  0.00    -0.352 N 
ATOM     32  C   UNL     1      -4.342   4.637  11.444  1.00  0.00     0.251 C 
ATOM     33  H   UNL     1      -3.607   3.033  10.511  1.00  0.00     0.163 HD
ATOM     34  O   UNL     1      -4.116   4.211  12.583  1.00  0.00    -0.269 OA
BRANCH  32  35
ATOM     35  C   UNL     1      -5.130   5.867  11.265  1.00  0.00     0.039 A 
ATOM     36  C   UNL     1      -4.875   6.968  12.084  1.00  0.00     0.014 A 
ATOM     37  C   UNL     1      -6.151   5.910  10.309  1.00  0.00     0.014 A 
ATOM     38  C   UNL     1      -5.627   8.131  11.923  1.00  0.00     0.010 A 
ATOM     39  C   UNL     1      -6.855   7.090  10.107  1.00  0.00     0.010 A 
ATOM     40  C   UNL     1      -6.611   8.204  10.923  1.00  0.00    -0.014 A 
BRANCH  40  41
ATOM     41  C   UNL     1      -7.415   9.432  10.730  1.00  0.00     0.031 A 
ATOM     42  C   UNL     1      -8.889   9.412  11.015  1.00  0.00     0.074 A 
ATOM     43  C   UNL     1      -6.828  10.536  10.234  1.00  0.00     0.049 A 
ATOM     44  N   UNL     1      -9.778  10.357  10.843  1.00  0.00    -0.248 NA
ATOM     45  C   UNL     1      -9.445   8.152  11.534  1.00  0.00     0.031 C 
ATOM     46  C   UNL     1      -5.414  10.650   9.872  1.00  0.00     0.029 A 
ATOM     47  N   UNL     1      -7.350  11.768   9.935  1.00  0.00    -0.354 N 
ATOM     48  C   UNL     1     -10.995   9.801  11.214  1.00  0.00     0.074 A 
ATOM     49  C   UNL     1     -10.741   8.423  11.574  1.00  0.00     0.031 C 
ATOM     50  C   UNL     1      -5.178  11.890   9.413  1.00  0.00     0.029 A 
ATOM     51  C   UNL     1      -6.428  12.645   9.421  1.00  0.00     0.049 A 
ATOM     52  H   UNL     1      -8.296  12.002  10.076  1.00  0.00     0.167 HD
ATOM     53  C   UNL     1     -12.210  10.395  11.269  1.00  0.00     0.037 A 
ATOM     54  C   UNL     1      -6.579  13.914   8.999  1.00  0.00     0.037 A 
ATOM     55  C   UNL     1     -12.447  11.776  10.940  1.00  0.00     0.049 A 
ATOM     56  C   UNL     1      -7.935  14.557   9.091  1.00  0.00     0.074 A 
ATOM     57  C   UNL     1     -13.624  12.497  11.033  1.00  0.00     0.029 A 
ATOM     58  N   UNL     1     -11.481  12.646  10.454  1.00  0.00    -0.354 N 
ATOM     59  N   UNL     1      -9.066  14.046   9.513  1.00  0.00    -0.248 NA
ATOM     60  C   UNL     1      -8.034  15.957   8.656  1.00  0.00     0.031 C 
ATOM     61  C   UNL     1     -13.380  13.792  10.564  1.00  0.00     0.029 A 
ATOM     62  C   UNL     1     -12.040  13.892  10.223  1.00  0.00     0.049 A 
ATOM     63  H   UNL     1     -10.537  12.412  10.298  1.00  0.00     0.167 HD
ATOM     64  C   UNL     1     -10.004  15.063   9.418  1.00  0.00     0.074 A 
ATOM     65  C   UNL     1      -9.306  16.228   8.912  1.00  0.00     0.031 C 
ATOM     66  C   UNL     1     -11.325  15.037   9.722  1.00  0.00     0.037 A 
BRANCH  53  67
ATOM     67  C   UNL     1     -13.375   9.554  11.703  1.00  0.00     0.064 A 
ATOM     68  C   UNL     1     -13.512   9.114  13.028  1.00  0.00     0.173 A 
ATOM     69  C   UNL     1     -14.383   9.209  10.790  1.00  0.00     0.173 A 
ATOM     70  F   UNL     1     -12.570   9.406  13.937  1.00  0.00    -0.203 F 
ATOM     71  C   UNL     1     -14.599   8.335  13.416  1.00  0.00     0.198 A 
ATOM     72  C   UNL     1     -15.483   8.454  11.188  1.00  0.00     0.198 A 
ATOM     73  F   UNL     1     -14.303   9.607   9.511  1.00  0.00    -0.203 F 
ATOM     74  F   UNL     1     -14.683   7.884  14.676  1.00  0.00    -0.200 F 
ATOM     75  C   UNL     1     -15.586   8.011  12.498  1.00  0.00     0.200 A 
ATOM     76  F   UNL     1     -16.442   8.151  10.302  1.00  0.00    -0.200 F 
ATOM     77  F   UNL     1     -16.635   7.265  12.874  1.00  0.00    -0.200 F 
ENDBRANCH  53  67
BRANCH  54  78
ATOM     78  C   UNL     1      -5.406  14.664   8.484  1.00  0.00     0.064 A 
ATOM     79  C   UNL     1      -4.838  15.709   9.226  1.00  0.00     0.173 A 
ATOM     80  C   UNL     1      -4.820  14.345   7.251  1.00  0.00     0.173 A 
ATOM     81  F   UNL     1      -5.375  16.060  10.404  1.00  0.00    -0.203 F 
ATOM     82  C   UNL     1      -3.739  16.418   8.747  1.00  0.00     0.198 A 
ATOM     83  C   UNL     1      -3.704  15.038   6.784  1.00  0.00     0.198 A 
ATOM     84  F   UNL     1      -5.320  13.348   6.507  1.00  0.00    -0.203 F 
ATOM     85  F   UNL     1      -3.240  17.436   9.460  1.00  0.00    -0.200 F 
ATOM     86  C   UNL     1      -3.169  16.078   7.529  1.00  0.00     0.200 A 
ATOM     87  F   UNL     1      -3.147  14.696   5.614  1.00  0.00    -0.200 F 
ATOM     88  F   UNL     1      -2.108  16.755   7.072  1.00  0.00    -0.200 F 
ENDBRANCH  54  78
BRANCH  66  89
ATOM     89  C   UNL     1     -12.094  16.312   9.539  1.00  0.00     0.064 A 
ATOM     90  C   UNL     1     -12.425  16.792   8.264  1.00  0.00     0.173 A 
ATOM     91  C   UNL     1     -12.539  17.038  10.654  1.00  0.00     0.173 A 
ATOM     92  F   UNL     1     -12.009  16.140   7.168  1.00  0.00    -0.203 F 
ATOM     93  C   UNL     1     -13.156  17.967   8.112  1.00  0.00     0.198 A 
ATOM     94  C   UNL     1     -13.293  18.197  10.498  1.00  0.00     0.198 A 
ATOM     95  F   UNL     1     -12.252  16.616  11.895  1.00  0.00    -0.203 F 
ATOM     96  F   UNL     1     -13.424  18.432   6.884  1.00  0.00    -0.200 F 
ATOM     97  C   UNL     1     -13.595  18.664   9.228  1.00  0.00     0.200 A 
ATOM     98  F   UNL     1     -13.726  18.863  11.577  1.00  0.00    -0.200 F 
ATOM     99  F   UNL     1     -14.304  19.791   9.079  1.00  0.00    -0.200 F 
ENDBRANCH  66  89
ENDBRANCH  40  41
ENDBRANCH  32  35
ENDBRANCH  30  31
ENDBRANCH  29  30
ENDBRANCH  28  29
ENDBRANCH  27  28
ENDBRANCH   1  27
TORSDOF 19
