REMARK SMILES CCCC1(C(=O)N2CCO[C@@H](CC(=O)NCCCCCCNC(=O)c3ccc(-c4c5nc(c(-c6c(F)c(F)c(F)c(F)c6F)c6ccc([nH]6)c(-c6c(F)c(F)c(F)c(F)c6F)c6nc(c(-c7c(F)c(F)c(F)c(F)c7F)c7ccc4[nH]7)C=C6)C=C5)cc3)C2)CC[NH2+]CC1
REMARK SMILES IDX 17 1 16 2 15 3 13 4 14 5 12 7 11 8 7 9 8 10 88 11 9 12 10 13
REMARK SMILES IDX 5 14 6 15 4 16 89 17 93 18 90 19 92 20 91 21 3 24 2 25 1 26
REMARK SMILES IDX 18 27 19 28 20 29 21 30 22 31 23 32 24 34 25 35 26 36 87 37
REMARK SMILES IDX 27 38 86 39 28 40 29 41 30 42 80 43 31 44 85 45 79 46 81 47
REMARK SMILES IDX 32 48 84 49 78 50 77 51 33 53 65 54 45 55 64 56 46 57 49 58
REMARK SMILES IDX 63 59 82 60 47 61 48 62 62 64 83 65 50 66 34 67 35 68 43 69
REMARK SMILES IDX 36 70 37 71 41 72 44 73 38 74 39 75 42 76 40 77 66 78 67 79
REMARK SMILES IDX 75 80 68 81 69 82 73 83 76 84 70 85 71 86 74 87 72 88 51 89
REMARK SMILES IDX 52 90 60 91 53 92 54 93 58 94 61 95 55 96 56 97 59 98 57 99
REMARK H PARENT 15 6 91 22 91 23 22 33 81 52 49 63
REMARK Flexibility Score: inf
ROOT
ATOM      1  C   UNL     1       3.623   3.457   5.615  1.00  0.00     0.021 C 
ENDROOT
BRANCH   1   2
ATOM      2  C   UNL     1       3.209   4.891   5.963  1.00  0.00     0.116 C 
BRANCH   2   3
ATOM      3  N   UNL     1       3.245   5.729   4.776  1.00  0.00    -0.356 N 
ATOM      4  C   UNL     1       2.233   6.295   4.059  1.00  0.00     0.222 C 
ATOM      5  O   UNL     1       2.513   6.823   2.982  1.00  0.00    -0.275 OA
ATOM      6  H   UNL     1       4.148   5.920   4.434  1.00  0.00     0.163 HD
BRANCH   4   7
ATOM      7  C   UNL     1       0.807   6.266   4.564  1.00  0.00     0.133 C 
BRANCH   7   8
ATOM      8  C   UNL     1      -0.008   5.131   3.949  1.00  0.00     0.147 C 
ATOM      9  N   UNL     1      -0.422   2.704   4.007  1.00  0.00    -0.337 N 
ATOM     10  C   UNL     1      -1.827   2.938   4.317  1.00  0.00     0.148 C 
ATOM     11  C   UNL     1       0.436   3.766   4.492  1.00  0.00     0.152 C 
ATOM     12  C   UNL     1      -2.232   4.289   3.720  1.00  0.00     0.182 C 
ATOM     13  O   UNL     1      -1.407   5.348   4.256  1.00  0.00    -0.374 OA
BRANCH   9  14
ATOM     14  C   UNL     1       0.152   1.455   3.846  1.00  0.00     0.229 C 
ATOM     15  O   UNL     1       0.750   0.934   4.791  1.00  0.00    -0.274 OA
BRANCH  14  16
ATOM     16  C   UNL     1       0.219   0.897   2.370  1.00  0.00     0.060 C 
ATOM     17  C   UNL     1      -1.204   0.505   1.920  1.00  0.00     0.078 C 
ATOM     18  C   UNL     1       0.837   2.028   1.484  1.00  0.00     0.078 C 
ATOM     19  C   UNL     1      -1.452   0.603   0.422  1.00  0.00     0.261 C 
ATOM     20  C   UNL     1       0.304   2.191   0.065  1.00  0.00     0.261 C 
ATOM     21  N   UNL     1      -1.127   1.945  -0.042  1.00  0.00    -0.346 N 
ATOM     22  H   UNL     1      -1.628   2.627   0.527  1.00  0.00     0.346 HD
ATOM     23  H   UNL     1      -1.404   2.031  -1.020  1.00  0.00     0.346 HD
BRANCH  16  24
ATOM     24  C   UNL     1       1.167  -0.359   2.428  1.00  0.00     0.017 C 
BRANCH  24  25
ATOM     25  C   UNL     1       1.132  -1.440   1.340  1.00  0.00    -0.002 C 
ATOM     26  C   UNL     1       1.884  -1.119   0.063  1.00  0.00     0.004 C 
ENDBRANCH  24  25
ENDBRANCH  16  24
ENDBRANCH  14  16
ENDBRANCH   9  14
ENDBRANCH   7   8
ENDBRANCH   4   7
ENDBRANCH   2   3
ENDBRANCH   1   2
BRANCH   1  27
ATOM     27  C   UNL     1       5.094   3.138   5.882  1.00  0.00     0.002 C 
BRANCH  27  28
ATOM     28  C   UNL     1       5.490   3.113   7.359  1.00  0.00     0.002 C 
BRANCH  28  29
ATOM     29  C   UNL     1       4.636   2.212   8.255  1.00  0.00     0.021 C 
BRANCH  29  30
ATOM     30  C   UNL     1       4.501   0.766   7.782  1.00  0.00     0.116 C 
BRANCH  30  31
ATOM     31  N   UNL     1       5.790   0.100   7.699  1.00  0.00    -0.352 N 
ATOM     32  C   UNL     1       6.253  -1.001   8.373  1.00  0.00     0.251 C 
ATOM     33  H   UNL     1       6.426   0.498   7.063  1.00  0.00     0.163 HD
ATOM     34  O   UNL     1       7.444  -1.292   8.331  1.00  0.00    -0.269 OA
BRANCH  32  35
ATOM     35  C   UNL     1       5.322  -1.839   9.158  1.00  0.00     0.039 A 
ATOM     36  C   UNL     1       5.728  -2.301  10.413  1.00  0.00     0.014 A 
ATOM     37  C   UNL     1       4.078  -2.213   8.642  1.00  0.00     0.014 A 
ATOM     38  C   UNL     1       4.873  -3.109  11.165  1.00  0.00     0.010 A 
ATOM     39  C   UNL     1       3.198  -2.959   9.421  1.00  0.00     0.010 A 
ATOM     40  C   UNL     1       3.595  -3.432  10.681  1.00  0.00    -0.014 A 
BRANCH  40  41
ATOM     41  C   UNL     1       2.679  -4.304  11.460  1.00  0.00     0.031 A 
ATOM     42  C   UNL     1       2.301  -5.658  10.925  1.00  0.00     0.074 A 
ATOM     43  C   UNL     1       2.158  -3.865  12.620  1.00  0.00     0.049 A 
ATOM     44  N   UNL     1       1.470  -6.543  11.416  1.00  0.00    -0.248 NA
ATOM     45  C   UNL     1       2.921  -6.061   9.652  1.00  0.00     0.031 C 
ATOM     46  C   UNL     1       2.414  -2.555  13.221  1.00  0.00     0.029 A 
ATOM     47  N   UNL     1       1.293  -4.470  13.498  1.00  0.00    -0.354 N 
ATOM     48  C   UNL     1       1.463  -7.597  10.512  1.00  0.00     0.074 A 
ATOM     49  C   UNL     1       2.323  -7.218   9.412  1.00  0.00     0.031 C 
ATOM     50  C   UNL     1       1.730  -2.459  14.373  1.00  0.00     0.029 A 
ATOM     51  C   UNL     1       0.967  -3.686  14.577  1.00  0.00     0.049 A 
ATOM     52  H   UNL     1       0.940  -5.379  13.365  1.00  0.00     0.167 HD
ATOM     53  C   UNL     1       0.820  -8.785  10.603  1.00  0.00     0.037 A 
ATOM     54  C   UNL     1       0.139  -3.931  15.611  1.00  0.00     0.037 A 
ATOM     55  C   UNL     1      -0.022  -9.167  11.706  1.00  0.00     0.049 A 
ATOM     56  C   UNL     1      -0.556  -5.264  15.695  1.00  0.00     0.074 A 
ATOM     57  C   UNL     1      -0.705 -10.354  11.904  1.00  0.00     0.029 A 
ATOM     58  N   UNL     1      -0.289  -8.364  12.806  1.00  0.00    -0.354 N 
ATOM     59  N   UNL     1      -0.519  -6.271  14.856  1.00  0.00    -0.248 NA
ATOM     60  C   UNL     1      -1.393  -5.501  16.878  1.00  0.00     0.031 C 
ATOM     61  C   UNL     1      -1.411 -10.258  13.108  1.00  0.00     0.029 A 
ATOM     62  C   UNL     1      -1.127  -9.030  13.685  1.00  0.00     0.049 A 
ATOM     63  H   UNL     1       0.065  -7.455  12.941  1.00  0.00     0.167 HD
ATOM     64  C   UNL     1      -1.295  -7.271  15.426  1.00  0.00     0.074 A 
ATOM     65  C   UNL     1      -1.781  -6.754  16.688  1.00  0.00     0.031 C 
ATOM     66  C   UNL     1      -1.581  -8.507  14.947  1.00  0.00     0.037 A 
BRANCH  53  67
ATOM     67  C   UNL     1       1.015  -9.766   9.482  1.00  0.00     0.064 A 
ATOM     68  C   UNL     1       2.245 -10.412   9.282  1.00  0.00     0.173 A 
ATOM     69  C   UNL     1      -0.043 -10.090   8.620  1.00  0.00     0.173 A 
ATOM     70  F   UNL     1       3.293 -10.127  10.071  1.00  0.00    -0.203 F 
ATOM     71  C   UNL     1       2.417 -11.323   8.244  1.00  0.00     0.198 A 
ATOM     72  C   UNL     1       0.123 -11.026   7.602  1.00  0.00     0.198 A 
ATOM     73  F   UNL     1      -1.242  -9.507   8.770  1.00  0.00    -0.203 F 
ATOM     74  F   UNL     1       3.615 -11.889   8.043  1.00  0.00    -0.200 F 
ATOM     75  C   UNL     1       1.354 -11.636   7.410  1.00  0.00     0.200 A 
ATOM     76  F   UNL     1      -0.908 -11.337   6.805  1.00  0.00    -0.200 F 
ATOM     77  F   UNL     1       1.518 -12.520   6.416  1.00  0.00    -0.200 F 
ENDBRANCH  53  67
BRANCH  54  78
ATOM     78  C   UNL     1      -0.059  -2.902  16.665  1.00  0.00     0.064 A 
ATOM     79  C   UNL     1       0.432  -3.093  17.964  1.00  0.00     0.173 A 
ATOM     80  C   UNL     1      -0.756  -1.714  16.400  1.00  0.00     0.173 A 
ATOM     81  F   UNL     1       1.089  -4.222  18.272  1.00  0.00    -0.203 F 
ATOM     82  C   UNL     1       0.209  -2.150  18.965  1.00  0.00     0.198 A 
ATOM     83  C   UNL     1      -0.952  -0.757  17.394  1.00  0.00     0.198 A 
ATOM     84  F   UNL     1      -1.240  -1.478  15.172  1.00  0.00    -0.203 F 
ATOM     85  F   UNL     1       0.642  -2.384  20.211  1.00  0.00    -0.200 F 
ATOM     86  C   UNL     1      -0.479  -0.981  18.678  1.00  0.00     0.200 A 
ATOM     87  F   UNL     1      -1.604   0.378  17.110  1.00  0.00    -0.200 F 
ATOM     88  F   UNL     1      -0.694  -0.074  19.642  1.00  0.00    -0.200 F 
ENDBRANCH  54  78
BRANCH  66  89
ATOM     89  C   UNL     1      -2.411  -9.406  15.817  1.00  0.00     0.064 A 
ATOM     90  C   UNL     1      -3.779  -9.180  16.024  1.00  0.00     0.173 A 
ATOM     91  C   UNL     1      -1.830 -10.531  16.424  1.00  0.00     0.173 A 
ATOM     92  F   UNL     1      -4.377  -8.112  15.476  1.00  0.00    -0.203 F 
ATOM     93  C   UNL     1      -4.529 -10.029  16.834  1.00  0.00     0.198 A 
ATOM     94  C   UNL     1      -2.590 -11.394  17.208  1.00  0.00     0.198 A 
ATOM     95  F   UNL     1      -0.527 -10.796  16.251  1.00  0.00    -0.203 F 
ATOM     96  F   UNL     1      -5.823  -9.764  17.061  1.00  0.00    -0.200 F 
ATOM     97  C   UNL     1      -3.936 -11.138  17.419  1.00  0.00     0.200 A 
ATOM     98  F   UNL     1      -2.018 -12.473  17.762  1.00  0.00    -0.200 F 
ATOM     99  F   UNL     1      -4.661 -11.956  18.195  1.00  0.00    -0.200 F 
ENDBRANCH  66  89
ENDBRANCH  40  41
ENDBRANCH  32  35
ENDBRANCH  30  31
ENDBRANCH  29  30
ENDBRANCH  28  29
ENDBRANCH  27  28
ENDBRANCH   1  27
TORSDOF 18
