REMARK SMILES O=C(CC[NH2+][C@@H]1CCCC[C@@H]1[C@@H]1CCC[NH2+]1)NCCCCCCNC(=O)c1ccc(-c2c3nc(c(-c4c(F)c(F)c(F)c(F)c4F)c4ccc([nH]4)c(-c4c(F)c(F)c(F)c(F)c4F)c4nc(c(-c5c(F)c(F)c(F)c(F)c5F)c5ccc2[nH]5)C=C4)C=C3)cc1
REMARK SMILES IDX 19 1 18 2 17 3 1 4 2 5 3 7 4 8 5 9 6 12 7 13 11 14 8 15
REMARK SMILES IDX 10 16 9 17 12 18 13 19 16 20 14 21 15 22 20 25 21 26 22 27
REMARK SMILES IDX 23 28 24 29 25 30 26 32 27 33 28 34 89 35 29 36 88 37 30 38
REMARK SMILES IDX 31 39 32 40 82 41 33 42 87 43 81 44 83 45 34 46 86 47 80 48
REMARK SMILES IDX 79 49 35 51 67 52 47 53 66 54 48 55 51 56 65 57 84 58 49 59
REMARK SMILES IDX 50 60 64 62 85 63 52 64 36 65 37 66 45 67 38 68 39 69 43 70
REMARK SMILES IDX 46 71 40 72 41 73 44 74 42 75 68 76 69 77 77 78 70 79 71 80
REMARK SMILES IDX 75 81 78 82 72 83 73 84 76 85 74 86 53 87 54 88 62 89 55 90
REMARK SMILES IDX 56 91 60 92 63 93 57 94 58 95 61 96 59 97
REMARK H PARENT 17 6 5 10 5 11 16 23 16 24 24 31 83 50 51 61
REMARK Flexibility Score: inf
ROOT
ATOM      1  C   UNL     1       2.652  -3.256   1.387  1.00  0.00     0.021 C 
ENDROOT
BRANCH   1   2
ATOM      2  C   UNL     1       2.144  -1.823   1.550  1.00  0.00     0.116 C 
BRANCH   2   3
ATOM      3  N   UNL     1       2.860  -0.942   0.659  1.00  0.00    -0.356 N 
ATOM      4  O   UNL     1       1.082   0.069  -0.398  1.00  0.00    -0.275 OA
ATOM      5  C   UNL     1       2.287  -0.105  -0.266  1.00  0.00     0.225 C 
ATOM      6  H   UNL     1       3.842  -0.942   0.720  1.00  0.00     0.163 HD
BRANCH   5   7
ATOM      7  C   UNL     1       3.327   0.551  -1.155  1.00  0.00     0.161 C 
BRANCH   7   8
ATOM      8  C   UNL     1       4.248   1.550  -0.442  1.00  0.00     0.270 C 
BRANCH   8   9
ATOM      9  N   UNL     1       4.668   1.128   0.903  1.00  0.00    -0.343 N 
ATOM     10  H   UNL     1       5.197   0.261   0.813  1.00  0.00     0.346 HD
ATOM     11  H   UNL     1       3.814   1.023   1.451  1.00  0.00     0.346 HD
BRANCH   9  12
ATOM     12  C   UNL     1       5.507   2.104   1.625  1.00  0.00     0.191 C 
ATOM     13  C   UNL     1       5.815   1.518   3.015  1.00  0.00     0.065 C 
ATOM     14  C   UNL     1       4.923   3.544   1.729  1.00  0.00     0.105 C 
ATOM     15  C   UNL     1       6.744   2.409   3.836  1.00  0.00     0.006 C 
ATOM     16  C   UNL     1       5.890   4.427   2.543  1.00  0.00     0.016 C 
ATOM     17  C   UNL     1       6.303   3.865   3.899  1.00  0.00     0.001 C 
BRANCH  14  18
ATOM     18  C   UNL     1       3.423   3.606   2.142  1.00  0.00     0.191 C 
ATOM     19  C   UNL     1       2.771   4.967   1.937  1.00  0.00     0.071 C 
ATOM     20  N   UNL     1       3.051   3.272   3.523  1.00  0.00    -0.343 N 
ATOM     21  C   UNL     1       1.409   4.754   2.572  1.00  0.00     0.067 C 
ATOM     22  C   UNL     1       1.672   3.764   3.699  1.00  0.00     0.260 C 
ATOM     23  H   UNL     1       3.679   3.732   4.182  1.00  0.00     0.346 HD
ATOM     24  H   UNL     1       3.116   2.269   3.697  1.00  0.00     0.346 HD
ENDBRANCH  14  18
ENDBRANCH   9  12
ENDBRANCH   8   9
ENDBRANCH   7   8
ENDBRANCH   5   7
ENDBRANCH   2   3
ENDBRANCH   1   2
BRANCH   1  25
ATOM     25  C   UNL     1       4.160  -3.429   1.632  1.00  0.00     0.002 C 
BRANCH  25  26
ATOM     26  C   UNL     1       4.639  -3.058   3.038  1.00  0.00     0.002 C 
BRANCH  26  27
ATOM     27  C   UNL     1       3.985  -3.853   4.169  1.00  0.00     0.021 C 
BRANCH  27  28
ATOM     28  C   UNL     1       4.121  -5.367   4.048  1.00  0.00     0.116 C 
BRANCH  28  29
ATOM     29  N   UNL     1       5.503  -5.813   4.122  1.00  0.00    -0.352 N 
ATOM     30  C   UNL     1       6.039  -6.846   4.849  1.00  0.00     0.251 C 
ATOM     31  H   UNL     1       6.143  -5.303   3.575  1.00  0.00     0.163 HD
ATOM     32  O   UNL     1       7.259  -6.987   4.918  1.00  0.00    -0.269 OA
BRANCH  30  33
ATOM     33  C   UNL     1       5.151  -7.780   5.572  1.00  0.00     0.039 A 
ATOM     34  C   UNL     1       5.483  -8.155   6.877  1.00  0.00     0.014 A 
ATOM     35  C   UNL     1       4.003  -8.299   4.965  1.00  0.00     0.014 A 
ATOM     36  C   UNL     1       4.641  -9.013   7.588  1.00  0.00     0.010 A 
ATOM     37  C   UNL     1       3.126  -9.091   5.701  1.00  0.00     0.010 A 
ATOM     38  C   UNL     1       3.442  -9.469   7.015  1.00  0.00    -0.014 A 
BRANCH  38  39
ATOM     39  C   UNL     1       2.530 -10.376   7.760  1.00  0.00     0.031 A 
ATOM     40  C   UNL     1       2.281 -11.771   7.251  1.00  0.00     0.074 A 
ATOM     41  C   UNL     1       1.896  -9.936   8.864  1.00  0.00     0.049 A 
ATOM     42  N   UNL     1       1.468 -12.689   7.711  1.00  0.00    -0.248 NA
ATOM     43  C   UNL     1       3.026 -12.180   6.049  1.00  0.00     0.031 C 
ATOM     44  C   UNL     1       2.021  -8.595   9.436  1.00  0.00     0.029 A 
ATOM     45  N   UNL     1       1.008 -10.570   9.698  1.00  0.00    -0.354 N 
ATOM     46  C   UNL     1       1.604 -13.776   6.856  1.00  0.00     0.074 A 
ATOM     47  C   UNL     1       2.523 -13.382   5.811  1.00  0.00     0.031 C 
ATOM     48  C   UNL     1       1.252  -8.511  10.534  1.00  0.00     0.029 A 
ATOM     49  C   UNL     1       0.552  -9.778  10.724  1.00  0.00     0.049 A 
ATOM     50  H   UNL     1       0.726 -11.505   9.573  1.00  0.00     0.167 HD
ATOM     51  C   UNL     1       1.041 -15.004   6.952  1.00  0.00     0.037 A 
ATOM     52  C   UNL     1      -0.338 -10.042  11.700  1.00  0.00     0.037 A 
ATOM     53  C   UNL     1       0.139 -15.402   8.000  1.00  0.00     0.049 A 
ATOM     54  C   UNL     1      -0.961 -11.413  11.772  1.00  0.00     0.074 A 
ATOM     55  C   UNL     1      -0.479 -16.625   8.190  1.00  0.00     0.029 A 
ATOM     56  N   UNL     1      -0.269 -14.581   9.041  1.00  0.00    -0.354 N 
ATOM     57  N   UNL     1      -0.788 -12.446  10.984  1.00  0.00    -0.248 NA
ATOM     58  C   UNL     1      -1.891 -11.659  12.883  1.00  0.00     0.031 C 
ATOM     59  C   UNL     1      -1.287 -16.535   9.328  1.00  0.00     0.029 A 
ATOM     60  C   UNL     1      -1.130 -15.274   9.877  1.00  0.00     0.049 A 
ATOM     61  H   UNL     1       0.011 -13.646   9.167  1.00  0.00     0.167 HD
ATOM     62  C   UNL     1      -1.550 -13.472  11.526  1.00  0.00     0.074 A 
ATOM     63  C   UNL     1      -2.176 -12.942  12.719  1.00  0.00     0.031 C 
ATOM     64  C   UNL     1      -1.718 -14.740  11.078  1.00  0.00     0.037 A 
BRANCH  51  65
ATOM     65  C   UNL     1       1.403 -16.018   5.905  1.00  0.00     0.064 A 
ATOM     66  C   UNL     1       2.689 -16.579   5.848  1.00  0.00     0.173 A 
ATOM     67  C   UNL     1       0.448 -16.474   4.985  1.00  0.00     0.173 A 
ATOM     68  F   UNL     1       3.643 -16.168   6.696  1.00  0.00    -0.203 F 
ATOM     69  C   UNL     1       3.010 -17.541   4.894  1.00  0.00     0.198 A 
ATOM     70  C   UNL     1       0.764 -17.460   4.053  1.00  0.00     0.198 A 
ATOM     71  F   UNL     1      -0.797 -15.976   4.999  1.00  0.00    -0.203 F 
ATOM     72  F   UNL     1       4.257 -18.029   4.831  1.00  0.00    -0.200 F 
ATOM     73  C   UNL     1       2.045 -17.988   4.005  1.00  0.00     0.200 A 
ATOM     74  F   UNL     1      -0.174 -17.902   3.204  1.00  0.00    -0.200 F 
ATOM     75  F   UNL     1       2.352 -18.925   3.097  1.00  0.00    -0.200 F 
ENDBRANCH  51  65
BRANCH  52  76
ATOM     76  C   UNL     1      -0.692  -8.998  12.700  1.00  0.00     0.064 A 
ATOM     77  C   UNL     1      -0.350  -9.145  14.052  1.00  0.00     0.173 A 
ATOM     78  C   UNL     1      -1.420  -7.857  12.333  1.00  0.00     0.173 A 
ATOM     79  F   UNL     1       0.330 -10.228  14.457  1.00  0.00    -0.203 F 
ATOM     80  C   UNL     1      -0.760  -8.214  15.005  1.00  0.00     0.198 A 
ATOM     81  C   UNL     1      -1.799  -6.909  13.281  1.00  0.00     0.198 A 
ATOM     82  F   UNL     1      -1.767  -7.663  11.053  1.00  0.00    -0.203 F 
ATOM     83  F   UNL     1      -0.481  -8.417  16.299  1.00  0.00    -0.200 F 
ATOM     84  C   UNL     1      -1.482  -7.096  14.618  1.00  0.00     0.200 A 
ATOM     85  F   UNL     1      -2.483  -5.821  12.902  1.00  0.00    -0.200 F 
ATOM     86  F   UNL     1      -1.884  -6.205  15.536  1.00  0.00    -0.200 F 
ENDBRANCH  52  76
BRANCH  64  87
ATOM     87  C   UNL     1      -2.553 -15.665  11.918  1.00  0.00     0.064 A 
ATOM     88  C   UNL     1      -3.942 -15.514  12.034  1.00  0.00     0.173 A 
ATOM     89  C   UNL     1      -1.950 -16.738  12.593  1.00  0.00     0.173 A 
ATOM     90  F   UNL     1      -4.565 -14.497  11.419  1.00  0.00    -0.203 F 
ATOM     91  C   UNL     1      -4.692 -16.381  12.824  1.00  0.00     0.198 A 
ATOM     92  C   UNL     1      -2.708 -17.623  13.354  1.00  0.00     0.198 A 
ATOM     93  F   UNL     1      -0.626 -16.934  12.507  1.00  0.00    -0.203 F 
ATOM     94  F   UNL     1      -6.010 -16.182  12.968  1.00  0.00    -0.200 F 
ATOM     95  C   UNL     1      -4.076 -17.438  13.477  1.00  0.00     0.200 A 
ATOM     96  F   UNL     1      -2.113 -18.654  13.970  1.00  0.00    -0.200 F 
ATOM     97  F   UNL     1      -4.801 -18.274  14.234  1.00  0.00    -0.200 F 
ENDBRANCH  64  87
ENDBRANCH  38  39
ENDBRANCH  30  33
ENDBRANCH  28  29
ENDBRANCH  27  28
ENDBRANCH  26  27
ENDBRANCH  25  26
ENDBRANCH   1  25
TORSDOF 17
