REMARK SMILES CCn1cnc(S(=O)(=O)N[C@H](CC(C)C)C(=O)NCCCCCCNC(=O)c2ccc(-c3c4nc(c(-c5c(F)c(F)c(F)c(F)c5F)c5ccc([nH]5)c(-c5c(F)c(F)c(F)c(F)c5F)c5nc(c(-c6c(F)c(F)c(F)c(F)c6F)c6ccc3[nH]6)C=C5)C=C4)cc2)c1
REMARK SMILES IDX 20 1 19 2 18 3 16 4 17 5 11 7 10 8 7 10 8 11 9 12 6 13 3 14
REMARK SMILES IDX 4 15 91 16 5 17 2 18 1 19 12 20 13 21 14 22 15 23 21 24
REMARK SMILES IDX 22 25 23 26 24 27 25 28 26 29 27 31 28 32 29 33 90 34 30 35
REMARK SMILES IDX 89 36 31 37 32 38 33 39 83 40 34 41 88 42 82 43 84 44 35 45
REMARK SMILES IDX 87 46 81 47 80 48 36 50 68 51 48 52 67 53 49 54 52 55 66 56
REMARK SMILES IDX 85 57 50 58 51 59 65 61 86 62 53 63 37 64 38 65 46 66 39 67
REMARK SMILES IDX 40 68 44 69 47 70 41 71 42 72 45 73 43 74 69 75 70 76 78 77
REMARK SMILES IDX 71 78 72 79 76 80 79 81 73 82 74 83 77 84 75 85 54 86 55 87
REMARK SMILES IDX 63 88 56 89 57 90 61 91 64 92 58 93 59 94 62 95 60 96
REMARK H PARENT 18 6 10 9 25 30 84 49 52 60
REMARK Flexibility Score: inf
ROOT
ATOM      1  C   UNL     1       3.158  -7.113   7.591  1.00  0.00     0.021 C 
ENDROOT
BRANCH   1   2
ATOM      2  C   UNL     1       3.906  -6.242   6.596  1.00  0.00     0.116 C 
BRANCH   2   3
ATOM      3  N   UNL     1       3.487  -6.497   5.236  1.00  0.00    -0.355 N 
ATOM      4  C   UNL     1       3.295  -5.620   4.216  1.00  0.00     0.238 C 
ATOM      5  O   UNL     1       2.879  -6.062   3.141  1.00  0.00    -0.273 OA
ATOM      6  H   UNL     1       3.316  -7.442   5.018  1.00  0.00     0.163 HD
BRANCH   4   7
ATOM      7  C   UNL     1       3.555  -4.125   4.401  1.00  0.00     0.159 C 
BRANCH   7   8
ATOM      8  N   UNL     1       4.955  -3.682   4.602  1.00  0.00    -0.197 NA
ATOM      9  H   UNL     1       5.035  -2.778   4.135  1.00  0.00     0.142 HD
BRANCH   8  10
ATOM     10  S   UNL     1       6.290  -4.591   4.090  1.00  0.00     0.260 S 
ATOM     11  O   UNL     1       6.476  -5.637   5.081  1.00  0.00    -0.205 OA
ATOM     12  O   UNL     1       7.337  -3.636   3.834  1.00  0.00    -0.205 OA
BRANCH  10  13
ATOM     13  C   UNL     1       6.034  -5.402   2.580  1.00  0.00     0.188 A 
ATOM     14  N   UNL     1       5.296  -5.939   0.599  1.00  0.00    -0.336 N 
ATOM     15  C   UNL     1       6.097  -6.935   1.080  1.00  0.00     0.201 A 
ATOM     16  C   UNL     1       5.292  -4.926   1.519  1.00  0.00     0.129 A 
ATOM     17  N   UNL     1       6.549  -6.653   2.281  1.00  0.00    -0.224 NA
BRANCH  14  18
ATOM     18  C   UNL     1       4.583  -5.912  -0.661  1.00  0.00     0.120 C 
ATOM     19  C   UNL     1       4.091  -7.262  -1.158  1.00  0.00     0.027 C 
ENDBRANCH  14  18
ENDBRANCH  10  13
ENDBRANCH   8  10
ENDBRANCH   7   8
BRANCH   7  20
ATOM     20  C   UNL     1       2.531  -3.511   5.402  1.00  0.00     0.033 C 
BRANCH  20  21
ATOM     21  C   UNL     1       3.048  -2.634   6.565  1.00  0.00    -0.015 C 
ATOM     22  C   UNL     1       3.403  -1.225   6.091  1.00  0.00     0.007 C 
ATOM     23  C   UNL     1       2.000  -2.555   7.682  1.00  0.00     0.007 C 
ENDBRANCH  20  21
ENDBRANCH   7  20
ENDBRANCH   4   7
ENDBRANCH   2   3
ENDBRANCH   1   2
BRANCH   1  24
ATOM     24  C   UNL     1       3.517  -8.597   7.491  1.00  0.00     0.002 C 
BRANCH  24  25
ATOM     25  C   UNL     1       5.017  -8.934   7.477  1.00  0.00     0.002 C 
BRANCH  25  26
ATOM     26  C   UNL     1       5.894  -8.325   8.584  1.00  0.00     0.021 C 
BRANCH  26  27
ATOM     27  C   UNL     1       5.491  -8.712   9.995  1.00  0.00     0.116 C 
BRANCH  27  28
ATOM     28  N   UNL     1       5.553 -10.160  10.231  1.00  0.00    -0.352 N 
ATOM     29  C   UNL     1       5.079 -10.901  11.299  1.00  0.00     0.251 C 
ATOM     30  H   UNL     1       5.997 -10.681   9.523  1.00  0.00     0.163 HD
ATOM     31  O   UNL     1       5.512 -12.021  11.538  1.00  0.00    -0.269 OA
BRANCH  29  32
ATOM     32  C   UNL     1       4.018 -10.325  12.141  1.00  0.00     0.039 A 
ATOM     33  C   UNL     1       3.910 -10.552  13.516  1.00  0.00     0.014 A 
ATOM     34  C   UNL     1       3.115  -9.497  11.496  1.00  0.00     0.014 A 
ATOM     35  C   UNL     1       2.887  -9.910  14.213  1.00  0.00     0.010 A 
ATOM     36  C   UNL     1       2.378  -8.621  12.222  1.00  0.00     0.010 A 
ATOM     37  C   UNL     1       2.120  -8.954  13.536  1.00  0.00    -0.014 A 
BRANCH  37  38
ATOM     38  C   UNL     1       1.026  -8.218  14.133  1.00  0.00     0.031 A 
ATOM     39  C   UNL     1       1.442  -7.273  15.186  1.00  0.00     0.074 A 
ATOM     40  C   UNL     1      -0.190  -8.173  13.541  1.00  0.00     0.049 A 
ATOM     41  N   UNL     1       1.205  -7.366  16.449  1.00  0.00    -0.248 NA
ATOM     42  C   UNL     1       2.376  -6.194  14.829  1.00  0.00     0.031 C 
ATOM     43  C   UNL     1      -0.623  -8.779  12.273  1.00  0.00     0.029 A 
ATOM     44  N   UNL     1      -1.275  -7.441  13.902  1.00  0.00    -0.354 N 
ATOM     45  C   UNL     1       1.774  -6.236  17.022  1.00  0.00     0.074 A 
ATOM     46  C   UNL     1       2.669  -5.699  16.033  1.00  0.00     0.031 C 
ATOM     47  C   UNL     1      -1.777  -8.206  11.867  1.00  0.00     0.029 A 
ATOM     48  C   UNL     1      -2.237  -7.306  12.905  1.00  0.00     0.049 A 
ATOM     49  H   UNL     1      -1.374  -7.039  14.795  1.00  0.00     0.167 HD
ATOM     50  C   UNL     1       1.238  -5.690  18.149  1.00  0.00     0.037 A 
ATOM     51  C   UNL     1      -3.278  -6.434  12.936  1.00  0.00     0.037 A 
ATOM     52  C   UNL     1       0.300  -6.606  18.762  1.00  0.00     0.049 A 
ATOM     53  C   UNL     1      -3.480  -6.063  14.369  1.00  0.00     0.074 A 
ATOM     54  C   UNL     1       0.386  -7.909  19.218  1.00  0.00     0.029 A 
ATOM     55  N   UNL     1      -1.044  -6.369  18.581  1.00  0.00    -0.354 N 
ATOM     56  N   UNL     1      -3.873  -6.914  15.282  1.00  0.00    -0.248 NA
ATOM     57  C   UNL     1      -2.740  -4.912  14.872  1.00  0.00     0.031 C 
ATOM     58  C   UNL     1      -0.823  -8.529  18.780  1.00  0.00     0.029 A 
ATOM     59  C   UNL     1      -1.614  -7.550  18.178  1.00  0.00     0.049 A 
ATOM     60  H   UNL     1      -1.509  -5.512  18.715  1.00  0.00     0.167 HD
ATOM     61  C   UNL     1      -3.076  -6.646  16.387  1.00  0.00     0.074 A 
ATOM     62  C   UNL     1      -2.437  -5.363  16.093  1.00  0.00     0.031 C 
ATOM     63  C   UNL     1      -2.751  -7.620  17.289  1.00  0.00     0.037 A 
BRANCH  50  64
ATOM     64  C   UNL     1       1.236  -4.215  18.480  1.00  0.00     0.064 A 
ATOM     65  C   UNL     1       0.701  -3.811  19.721  1.00  0.00     0.173 A 
ATOM     66  C   UNL     1       1.438  -3.178  17.544  1.00  0.00     0.173 A 
ATOM     67  F   UNL     1       0.475  -4.708  20.692  1.00  0.00    -0.203 F 
ATOM     68  C   UNL     1       0.287  -2.499  19.956  1.00  0.00     0.198 A 
ATOM     69  C   UNL     1       1.076  -1.857  17.804  1.00  0.00     0.198 A 
ATOM     70  F   UNL     1       1.885  -3.397  16.304  1.00  0.00    -0.203 F 
ATOM     71  F   UNL     1      -0.352  -2.199  21.094  1.00  0.00    -0.200 F 
ATOM     72  C   UNL     1       0.463  -1.525  18.992  1.00  0.00     0.200 A 
ATOM     73  F   UNL     1       1.248  -0.930  16.851  1.00  0.00    -0.200 F 
ATOM     74  F   UNL     1       0.001  -0.284  19.183  1.00  0.00    -0.200 F 
ENDBRANCH  50  64
BRANCH  51  75
ATOM     75  C   UNL     1      -3.828  -5.653  11.797  1.00  0.00     0.064 A 
ATOM     76  C   UNL     1      -5.048  -4.963  11.899  1.00  0.00     0.173 A 
ATOM     77  C   UNL     1      -3.047  -5.358  10.659  1.00  0.00     0.173 A 
ATOM     78  F   UNL     1      -5.832  -5.137  12.973  1.00  0.00    -0.203 F 
ATOM     79  C   UNL     1      -5.452  -4.032  10.932  1.00  0.00     0.198 A 
ATOM     80  C   UNL     1      -3.455  -4.438   9.691  1.00  0.00     0.198 A 
ATOM     81  F   UNL     1      -1.825  -5.886  10.503  1.00  0.00    -0.203 F 
ATOM     82  F   UNL     1      -6.597  -3.352  11.093  1.00  0.00    -0.200 F 
ATOM     83  C   UNL     1      -4.652  -3.766   9.833  1.00  0.00     0.200 A 
ATOM     84  F   UNL     1      -2.649  -4.165   8.655  1.00  0.00    -0.200 F 
ATOM     85  F   UNL     1      -5.012  -2.837   8.935  1.00  0.00    -0.200 F 
ENDBRANCH  51  75
BRANCH  63  86
ATOM     86  C   UNL     1      -3.449  -8.951  17.206  1.00  0.00     0.064 A 
ATOM     87  C   UNL     1      -3.381  -9.812  16.096  1.00  0.00     0.173 A 
ATOM     88  C   UNL     1      -4.046  -9.457  18.369  1.00  0.00     0.173 A 
ATOM     89  F   UNL     1      -2.734  -9.451  14.983  1.00  0.00    -0.203 F 
ATOM     90  C   UNL     1      -3.917 -11.098  16.139  1.00  0.00     0.198 A 
ATOM     91  C   UNL     1      -4.547 -10.755  18.423  1.00  0.00     0.198 A 
ATOM     92  F   UNL     1      -4.090  -8.707  19.482  1.00  0.00    -0.203 F 
ATOM     93  F   UNL     1      -3.838 -11.895  15.063  1.00  0.00    -0.200 F 
ATOM     94  C   UNL     1      -4.491 -11.572  17.306  1.00  0.00     0.200 A 
ATOM     95  F   UNL     1      -5.053 -11.226  19.571  1.00  0.00    -0.200 F 
ATOM     96  F   UNL     1      -4.963 -12.825  17.364  1.00  0.00    -0.200 F 
ENDBRANCH  63  86
ENDBRANCH  37  38
ENDBRANCH  29  32
ENDBRANCH  27  28
ENDBRANCH  26  27
ENDBRANCH  25  26
ENDBRANCH  24  25
ENDBRANCH   1  24
TORSDOF 19
