REMARK SMILES CC[C@@H]1[NH2+][C@@H](C(=O)NCCCCCCNC(=O)c2ccc(-c3c4nc(c(-c5c(F)c(F)c(F)c(F)c5F)c5ccc([nH]5)c(-c5c(F)c(F)c(F)c(F)c5F)c5nc(c(-c6c(F)c(F)c(F)c(F)c6F)c6ccc3[nH]6)C=C5)C=C4)cc2)Cc2c1[nH]c1ccccc21
REMARK SMILES IDX 12 1 11 2 10 3 9 4 8 5 6 6 7 7 5 9 3 10 4 11 83 12 82 15
REMARK SMILES IDX 84 16 81 17 90 18 85 19 89 21 86 22 88 23 87 24 2 25 1 26
REMARK SMILES IDX 13 27 14 28 15 29 16 30 17 32 18 33 19 34 80 35 20 36 79 37
REMARK SMILES IDX 21 38 22 39 23 40 73 41 24 42 78 43 72 44 74 45 25 46 77 47
REMARK SMILES IDX 71 48 70 49 26 51 58 52 38 53 57 54 39 55 42 56 56 57 75 58
REMARK SMILES IDX 40 59 41 60 55 62 76 63 43 64 27 65 28 66 36 67 29 68 30 69
REMARK SMILES IDX 34 70 37 71 31 72 32 73 35 74 33 75 59 76 60 77 68 78 61 79
REMARK SMILES IDX 62 80 66 81 69 82 63 83 64 84 67 85 65 86 44 87 45 88 53 89
REMARK SMILES IDX 46 90 47 91 51 92 54 93 48 94 49 95 52 96 50 97
REMARK H PARENT 8 8 4 13 4 14 84 20 15 31 74 50 42 61
REMARK Flexibility Score: inf
ROOT
ATOM      1  C   UNL     1       4.489  -9.247  -0.354  1.00  0.00     0.002 C 
ENDROOT
BRANCH   1   2
ATOM      2  C   UNL     1       3.092  -9.118  -0.970  1.00  0.00     0.002 C 
BRANCH   2   3
ATOM      3  C   UNL     1       2.203  -8.044  -0.332  1.00  0.00     0.021 C 
BRANCH   3   4
ATOM      4  C   UNL     1       2.728  -6.617  -0.522  1.00  0.00     0.116 C 
BRANCH   4   5
ATOM      5  N   UNL     1       2.499  -6.182  -1.887  1.00  0.00    -0.351 N 
ATOM      6  C   UNL     1       1.591  -5.290  -2.377  1.00  0.00     0.278 C 
ATOM      7  O   UNL     1       1.533  -5.153  -3.603  1.00  0.00    -0.268 OA
ATOM      8  H   UNL     1       3.087  -6.593  -2.561  1.00  0.00     0.163 HD
BRANCH   6   9
ATOM      9  C   UNL     1       0.724  -4.417  -1.449  1.00  0.00     0.277 C 
ATOM     10  C   UNL     1       0.903  -2.523   0.137  1.00  0.00     0.230 C 
ATOM     11  N   UNL     1       1.632  -3.516  -0.675  1.00  0.00    -0.328 N 
ATOM     12  C   UNL     1      -0.186  -3.223   0.885  1.00  0.00     0.078 A 
ATOM     13  H   UNL     1       2.205  -4.087  -0.054  1.00  0.00     0.347 HD
ATOM     14  H   UNL     1       2.198  -3.002  -1.350  1.00  0.00     0.347 HD
ATOM     15  C   UNL     1      -0.716  -4.465   0.595  1.00  0.00    -0.007 A 
ATOM     16  N   UNL     1      -0.817  -2.747   2.001  1.00  0.00    -0.353 N 
ATOM     17  C   UNL     1      -0.272  -5.244  -0.597  1.00  0.00     0.113 C 
ATOM     18  C   UNL     1      -1.604  -4.813   1.648  1.00  0.00     0.003 A 
ATOM     19  C   UNL     1      -1.672  -3.708   2.501  1.00  0.00     0.046 A 
ATOM     20  H   UNL     1      -0.681  -1.853   2.390  1.00  0.00     0.166 HD
ATOM     21  C   UNL     1      -2.345  -5.965   1.973  1.00  0.00     0.010 A 
ATOM     22  C   UNL     1      -2.481  -3.687   3.643  1.00  0.00     0.026 A 
ATOM     23  C   UNL     1      -3.134  -5.971   3.130  1.00  0.00     0.001 A 
ATOM     24  C   UNL     1      -3.207  -4.843   3.945  1.00  0.00     0.002 A 
BRANCH  10  25
ATOM     25  C   UNL     1       0.374  -1.349  -0.710  1.00  0.00     0.068 C 
ATOM     26  C   UNL     1       0.684  -0.006  -0.057  1.00  0.00     0.011 C 
ENDBRANCH  10  25
ENDBRANCH   6   9
ENDBRANCH   4   5
ENDBRANCH   3   4
ENDBRANCH   2   3
ENDBRANCH   1   2
BRANCH   1  27
ATOM     27  C   UNL     1       4.510  -9.513   1.153  1.00  0.00     0.021 C 
BRANCH  27  28
ATOM     28  C   UNL     1       3.805 -10.798   1.580  1.00  0.00     0.116 C 
BRANCH  28  29
ATOM     29  N   UNL     1       4.471 -11.979   1.055  1.00  0.00    -0.352 N 
ATOM     30  C   UNL     1       4.960 -13.074   1.722  1.00  0.00     0.251 C 
ATOM     31  H   UNL     1       4.588 -11.996   0.078  1.00  0.00     0.163 HD
ATOM     32  O   UNL     1       5.689 -13.872   1.143  1.00  0.00    -0.269 OA
BRANCH  30  33
ATOM     33  C   UNL     1       4.618 -13.292   3.144  1.00  0.00     0.039 A 
ATOM     34  C   UNL     1       5.619 -13.725   4.018  1.00  0.00     0.014 A 
ATOM     35  C   UNL     1       3.312 -13.112   3.608  1.00  0.00     0.014 A 
ATOM     36  C   UNL     1       5.318 -13.938   5.365  1.00  0.00     0.010 A 
ATOM     37  C   UNL     1       3.029 -13.258   4.964  1.00  0.00     0.010 A 
ATOM     38  C   UNL     1       4.026 -13.686   5.854  1.00  0.00    -0.014 A 
BRANCH  38  39
ATOM     39  C   UNL     1       3.701 -13.881   7.289  1.00  0.00     0.031 A 
ATOM     40  C   UNL     1       2.719 -14.941   7.706  1.00  0.00     0.074 A 
ATOM     41  C   UNL     1       4.252 -13.070   8.212  1.00  0.00     0.049 A 
ATOM     42  N   UNL     1       2.280 -15.239   8.904  1.00  0.00    -0.248 NA
ATOM     43  C   UNL     1       2.129 -15.757   6.633  1.00  0.00     0.031 C 
ATOM     44  C   UNL     1       5.172 -11.967   7.927  1.00  0.00     0.029 A 
ATOM     45  N   UNL     1       4.110 -13.039   9.577  1.00  0.00    -0.354 N 
ATOM     46  C   UNL     1       1.353 -16.258   8.725  1.00  0.00     0.074 A 
ATOM     47  C   UNL     1       1.255 -16.496   7.302  1.00  0.00     0.031 C 
ATOM     48  C   UNL     1       5.527 -11.381   9.081  1.00  0.00     0.029 A 
ATOM     49  C   UNL     1       4.838 -12.044  10.184  1.00  0.00     0.049 A 
ATOM     50  H   UNL     1       3.541 -13.670  10.074  1.00  0.00     0.167 HD
ATOM     51  C   UNL     1       0.662 -16.946   9.665  1.00  0.00     0.037 A 
ATOM     52  C   UNL     1       4.934 -11.705  11.483  1.00  0.00     0.037 A 
ATOM     53  C   UNL     1       0.790 -16.731  11.083  1.00  0.00     0.049 A 
ATOM     54  C   UNL     1       4.179 -12.508  12.508  1.00  0.00     0.074 A 
ATOM     55  C   UNL     1       0.195 -17.429  12.119  1.00  0.00     0.029 A 
ATOM     56  N   UNL     1       1.567 -15.740  11.663  1.00  0.00    -0.354 N 
ATOM     57  N   UNL     1       3.373 -13.526  12.334  1.00  0.00    -0.248 NA
ATOM     58  C   UNL     1       4.362 -12.122  13.915  1.00  0.00     0.031 C 
ATOM     59  C   UNL     1       0.576 -16.831  13.325  1.00  0.00     0.029 A 
ATOM     60  C   UNL     1       1.450 -15.794  13.043  1.00  0.00     0.049 A 
ATOM     61  H   UNL     1       2.121 -15.093  11.168  1.00  0.00     0.167 HD
ATOM     62  C   UNL     1       2.975 -13.921  13.604  1.00  0.00     0.074 A 
ATOM     63  C   UNL     1       3.645 -13.044  14.541  1.00  0.00     0.031 C 
ATOM     64  C   UNL     1       2.130 -14.918  13.963  1.00  0.00     0.037 A 
BRANCH  51  65
ATOM     65  C   UNL     1      -0.296 -18.003   9.194  1.00  0.00     0.064 A 
ATOM     66  C   UNL     1       0.153 -19.204   8.625  1.00  0.00     0.173 A 
ATOM     67  C   UNL     1      -1.679 -17.832   9.359  1.00  0.00     0.173 A 
ATOM     68  F   UNL     1       1.464 -19.414   8.436  1.00  0.00    -0.203 F 
ATOM     69  C   UNL     1      -0.749 -20.183   8.215  1.00  0.00     0.198 A 
ATOM     70  C   UNL     1      -2.575 -18.826   8.975  1.00  0.00     0.198 A 
ATOM     71  F   UNL     1      -2.161 -16.704   9.903  1.00  0.00    -0.203 F 
ATOM     72  F   UNL     1      -0.299 -21.304   7.632  1.00  0.00    -0.200 F 
ATOM     73  C   UNL     1      -2.111 -19.997   8.397  1.00  0.00     0.200 A 
ATOM     74  F   UNL     1      -3.890 -18.649   9.165  1.00  0.00    -0.200 F 
ATOM     75  F   UNL     1      -2.976 -20.945   8.011  1.00  0.00    -0.200 F 
ENDBRANCH  51  65
BRANCH  52  76
ATOM     76  C   UNL     1       5.799 -10.568  11.894  1.00  0.00     0.064 A 
ATOM     77  C   UNL     1       6.978 -10.783  12.621  1.00  0.00     0.173 A 
ATOM     78  C   UNL     1       5.457  -9.244  11.583  1.00  0.00     0.173 A 
ATOM     79  F   UNL     1       7.337 -12.031  12.959  1.00  0.00    -0.203 F 
ATOM     80  C   UNL     1       7.767  -9.717  13.046  1.00  0.00     0.198 A 
ATOM     81  C   UNL     1       6.263  -8.180  11.982  1.00  0.00     0.198 A 
ATOM     82  F   UNL     1       4.343  -8.984  10.884  1.00  0.00    -0.203 F 
ATOM     83  F   UNL     1       8.860  -9.948  13.786  1.00  0.00    -0.200 F 
ATOM     84  C   UNL     1       7.412  -8.416  12.723  1.00  0.00     0.200 A 
ATOM     85  F   UNL     1       5.924  -6.925  11.655  1.00  0.00    -0.200 F 
ATOM     86  F   UNL     1       8.171  -7.391  13.132  1.00  0.00    -0.200 F 
ENDBRANCH  52  76
BRANCH  64  87
ATOM     87  C   UNL     1       1.913 -15.137  15.432  1.00  0.00     0.064 A 
ATOM     88  C   UNL     1       1.185 -14.229  16.214  1.00  0.00     0.173 A 
ATOM     89  C   UNL     1       2.422 -16.284  16.060  1.00  0.00     0.173 A 
ATOM     90  F   UNL     1       0.690 -13.109  15.663  1.00  0.00    -0.203 F 
ATOM     91  C   UNL     1       1.004 -14.443  17.578  1.00  0.00     0.198 A 
ATOM     92  C   UNL     1       2.211 -16.512  17.417  1.00  0.00     0.198 A 
ATOM     93  F   UNL     1       3.118 -17.189  15.356  1.00  0.00    -0.203 F 
ATOM     94  F   UNL     1       0.353 -13.533  18.316  1.00  0.00    -0.200 F 
ATOM     95  C   UNL     1       1.511 -15.586  18.176  1.00  0.00     0.200 A 
ATOM     96  F   UNL     1       2.689 -17.624  17.991  1.00  0.00    -0.200 F 
ATOM     97  F   UNL     1       1.333 -15.792  19.489  1.00  0.00    -0.200 F 
ENDBRANCH  64  87
ENDBRANCH  38  39
ENDBRANCH  30  33
ENDBRANCH  28  29
ENDBRANCH  27  28
ENDBRANCH   1  27
TORSDOF 14
