REMARK SMILES C[N@@H+]1CCC[C@@H](NC(=O)N(CC(=O)NCCCCCCNC(=O)c2ccc(-c3c4nc(c(-c5c(F)c(F)c(F)c(F)c5F)c5ccc([nH]5)c(-c5c(F)c(F)c(F)c(F)c5F)c5nc(c(-c6c(F)c(F)c(F)c(F)c6F)c6ccc3[nH]6)C=C5)C=C4)cc2)C(C)(C)C)C1
REMARK SMILES IDX 17 1 16 2 15 3 14 4 12 5 13 6 11 8 10 9 8 10 7 11 9 13 6 14
REMARK SMILES IDX 1 15 2 16 3 17 91 18 4 20 5 21 87 22 88 23 89 24 90 25 18 26
REMARK SMILES IDX 19 27 20 28 21 29 22 30 23 32 24 33 25 34 86 35 26 36 85 37
REMARK SMILES IDX 27 38 28 39 29 40 79 41 30 42 84 43 78 44 80 45 31 46 83 47
REMARK SMILES IDX 77 48 76 49 32 51 64 52 44 53 63 54 45 55 48 56 62 57 81 58
REMARK SMILES IDX 46 59 47 60 61 62 82 63 49 64 33 65 34 66 42 67 35 68 36 69
REMARK SMILES IDX 40 70 43 71 37 72 38 73 41 74 39 75 65 76 66 77 74 78 67 79
REMARK SMILES IDX 68 80 72 81 75 82 69 83 70 84 73 85 71 86 50 87 51 88 59 89
REMARK SMILES IDX 52 90 53 91 57 92 60 93 54 94 55 95 58 96 56 97
REMARK H PARENT 14 7 7 12 2 19 21 31 80 50 48 61
REMARK Flexibility Score: inf
ROOT
ATOM      1  C   UNL     1       7.068  -1.029   1.085  1.00  0.00     0.002 C 
ENDROOT
BRANCH   1   2
ATOM      2  C   UNL     1       5.683  -1.408   1.603  1.00  0.00     0.021 C 
BRANCH   2   3
ATOM      3  C   UNL     1       4.609  -1.543   0.532  1.00  0.00     0.116 C 
BRANCH   3   4
ATOM      4  N   UNL     1       4.765  -2.691  -0.331  1.00  0.00    -0.355 N 
ATOM      5  C   UNL     1       3.884  -3.664  -0.690  1.00  0.00     0.239 C 
ATOM      6  O   UNL     1       4.176  -4.309  -1.706  1.00  0.00    -0.273 OA
ATOM      7  H   UNL     1       5.662  -2.785  -0.728  1.00  0.00     0.163 HD
BRANCH   5   8
ATOM      8  C   UNL     1       2.520  -3.915  -0.010  1.00  0.00     0.221 C 
BRANCH   8   9
ATOM      9  N   UNL     1       2.380  -3.722   1.435  1.00  0.00    -0.311 N 
BRANCH   9  10
ATOM     10  C   UNL     1       1.742  -2.652   2.032  1.00  0.00     0.318 C 
ATOM     11  N   UNL     1       1.213  -1.597   1.380  1.00  0.00    -0.330 N 
ATOM     12  H   UNL     1       0.794  -0.990   2.032  1.00  0.00     0.165 HD
ATOM     13  O   UNL     1       1.632  -2.562   3.260  1.00  0.00    -0.249 OA
BRANCH  11  14
ATOM     14  C   UNL     1       1.050  -1.043   0.024  1.00  0.00     0.139 C 
ATOM     15  C   UNL     1      -2.619  -0.006  -0.054  1.00  0.00     0.332 C 
ATOM     16  N   UNL     1      -1.201   0.051   0.306  1.00  0.00    -0.336 N 
ATOM     17  C   UNL     1      -0.645   1.363  -0.045  1.00  0.00     0.262 C 
ATOM     18  C   UNL     1      -0.450  -1.030  -0.367  1.00  0.00     0.287 C 
ATOM     19  H   UNL     1      -1.114  -0.083   1.313  1.00  0.00     0.347 HD
ATOM     20  C   UNL     1       0.784   1.470   0.470  1.00  0.00     0.064 C 
ATOM     21  C   UNL     1       1.665   0.364  -0.094  1.00  0.00     0.037 C 
ENDBRANCH  11  14
ENDBRANCH   9  10
BRANCH   9  22
ATOM     22  C   UNL     1       2.930  -4.838   2.326  1.00  0.00     0.037 C 
ATOM     23  C   UNL     1       4.080  -4.331   3.220  1.00  0.00     0.034 C 
ATOM     24  C   UNL     1       1.813  -5.442   3.209  1.00  0.00     0.034 C 
ATOM     25  C   UNL     1       3.531  -6.049   1.550  1.00  0.00     0.034 C 
ENDBRANCH   9  22
ENDBRANCH   8   9
ENDBRANCH   5   8
ENDBRANCH   3   4
ENDBRANCH   2   3
ENDBRANCH   1   2
BRANCH   1  26
ATOM     26  C   UNL     1       7.151   0.332   0.390  1.00  0.00     0.002 C 
BRANCH  26  27
ATOM     27  C   UNL     1       6.646   1.526   1.207  1.00  0.00     0.021 C 
BRANCH  27  28
ATOM     28  C   UNL     1       7.267   1.682   2.594  1.00  0.00     0.116 C 
BRANCH  28  29
ATOM     29  N   UNL     1       8.715   1.777   2.546  1.00  0.00    -0.352 N 
ATOM     30  C   UNL     1       9.562   2.691   3.115  1.00  0.00     0.251 C 
ATOM     31  H   UNL     1       9.159   1.073   2.021  1.00  0.00     0.163 HD
ATOM     32  O   UNL     1      10.751   2.689   2.812  1.00  0.00    -0.269 OA
BRANCH  30  33
ATOM     33  C   UNL     1       9.057   3.695   4.078  1.00  0.00     0.039 A 
ATOM     34  C   UNL     1       9.556   4.998   3.997  1.00  0.00     0.014 A 
ATOM     35  C   UNL     1       8.143   3.359   5.082  1.00  0.00     0.014 A 
ATOM     36  C   UNL     1       9.109   5.970   4.892  1.00  0.00     0.010 A 
ATOM     37  C   UNL     1       7.645   4.346   5.932  1.00  0.00     0.010 A 
ATOM     38  C   UNL     1       8.131   5.659   5.852  1.00  0.00    -0.014 A 
BRANCH  38  39
ATOM     39  C   UNL     1       7.619   6.714   6.761  1.00  0.00     0.031 A 
ATOM     40  C   UNL     1       7.897   6.664   8.236  1.00  0.00     0.074 A 
ATOM     41  C   UNL     1       6.889   7.723   6.249  1.00  0.00     0.049 A 
ATOM     42  N   UNL     1       7.602   7.541   9.164  1.00  0.00    -0.248 NA
ATOM     43  C   UNL     1       8.573   5.461   8.742  1.00  0.00     0.031 C 
ATOM     44  C   UNL     1       6.498   7.849   4.844  1.00  0.00     0.029 A 
ATOM     45  N   UNL     1       6.359   8.839   6.845  1.00  0.00    -0.354 N 
ATOM     46  C   UNL     1       8.057   6.997  10.358  1.00  0.00     0.074 A 
ATOM     47  C   UNL     1       8.588   5.687  10.047  1.00  0.00     0.031 C 
ATOM     48  C   UNL     1       5.837   9.005   4.676  1.00  0.00     0.029 A 
ATOM     49  C   UNL     1       5.737   9.687   5.963  1.00  0.00     0.049 A 
ATOM     50  H   UNL     1       6.418   9.014   7.812  1.00  0.00     0.167 HD
ATOM     51  C   UNL     1       8.057   7.550  11.595  1.00  0.00     0.037 A 
ATOM     52  C   UNL     1       5.172  10.892   6.165  1.00  0.00     0.037 A 
ATOM     53  C   UNL     1       7.532   8.857  11.899  1.00  0.00     0.049 A 
ATOM     54  C   UNL     1       5.194  11.491   7.543  1.00  0.00     0.074 A 
ATOM     55  C   UNL     1       7.527   9.530  13.109  1.00  0.00     0.029 A 
ATOM     56  N   UNL     1       6.905   9.687  10.980  1.00  0.00    -0.354 N 
ATOM     57  N   UNL     1       5.704  11.007   8.649  1.00  0.00    -0.248 NA
ATOM     58  C   UNL     1       4.575  12.814   7.694  1.00  0.00     0.031 C 
ATOM     59  C   UNL     1       6.859  10.748  12.931  1.00  0.00     0.029 A 
ATOM     60  C   UNL     1       6.493  10.857  11.600  1.00  0.00     0.049 A 
ATOM     61  H   UNL     1       6.774   9.477  10.027  1.00  0.00     0.167 HD
ATOM     62  C   UNL     1       5.492  11.974   9.622  1.00  0.00     0.074 A 
ATOM     63  C   UNL     1       4.824  13.082   8.968  1.00  0.00     0.031 C 
ATOM     64  C   UNL     1       5.823  11.949  10.937  1.00  0.00     0.037 A 
BRANCH  51  65
ATOM     65  C   UNL     1       8.646   6.733  12.711  1.00  0.00     0.064 A 
ATOM     66  C   UNL     1      10.021   6.454  12.773  1.00  0.00     0.173 A 
ATOM     67  C   UNL     1       7.830   6.225  13.734  1.00  0.00     0.173 A 
ATOM     68  F   UNL     1      10.845   6.907  11.815  1.00  0.00    -0.203 F 
ATOM     69  C   UNL     1      10.549   5.662  13.789  1.00  0.00     0.198 A 
ATOM     70  C   UNL     1       8.367   5.461  14.767  1.00  0.00     0.198 A 
ATOM     71  F   UNL     1       6.511   6.467  13.730  1.00  0.00    -0.203 F 
ATOM     72  F   UNL     1      11.854   5.357  13.789  1.00  0.00    -0.200 F 
ATOM     73  C   UNL     1       9.723   5.170  14.788  1.00  0.00     0.200 A 
ATOM     74  F   UNL     1       7.570   4.996  15.739  1.00  0.00    -0.200 F 
ATOM     75  F   UNL     1      10.232   4.406  15.764  1.00  0.00    -0.200 F 
ENDBRANCH  51  65
BRANCH  52  76
ATOM     76  C   UNL     1       4.607  11.639   5.013  1.00  0.00     0.064 A 
ATOM     77  C   UNL     1       5.257  12.776   4.512  1.00  0.00     0.173 A 
ATOM     78  C   UNL     1       3.430  11.224   4.375  1.00  0.00     0.173 A 
ATOM     79  F   UNL     1       6.377  13.221   5.101  1.00  0.00    -0.203 F 
ATOM     80  C   UNL     1       4.743  13.476   3.423  1.00  0.00     0.198 A 
ATOM     81  C   UNL     1       2.931  11.910   3.271  1.00  0.00     0.198 A 
ATOM     82  F   UNL     1       2.776  10.138   4.813  1.00  0.00    -0.203 F 
ATOM     83  F   UNL     1       5.366  14.579   2.984  1.00  0.00    -0.200 F 
ATOM     84  C   UNL     1       3.585  13.039   2.798  1.00  0.00     0.200 A 
ATOM     85  F   UNL     1       1.821  11.476   2.659  1.00  0.00    -0.200 F 
ATOM     86  F   UNL     1       3.098  13.706   1.744  1.00  0.00    -0.200 F 
ENDBRANCH  52  76
BRANCH  64  87
ATOM     87  C   UNL     1       5.488  13.169  11.746  1.00  0.00     0.064 A 
ATOM     88  C   UNL     1       4.162  13.505  12.062  1.00  0.00     0.173 A 
ATOM     89  C   UNL     1       6.507  14.014  12.212  1.00  0.00     0.173 A 
ATOM     90  F   UNL     1       3.150  12.739  11.626  1.00  0.00    -0.203 F 
ATOM     91  C   UNL     1       3.868  14.661  12.780  1.00  0.00     0.198 A 
ATOM     92  C   UNL     1       6.211  15.152  12.957  1.00  0.00     0.198 A 
ATOM     93  F   UNL     1       7.792  13.736  11.944  1.00  0.00    -0.203 F 
ATOM     94  F   UNL     1       2.591  14.995  13.014  1.00  0.00    -0.200 F 
ATOM     95  C   UNL     1       4.892  15.481  13.230  1.00  0.00     0.200 A 
ATOM     96  F   UNL     1       7.202  15.936  13.402  1.00  0.00    -0.200 F 
ATOM     97  F   UNL     1       4.606  16.595  13.917  1.00  0.00    -0.200 F 
ENDBRANCH  64  87
ENDBRANCH  38  39
ENDBRANCH  30  33
ENDBRANCH  28  29
ENDBRANCH  27  28
ENDBRANCH  26  27
ENDBRANCH   1  26
TORSDOF 17
