REMARK SMILES Cc1ccc2nc(Cl)c([C@@H]3CC(c4cccs4)=NN3C(=O)CCCC(=O)NCCCCCCNC(=O)c3ccc(-c4c5nc(c(-c6c(F)c(F)c(F)c(F)c6F)c6ccc([nH]6)c(-c6c(F)c(F)c(F)c(F)c6F)c6nc(c(-c7c(F)c(F)c(F)c(F)c7F)c7ccc4[nH]7)C=C6)C=C5)cc3)cc2c1
REMARK SMILES IDX 29 1 28 2 27 3 25 4 26 5 24 7 23 8 22 9 20 10 21 11 19 12
REMARK SMILES IDX 10 13 11 14 12 15 18 16 9 17 1 18 2 19 3 20 102 21 4 22
REMARK SMILES IDX 101 23 5 24 100 25 6 26 7 27 8 28 13 29 14 30 17 31 15 32
REMARK SMILES IDX 16 33 30 34 31 35 32 36 33 37 34 38 35 39 36 41 37 42 38 43
REMARK SMILES IDX 99 44 39 45 98 46 40 47 41 48 42 49 92 50 43 51 97 52 91 53
REMARK SMILES IDX 93 54 44 55 96 56 90 57 89 58 45 60 77 61 57 62 76 63 58 64
REMARK SMILES IDX 61 65 75 66 94 67 59 68 60 69 74 71 95 72 62 73 46 74 47 75
REMARK SMILES IDX 55 76 48 77 49 78 53 79 56 80 50 81 51 82 54 83 52 84 78 85
REMARK SMILES IDX 79 86 87 87 80 88 81 89 85 90 88 91 82 92 83 93 86 94 84 95
REMARK SMILES IDX 63 96 64 97 72 98 65 99 66 100 70 101 73 102 67 103 68 104
REMARK SMILES IDX 71 105 69 106
REMARK H PARENT 27 6 34 40 93 59 61 70
REMARK Flexibility Score: inf
ROOT
ATOM      1  C   UNL     1      -5.514   1.126  -3.429  1.00  0.00     0.021 C 
ENDROOT
BRANCH   1   2
ATOM      2  C   UNL     1      -4.380   0.991  -2.420  1.00  0.00     0.116 C 
BRANCH   2   3
ATOM      3  N   UNL     1      -3.498  -0.125  -2.691  1.00  0.00    -0.356 N 
ATOM      4  C   UNL     1      -2.194  -0.376  -2.438  1.00  0.00     0.220 C 
ATOM      5  O   UNL     1      -1.878  -1.570  -2.364  1.00  0.00    -0.275 OA
ATOM      6  H   UNL     1      -3.946  -0.864  -3.163  1.00  0.00     0.163 HD
BRANCH   4   7
ATOM      7  C   UNL     1      -1.142   0.668  -2.131  1.00  0.00     0.100 C 
BRANCH   7   8
ATOM      8  C   UNL     1      -0.930   1.841  -3.051  1.00  0.00     0.020 C 
BRANCH   8   9
ATOM      9  C   UNL     1      -1.904   2.998  -3.016  1.00  0.00     0.103 C 
BRANCH   9  10
ATOM     10  C   UNL     1      -2.101   3.959  -1.831  1.00  0.00     0.243 C 
ATOM     11  O   UNL     1      -1.802   5.139  -2.116  1.00  0.00    -0.273 OA
BRANCH  10  12
ATOM     12  N   UNL     1      -2.716   3.693  -0.591  1.00  0.00    -0.225 N 
ATOM     13  C   UNL     1      -2.493   2.659   0.500  1.00  0.00     0.150 C 
ATOM     14  C   UNL     1      -2.116   3.509   1.718  1.00  0.00     0.092 C 
ATOM     15  C   UNL     1      -2.623   4.840   1.269  1.00  0.00     0.081 C 
ATOM     16  N   UNL     1      -3.031   4.897   0.043  1.00  0.00    -0.173 NA
BRANCH  13  17
ATOM     17  C   UNL     1      -3.643   1.686   0.811  1.00  0.00     0.015 A 
ATOM     18  C   UNL     1      -5.399  -3.955  -1.016  1.00  0.00     0.044 C 
ATOM     19  C   UNL     1      -5.538  -2.674  -0.243  1.00  0.00    -0.050 A 
ATOM     20  C   UNL     1      -6.797  -2.173   0.087  1.00  0.00     0.005 A 
ATOM     21  C   UNL     1      -4.402  -1.920   0.089  1.00  0.00     0.013 A 
ATOM     22  C   UNL     1      -6.909  -0.924   0.705  1.00  0.00     0.029 A 
ATOM     23  C   UNL     1      -4.525  -0.615   0.615  1.00  0.00     0.001 A 
ATOM     24  C   UNL     1      -5.797  -0.121   0.936  1.00  0.00     0.072 A 
ATOM     25  C   UNL     1      -3.439   0.295   0.658  1.00  0.00     0.019 A 
ATOM     26  N   UNL     1      -5.969   1.143   1.335  1.00  0.00    -0.236 NA
ATOM     27  C   UNL     1      -4.932   2.017   1.226  1.00  0.00     0.135 A 
ATOM     28  Cl  UNL     1      -5.477   3.595   1.619  1.00  0.00    -0.062 Cl
ENDBRANCH  13  17
BRANCH  15  29
ATOM     29  C   UNL     1      -2.544   6.011   2.095  1.00  0.00     0.050 A 
ATOM     30  C   UNL     1      -1.466   6.445   2.841  1.00  0.00     0.022 A 
ATOM     31  S   UNL     1      -3.842   7.119   2.145  1.00  0.00    -0.142 S 
ATOM     32  C   UNL     1      -1.701   7.723   3.423  1.00  0.00     0.012 A 
ATOM     33  C   UNL     1      -2.962   8.197   3.137  1.00  0.00     0.065 A 
ENDBRANCH  15  29
ENDBRANCH  10  12
ENDBRANCH   9  10
ENDBRANCH   8   9
ENDBRANCH   7   8
ENDBRANCH   4   7
ENDBRANCH   2   3
ENDBRANCH   1   2
BRANCH   1  34
ATOM     34  C   UNL     1      -6.860   0.782  -2.776  1.00  0.00     0.002 C 
BRANCH  34  35
ATOM     35  C   UNL     1      -7.308   1.781  -1.700  1.00  0.00     0.002 C 
BRANCH  35  36
ATOM     36  C   UNL     1      -7.697   3.167  -2.189  1.00  0.00     0.021 C 
BRANCH  36  37
ATOM     37  C   UNL     1      -8.738   3.158  -3.290  1.00  0.00     0.116 C 
BRANCH  37  38
ATOM     38  N   UNL     1      -9.940   2.417  -2.932  1.00  0.00    -0.352 N 
ATOM     39  C   UNL     1     -11.251   2.729  -3.211  1.00  0.00     0.251 C 
ATOM     40  H   UNL     1      -9.796   1.586  -2.424  1.00  0.00     0.163 HD
ATOM     41  O   UNL     1     -12.171   2.079  -2.758  1.00  0.00    -0.269 OA
BRANCH  39  42
ATOM     42  C   UNL     1     -11.504   3.914  -4.054  1.00  0.00     0.039 A 
ATOM     43  C   UNL     1     -12.372   4.902  -3.588  1.00  0.00     0.014 A 
ATOM     44  C   UNL     1     -10.797   4.082  -5.247  1.00  0.00     0.014 A 
ATOM     45  C   UNL     1     -12.475   6.102  -4.290  1.00  0.00     0.010 A 
ATOM     46  C   UNL     1     -10.825   5.310  -5.886  1.00  0.00     0.010 A 
ATOM     47  C   UNL     1     -11.670   6.329  -5.419  1.00  0.00    -0.014 A 
BRANCH  47  48
ATOM     48  C   UNL     1     -11.702   7.618  -6.148  1.00  0.00     0.031 A 
ATOM     49  C   UNL     1     -12.130   7.637  -7.589  1.00  0.00     0.074 A 
ATOM     50  C   UNL     1     -11.262   8.740  -5.546  1.00  0.00     0.049 A 
ATOM     51  N   UNL     1     -12.116   8.627  -8.444  1.00  0.00    -0.248 NA
ATOM     52  C   UNL     1     -12.600   6.362  -8.158  1.00  0.00     0.031 C 
ATOM     53  C   UNL     1     -10.762   8.827  -4.172  1.00  0.00     0.029 A 
ATOM     54  N   UNL     1     -11.146  10.022  -6.021  1.00  0.00    -0.354 N 
ATOM     55  C   UNL     1     -12.543   8.087  -9.649  1.00  0.00     0.074 A 
ATOM     56  C   UNL     1     -12.761   6.675  -9.434  1.00  0.00     0.031 C 
ATOM     57  C   UNL     1     -10.408  10.096  -3.911  1.00  0.00     0.029 A 
ATOM     58  C   UNL     1     -10.618  10.903  -5.108  1.00  0.00     0.049 A 
ATOM     59  H   UNL     1     -11.415  10.286  -6.931  1.00  0.00     0.167 HD
ATOM     60  C   UNL     1     -12.757   8.721 -10.825  1.00  0.00     0.037 A 
ATOM     61  C   UNL     1     -10.324  12.211  -5.234  1.00  0.00     0.037 A 
ATOM     62  C   UNL     1     -12.590  10.136 -11.013  1.00  0.00     0.049 A 
ATOM     63  C   UNL     1     -10.602  12.895  -6.548  1.00  0.00     0.074 A 
ATOM     64  C   UNL     1     -12.870  10.894 -12.136  1.00  0.00     0.029 A 
ATOM     65  N   UNL     1     -12.102  11.007 -10.050  1.00  0.00    -0.354 N 
ATOM     66  N   UNL     1     -11.091  12.392  -7.656  1.00  0.00    -0.248 NA
ATOM     67  C   UNL     1     -10.294  14.329  -6.626  1.00  0.00     0.031 C 
ATOM     68  C   UNL     1     -12.509  12.217 -11.868  1.00  0.00     0.029 A 
ATOM     69  C   UNL     1     -12.052  12.292 -10.562  1.00  0.00     0.049 A 
ATOM     70  H   UNL     1     -11.832  10.750  -9.139  1.00  0.00     0.167 HD
ATOM     71  C   UNL     1     -11.177  13.451  -8.550  1.00  0.00     0.074 A 
ATOM     72  C   UNL     1     -10.708  14.628  -7.849  1.00  0.00     0.031 C 
ATOM     73  C   UNL     1     -11.599  13.451  -9.838  1.00  0.00     0.037 A 
BRANCH  60  74
ATOM     74  C   UNL     1     -13.210   7.901 -11.995  1.00  0.00     0.064 A 
ATOM     75  C   UNL     1     -14.501   7.356 -12.058  1.00  0.00     0.173 A 
ATOM     76  C   UNL     1     -12.363   7.714 -13.098  1.00  0.00     0.173 A 
ATOM     77  F   UNL     1     -15.343   7.495 -11.023  1.00  0.00    -0.203 F 
ATOM     78  C   UNL     1     -14.923   6.643 -13.176  1.00  0.00     0.198 A 
ATOM     79  C   UNL     1     -12.799   7.024 -14.226  1.00  0.00     0.198 A 
ATOM     80  F   UNL     1     -11.119   8.214 -13.089  1.00  0.00    -0.203 F 
ATOM     81  F   UNL     1     -16.149   6.102 -13.199  1.00  0.00    -0.200 F 
ATOM     82  C   UNL     1     -14.077   6.487 -14.263  1.00  0.00     0.200 A 
ATOM     83  F   UNL     1     -11.984   6.885 -15.281  1.00  0.00    -0.200 F 
ATOM     84  F   UNL     1     -14.492   5.816 -15.346  1.00  0.00    -0.200 F 
ENDBRANCH  60  74
BRANCH  61  85
ATOM     85  C   UNL     1      -9.743  12.969  -4.093  1.00  0.00     0.064 A 
ATOM     86  C   UNL     1     -10.470  13.985  -3.457  1.00  0.00     0.173 A 
ATOM     87  C   UNL     1      -8.438  12.723  -3.643  1.00  0.00     0.173 A 
ATOM     88  F   UNL     1     -11.715  14.273  -3.864  1.00  0.00    -0.203 F 
ATOM     89  C   UNL     1      -9.902  14.750  -2.440  1.00  0.00     0.198 A 
ATOM     90  C   UNL     1      -7.882  13.468  -2.604  1.00  0.00     0.198 A 
ATOM     91  F   UNL     1      -7.699  11.761  -4.214  1.00  0.00    -0.203 F 
ATOM     92  F   UNL     1     -10.597  15.758  -1.896  1.00  0.00    -0.200 F 
ATOM     93  C   UNL     1      -8.609  14.489  -2.013  1.00  0.00     0.200 A 
ATOM     94  F   UNL     1      -6.636  13.206  -2.186  1.00  0.00    -0.200 F 
ATOM     95  F   UNL     1      -8.060  15.232  -1.042  1.00  0.00    -0.200 F 
ENDBRANCH  61  85
BRANCH  73  96
ATOM     96  C   UNL     1     -11.613  14.767 -10.556  1.00  0.00     0.064 A 
ATOM     97  C   UNL     1     -10.427  15.399 -10.956  1.00  0.00     0.173 A 
ATOM     98  C   UNL     1     -12.831  15.379 -10.888  1.00  0.00     0.173 A 
ATOM     99  F   UNL     1      -9.238  14.859 -10.650  1.00  0.00    -0.203 F 
ATOM    100  C   UNL     1     -10.460  16.611 -11.639  1.00  0.00     0.198 A 
ATOM    101  C   UNL     1     -12.861  16.574 -11.599  1.00  0.00     0.198 A 
ATOM    102  F   UNL     1     -13.994  14.809 -10.536  1.00  0.00    -0.203 F 
ATOM    103  F   UNL     1      -9.314  17.223 -11.970  1.00  0.00    -0.200 F 
ATOM    104  C   UNL     1     -11.676  17.193 -11.967  1.00  0.00     0.200 A 
ATOM    105  F   UNL     1     -14.036  17.127 -11.930  1.00  0.00    -0.200 F 
ATOM    106  F   UNL     1     -11.705  18.355 -12.634  1.00  0.00    -0.200 F 
ENDBRANCH  73  96
ENDBRANCH  47  48
ENDBRANCH  39  42
ENDBRANCH  37  38
ENDBRANCH  36  37
ENDBRANCH  35  36
ENDBRANCH  34  35
ENDBRANCH   1  34
TORSDOF 19
