REMARK SMILES Cc1coc2c(C)c3oc(=O)c(CCC(=O)N[C@H](CC(C)C)C(=O)NCCCCCCNC(=O)c4ccc(-c5c6nc(c(-c7c(F)c(F)c(F)c(F)c7F)c7ccc([nH]7)c(-c7c(F)c(F)c(F)c(F)c7F)c7nc(c(-c8c(F)c(F)c(F)c(F)c8F)c8ccc5[nH]8)C=C7)C=C6)cc4)c(C)c3cc12
REMARK SMILES IDX 27 1 26 2 25 3 23 4 24 5 18 7 17 8 15 9 16 10 14 12 13 13
REMARK SMILES IDX 12 14 1 15 2 16 3 17 102 18 4 19 5 20 101 21 6 22 100 23
REMARK SMILES IDX 7 24 8 25 98 26 9 27 99 28 10 29 11 30 19 31 20 32 21 33
REMARK SMILES IDX 22 34 28 35 29 36 30 37 31 38 32 39 33 40 34 42 35 43 36 44
REMARK SMILES IDX 97 45 37 46 96 47 38 48 39 49 40 50 90 51 41 52 95 53 89 54
REMARK SMILES IDX 91 55 42 56 94 57 88 58 87 59 43 61 75 62 55 63 74 64 56 65
REMARK SMILES IDX 59 66 73 67 92 68 57 69 58 70 72 72 93 73 60 74 44 75 45 76
REMARK SMILES IDX 53 77 46 78 47 79 51 80 54 81 48 82 49 83 52 84 50 85 76 86
REMARK SMILES IDX 77 87 85 88 78 89 79 90 83 91 86 92 80 93 81 94 84 95 82 96
REMARK SMILES IDX 61 97 62 98 70 99 63 100 64 101 68 102 71 103 65 104 66 105
REMARK SMILES IDX 69 106 67 107
REMARK H PARENT 25 6 17 11 32 41 91 60 59 71
REMARK Flexibility Score: inf
ROOT
ATOM      1  C   UNL     1      -3.002   0.966   1.091  1.00  0.00     0.021 C 
ENDROOT
BRANCH   1   2
ATOM      2  C   UNL     1      -2.575   1.245  -0.369  1.00  0.00     0.116 C 
BRANCH   2   3
ATOM      3  N   UNL     1      -3.242   2.561  -1.179  1.00  0.00    -0.354 N 
ATOM      4  C   UNL     1      -2.926   4.025  -2.402  1.00  0.00     0.242 C 
ATOM      5  O   UNL     1      -3.780   4.513  -3.211  1.00  0.00    -0.273 OA
ATOM      6  H   UNL     1      -4.192   2.603  -0.923  1.00  0.00     0.163 HD
BRANCH   4   7
ATOM      7  C   UNL     1      -1.536   4.973  -2.643  1.00  0.00     0.171 C 
BRANCH   7   8
ATOM      8  N   UNL     1      -0.396   4.511  -3.470  1.00  0.00    -0.344 N 
ATOM      9  C   UNL     1      -0.342   3.726  -4.590  1.00  0.00     0.220 C 
ATOM     10  O   UNL     1       0.775   3.518  -5.072  1.00  0.00    -0.275 OA
ATOM     11  H   UNL     1       0.482   4.825  -3.157  1.00  0.00     0.164 HD
BRANCH   9  12
ATOM     12  C   UNL     1      -1.576   3.040  -5.174  1.00  0.00     0.105 C 
BRANCH  12  13
ATOM     13  C   UNL     1      -2.084   1.765  -4.457  1.00  0.00     0.053 C 
BRANCH  13  14
ATOM     14  C   UNL     1      -2.444   2.079  -3.035  1.00  0.00     0.042 A 
ATOM     15  C   UNL     1       0.672   4.568   3.843  1.00  0.00     0.048 C 
ATOM     16  C   UNL     1      -0.569   5.233   3.369  1.00  0.00    -0.005 A 
ATOM     17  C   UNL     1      -1.586   5.827   4.122  1.00  0.00     0.199 A 
ATOM     18  C   UNL     1      -1.030   5.162   2.033  1.00  0.00     0.024 A 
ATOM     19  O   UNL     1      -2.752   6.187   3.489  1.00  0.00    -0.464 OA
ATOM     20  C   UNL     1      -2.671   5.803   2.176  1.00  0.00     0.140 A 
ATOM     21  C   UNL     1      -0.507   4.209   0.599  1.00  0.00     0.024 A 
ATOM     22  C   UNL     1      -3.972   5.467   0.971  1.00  0.00     0.036 A 
ATOM     23  C   UNL     1      -1.715   3.751  -0.616  1.00  0.00     0.022 A 
ATOM     24  C   UNL     1      -5.375   5.941   1.141  1.00  0.00     0.052 C 
ATOM     25  C   UNL     1      -3.491   4.478  -0.445  1.00  0.00     0.145 A 
ATOM     26  C   UNL     1      -1.327   2.541  -2.038  1.00  0.00    -0.030 A 
ATOM     27  O   UNL     1      -4.723   3.659  -1.520  1.00  0.00    -0.422 OA
ATOM     28  C   UNL     1       0.110   2.064  -2.080  1.00  0.00     0.046 C 
ATOM     29  C   UNL     1      -4.350   2.456  -2.844  1.00  0.00     0.339 A 
ATOM     30  O   UNL     1      -5.252   1.905  -3.462  1.00  0.00    -0.246 OA
ENDBRANCH  13  14
ENDBRANCH  12  13
ENDBRANCH   9  12
ENDBRANCH   7   8
BRANCH   7  31
ATOM     31  C   UNL     1      -1.076   5.833  -1.415  1.00  0.00     0.038 C 
BRANCH  31  32
ATOM     32  C   UNL     1      -1.932   5.752   0.147  1.00  0.00    -0.015 C 
ATOM     33  C   UNL     1      -2.499   3.982   1.266  1.00  0.00     0.007 C 
ATOM     34  C   UNL     1      -1.267   7.255   0.723  1.00  0.00     0.007 C 
ENDBRANCH  31  32
ENDBRANCH   7  31
ENDBRANCH   4   7
ENDBRANCH   2   3
ENDBRANCH   1   2
BRANCH   1  35
ATOM     35  C   UNL     1      -3.772  -0.312   1.346  1.00  0.00     0.002 C 
BRANCH  35  36
ATOM     36  C   UNL     1      -3.041  -1.599   0.982  1.00  0.00     0.002 C 
BRANCH  36  37
ATOM     37  C   UNL     1      -1.654  -1.807   1.609  1.00  0.00     0.021 C 
BRANCH  37  38
ATOM     38  C   UNL     1      -1.594  -1.592   3.113  1.00  0.00     0.116 C 
BRANCH  38  39
ATOM     39  N   UNL     1      -2.542  -2.434   3.830  1.00  0.00    -0.352 N 
ATOM     40  C   UNL     1      -2.604  -2.684   5.179  1.00  0.00     0.251 C 
ATOM     41  H   UNL     1      -3.224  -2.881   3.278  1.00  0.00     0.163 HD
ATOM     42  O   UNL     1      -3.193  -3.667   5.614  1.00  0.00    -0.269 OA
BRANCH  40  43
ATOM     43  C   UNL     1      -1.992  -1.719   6.104  1.00  0.00     0.039 A 
ATOM     44  C   UNL     1      -1.371  -2.144   7.281  1.00  0.00     0.014 A 
ATOM     45  C   UNL     1      -2.101  -0.361   5.800  1.00  0.00     0.014 A 
ATOM     46  C   UNL     1      -0.859  -1.185   8.145  1.00  0.00     0.010 A 
ATOM     47  C   UNL     1      -1.464   0.572   6.570  1.00  0.00     0.010 A 
ATOM     48  C   UNL     1      -0.923   0.171   7.782  1.00  0.00    -0.014 A 
BRANCH  48  49
ATOM     49  C   UNL     1      -0.293   1.199   8.593  1.00  0.00     0.031 A 
ATOM     50  C   UNL     1       1.164   0.973   8.763  1.00  0.00     0.074 A 
ATOM     51  C   UNL     1      -0.940   2.327   8.965  1.00  0.00     0.049 A 
ATOM     52  N   UNL     1       1.782   0.698   9.860  1.00  0.00    -0.248 NA
ATOM     53  C   UNL     1       2.007   0.847   7.559  1.00  0.00     0.031 C 
ATOM     54  C   UNL     1      -2.300   2.758   8.624  1.00  0.00     0.029 A 
ATOM     55  N   UNL     1      -0.468   3.387   9.681  1.00  0.00    -0.354 N 
ATOM     56  C   UNL     1       3.125   0.576   9.522  1.00  0.00     0.074 A 
ATOM     57  C   UNL     1       3.178   0.485   8.088  1.00  0.00     0.031 C 
ATOM     58  C   UNL     1      -2.460   4.066   8.932  1.00  0.00     0.029 A 
ATOM     59  C   UNL     1      -1.277   4.527   9.633  1.00  0.00     0.049 A 
ATOM     60  H   UNL     1       0.374   3.354  10.190  1.00  0.00     0.167 HD
ATOM     61  C   UNL     1       4.089   0.829  10.448  1.00  0.00     0.037 A 
ATOM     62  C   UNL     1      -0.953   5.759  10.114  1.00  0.00     0.037 A 
ATOM     63  C   UNL     1       3.538   0.792  11.780  1.00  0.00     0.049 A 
ATOM     64  C   UNL     1       0.140   5.559  11.102  1.00  0.00     0.074 A 
ATOM     65  C   UNL     1       2.919  -0.186  12.534  1.00  0.00     0.029 A 
ATOM     66  N   UNL     1       3.195   1.989  12.360  1.00  0.00    -0.354 N 
ATOM     67  N   UNL     1      -0.037   4.933  12.234  1.00  0.00    -0.248 NA
ATOM     68  C   UNL     1       1.503   5.567  10.589  1.00  0.00     0.031 C 
ATOM     69  C   UNL     1       1.855   0.485  13.204  1.00  0.00     0.029 A 
ATOM     70  C   UNL     1       1.945   1.846  12.909  1.00  0.00     0.049 A 
ATOM     71  H   UNL     1       3.746   2.804  12.379  1.00  0.00     0.167 HD
ATOM     72  C   UNL     1       1.070   4.107  12.351  1.00  0.00     0.074 A 
ATOM     73  C   UNL     1       2.004   4.569  11.323  1.00  0.00     0.031 C 
ATOM     74  C   UNL     1       1.006   2.934  13.046  1.00  0.00     0.037 A 
BRANCH  61  75
ATOM     75  C   UNL     1       5.404   1.495  10.141  1.00  0.00     0.064 A 
ATOM     76  C   UNL     1       6.372   1.597  11.159  1.00  0.00     0.173 A 
ATOM     77  C   UNL     1       5.631   2.298   9.002  1.00  0.00     0.173 A 
ATOM     78  F   UNL     1       6.242   0.898  12.297  1.00  0.00    -0.203 F 
ATOM     79  C   UNL     1       7.442   2.490  11.072  1.00  0.00     0.198 A 
ATOM     80  C   UNL     1       6.728   3.148   8.896  1.00  0.00     0.198 A 
ATOM     81  F   UNL     1       4.749   2.384   7.999  1.00  0.00    -0.203 F 
ATOM     82  F   UNL     1       8.265   2.644  12.117  1.00  0.00    -0.200 F 
ATOM     83  C   UNL     1       7.617   3.268   9.942  1.00  0.00     0.200 A 
ATOM     84  F   UNL     1       6.864   3.913   7.803  1.00  0.00    -0.200 F 
ATOM     85  F   UNL     1       8.607   4.168   9.880  1.00  0.00    -0.200 F 
ENDBRANCH  61  75
BRANCH  62  86
ATOM     86  C   UNL     1      -1.255   7.092   9.527  1.00  0.00     0.064 A 
ATOM     87  C   UNL     1      -1.090   8.286  10.251  1.00  0.00     0.173 A 
ATOM     88  C   UNL     1      -1.431   7.235   8.139  1.00  0.00     0.173 A 
ATOM     89  F   UNL     1      -0.853   8.246  11.569  1.00  0.00    -0.203 F 
ATOM     90  C   UNL     1      -1.093   9.539   9.619  1.00  0.00     0.198 A 
ATOM     91  C   UNL     1      -1.434   8.481   7.508  1.00  0.00     0.198 A 
ATOM     92  F   UNL     1      -1.499   6.152   7.357  1.00  0.00    -0.203 F 
ATOM     93  F   UNL     1      -0.877  10.652  10.335  1.00  0.00    -0.200 F 
ATOM     94  C   UNL     1      -1.256   9.635   8.247  1.00  0.00     0.200 A 
ATOM     95  F   UNL     1      -1.538   8.549   6.173  1.00  0.00    -0.200 F 
ATOM     96  F   UNL     1      -1.194  10.825   7.633  1.00  0.00    -0.200 F 
ENDBRANCH  62  86
BRANCH  74  97
ATOM     97  C   UNL     1      -0.230   2.648  13.856  1.00  0.00     0.064 A 
ATOM     98  C   UNL     1      -1.509   2.444  13.306  1.00  0.00     0.173 A 
ATOM     99  C   UNL     1      -0.067   2.369  15.219  1.00  0.00     0.173 A 
ATOM    100  F   UNL     1      -1.729   2.602  11.995  1.00  0.00    -0.203 F 
ATOM    101  C   UNL     1      -2.573   1.997  14.090  1.00  0.00     0.198 A 
ATOM    102  C   UNL     1      -1.121   1.889  15.992  1.00  0.00     0.198 A 
ATOM    103  F   UNL     1       1.142   2.496  15.787  1.00  0.00    -0.203 F 
ATOM    104  F   UNL     1      -3.780   1.800  13.539  1.00  0.00    -0.200 F 
ATOM    105  C   UNL     1      -2.374   1.707  15.430  1.00  0.00     0.200 A 
ATOM    106  F   UNL     1      -0.908   1.562  17.273  1.00  0.00    -0.200 F 
ATOM    107  F   UNL     1      -3.380   1.224  16.172  1.00  0.00    -0.200 F 
ENDBRANCH  74  97
ENDBRANCH  48  49
ENDBRANCH  40  43
ENDBRANCH  38  39
ENDBRANCH  37  38
ENDBRANCH  36  37
ENDBRANCH  35  36
ENDBRANCH   1  35
TORSDOF 19
