REMARK SMILES C[C@@H]1[C@H](C)CC[C@@H]1NC(=O)N1CCO[C@H](CC(=O)NCCCCCCNC(=O)c2ccc(-c3c4nc(c(-c5c(F)c(F)c(F)c(F)c5F)c5ccc([nH]5)c(-c5c(F)c(F)c(F)c(F)c5F)c5nc(c(-c6c(F)c(F)c(F)c(F)c6F)c6ccc3[nH]6)C=C5)C=C4)cc2)C1
REMARK SMILES IDX 22 1 21 2 20 3 19 4 17 5 18 6 16 8 15 9 11 10 12 11 92 12
REMARK SMILES IDX 13 13 14 14 9 15 8 16 10 18 7 19 1 20 2 21 3 22 4 23 5 24
REMARK SMILES IDX 6 25 23 26 24 27 25 28 26 29 27 30 28 32 29 33 30 34 91 35
REMARK SMILES IDX 31 36 90 37 32 38 33 39 34 40 84 41 35 42 89 43 83 44 85 45
REMARK SMILES IDX 36 46 88 47 82 48 81 49 37 51 69 52 49 53 68 54 50 55 53 56
REMARK SMILES IDX 67 57 86 58 51 59 52 60 66 62 87 63 54 64 38 65 39 66 47 67
REMARK SMILES IDX 40 68 41 69 45 70 48 71 42 72 43 73 46 74 44 75 70 76 71 77
REMARK SMILES IDX 79 78 72 79 73 80 77 81 80 82 74 83 75 84 78 85 76 86 55 87
REMARK SMILES IDX 56 88 64 89 57 90 58 91 62 92 65 93 59 94 60 95 63 96 61 97
REMARK H PARENT 19 7 8 17 26 31 85 50 53 61
REMARK Flexibility Score: inf
ROOT
ATOM      1  C   UNL     1       0.175   0.927  -6.862  1.00  0.00     0.002 C 
ENDROOT
BRANCH   1   2
ATOM      2  C   UNL     1      -0.554   1.276  -5.560  1.00  0.00     0.021 C 
BRANCH   2   3
ATOM      3  C   UNL     1      -1.157   0.077  -4.831  1.00  0.00     0.116 C 
BRANCH   3   4
ATOM      4  N   UNL     1      -0.201  -0.994  -4.645  1.00  0.00    -0.356 N 
ATOM      5  C   UNL     1       0.544  -1.287  -3.550  1.00  0.00     0.222 C 
ATOM      6  O   UNL     1       1.365  -2.199  -3.602  1.00  0.00    -0.275 OA
ATOM      7  H   UNL     1      -0.074  -1.590  -5.418  1.00  0.00     0.163 HD
BRANCH   5   8
ATOM      8  C   UNL     1       0.367  -0.448  -2.321  1.00  0.00     0.133 C 
BRANCH   8   9
ATOM      9  C   UNL     1       1.310   0.759  -2.404  1.00  0.00     0.147 C 
ATOM     10  N   UNL     1       2.249   0.307  -0.199  1.00  0.00    -0.320 N 
ATOM     11  C   UNL     1       1.533   1.470   0.330  1.00  0.00     0.150 C 
ATOM     12  C   UNL     1       2.587   0.497  -1.608  1.00  0.00     0.154 C 
ATOM     13  C   UNL     1       0.369   1.953  -0.560  1.00  0.00     0.182 C 
ATOM     14  O   UNL     1       0.684   1.979  -1.955  1.00  0.00    -0.374 OA
BRANCH  10  15
ATOM     15  C   UNL     1       3.068  -0.526   0.496  1.00  0.00     0.317 C 
ATOM     16  N   UNL     1       2.733  -1.192   1.610  1.00  0.00    -0.335 N 
ATOM     17  H   UNL     1       3.544  -1.355   2.144  1.00  0.00     0.165 HD
ATOM     18  O   UNL     1       4.216  -0.756   0.096  1.00  0.00    -0.249 OA
BRANCH  16  19
ATOM     19  C   UNL     1       1.568  -1.767   2.314  1.00  0.00     0.087 C 
ATOM     20  C   UNL     1      -0.520  -0.473   1.571  1.00  0.00     0.010 C 
ATOM     21  C   UNL     1       0.410  -0.862   2.697  1.00  0.00     0.011 C 
ATOM     22  C   UNL     1       1.010   0.051   3.800  1.00  0.00    -0.009 C 
ATOM     23  C   UNL     1       2.207   1.000   3.585  1.00  0.00     0.008 C 
ATOM     24  C   UNL     1       1.553  -1.073   4.713  1.00  0.00     0.006 C 
ATOM     25  C   UNL     1       2.005  -2.200   3.747  1.00  0.00     0.025 C 
ENDBRANCH  16  19
ENDBRANCH  10  15
ENDBRANCH   8   9
ENDBRANCH   5   8
ENDBRANCH   3   4
ENDBRANCH   2   3
ENDBRANCH   1   2
BRANCH   1  26
ATOM     26  C   UNL     1      -0.608   0.031  -7.825  1.00  0.00     0.002 C 
BRANCH  26  27
ATOM     27  C   UNL     1      -2.016   0.519  -8.163  1.00  0.00     0.021 C 
BRANCH  27  28
ATOM     28  C   UNL     1      -2.071   1.936  -8.709  1.00  0.00     0.116 C 
BRANCH  28  29
ATOM     29  N   UNL     1      -1.339   2.059  -9.955  1.00  0.00    -0.352 N 
ATOM     30  C   UNL     1      -1.765   2.576 -11.150  1.00  0.00     0.251 C 
ATOM     31  H   UNL     1      -0.413   1.727  -9.940  1.00  0.00     0.163 HD
ATOM     32  O   UNL     1      -1.107   2.408 -12.169  1.00  0.00    -0.269 OA
BRANCH  30  33
ATOM     33  C   UNL     1      -3.034   3.329 -11.203  1.00  0.00     0.039 A 
ATOM     34  C   UNL     1      -3.904   3.102 -12.270  1.00  0.00     0.014 A 
ATOM     35  C   UNL     1      -3.354   4.267 -10.215  1.00  0.00     0.014 A 
ATOM     36  C   UNL     1      -5.108   3.802 -12.335  1.00  0.00     0.010 A 
ATOM     37  C   UNL     1      -4.592   4.900 -10.235  1.00  0.00     0.010 A 
ATOM     38  C   UNL     1      -5.467   4.694 -11.311  1.00  0.00    -0.014 A 
BRANCH  38  39
ATOM     39  C   UNL     1      -6.738   5.453 -11.384  1.00  0.00     0.031 A 
ATOM     40  C   UNL     1      -6.713   6.948 -11.533  1.00  0.00     0.074 A 
ATOM     41  C   UNL     1      -7.909   4.795 -11.299  1.00  0.00     0.049 A 
ATOM     42  N   UNL     1      -7.713   7.787 -11.639  1.00  0.00    -0.248 NA
ATOM     43  C   UNL     1      -5.390   7.593 -11.538  1.00  0.00     0.031 C 
ATOM     44  C   UNL     1      -8.055   3.353 -11.104  1.00  0.00     0.029 A 
ATOM     45  N   UNL     1      -9.199   5.254 -11.377  1.00  0.00    -0.354 N 
ATOM     46  C   UNL     1      -7.140   9.049 -11.719  1.00  0.00     0.074 A 
ATOM     47  C   UNL     1      -5.712   8.876 -11.577  1.00  0.00     0.031 C 
ATOM     48  C   UNL     1      -9.360   3.038 -11.120  1.00  0.00     0.029 A 
ATOM     49  C   UNL     1     -10.141   4.258 -11.297  1.00  0.00     0.049 A 
ATOM     50  H   UNL     1      -9.428   6.206 -11.479  1.00  0.00     0.167 HD
ATOM     51  C   UNL     1      -7.747  10.242 -11.926  1.00  0.00     0.037 A 
ATOM     52  C   UNL     1     -11.483   4.325 -11.371  1.00  0.00     0.037 A 
ATOM     53  C   UNL     1      -9.168  10.403 -12.085  1.00  0.00     0.049 A 
ATOM     54  C   UNL     1     -12.135   5.663 -11.595  1.00  0.00     0.074 A 
ATOM     55  C   UNL     1      -9.884  11.559 -12.340  1.00  0.00     0.029 A 
ATOM     56  N   UNL     1     -10.091   9.370 -11.999  1.00  0.00    -0.354 N 
ATOM     57  N   UNL     1     -11.580   6.841 -11.740  1.00  0.00    -0.248 NA
ATOM     58  C   UNL     1     -13.602   5.675 -11.676  1.00  0.00     0.031 C 
ATOM     59  C   UNL     1     -11.245  11.233 -12.363  1.00  0.00     0.029 A 
ATOM     60  C   UNL     1     -11.373   9.865 -12.178  1.00  0.00     0.049 A 
ATOM     61  H   UNL     1      -9.868   8.425 -11.835  1.00  0.00     0.167 HD
ATOM     62  C   UNL     1     -12.623   7.730 -11.965  1.00  0.00     0.074 A 
ATOM     63  C   UNL     1     -13.844   6.950 -11.947  1.00  0.00     0.031 C 
ATOM     64  C   UNL     1     -12.575   9.069 -12.169  1.00  0.00     0.037 A 
BRANCH  51  65
ATOM     65  C   UNL     1      -6.870  11.460 -11.997  1.00  0.00     0.064 A 
ATOM     66  C   UNL     1      -5.979  11.665 -13.062  1.00  0.00     0.173 A 
ATOM     67  C   UNL     1      -6.929  12.441 -10.996  1.00  0.00     0.173 A 
ATOM     68  F   UNL     1      -5.874  10.751 -14.040  1.00  0.00    -0.203 F 
ATOM     69  C   UNL     1      -5.154  12.785 -13.103  1.00  0.00     0.198 A 
ATOM     70  C   UNL     1      -6.126  13.577 -11.057  1.00  0.00     0.198 A 
ATOM     71  F   UNL     1      -7.765  12.299  -9.957  1.00  0.00    -0.203 F 
ATOM     72  F   UNL     1      -4.268  12.927 -14.099  1.00  0.00    -0.200 F 
ATOM     73  C   UNL     1      -5.232  13.743 -12.104  1.00  0.00     0.200 A 
ATOM     74  F   UNL     1      -6.212  14.509 -10.098  1.00  0.00    -0.200 F 
ATOM     75  F   UNL     1      -4.439  14.823 -12.146  1.00  0.00    -0.200 F 
ENDBRANCH  51  65
BRANCH  52  76
ATOM     76  C   UNL     1     -12.292   3.082 -11.289  1.00  0.00     0.064 A 
ATOM     77  C   UNL     1     -12.968   2.590 -12.414  1.00  0.00     0.173 A 
ATOM     78  C   UNL     1     -12.401   2.357 -10.094  1.00  0.00     0.173 A 
ATOM     79  F   UNL     1     -12.908   3.257 -13.576  1.00  0.00    -0.203 F 
ATOM     80  C   UNL     1     -13.737   1.430 -12.342  1.00  0.00     0.198 A 
ATOM     81  C   UNL     1     -13.147   1.182 -10.030  1.00  0.00     0.198 A 
ATOM     82  F   UNL     1     -11.767   2.781  -8.990  1.00  0.00    -0.203 F 
ATOM     83  F   UNL     1     -14.406   1.005 -13.423  1.00  0.00    -0.200 F 
ATOM     84  C   UNL     1     -13.821   0.724 -11.152  1.00  0.00     0.200 A 
ATOM     85  F   UNL     1     -13.213   0.494  -8.882  1.00  0.00    -0.200 F 
ATOM     86  F   UNL     1     -14.556  -0.395 -11.085  1.00  0.00    -0.200 F 
ENDBRANCH  52  76
BRANCH  64  87
ATOM     87  C   UNL     1     -13.875   9.770 -12.436  1.00  0.00     0.064 A 
ATOM     88  C   UNL     1     -14.833   9.960 -11.430  1.00  0.00     0.173 A 
ATOM     89  C   UNL     1     -14.149  10.290 -13.711  1.00  0.00     0.173 A 
ATOM     90  F   UNL     1     -14.625   9.470 -10.198  1.00  0.00    -0.203 F 
ATOM     91  C   UNL     1     -16.030  10.620 -11.697  1.00  0.00     0.198 A 
ATOM     92  C   UNL     1     -15.332  10.977 -13.966  1.00  0.00     0.198 A 
ATOM     93  F   UNL     1     -13.262  10.142 -14.707  1.00  0.00    -0.203 F 
ATOM     94  F   UNL     1     -16.953  10.744 -10.734  1.00  0.00    -0.200 F 
ATOM     95  C   UNL     1     -16.275  11.133 -12.962  1.00  0.00     0.200 A 
ATOM     96  F   UNL     1     -15.560  11.485 -15.185  1.00  0.00    -0.200 F 
ATOM     97  F   UNL     1     -17.425  11.773 -13.216  1.00  0.00    -0.200 F 
ENDBRANCH  64  87
ENDBRANCH  38  39
ENDBRANCH  30  33
ENDBRANCH  28  29
ENDBRANCH  27  28
ENDBRANCH  26  27
ENDBRANCH   1  26
TORSDOF 16
