REMARK SMILES O=C(NCCCCCCNC(=O)[C@@H]1CCCC[N@H+]1Cc1cc(F)cc(Br)c1)c1ccc(-c2c3nc(c(-c4c(F)c(F)c(F)c(F)c4F)c4ccc([nH]4)c(-c4c(F)c(F)c(F)c(F)c4F)c4nc(c(-c5c(F)c(F)c(F)c(F)c5F)c5ccc2[nH]5)C=C4)C=C3)cc1
REMARK SMILES IDX 6 1 5 2 4 3 3 4 1 5 2 6 28 8 29 9 90 10 30 11 89 12 31 13
REMARK SMILES IDX 32 14 33 15 83 16 34 17 88 18 82 19 84 20 35 21 87 22 81 23
REMARK SMILES IDX 80 24 36 26 68 27 48 28 67 29 49 30 52 31 66 32 85 33 50 34
REMARK SMILES IDX 51 35 65 37 86 38 53 39 37 40 38 41 46 42 39 43 40 44 44 45
REMARK SMILES IDX 47 46 41 47 42 48 45 49 43 50 69 51 70 52 78 53 71 54 72 55
REMARK SMILES IDX 76 56 79 57 73 58 74 59 77 60 75 61 54 62 55 63 63 64 56 65
REMARK SMILES IDX 57 66 61 67 64 68 58 69 59 70 62 71 60 72 7 73 8 74 9 75
REMARK SMILES IDX 10 76 11 77 12 79 13 80 14 81 18 82 15 83 17 84 16 86 19 87
REMARK SMILES IDX 20 88 21 89 27 90 22 91 25 92 23 93 24 94 26 95
REMARK H PARENT 3 7 84 25 52 36 10 78 18 85
REMARK Flexibility Score: inf
ROOT
ATOM      1  C   UNL     1       3.920  -3.074  -2.252  1.00  0.00     0.002 C 
ENDROOT
BRANCH   1   2
ATOM      2  C   UNL     1       4.332  -2.484  -0.904  1.00  0.00     0.021 C 
BRANCH   2   3
ATOM      3  C   UNL     1       4.236  -0.966  -0.822  1.00  0.00     0.116 C 
BRANCH   3   4
ATOM      4  N   UNL     1       2.861  -0.494  -0.871  1.00  0.00    -0.352 N 
ATOM      5  O   UNL     1       0.971   0.446  -0.061  1.00  0.00    -0.269 OA
ATOM      6  C   UNL     1       2.182   0.280   0.038  1.00  0.00     0.251 C 
ATOM      7  H   UNL     1       2.346  -0.767  -1.665  1.00  0.00     0.163 HD
BRANCH   6   8
ATOM      8  C   UNL     1       2.922   0.894   1.161  1.00  0.00     0.039 A 
ATOM      9  C   UNL     1       4.134   1.548   0.932  1.00  0.00     0.014 A 
ATOM     10  C   UNL     1       2.406   0.798   2.456  1.00  0.00     0.014 A 
ATOM     11  C   UNL     1       4.903   1.968   2.010  1.00  0.00     0.010 A 
ATOM     12  C   UNL     1       3.140   1.304   3.532  1.00  0.00     0.010 A 
ATOM     13  C   UNL     1       4.412   1.859   3.322  1.00  0.00    -0.014 A 
BRANCH  13  14
ATOM     14  C   UNL     1       5.234   2.375   4.446  1.00  0.00     0.031 A 
ATOM     15  C   UNL     1       5.780   1.455   5.502  1.00  0.00     0.074 A 
ATOM     16  C   UNL     1       5.523   3.691   4.481  1.00  0.00     0.049 A 
ATOM     17  N   UNL     1       6.556   1.735   6.520  1.00  0.00    -0.248 NA
ATOM     18  C   UNL     1       5.400   0.037   5.413  1.00  0.00     0.031 C 
ATOM     19  C   UNL     1       5.037   4.682   3.519  1.00  0.00     0.029 A 
ATOM     20  N   UNL     1       6.310   4.416   5.337  1.00  0.00    -0.354 N 
ATOM     21  C   UNL     1       6.734   0.541   7.205  1.00  0.00     0.074 A 
ATOM     22  C   UNL     1       5.970  -0.466   6.500  1.00  0.00     0.031 C 
ATOM     23  C   UNL     1       5.584   5.873   3.801  1.00  0.00     0.029 A 
ATOM     24  C   UNL     1       6.409   5.743   4.997  1.00  0.00     0.049 A 
ATOM     25  H   UNL     1       6.761   4.024   6.120  1.00  0.00     0.167 HD
ATOM     26  C   UNL     1       7.475   0.307   8.316  1.00  0.00     0.037 A 
ATOM     27  C   UNL     1       7.083   6.747   5.586  1.00  0.00     0.037 A 
ATOM     28  C   UNL     1       8.256   1.309   8.997  1.00  0.00     0.049 A 
ATOM     29  C   UNL     1       7.892   6.457   6.817  1.00  0.00     0.074 A 
ATOM     30  C   UNL     1       9.080   1.160  10.100  1.00  0.00     0.029 A 
ATOM     31  N   UNL     1       8.306   2.650   8.642  1.00  0.00    -0.354 N 
ATOM     32  N   UNL     1       8.088   5.315   7.428  1.00  0.00    -0.248 NA
ATOM     33  C   UNL     1       8.570   7.600   7.442  1.00  0.00     0.031 C 
ATOM     34  C   UNL     1       9.591   2.418  10.439  1.00  0.00     0.029 A 
ATOM     35  C   UNL     1       9.128   3.342   9.518  1.00  0.00     0.049 A 
ATOM     36  H   UNL     1       7.829   3.050   7.879  1.00  0.00     0.167 HD
ATOM     37  C   UNL     1       8.928   5.595   8.496  1.00  0.00     0.074 A 
ATOM     38  C   UNL     1       9.219   7.013   8.437  1.00  0.00     0.031 C 
ATOM     39  C   UNL     1       9.411   4.753   9.443  1.00  0.00     0.037 A 
BRANCH  26  40
ATOM     40  C   UNL     1       7.462  -1.083   8.885  1.00  0.00     0.064 A 
ATOM     41  C   UNL     1       8.111  -2.151   8.248  1.00  0.00     0.173 A 
ATOM     42  C   UNL     1       6.829  -1.340  10.111  1.00  0.00     0.173 A 
ATOM     43  F   UNL     1       8.724  -1.962   7.069  1.00  0.00    -0.203 F 
ATOM     44  C   UNL     1       8.105  -3.429   8.803  1.00  0.00     0.198 A 
ATOM     45  C   UNL     1       6.848  -2.613  10.677  1.00  0.00     0.198 A 
ATOM     46  F   UNL     1       6.199  -0.354  10.767  1.00  0.00    -0.203 F 
ATOM     47  F   UNL     1       8.695  -4.442   8.155  1.00  0.00    -0.200 F 
ATOM     48  C   UNL     1       7.479  -3.657  10.020  1.00  0.00     0.200 A 
ATOM     49  F   UNL     1       6.253  -2.828  11.859  1.00  0.00    -0.200 F 
ATOM     50  F   UNL     1       7.481  -4.885  10.556  1.00  0.00    -0.200 F 
ENDBRANCH  26  40
BRANCH  27  51
ATOM     51  C   UNL     1       7.032   8.111   5.003  1.00  0.00     0.064 A 
ATOM     52  C   UNL     1       8.164   8.679   4.402  1.00  0.00     0.173 A 
ATOM     53  C   UNL     1       5.851   8.867   5.019  1.00  0.00     0.173 A 
ATOM     54  F   UNL     1       9.321   8.001   4.379  1.00  0.00    -0.203 F 
ATOM     55  C   UNL     1       8.120   9.958   3.852  1.00  0.00     0.198 A 
ATOM     56  C   UNL     1       5.800  10.133   4.441  1.00  0.00     0.198 A 
ATOM     57  F   UNL     1       4.739   8.365   5.576  1.00  0.00    -0.203 F 
ATOM     58  F   UNL     1       9.226  10.494   3.318  1.00  0.00    -0.200 F 
ATOM     59  C   UNL     1       6.936  10.681   3.865  1.00  0.00     0.200 A 
ATOM     60  F   UNL     1       4.650  10.821   4.441  1.00  0.00    -0.200 F 
ATOM     61  F   UNL     1       6.892  11.907   3.327  1.00  0.00    -0.200 F 
ENDBRANCH  27  51
BRANCH  39  62
ATOM     62  C   UNL     1      10.334   5.343  10.468  1.00  0.00     0.064 A 
ATOM     63  C   UNL     1       9.865   6.199  11.475  1.00  0.00     0.173 A 
ATOM     64  C   UNL     1      11.703   5.036  10.449  1.00  0.00     0.173 A 
ATOM     65  F   UNL     1       8.568   6.537  11.524  1.00  0.00    -0.203 F 
ATOM     66  C   UNL     1      10.739   6.752  12.407  1.00  0.00     0.198 A 
ATOM     67  C   UNL     1      12.569   5.567  11.401  1.00  0.00     0.198 A 
ATOM     68  F   UNL     1      12.200   4.218   9.509  1.00  0.00    -0.203 F 
ATOM     69  F   UNL     1      10.279   7.612  13.326  1.00  0.00    -0.200 F 
ATOM     70  C   UNL     1      12.088   6.432  12.373  1.00  0.00     0.200 A 
ATOM     71  F   UNL     1      13.870   5.248  11.373  1.00  0.00    -0.200 F 
ATOM     72  F   UNL     1      12.928   6.965  13.271  1.00  0.00    -0.200 F 
ENDBRANCH  39  62
ENDBRANCH  13  14
ENDBRANCH   6   8
ENDBRANCH   3   4
ENDBRANCH   2   3
ENDBRANCH   1   2
BRANCH   1  73
ATOM     73  C   UNL     1       4.677  -2.516  -3.461  1.00  0.00     0.002 C 
BRANCH  73  74
ATOM     74  C   UNL     1       6.206  -2.547  -3.341  1.00  0.00     0.021 C 
BRANCH  74  75
ATOM     75  C   UNL     1       6.799  -3.948  -3.180  1.00  0.00     0.116 C 
BRANCH  75  76
ATOM     76  N   UNL     1       6.585  -4.751  -4.369  1.00  0.00    -0.351 N 
ATOM     77  C   UNL     1       7.466  -5.156  -5.329  1.00  0.00     0.278 C 
ATOM     78  H   UNL     1       5.657  -5.051  -4.505  1.00  0.00     0.163 HD
ATOM     79  O   UNL     1       7.002  -5.731  -6.320  1.00  0.00    -0.268 OA
BRANCH  77  80
ATOM     80  C   UNL     1       8.991  -4.973  -5.178  1.00  0.00     0.274 C 
ATOM     81  C   UNL     1       9.485  -5.993  -4.138  1.00  0.00     0.076 C 
ATOM     82  N   UNL     1       9.378  -3.580  -4.852  1.00  0.00    -0.321 N 
ATOM     83  C   UNL     1      10.978  -5.850  -3.883  1.00  0.00     0.012 C 
ATOM     84  C   UNL     1      10.814  -3.440  -4.586  1.00  0.00     0.263 C 
ATOM     85  H   UNL     1       8.894  -3.379  -3.977  1.00  0.00     0.349 HD
ATOM     86  C   UNL     1      11.298  -4.410  -3.506  1.00  0.00     0.062 C 
BRANCH  82  87
ATOM     87  C   UNL     1       8.871  -2.563  -5.791  1.00  0.00     0.299 C 
BRANCH  87  88
ATOM     88  C   UNL     1       9.550  -2.436  -7.135  1.00  0.00     0.010 A 
ATOM     89  C   UNL     1       9.292  -3.347  -8.168  1.00  0.00     0.048 A 
ATOM     90  C   UNL     1      10.413  -1.357  -7.389  1.00  0.00     0.025 A 
ATOM     91  C   UNL     1       9.906  -3.190  -9.407  1.00  0.00     0.124 A 
ATOM     92  C   UNL     1      11.005  -1.206  -8.645  1.00  0.00     0.021 A 
ATOM     93  F   UNL     1       9.658  -4.077 -10.379  1.00  0.00    -0.207 F 
ATOM     94  C   UNL     1      10.761  -2.126  -9.658  1.00  0.00     0.055 A 
ATOM     95  Br  UNL     1      12.135   0.274  -8.973  1.00  0.00    -0.051 Br
ENDBRANCH  87  88
ENDBRANCH  82  87
ENDBRANCH  77  80
ENDBRANCH  75  76
ENDBRANCH  74  75
ENDBRANCH  73  74
ENDBRANCH   1  73
TORSDOF 15
