REMARK SMILES CC(C)(C)C(=O)NCCC(=O)N1C[C@@H](O)C[C@@H]1C(=O)NCCCCCCNC(=O)c1ccc(-c2c3nc(c(-c4c(F)c(F)c(F)c(F)c4F)c4ccc([nH]4)c(-c4c(F)c(F)c(F)c(F)c4F)c4nc(c(-c5c(F)c(F)c(F)c(F)c5F)c5ccc2[nH]5)C=C4)C=C3)cc1
REMARK SMILES IDX 22 1 21 2 20 3 18 4 19 5 17 7 12 8 13 9 14 10 16 11 10 12
REMARK SMILES IDX 11 13 9 14 8 15 7 16 5 17 6 18 2 20 1 21 3 22 4 23 15 24
REMARK SMILES IDX 23 26 24 27 25 28 26 29 27 30 28 31 29 33 30 34 31 35 92 36
REMARK SMILES IDX 32 37 91 38 33 39 34 40 35 41 85 42 36 43 90 44 84 45 86 46
REMARK SMILES IDX 37 47 89 48 83 49 82 50 38 52 70 53 50 54 69 55 51 56 54 57
REMARK SMILES IDX 68 58 87 59 52 60 53 61 67 63 88 64 55 65 39 66 40 67 48 68
REMARK SMILES IDX 41 69 42 70 46 71 49 72 43 73 44 74 47 75 45 76 71 77 72 78
REMARK SMILES IDX 80 79 73 80 74 81 78 82 81 83 75 84 76 85 79 86 77 87 56 88
REMARK SMILES IDX 57 89 65 90 58 91 59 92 63 93 66 94 60 95 61 96 64 97 62 98
REMARK H PARENT 20 6 7 19 15 25 27 32 86 51 54 62
REMARK Flexibility Score: inf
ROOT
ATOM      1  C   UNL     1      -2.853   7.730  -6.804  1.00  0.00     0.021 C 
ENDROOT
BRANCH   1   2
ATOM      2  C   UNL     1      -1.902   8.066  -5.657  1.00  0.00     0.116 C 
BRANCH   2   3
ATOM      3  N   UNL     1      -2.279   7.364  -4.450  1.00  0.00    -0.354 N 
ATOM      4  C   UNL     1      -1.721   6.241  -3.915  1.00  0.00     0.242 C 
ATOM      5  O   UNL     1      -2.266   5.733  -2.932  1.00  0.00    -0.273 OA
ATOM      6  H   UNL     1      -3.035   7.747  -3.949  1.00  0.00     0.163 HD
BRANCH   4   7
ATOM      7  C   UNL     1      -0.377   5.729  -4.480  1.00  0.00     0.177 C 
ATOM      8  N   UNL     1      -0.204   4.331  -4.108  1.00  0.00    -0.328 N 
ATOM      9  C   UNL     1       0.641   4.212  -2.926  1.00  0.00     0.152 C 
ATOM     10  C   UNL     1       0.952   5.650  -2.495  1.00  0.00     0.136 C 
ATOM     11  C   UNL     1       0.767   6.455  -3.782  1.00  0.00     0.069 C 
BRANCH   8  12
ATOM     12  C   UNL     1      -0.881   3.356  -4.799  1.00  0.00     0.225 C 
ATOM     13  O   UNL     1      -1.357   3.575  -5.915  1.00  0.00    -0.275 OA
BRANCH  12  14
ATOM     14  C   UNL     1      -1.116   2.022  -4.124  1.00  0.00     0.121 C 
BRANCH  14  15
ATOM     15  C   UNL     1      -0.034   0.985  -4.385  1.00  0.00     0.125 C 
BRANCH  15  16
ATOM     16  N   UNL     1       1.121   1.155  -3.524  1.00  0.00    -0.355 N 
ATOM     17  C   UNL     1       1.348   0.845  -2.220  1.00  0.00     0.225 C 
ATOM     18  O   UNL     1       2.308   1.429  -1.704  1.00  0.00    -0.275 OA
ATOM     19  H   UNL     1       1.889   1.578  -3.971  1.00  0.00     0.163 HD
BRANCH  17  20
ATOM     20  C   UNL     1       0.543  -0.222  -1.449  1.00  0.00     0.041 C 
ATOM     21  C   UNL     1       1.044  -0.237   0.015  1.00  0.00     0.021 C 
ATOM     22  C   UNL     1       0.844  -1.594  -2.068  1.00  0.00     0.021 C 
ATOM     23  C   UNL     1      -0.967   0.024  -1.392  1.00  0.00     0.021 C 
ENDBRANCH  17  20
ENDBRANCH  15  16
ENDBRANCH  14  15
ENDBRANCH  12  14
ENDBRANCH   8  12
BRANCH  10  24
ATOM     24  O   UNL     1       2.270   5.822  -1.997  1.00  0.00    -0.391 OA
ATOM     25  H   UNL     1       2.910   5.565  -2.679  1.00  0.00     0.211 HD
ENDBRANCH  10  24
ENDBRANCH   4   7
ENDBRANCH   2   3
ENDBRANCH   1   2
BRANCH   1  26
ATOM     26  C   UNL     1      -4.298   8.195  -6.574  1.00  0.00     0.002 C 
BRANCH  26  27
ATOM     27  C   UNL     1      -4.461   9.683  -6.246  1.00  0.00     0.002 C 
BRANCH  27  28
ATOM     28  C   UNL     1      -3.824  10.645  -7.252  1.00  0.00     0.021 C 
BRANCH  28  29
ATOM     29  C   UNL     1      -4.340  10.512  -8.681  1.00  0.00     0.116 C 
BRANCH  29  30
ATOM     30  N   UNL     1      -5.755  10.825  -8.784  1.00  0.00    -0.352 N 
ATOM     31  C   UNL     1      -6.401  11.692  -9.624  1.00  0.00     0.251 C 
ATOM     32  H   UNL     1      -6.338  10.341  -8.154  1.00  0.00     0.163 HD
ATOM     33  O   UNL     1      -7.588  11.960  -9.434  1.00  0.00    -0.269 OA
BRANCH  31  34
ATOM     34  C   UNL     1      -5.683  12.328 -10.749  1.00  0.00     0.039 A 
ATOM     35  C   UNL     1      -5.913  13.682 -11.010  1.00  0.00     0.014 A 
ATOM     36  C   UNL     1      -4.813  11.598 -11.566  1.00  0.00     0.014 A 
ATOM     37  C   UNL     1      -5.235  14.314 -12.053  1.00  0.00     0.010 A 
ATOM     38  C   UNL     1      -4.088  12.245 -12.565  1.00  0.00     0.010 A 
ATOM     39  C   UNL     1      -4.294  13.609 -12.822  1.00  0.00    -0.014 A 
BRANCH  39  40
ATOM     40  C   UNL     1      -3.513  14.297 -13.882  1.00  0.00     0.031 A 
ATOM     41  C   UNL     1      -3.691  13.924 -15.328  1.00  0.00     0.074 A 
ATOM     42  C   UNL     1      -2.605  15.229 -13.532  1.00  0.00     0.049 A 
ATOM     43  N   UNL     1      -3.085  14.405 -16.385  1.00  0.00    -0.248 NA
ATOM     44  C   UNL     1      -4.656  12.855 -15.626  1.00  0.00     0.031 C 
ATOM     45  C   UNL     1      -2.296  15.635 -12.159  1.00  0.00     0.029 A 
ATOM     46  N   UNL     1      -1.768  15.999 -14.301  1.00  0.00    -0.354 N 
ATOM     47  C   UNL     1      -3.581  13.687 -17.466  1.00  0.00     0.074 A 
ATOM     48  C   UNL     1      -4.508  12.711 -16.936  1.00  0.00     0.031 C 
ATOM     49  C   UNL     1      -1.355  16.591 -12.184  1.00  0.00     0.029 A 
ATOM     50  C   UNL     1      -0.971  16.846 -13.569  1.00  0.00     0.049 A 
ATOM     51  H   UNL     1      -1.740  15.949 -15.284  1.00  0.00     0.167 HD
ATOM     52  C   UNL     1      -3.300  13.843 -18.782  1.00  0.00     0.037 A 
ATOM     53  C   UNL     1      -0.035  17.727 -13.970  1.00  0.00     0.037 A 
ATOM     54  C   UNL     1      -2.411  14.845 -19.310  1.00  0.00     0.049 A 
ATOM     55  C   UNL     1       0.232  17.895 -15.442  1.00  0.00     0.074 A 
ATOM     56  C   UNL     1      -2.143  15.147 -20.634  1.00  0.00     0.029 A 
ATOM     57  N   UNL     1      -1.643  15.704 -18.540  1.00  0.00    -0.354 N 
ATOM     58  N   UNL     1      -0.321  17.282 -16.459  1.00  0.00    -0.248 NA
ATOM     59  C   UNL     1       1.248  18.887 -15.820  1.00  0.00     0.031 C 
ATOM     60  C   UNL     1      -1.175  16.155 -20.666  1.00  0.00     0.029 A 
ATOM     61  C   UNL     1      -0.877  16.516 -19.362  1.00  0.00     0.049 A 
ATOM     62  H   UNL     1      -1.642  15.734 -17.556  1.00  0.00     0.167 HD
ATOM     63  C   UNL     1       0.258  17.831 -17.595  1.00  0.00     0.074 A 
ATOM     64  C   UNL     1       1.190  18.843 -17.143  1.00  0.00     0.031 C 
ATOM     65  C   UNL     1       0.041  17.523 -18.897  1.00  0.00     0.037 A 
BRANCH  52  66
ATOM     66  C   UNL     1      -3.964  12.917 -19.758  1.00  0.00     0.064 A 
ATOM     67  C   UNL     1      -5.328  13.024 -20.066  1.00  0.00     0.173 A 
ATOM     68  C   UNL     1      -3.206  11.963 -20.455  1.00  0.00     0.173 A 
ATOM     69  F   UNL     1      -6.097  13.915 -19.422  1.00  0.00    -0.203 F 
ATOM     70  C   UNL     1      -5.912  12.202 -21.025  1.00  0.00     0.198 A 
ATOM     71  C   UNL     1      -3.788  11.160 -21.432  1.00  0.00     0.198 A 
ATOM     72  F   UNL     1      -1.896  11.824 -20.203  1.00  0.00    -0.203 F 
ATOM     73  F   UNL     1      -7.224  12.302 -21.282  1.00  0.00    -0.200 F 
ATOM     74  C   UNL     1      -5.141  11.278 -21.715  1.00  0.00     0.200 A 
ATOM     75  F   UNL     1      -3.039  10.277 -22.107  1.00  0.00    -0.200 F 
ATOM     76  F   UNL     1      -5.702  10.499 -22.651  1.00  0.00    -0.200 F 
ENDBRANCH  52  66
BRANCH  53  77
ATOM     77  C   UNL     1       0.712  18.535 -12.970  1.00  0.00     0.064 A 
ATOM     78  C   UNL     1       0.527  19.922 -12.879  1.00  0.00     0.173 A 
ATOM     79  C   UNL     1       1.648  17.944 -12.110  1.00  0.00     0.173 A 
ATOM     80  F   UNL     1      -0.342  20.536 -13.695  1.00  0.00    -0.203 F 
ATOM     81  C   UNL     1       1.274  20.691 -11.990  1.00  0.00     0.198 A 
ATOM     82  C   UNL     1       2.373  18.710 -11.199  1.00  0.00     0.198 A 
ATOM     83  F   UNL     1       1.859  16.620 -12.152  1.00  0.00    -0.203 F 
ATOM     84  F   UNL     1       1.121  22.022 -11.967  1.00  0.00    -0.200 F 
ATOM     85  C   UNL     1       2.194  20.084 -11.149  1.00  0.00     0.200 A 
ATOM     86  F   UNL     1       3.251  18.118 -10.378  1.00  0.00    -0.200 F 
ATOM     87  F   UNL     1       2.917  20.825 -10.297  1.00  0.00    -0.200 F 
ENDBRANCH  53  77
BRANCH  65  88
ATOM     88  C   UNL     1       0.803  18.309 -19.924  1.00  0.00     0.064 A 
ATOM     89  C   UNL     1       2.183  18.131 -20.109  1.00  0.00     0.173 A 
ATOM     90  C   UNL     1       0.143  19.233 -20.747  1.00  0.00     0.173 A 
ATOM     91  F   UNL     1       2.862  17.271 -19.336  1.00  0.00    -0.203 F 
ATOM     92  C   UNL     1       2.878  18.874 -21.059  1.00  0.00     0.198 A 
ATOM     93  C   UNL     1       0.835  19.951 -21.717  1.00  0.00     0.198 A 
ATOM     94  F   UNL     1      -1.177  19.434 -20.615  1.00  0.00    -0.203 F 
ATOM     95  F   UNL     1       4.204  18.728 -21.181  1.00  0.00    -0.200 F 
ATOM     96  C   UNL     1       2.203  19.778 -21.866  1.00  0.00     0.200 A 
ATOM     97  F   UNL     1       0.180  20.814 -22.505  1.00  0.00    -0.200 F 
ATOM     98  F   UNL     1       2.874  20.490 -22.782  1.00  0.00    -0.200 F 
ENDBRANCH  65  88
ENDBRANCH  39  40
ENDBRANCH  31  34
ENDBRANCH  29  30
ENDBRANCH  28  29
ENDBRANCH  27  28
ENDBRANCH  26  27
ENDBRANCH   1  26
TORSDOF 19
