REMARK SMILES CC1(C)CCCC[C@H]1NC(=O)Nc1ccccc1C(=O)NCCCCCCNC(=O)c1ccc(-c2c3nc(c(-c4c(F)c(F)c(F)c(F)c4F)c4ccc([nH]4)c(-c4c(F)c(F)c(F)c(F)c4F)c4nc(c(-c5c(F)c(F)c(F)c(F)c5F)c5ccc2[nH]5)C=C4)C=C3)cc1
REMARK SMILES IDX 24 1 23 2 22 3 21 4 19 5 20 6 18 8 13 9 14 10 15 11 17 12
REMARK SMILES IDX 16 13 12 14 9 15 10 16 11 18 8 20 1 21 2 22 3 23 4 24 5 25
REMARK SMILES IDX 7 26 6 27 25 28 26 29 27 30 28 31 29 32 30 34 31 35 32 36
REMARK SMILES IDX 93 37 33 38 92 39 34 40 35 41 36 42 86 43 37 44 91 45 85 46
REMARK SMILES IDX 87 47 38 48 90 49 84 50 83 51 39 53 71 54 51 55 70 56 52 57
REMARK SMILES IDX 55 58 69 59 88 60 53 61 54 62 68 64 89 65 56 66 40 67 41 68
REMARK SMILES IDX 49 69 42 70 43 71 47 72 50 73 44 74 45 75 48 76 46 77 72 78
REMARK SMILES IDX 73 79 81 80 74 81 75 82 79 83 82 84 76 85 77 86 80 87 78 88
REMARK SMILES IDX 57 89 58 90 66 91 59 92 60 93 64 94 67 95 61 96 62 97 65 98
REMARK SMILES IDX 63 99
REMARK H PARENT 21 7 9 17 12 19 28 33 87 52 55 63
REMARK Flexibility Score: inf
ROOT
ATOM      1  C   UNL     1      -5.322  -1.658  -0.945  1.00  0.00     0.002 C 
ENDROOT
BRANCH   1   2
ATOM      2  C   UNL     1      -5.697  -0.490  -0.017  1.00  0.00     0.021 C 
BRANCH   2   3
ATOM      3  C   UNL     1      -4.520   0.345   0.464  1.00  0.00     0.116 C 
BRANCH   3   4
ATOM      4  N   UNL     1      -4.111   1.378  -0.449  1.00  0.00    -0.352 N 
ATOM      5  C   UNL     1      -3.366   2.512  -0.261  1.00  0.00     0.253 C 
ATOM      6  O   UNL     1      -3.147   3.166  -1.288  1.00  0.00    -0.269 OA
ATOM      7  H   UNL     1      -4.422   1.247  -1.373  1.00  0.00     0.163 HD
BRANCH   5   8
ATOM      8  C   UNL     1      -2.869   3.060   1.051  1.00  0.00     0.063 A 
ATOM      9  C   UNL     1      -2.604   2.429   2.285  1.00  0.00     0.055 A 
ATOM     10  C   UNL     1      -2.352   3.231   3.424  1.00  0.00     0.027 A 
ATOM     11  C   UNL     1      -2.168   4.609   3.333  1.00  0.00     0.002 A 
ATOM     12  C   UNL     1      -2.651   4.464   0.991  1.00  0.00     0.016 A 
ATOM     13  C   UNL     1      -2.276   5.223   2.100  1.00  0.00     0.001 A 
BRANCH   9  14
ATOM     14  N   UNL     1      -2.445   1.060   2.578  1.00  0.00    -0.307 N 
ATOM     15  N   UNL     1      -1.043   0.129   0.904  1.00  0.00    -0.335 N 
ATOM     16  C   UNL     1      -1.876   0.011   1.951  1.00  0.00     0.319 C 
ATOM     17  H   UNL     1      -1.012  -0.650   0.302  1.00  0.00     0.165 HD
ATOM     18  O   UNL     1      -2.118  -1.119   2.383  1.00  0.00    -0.248 OA
ATOM     19  H   UNL     1      -2.843   0.811   3.443  1.00  0.00     0.171 HD
BRANCH  15  20
ATOM     20  C   UNL     1      -0.182   1.235   0.532  1.00  0.00     0.089 C 
ATOM     21  C   UNL     1       2.012  -0.112   0.382  1.00  0.00     0.013 C 
ATOM     22  C   UNL     1       1.280   1.076   1.039  1.00  0.00    -0.015 C 
ATOM     23  C   UNL     1       1.307   0.853   2.567  1.00  0.00     0.013 C 
ATOM     24  C   UNL     1       2.008   2.408   0.719  1.00  0.00     0.008 C 
ATOM     25  C   UNL     1       1.897   2.840  -0.749  1.00  0.00     0.001 C 
ATOM     26  C   UNL     1      -0.229   1.494  -0.976  1.00  0.00     0.025 C 
ATOM     27  C   UNL     1       0.465   2.816  -1.282  1.00  0.00     0.002 C 
ENDBRANCH  15  20
ENDBRANCH   9  14
ENDBRANCH   5   8
ENDBRANCH   3   4
ENDBRANCH   2   3
ENDBRANCH   1   2
BRANCH   1  28
ATOM     28  C   UNL     1      -4.292  -2.672  -0.421  1.00  0.00     0.002 C 
BRANCH  28  29
ATOM     29  C   UNL     1      -4.527  -3.233   0.983  1.00  0.00     0.021 C 
BRANCH  29  30
ATOM     30  C   UNL     1      -5.912  -3.805   1.250  1.00  0.00     0.116 C 
BRANCH  30  31
ATOM     31  N   UNL     1      -6.310  -4.820   0.293  1.00  0.00    -0.352 N 
ATOM     32  C   UNL     1      -6.967  -6.007   0.500  1.00  0.00     0.251 C 
ATOM     33  H   UNL     1      -6.074  -4.629  -0.643  1.00  0.00     0.163 HD
ATOM     34  O   UNL     1      -7.131  -6.787  -0.431  1.00  0.00    -0.269 OA
BRANCH  32  35
ATOM     35  C   UNL     1      -7.454  -6.364   1.851  1.00  0.00     0.039 A 
ATOM     36  C   UNL     1      -7.279  -7.678   2.292  1.00  0.00     0.014 A 
ATOM     37  C   UNL     1      -8.095  -5.432   2.671  1.00  0.00     0.014 A 
ATOM     38  C   UNL     1      -7.706  -8.045   3.569  1.00  0.00     0.010 A 
ATOM     39  C   UNL     1      -8.446  -5.776   3.974  1.00  0.00     0.010 A 
ATOM     40  C   UNL     1      -8.270  -7.090   4.431  1.00  0.00    -0.014 A 
BRANCH  40  41
ATOM     41  C   UNL     1      -8.698  -7.464   5.803  1.00  0.00     0.031 A 
ATOM     42  C   UNL     1     -10.149  -7.386   6.190  1.00  0.00     0.074 A 
ATOM     43  C   UNL     1      -7.775  -7.841   6.708  1.00  0.00     0.049 A 
ATOM     44  N   UNL     1     -10.715  -7.651   7.341  1.00  0.00    -0.248 NA
ATOM     45  C   UNL     1     -11.087  -6.922   5.156  1.00  0.00     0.031 C 
ATOM     46  C   UNL     1      -6.333  -7.907   6.466  1.00  0.00     0.029 A 
ATOM     47  N   UNL     1      -7.911  -8.237   8.015  1.00  0.00    -0.354 N 
ATOM     48  C   UNL     1     -12.066  -7.378   7.170  1.00  0.00     0.074 A 
ATOM     49  C   UNL     1     -12.227  -6.866   5.827  1.00  0.00     0.031 C 
ATOM     50  C   UNL     1      -5.721  -8.350   7.576  1.00  0.00     0.029 A 
ATOM     51  C   UNL     1      -6.720  -8.562   8.618  1.00  0.00     0.049 A 
ATOM     52  H   UNL     1      -8.779  -8.283   8.476  1.00  0.00     0.167 HD
ATOM     53  C   UNL     1     -13.084  -7.563   8.044  1.00  0.00     0.037 A 
ATOM     54  C   UNL     1      -6.466  -8.984   9.871  1.00  0.00     0.037 A 
ATOM     55  C   UNL     1     -12.920  -8.091   9.374  1.00  0.00     0.049 A 
ATOM     56  C   UNL     1      -7.615  -9.178  10.824  1.00  0.00     0.074 A 
ATOM     57  C   UNL     1     -13.891  -8.363  10.321  1.00  0.00     0.029 A 
ATOM     58  N   UNL     1     -11.700  -8.422   9.946  1.00  0.00    -0.354 N 
ATOM     59  N   UNL     1      -8.897  -8.983  10.628  1.00  0.00    -0.248 NA
ATOM     60  C   UNL     1      -7.282  -9.664  12.169  1.00  0.00     0.031 C 
ATOM     61  C   UNL     1     -13.255  -8.809  11.484  1.00  0.00     0.029 A 
ATOM     62  C   UNL     1     -11.892  -8.877  11.241  1.00  0.00     0.049 A 
ATOM     63  H   UNL     1     -10.826  -8.346   9.498  1.00  0.00     0.167 HD
ATOM     64  C   UNL     1      -9.525  -9.354  11.810  1.00  0.00     0.074 A 
ATOM     65  C   UNL     1      -8.483  -9.803  12.710  1.00  0.00     0.031 C 
ATOM     66  C   UNL     1     -10.844  -9.327  12.122  1.00  0.00     0.037 A 
BRANCH  53  67
ATOM     67  C   UNL     1     -14.468  -7.194   7.588  1.00  0.00     0.064 A 
ATOM     68  C   UNL     1     -15.132  -7.916   6.583  1.00  0.00     0.173 A 
ATOM     69  C   UNL     1     -15.153  -6.123   8.183  1.00  0.00     0.173 A 
ATOM     70  F   UNL     1     -14.520  -8.942   5.972  1.00  0.00    -0.203 F 
ATOM     71  C   UNL     1     -16.413  -7.560   6.170  1.00  0.00     0.198 A 
ATOM     72  C   UNL     1     -16.448  -5.792   7.791  1.00  0.00     0.198 A 
ATOM     73  F   UNL     1     -14.570  -5.401   9.152  1.00  0.00    -0.203 F 
ATOM     74  F   UNL     1     -17.003  -8.231   5.170  1.00  0.00    -0.200 F 
ATOM     75  C   UNL     1     -17.073  -6.504   6.779  1.00  0.00     0.200 A 
ATOM     76  F   UNL     1     -17.090  -4.781   8.392  1.00  0.00    -0.200 F 
ATOM     77  F   UNL     1     -18.309  -6.168   6.386  1.00  0.00    -0.200 F 
ENDBRANCH  53  67
BRANCH  54  78
ATOM     78  C   UNL     1      -5.070  -9.281  10.289  1.00  0.00     0.064 A 
ATOM     79  C   UNL     1      -4.665 -10.593  10.570  1.00  0.00     0.173 A 
ATOM     80  C   UNL     1      -4.117  -8.261  10.428  1.00  0.00     0.173 A 
ATOM     81  F   UNL     1      -5.544 -11.601  10.471  1.00  0.00    -0.203 F 
ATOM     82  C   UNL     1      -3.369 -10.871  11.001  1.00  0.00     0.198 A 
ATOM     83  C   UNL     1      -2.812  -8.544  10.827  1.00  0.00     0.198 A 
ATOM     84  F   UNL     1      -4.451  -6.989  10.166  1.00  0.00    -0.203 F 
ATOM     85  F   UNL     1      -3.025 -12.127  11.316  1.00  0.00    -0.200 F 
ATOM     86  C   UNL     1      -2.442  -9.847  11.123  1.00  0.00     0.200 A 
ATOM     87  F   UNL     1      -1.916  -7.554  10.930  1.00  0.00    -0.200 F 
ATOM     88  F   UNL     1      -1.196 -10.115  11.537  1.00  0.00    -0.200 F 
ENDBRANCH  54  78
BRANCH  66  89
ATOM     89  C   UNL     1     -11.239  -9.842  13.478  1.00  0.00     0.064 A 
ATOM     90  C   UNL     1     -10.915  -9.153  14.656  1.00  0.00     0.173 A 
ATOM     91  C   UNL     1     -11.971 -11.034  13.595  1.00  0.00     0.173 A 
ATOM     92  F   UNL     1     -10.206  -8.016  14.601  1.00  0.00    -0.203 F 
ATOM     93  C   UNL     1     -11.273  -9.660  15.903  1.00  0.00     0.198 A 
ATOM     94  C   UNL     1     -12.360 -11.518  14.841  1.00  0.00     0.198 A 
ATOM     95  F   UNL     1     -12.316 -11.728  12.500  1.00  0.00    -0.203 F 
ATOM     96  F   UNL     1     -10.896  -9.018  17.017  1.00  0.00    -0.200 F 
ATOM     97  C   UNL     1     -12.000 -10.838  15.994  1.00  0.00     0.200 A 
ATOM     98  F   UNL     1     -13.077 -12.647  14.926  1.00  0.00    -0.200 F 
ATOM     99  F   UNL     1     -12.346 -11.322  17.195  1.00  0.00    -0.200 F 
ENDBRANCH  66  89
ENDBRANCH  40  41
ENDBRANCH  32  35
ENDBRANCH  30  31
ENDBRANCH  29  30
ENDBRANCH  28  29
ENDBRANCH   1  28
TORSDOF 15
