REMARK SMILES CC(C)[C@H]1CC[C@@H](C)/C(=C/c2ccc(NC(=O)CCC(=O)NCCCCCCNC(=O)c3ccc(-c4c5nc(c(-c6c(F)c(F)c(F)c(F)c6F)c6ccc([nH]6)c(-c6c(F)c(F)c(F)c(F)c6F)c6nc(c(-c7c(F)c(F)c(F)c(F)c7F)c7ccc4[nH]7)C=C6)C=C5)cc3)cc2)C1=O
REMARK SMILES IDX 24 1 23 2 22 3 20 4 21 5 19 7 18 8 16 9 15 10 17 12 14 13
REMARK SMILES IDX 11 14 12 15 96 16 13 17 95 18 10 19 4 20 5 21 97 22 6 23
REMARK SMILES IDX 9 24 98 25 7 26 8 27 2 28 1 29 3 30 25 31 26 32 27 33 28 34
REMARK SMILES IDX 29 35 30 36 31 38 32 39 33 40 94 41 34 42 93 43 35 44 36 45
REMARK SMILES IDX 37 46 87 47 38 48 92 49 86 50 88 51 39 52 91 53 85 54 84 55
REMARK SMILES IDX 40 57 72 58 52 59 71 60 53 61 56 62 70 63 89 64 54 65 55 66
REMARK SMILES IDX 69 68 90 69 57 70 41 71 42 72 50 73 43 74 44 75 48 76 51 77
REMARK SMILES IDX 45 78 46 79 49 80 47 81 73 82 74 83 82 84 75 85 76 86 80 87
REMARK SMILES IDX 83 88 77 89 78 90 81 91 79 92 58 93 59 94 67 95 60 96 61 97
REMARK SMILES IDX 65 98 68 99 62 100 63 101 66 102 64 103
REMARK H PARENT 22 6 15 11 29 37 88 56 56 67
REMARK Flexibility Score: inf
ROOT
ATOM      1  C   UNL     1       3.105   5.680  -1.754  1.00  0.00     0.021 C 
ENDROOT
BRANCH   1   2
ATOM      2  C   UNL     1       3.668   5.174  -3.079  1.00  0.00     0.116 C 
BRANCH   2   3
ATOM      3  N   UNL     1       3.116   3.892  -3.475  1.00  0.00    -0.356 N 
ATOM      4  C   UNL     1       2.493   3.524  -4.628  1.00  0.00     0.220 C 
ATOM      5  O   UNL     1       2.201   2.339  -4.791  1.00  0.00    -0.275 OA
ATOM      6  H   UNL     1       3.208   3.176  -2.805  1.00  0.00     0.163 HD
BRANCH   4   7
ATOM      7  C   UNL     1       2.179   4.555  -5.689  1.00  0.00     0.110 C 
BRANCH   7   8
ATOM      8  C   UNL     1       0.768   5.125  -5.630  1.00  0.00     0.110 C 
BRANCH   8   9
ATOM      9  C   UNL     1       0.445   5.892  -4.365  1.00  0.00     0.224 C 
ATOM     10  N   UNL     1      -0.068   5.292  -3.253  1.00  0.00    -0.326 N 
ATOM     11  H   UNL     1      -0.331   5.906  -2.530  1.00  0.00     0.169 HD
ATOM     12  O   UNL     1       0.737   7.091  -4.284  1.00  0.00    -0.275 OA
BRANCH  10  13
ATOM     13  C   UNL     1      -0.277   3.935  -2.984  1.00  0.00     0.041 A 
ATOM     14  C   UNL     1      -0.439   1.213  -2.362  1.00  0.00    -0.025 A 
ATOM     15  C   UNL     1      -0.981   1.699  -3.555  1.00  0.00     0.010 A 
ATOM     16  C   UNL     1       0.192   2.097  -1.485  1.00  0.00     0.010 A 
ATOM     17  C   UNL     1      -0.899   3.057  -3.865  1.00  0.00     0.027 A 
ATOM     18  C   UNL     1       0.201   3.459  -1.762  1.00  0.00     0.027 A 
BRANCH  14  19
ATOM     19  C   UNL     1      -0.670  -0.188  -2.003  1.00  0.00     0.015 C 
ATOM     20  C   UNL     1      -1.254   0.150   1.569  1.00  0.00     0.063 C 
ATOM     21  C   UNL     1      -1.680  -1.285   1.935  1.00  0.00     0.013 C 
ATOM     22  C   UNL     1      -1.753   0.432   0.149  1.00  0.00     0.162 C 
ATOM     23  C   UNL     1      -1.218  -2.309   0.885  1.00  0.00     0.009 C 
ATOM     24  C   UNL     1      -1.311  -0.565  -0.883  1.00  0.00    -0.001 C 
ATOM     25  O   UNL     1      -2.465   1.375  -0.173  1.00  0.00    -0.294 OA
ATOM     26  C   UNL     1      -1.680  -1.980  -0.540  1.00  0.00     0.020 C 
ATOM     27  C   UNL     1      -3.192  -2.171  -0.713  1.00  0.00     0.013 C 
BRANCH  20  28
ATOM     28  C   UNL     1      -1.600   1.240   2.631  1.00  0.00    -0.007 C 
ATOM     29  C   UNL     1      -2.979   1.895   2.498  1.00  0.00     0.008 C 
ATOM     30  C   UNL     1      -1.446   0.728   4.069  1.00  0.00     0.008 C 
ENDBRANCH  20  28
ENDBRANCH  14  19
ENDBRANCH  10  13
ENDBRANCH   8   9
ENDBRANCH   7   8
ENDBRANCH   4   7
ENDBRANCH   2   3
ENDBRANCH   1   2
BRANCH   1  31
ATOM     31  C   UNL     1       3.375   4.781  -0.543  1.00  0.00     0.002 C 
BRANCH  31  32
ATOM     32  C   UNL     1       4.841   4.681  -0.127  1.00  0.00     0.002 C 
BRANCH  32  33
ATOM     33  C   UNL     1       5.538   6.023   0.094  1.00  0.00     0.021 C 
BRANCH  33  34
ATOM     34  C   UNL     1       4.794   6.988   1.010  1.00  0.00     0.116 C 
BRANCH  34  35
ATOM     35  N   UNL     1       4.650   6.476   2.362  1.00  0.00    -0.352 N 
ATOM     36  C   UNL     1       4.970   7.100   3.545  1.00  0.00     0.251 C 
ATOM     37  H   UNL     1       4.276   5.569   2.441  1.00  0.00     0.163 HD
ATOM     38  O   UNL     1       4.932   6.508   4.608  1.00  0.00    -0.269 OA
BRANCH  36  39
ATOM     39  C   UNL     1       5.391   8.514   3.490  1.00  0.00     0.039 A 
ATOM     40  C   UNL     1       6.629   8.873   4.024  1.00  0.00     0.014 A 
ATOM     41  C   UNL     1       4.586   9.458   2.844  1.00  0.00     0.014 A 
ATOM     42  C   UNL     1       7.088  10.180   3.864  1.00  0.00     0.010 A 
ATOM     43  C   UNL     1       5.077  10.739   2.625  1.00  0.00     0.010 A 
ATOM     44  C   UNL     1       6.328  11.114   3.139  1.00  0.00    -0.014 A 
BRANCH  44  45
ATOM     45  C   UNL     1       6.814  12.499   2.929  1.00  0.00     0.031 A 
ATOM     46  C   UNL     1       6.071  13.648   3.549  1.00  0.00     0.074 A 
ATOM     47  C   UNL     1       7.880  12.724   2.138  1.00  0.00     0.049 A 
ATOM     48  N   UNL     1       6.293  14.933   3.442  1.00  0.00    -0.248 NA
ATOM     49  C   UNL     1       4.904  13.306   4.377  1.00  0.00     0.031 C 
ATOM     50  C   UNL     1       8.652  11.692   1.445  1.00  0.00     0.029 A 
ATOM     51  N   UNL     1       8.493  13.897   1.777  1.00  0.00    -0.354 N 
ATOM     52  C   UNL     1       5.288  15.549   4.176  1.00  0.00     0.074 A 
ATOM     53  C   UNL     1       4.421  14.503   4.671  1.00  0.00     0.031 C 
ATOM     54  C   UNL     1       9.650  12.275   0.762  1.00  0.00     0.029 A 
ATOM     55  C   UNL     1       9.569  13.722   0.941  1.00  0.00     0.049 A 
ATOM     56  H   UNL     1       8.191  14.781   2.088  1.00  0.00     0.167 HD
ATOM     57  C   UNL     1       5.120  16.867   4.436  1.00  0.00     0.037 A 
ATOM     58  C   UNL     1      10.392  14.629   0.383  1.00  0.00     0.037 A 
ATOM     59  C   UNL     1       6.000  17.900   3.958  1.00  0.00     0.049 A 
ATOM     60  C   UNL     1      10.180  16.090   0.681  1.00  0.00     0.074 A 
ATOM     61  C   UNL     1       5.952  19.260   4.209  1.00  0.00     0.029 A 
ATOM     62  N   UNL     1       7.089  17.684   3.126  1.00  0.00    -0.354 N 
ATOM     63  N   UNL     1       9.269  16.657   1.434  1.00  0.00    -0.248 NA
ATOM     64  C   UNL     1      11.117  17.035   0.057  1.00  0.00     0.031 C 
ATOM     65  C   UNL     1       6.986  19.872   3.492  1.00  0.00     0.029 A 
ATOM     66  C   UNL     1       7.709  18.888   2.836  1.00  0.00     0.049 A 
ATOM     67  H   UNL     1       7.378  16.804   2.791  1.00  0.00     0.167 HD
ATOM     68  C   UNL     1       9.538  18.019   1.399  1.00  0.00     0.074 A 
ATOM     69  C   UNL     1      10.707  18.191   0.561  1.00  0.00     0.031 C 
ATOM     70  C   UNL     1       8.878  19.036   2.006  1.00  0.00     0.037 A 
BRANCH  57  71
ATOM     71  C   UNL     1       3.940  17.259   5.277  1.00  0.00     0.064 A 
ATOM     72  C   UNL     1       3.867  16.931   6.641  1.00  0.00     0.173 A 
ATOM     73  C   UNL     1       2.874  17.981   4.720  1.00  0.00     0.173 A 
ATOM     74  F   UNL     1       4.853  16.230   7.220  1.00  0.00    -0.203 F 
ATOM     75  C   UNL     1       2.756  17.279   7.404  1.00  0.00     0.198 A 
ATOM     76  C   UNL     1       1.779  18.356   5.495  1.00  0.00     0.198 A 
ATOM     77  F   UNL     1       2.894  18.325   3.424  1.00  0.00    -0.203 F 
ATOM     78  F   UNL     1       2.683  16.903   8.688  1.00  0.00    -0.200 F 
ATOM     79  C   UNL     1       1.716  17.996   6.833  1.00  0.00     0.200 A 
ATOM     80  F   UNL     1       0.781  19.061   4.944  1.00  0.00    -0.200 F 
ATOM     81  F   UNL     1       0.648  18.333   7.569  1.00  0.00    -0.200 F 
ENDBRANCH  57  71
BRANCH  58  82
ATOM     82  C   UNL     1      11.513  14.182  -0.484  1.00  0.00     0.064 A 
ATOM     83  C   UNL     1      12.843  14.300  -0.056  1.00  0.00     0.173 A 
ATOM     84  C   UNL     1      11.283  13.630  -1.752  1.00  0.00     0.173 A 
ATOM     85  F   UNL     1      13.115  14.840   1.141  1.00  0.00    -0.203 F 
ATOM     86  C   UNL     1      13.900  13.900  -0.871  1.00  0.00     0.198 A 
ATOM     87  C   UNL     1      12.340  13.205  -2.555  1.00  0.00     0.198 A 
ATOM     88  F   UNL     1      10.029  13.489  -2.207  1.00  0.00    -0.203 F 
ATOM     89  F   UNL     1      15.163  14.065  -0.454  1.00  0.00    -0.200 F 
ATOM     90  C   UNL     1      13.648  13.348  -2.117  1.00  0.00     0.200 A 
ATOM     91  F   UNL     1      12.091  12.658  -3.753  1.00  0.00    -0.200 F 
ATOM     92  F   UNL     1      14.665  12.959  -2.898  1.00  0.00    -0.200 F 
ENDBRANCH  58  82
BRANCH  70  93
ATOM     93  C   UNL     1       9.425  20.421   1.816  1.00  0.00     0.064 A 
ATOM     94  C   UNL     1       9.313  21.096   0.592  1.00  0.00     0.173 A 
ATOM     95  C   UNL     1      10.029  21.097   2.887  1.00  0.00     0.173 A 
ATOM     96  F   UNL     1       8.757  20.486  -0.467  1.00  0.00    -0.203 F 
ATOM     97  C   UNL     1       9.809  22.388   0.440  1.00  0.00     0.198 A 
ATOM     98  C   UNL     1      10.495  22.400   2.740  1.00  0.00     0.198 A 
ATOM     99  F   UNL     1      10.154  20.498   4.081  1.00  0.00    -0.203 F 
ATOM    100  F   UNL     1       9.734  22.996  -0.752  1.00  0.00    -0.200 F 
ATOM    101  C   UNL     1      10.391  23.041   1.516  1.00  0.00     0.200 A 
ATOM    102  F   UNL     1      11.045  23.035   3.785  1.00  0.00    -0.200 F 
ATOM    103  F   UNL     1      10.860  24.288   1.370  1.00  0.00    -0.200 F 
ENDBRANCH  70  93
ENDBRANCH  44  45
ENDBRANCH  36  39
ENDBRANCH  34  35
ENDBRANCH  33  34
ENDBRANCH  32  33
ENDBRANCH  31  32
ENDBRANCH   1  31
TORSDOF 18
