REMARK SMILES Cc1c(C(=O)NCCCCCCNC(=O)c2ccc(-c3c4nc(c(-c5c(F)c(F)c(F)c(F)c5F)c5ccc([nH]5)c(-c5c(F)c(F)c(F)c(F)c5F)c5nc(c(-c6c(F)c(F)c(F)c(F)c6F)c6ccc3[nH]6)C=C5)C=C4)cc2)cccc1N1[C@@H](C)C=C(/C=C(\C#N)C(=O)NCCc2c[nH]c3ccccc23)[C@@H]1C
REMARK SMILES IDX 7 1 6 2 4 3 5 4 3 6 1 7 2 8 82 9 79 10 81 11 80 12 83 13
REMARK SMILES IDX 84 14 106 15 86 16 85 17 87 18 107 19 88 20 89 21 90 22
REMARK SMILES IDX 91 23 92 24 93 25 94 26 95 28 96 29 97 30 98 31 105 32 99 33
REMARK SMILES IDX 100 34 104 35 101 37 103 38 102 39 8 40 9 41 10 42 11 43
REMARK SMILES IDX 12 44 13 45 14 46 15 48 16 49 17 50 78 51 18 52 77 53 19 54
REMARK SMILES IDX 20 55 21 56 71 57 22 58 76 59 70 60 72 61 23 62 75 63 69 64
REMARK SMILES IDX 68 65 24 67 56 68 36 69 55 70 37 71 40 72 54 73 73 74 38 75
REMARK SMILES IDX 39 76 53 78 74 79 41 80 25 81 26 82 34 83 27 84 28 85 32 86
REMARK SMILES IDX 35 87 29 88 30 89 33 90 31 91 57 92 58 93 66 94 59 95 60 96
REMARK SMILES IDX 64 97 67 98 61 99 62 100 65 101 63 102 42 103 43 104 51 105
REMARK SMILES IDX 44 106 45 107 49 108 52 109 46 110 47 111 50 112 48 113
REMARK H PARENT 6 5 94 27 99 36 13 47 72 66 40 77
REMARK Flexibility Score: inf
ROOT
ATOM      1  C   UNL     1       3.303  -2.209  -0.249  1.00  0.00     0.116 C 
ENDROOT
BRANCH   1   2
ATOM      2  N   UNL     1       2.039  -2.804   0.065  1.00  0.00    -0.352 N 
ATOM      3  C   UNL     1       0.757  -2.368   0.186  1.00  0.00     0.251 C 
ATOM      4  O   UNL     1      -0.036  -3.288   0.426  1.00  0.00    -0.269 OA
ATOM      5  H   UNL     1       2.119  -3.771   0.235  1.00  0.00     0.163 HD
BRANCH   3   6
ATOM      6  C   UNL     1       0.214  -0.969   0.011  1.00  0.00     0.044 A 
ATOM      7  C   UNL     1       2.249   0.529   0.531  1.00  0.00     0.047 C 
ATOM      8  C   UNL     1       0.838   0.307   0.068  1.00  0.00    -0.015 A 
ATOM      9  C   UNL     1       0.067   1.486  -0.172  1.00  0.00     0.041 A 
ATOM     10  C   UNL     1      -1.195  -0.994  -0.138  1.00  0.00     0.014 A 
ATOM     11  C   UNL     1      -1.325   1.383  -0.309  1.00  0.00     0.026 A 
ATOM     12  C   UNL     1      -1.960   0.157  -0.264  1.00  0.00     0.003 A 
BRANCH   9  13
ATOM     13  N   UNL     1       0.606   2.754  -0.095  1.00  0.00    -0.358 N 
ATOM     14  C   UNL     1       0.286   3.616   1.047  1.00  0.00     0.103 C 
ATOM     15  C   UNL     1       1.697   3.279  -0.929  1.00  0.00     0.110 C 
ATOM     16  C   UNL     1       1.413   4.593   0.991  1.00  0.00     0.003 C 
ATOM     17  C   UNL     1       0.349   2.899   2.400  1.00  0.00     0.035 C 
ATOM     18  C   UNL     1       2.274   4.338  -0.005  1.00  0.00    -0.026 C 
ATOM     19  C   UNL     1       1.131   3.891  -2.214  1.00  0.00     0.036 C 
BRANCH  18  20
ATOM     20  C   UNL     1       3.569   4.950  -0.228  1.00  0.00     0.031 C 
ATOM     21  C   UNL     1       4.321   5.665   0.641  1.00  0.00     0.117 C 
BRANCH  21  22
ATOM     22  C   UNL     1       3.925   5.941   1.980  1.00  0.00     0.105 C 
ATOM     23  N   UNL     1       3.595   6.181   3.061  1.00  0.00    -0.192 NA
ENDBRANCH  21  22
BRANCH  21  24
ATOM     24  C   UNL     1       5.502   6.367   0.066  1.00  0.00     0.261 C 
ATOM     25  O   UNL     1       5.786   6.258  -1.129  1.00  0.00    -0.268 OA
ATOM     26  N   UNL     1       6.155   7.315   0.787  1.00  0.00    -0.351 N 
ATOM     27  H   UNL     1       6.274   8.163   0.301  1.00  0.00     0.163 HD
BRANCH  26  28
ATOM     28  C   UNL     1       6.722   7.336   2.146  1.00  0.00     0.121 C 
BRANCH  28  29
ATOM     29  C   UNL     1       8.113   6.643   2.292  1.00  0.00     0.059 C 
BRANCH  29  30
ATOM     30  C   UNL     1       9.248   7.321   1.521  1.00  0.00    -0.021 A 
ATOM     31  C   UNL     1       9.256   8.684   1.230  1.00  0.00     0.087 A 
ATOM     32  C   UNL     1       9.847   6.814   0.323  1.00  0.00     0.003 A 
ATOM     33  N   UNL     1       8.679   8.649  -0.044  1.00  0.00    -0.361 N 
ATOM     34  C   UNL     1       9.180   7.527  -0.675  1.00  0.00     0.046 A 
ATOM     35  C   UNL     1      10.781   5.838  -0.066  1.00  0.00     0.010 A 
ATOM     36  H   UNL     1       8.039   9.297  -0.418  1.00  0.00     0.166 HD
ATOM     37  C   UNL     1       9.161   7.144  -2.012  1.00  0.00     0.026 A 
ATOM     38  C   UNL     1      10.942   5.589  -1.439  1.00  0.00     0.001 A 
ATOM     39  C   UNL     1      10.089   6.171  -2.382  1.00  0.00     0.002 A 
ENDBRANCH  29  30
ENDBRANCH  28  29
ENDBRANCH  26  28
ENDBRANCH  21  24
ENDBRANCH  18  20
ENDBRANCH   9  13
ENDBRANCH   3   6
ENDBRANCH   1   2
BRANCH   1  40
ATOM     40  C   UNL     1       4.152  -2.070   1.024  1.00  0.00     0.021 C 
BRANCH  40  41
ATOM     41  C   UNL     1       5.314  -3.060   1.080  1.00  0.00     0.002 C 
BRANCH  41  42
ATOM     42  C   UNL     1       6.220  -3.026  -0.156  1.00  0.00     0.002 C 
BRANCH  42  43
ATOM     43  C   UNL     1       6.637  -1.624  -0.596  1.00  0.00     0.021 C 
BRANCH  43  44
ATOM     44  C   UNL     1       7.639  -0.997   0.351  1.00  0.00     0.116 C 
BRANCH  44  45
ATOM     45  N   UNL     1       8.957  -1.576   0.137  1.00  0.00    -0.352 N 
ATOM     46  C   UNL     1      10.209  -1.033   0.320  1.00  0.00     0.251 C 
ATOM     47  H   UNL     1       8.952  -2.504  -0.191  1.00  0.00     0.163 HD
ATOM     48  O   UNL     1      11.164  -1.485  -0.303  1.00  0.00    -0.269 OA
BRANCH  46  49
ATOM     49  C   UNL     1      10.439  -0.129   1.472  1.00  0.00     0.039 A 
ATOM     50  C   UNL     1      11.451  -0.589   2.332  1.00  0.00     0.014 A 
ATOM     51  C   UNL     1       9.383   0.624   1.960  1.00  0.00     0.014 A 
ATOM     52  C   UNL     1      11.206  -0.629   3.689  1.00  0.00     0.010 A 
ATOM     53  C   UNL     1       9.045   0.422   3.265  1.00  0.00     0.010 A 
ATOM     54  C   UNL     1       9.936  -0.261   4.098  1.00  0.00    -0.014 A 
BRANCH  54  55
ATOM     55  C   UNL     1       9.443  -0.397   5.441  1.00  0.00     0.031 A 
ATOM     56  C   UNL     1       9.610   0.811   6.260  1.00  0.00     0.074 A 
ATOM     57  C   UNL     1       8.652  -1.468   5.671  1.00  0.00     0.049 A 
ATOM     58  N   UNL     1       9.471   0.859   7.528  1.00  0.00    -0.248 NA
ATOM     59  C   UNL     1      10.015   2.104   5.694  1.00  0.00     0.031 C 
ATOM     60  C   UNL     1       7.678  -1.707   6.727  1.00  0.00     0.029 A 
ATOM     61  N   UNL     1       8.725  -2.705   5.001  1.00  0.00    -0.354 N 
ATOM     62  C   UNL     1       9.360   2.192   7.870  1.00  0.00     0.074 A 
ATOM     63  C   UNL     1       9.874   2.916   6.742  1.00  0.00     0.031 C 
ATOM     64  C   UNL     1       7.513  -3.037   6.870  1.00  0.00     0.029 A 
ATOM     65  C   UNL     1       8.482  -3.681   5.996  1.00  0.00     0.049 A 
ATOM     66  H   UNL     1       8.907  -2.858   4.046  1.00  0.00     0.167 HD
ATOM     67  C   UNL     1       8.653   2.479   8.999  1.00  0.00     0.037 A 
ATOM     68  C   UNL     1       9.522  -4.460   6.426  1.00  0.00     0.037 A 
ATOM     69  C   UNL     1       8.314   1.217   9.663  1.00  0.00     0.049 A 
ATOM     70  C   UNL     1       9.898  -4.121   7.853  1.00  0.00     0.074 A 
ATOM     71  C   UNL     1       7.170   0.436   9.646  1.00  0.00     0.029 A 
ATOM     72  N   UNL     1       9.352   0.390  10.080  1.00  0.00    -0.354 N 
ATOM     73  N   UNL     1       9.740  -2.939   8.393  1.00  0.00    -0.248 NA
ATOM     74  C   UNL     1      10.372  -5.118   8.806  1.00  0.00     0.031 C 
ATOM     75  C   UNL     1       7.556  -0.897   9.968  1.00  0.00     0.029 A 
ATOM     76  C   UNL     1       8.925  -0.920  10.189  1.00  0.00     0.049 A 
ATOM     77  H   UNL     1      10.268   0.696  10.272  1.00  0.00     0.167 HD
ATOM     78  C   UNL     1      10.010  -3.014   9.736  1.00  0.00     0.074 A 
ATOM     79  C   UNL     1      10.410  -4.396   9.939  1.00  0.00     0.031 C 
ATOM     80  C   UNL     1       9.856  -1.962  10.598  1.00  0.00     0.037 A 
BRANCH  67  81
ATOM     81  C   UNL     1       8.026   3.806   9.377  1.00  0.00     0.064 A 
ATOM     82  C   UNL     1       7.076   3.847  10.424  1.00  0.00     0.173 A 
ATOM     83  C   UNL     1       8.240   5.047   8.743  1.00  0.00     0.173 A 
ATOM     84  F   UNL     1       6.795   2.759  11.155  1.00  0.00    -0.203 F 
ATOM     85  C   UNL     1       6.369   5.004  10.764  1.00  0.00     0.198 A 
ATOM     86  C   UNL     1       7.533   6.207   9.085  1.00  0.00     0.198 A 
ATOM     87  F   UNL     1       9.146   5.213   7.779  1.00  0.00    -0.203 F 
ATOM     88  F   UNL     1       5.463   4.961  11.751  1.00  0.00    -0.200 F 
ATOM     89  C   UNL     1       6.591   6.184  10.090  1.00  0.00     0.200 A 
ATOM     90  F   UNL     1       7.776   7.349   8.424  1.00  0.00    -0.200 F 
ATOM     91  F   UNL     1       5.914   7.293  10.412  1.00  0.00    -0.200 F 
ENDBRANCH  67  81
BRANCH  68  92
ATOM     92  C   UNL     1      10.442  -4.803   5.294  1.00  0.00     0.064 A 
ATOM     93  C   UNL     1       9.867  -5.505   4.209  1.00  0.00     0.173 A 
ATOM     94  C   UNL     1      11.609  -4.075   5.034  1.00  0.00     0.173 A 
ATOM     95  F   UNL     1       8.767  -6.250   4.405  1.00  0.00    -0.203 F 
ATOM     96  C   UNL     1      10.306  -5.308   2.901  1.00  0.00     0.198 A 
ATOM     97  C   UNL     1      12.078  -3.925   3.723  1.00  0.00     0.198 A 
ATOM     98  F   UNL     1      12.221  -3.398   6.016  1.00  0.00    -0.203 F 
ATOM     99  F   UNL     1       9.615  -5.834   1.878  1.00  0.00    -0.200 F 
ATOM    100  C   UNL     1      11.390  -4.487   2.655  1.00  0.00     0.200 A 
ATOM    101  F   UNL     1      13.141  -3.144   3.480  1.00  0.00    -0.200 F 
ATOM    102  F   UNL     1      11.746  -4.206   1.394  1.00  0.00    -0.200 F 
ENDBRANCH  68  92
BRANCH  80 103
ATOM    103  C   UNL     1      10.502  -1.847  11.964  1.00  0.00     0.064 A 
ATOM    104  C   UNL     1      11.620  -2.595  12.366  1.00  0.00     0.173 A 
ATOM    105  C   UNL     1      10.102  -0.833  12.875  1.00  0.00     0.173 A 
ATOM    106  F   UNL     1      12.213  -3.471  11.546  1.00  0.00    -0.203 F 
ATOM    107  C   UNL     1      12.219  -2.421  13.614  1.00  0.00     0.198 A 
ATOM    108  C   UNL     1      10.768  -0.594  14.073  1.00  0.00     0.198 A 
ATOM    109  F   UNL     1       9.074  -0.011  12.623  1.00  0.00    -0.203 F 
ATOM    110  F   UNL     1      13.229  -3.223  13.978  1.00  0.00    -0.200 F 
ATOM    111  C   UNL     1      11.805  -1.411  14.460  1.00  0.00     0.200 A 
ATOM    112  F   UNL     1      10.407   0.447  14.837  1.00  0.00    -0.200 F 
ATOM    113  F   UNL     1      12.419  -1.213  15.633  1.00  0.00    -0.200 F 
ENDBRANCH  80 103
ENDBRANCH  54  55
ENDBRANCH  46  49
ENDBRANCH  44  45
ENDBRANCH  43  44
ENDBRANCH  42  43
ENDBRANCH  41  42
ENDBRANCH  40  41
ENDBRANCH   1  40
TORSDOF 20
