REMARK SMILES COc1ccc(NS(=O)(=O)c2cc(C(=O)NCCCCCCNC(=O)c3ccc(-c4c5nc(c(-c6c(F)c(F)c(F)c(F)c6F)c6ccc([nH]6)c(-c6c(F)c(F)c(F)c(F)c6F)c6nc(c(-c7c(F)c(F)c(F)c(F)c7F)c7ccc4[nH]7)C=C6)C=C5)cc3)cc(C)c2C)c(OC)c1
REMARK SMILES IDX 18 1 17 2 16 3 14 4 15 5 13 7 11 8 12 9 92 10 90 11 93 12
REMARK SMILES IDX 89 13 91 14 8 15 9 16 10 17 7 18 6 20 3 21 4 22 97 23 5 24
REMARK SMILES IDX 94 25 2 26 1 27 95 28 96 29 19 30 20 31 21 32 22 33 23 34
REMARK SMILES IDX 24 35 25 37 26 38 27 39 88 40 28 41 87 42 29 43 30 44 31 45
REMARK SMILES IDX 81 46 32 47 86 48 80 49 82 50 33 51 85 52 79 53 78 54 34 56
REMARK SMILES IDX 66 57 46 58 65 59 47 60 50 61 64 62 83 63 48 64 49 65 63 67
REMARK SMILES IDX 84 68 51 69 35 70 36 71 44 72 37 73 38 74 42 75 45 76 39 77
REMARK SMILES IDX 40 78 43 79 41 80 67 81 68 82 76 83 69 84 70 85 74 86 77 87
REMARK SMILES IDX 71 88 72 89 75 90 73 91 52 92 53 93 61 94 54 95 55 96 59 97
REMARK SMILES IDX 62 98 56 99 57 100 60 101 58 102
REMARK H PARENT 16 6 7 19 23 36 82 55 50 66
REMARK Flexibility Score: inf
ROOT
ATOM      1  C   UNL     1      -4.208  -3.449   4.097  1.00  0.00     0.021 C 
ENDROOT
BRANCH   1   2
ATOM      2  C   UNL     1      -4.350  -3.980   2.674  1.00  0.00     0.116 C 
BRANCH   2   3
ATOM      3  N   UNL     1      -3.634  -3.248   1.640  1.00  0.00    -0.352 N 
ATOM      4  C   UNL     1      -3.003  -3.683   0.487  1.00  0.00     0.251 C 
ATOM      5  O   UNL     1      -2.551  -2.848  -0.293  1.00  0.00    -0.269 OA
ATOM      6  H   UNL     1      -3.592  -2.275   1.785  1.00  0.00     0.163 HD
BRANCH   4   7
ATOM      7  C   UNL     1      -2.757  -5.131   0.227  1.00  0.00     0.041 A 
ATOM      8  C   UNL     1      -1.077  -6.846  -0.190  1.00  0.00     0.091 A 
ATOM      9  C   UNL     1      -1.517  -5.519  -0.301  1.00  0.00     0.036 A 
ATOM     10  C   UNL     1      -1.994  -7.846   0.252  1.00  0.00    -0.028 A 
ATOM     11  C   UNL     1      -3.284  -7.453   0.692  1.00  0.00    -0.046 A 
ATOM     12  C   UNL     1      -1.671  -9.321   0.240  1.00  0.00     0.046 C 
ATOM     13  C   UNL     1      -3.663  -6.107   0.613  1.00  0.00     0.017 A 
ATOM     14  C   UNL     1      -4.262  -8.366   1.394  1.00  0.00     0.044 C 
BRANCH   8  15
ATOM     15  S   UNL     1       0.624  -7.252  -0.644  1.00  0.00     0.262 S 
ATOM     16  O   UNL     1       0.671  -7.173  -2.093  1.00  0.00    -0.201 OA
ATOM     17  O   UNL     1       0.970  -8.492   0.019  1.00  0.00    -0.201 OA
BRANCH  15  18
ATOM     18  N   UNL     1       1.826  -6.197  -0.068  1.00  0.00    -0.276 N 
ATOM     19  H   UNL     1       2.712  -6.590   0.109  1.00  0.00     0.180 HD
BRANCH  18  20
ATOM     20  C   UNL     1       1.682  -4.796   0.187  1.00  0.00     0.091 A 
ATOM     21  C   UNL     1       1.410  -2.047   0.649  1.00  0.00     0.122 A 
ATOM     22  C   UNL     1       0.606  -2.963   1.326  1.00  0.00     0.049 A 
ATOM     23  C   UNL     1       2.458  -2.512  -0.143  1.00  0.00     0.095 A 
ATOM     24  C   UNL     1       0.777  -4.334   1.133  1.00  0.00     0.034 A 
ATOM     25  C   UNL     1       2.623  -3.889  -0.341  1.00  0.00     0.146 A 
BRANCH  21  26
ATOM     26  O   UNL     1       1.129  -0.731   0.885  1.00  0.00    -0.497 OA
ATOM     27  C   UNL     1       1.464   0.161  -0.174  1.00  0.00     0.278 C 
ENDBRANCH  21  26
BRANCH  25  28
ATOM     28  O   UNL     1       3.689  -4.414  -1.038  1.00  0.00    -0.494 OA
ATOM     29  C   UNL     1       4.923  -3.715  -0.826  1.00  0.00     0.278 C 
ENDBRANCH  25  28
ENDBRANCH  18  20
ENDBRANCH  15  18
ENDBRANCH   8  15
ENDBRANCH   4   7
ENDBRANCH   2   3
ENDBRANCH   1   2
BRANCH   1  30
ATOM     30  C   UNL     1      -4.567  -1.987   4.349  1.00  0.00     0.002 C 
BRANCH  30  31
ATOM     31  C   UNL     1      -5.912  -1.500   3.808  1.00  0.00     0.002 C 
BRANCH  31  32
ATOM     32  C   UNL     1      -7.143  -2.320   4.195  1.00  0.00     0.021 C 
BRANCH  32  33
ATOM     33  C   UNL     1      -7.343  -2.554   5.687  1.00  0.00     0.116 C 
BRANCH  33  34
ATOM     34  N   UNL     1      -7.569  -1.326   6.428  1.00  0.00    -0.352 N 
ATOM     35  C   UNL     1      -8.596  -1.000   7.282  1.00  0.00     0.251 C 
ATOM     36  H   UNL     1      -6.890  -0.625   6.300  1.00  0.00     0.163 HD
ATOM     37  O   UNL     1      -8.710   0.146   7.702  1.00  0.00    -0.269 OA
BRANCH  35  38
ATOM     38  C   UNL     1      -9.584  -2.029   7.677  1.00  0.00     0.039 A 
ATOM     39  C   UNL     1     -10.941  -1.697   7.675  1.00  0.00     0.014 A 
ATOM     40  C   UNL     1      -9.178  -3.312   8.054  1.00  0.00     0.014 A 
ATOM     41  C   UNL     1     -11.893  -2.668   7.994  1.00  0.00     0.010 A 
ATOM     42  C   UNL     1     -10.130  -4.300   8.290  1.00  0.00     0.010 A 
ATOM     43  C   UNL     1     -11.498  -3.987   8.273  1.00  0.00    -0.014 A 
BRANCH  43  44
ATOM     44  C   UNL     1     -12.499  -5.046   8.565  1.00  0.00     0.031 A 
ATOM     45  C   UNL     1     -12.514  -5.718   9.910  1.00  0.00     0.074 A 
ATOM     46  C   UNL     1     -13.357  -5.440   7.604  1.00  0.00     0.049 A 
ATOM     47  N   UNL     1     -13.265  -6.702  10.338  1.00  0.00    -0.248 NA
ATOM     48  C   UNL     1     -11.535  -5.240  10.899  1.00  0.00     0.031 C 
ATOM     49  C   UNL     1     -13.414  -4.896   6.247  1.00  0.00     0.029 A 
ATOM     50  N   UNL     1     -14.341  -6.398   7.619  1.00  0.00    -0.354 N 
ATOM     51  C   UNL     1     -12.842  -6.965  11.634  1.00  0.00     0.074 A 
ATOM     52  C   UNL     1     -11.728  -6.083  11.902  1.00  0.00     0.031 C 
ATOM     53  C   UNL     1     -14.398  -5.509   5.569  1.00  0.00     0.029 A 
ATOM     54  C   UNL     1     -15.012  -6.518   6.426  1.00  0.00     0.049 A 
ATOM     55  H   UNL     1     -14.546  -6.947   8.410  1.00  0.00     0.167 HD
ATOM     56  C   UNL     1     -13.352  -7.845  12.529  1.00  0.00     0.037 A 
ATOM     57  C   UNL     1     -16.004  -7.354   6.063  1.00  0.00     0.037 A 
ATOM     58  C   UNL     1     -14.473  -8.708  12.264  1.00  0.00     0.049 A 
ATOM     59  C   UNL     1     -16.540  -8.337   7.070  1.00  0.00     0.074 A 
ATOM     60  C   UNL     1     -15.099  -9.597  13.119  1.00  0.00     0.029 A 
ATOM     61  N   UNL     1     -15.133  -8.794  11.046  1.00  0.00    -0.354 N 
ATOM     62  N   UNL     1     -16.176  -8.530   8.315  1.00  0.00    -0.248 NA
ATOM     63  C   UNL     1     -17.631  -9.213   6.623  1.00  0.00     0.031 C 
ATOM     64  C   UNL     1     -16.099 -10.264  12.403  1.00  0.00     0.029 A 
ATOM     65  C   UNL     1     -16.142  -9.742  11.120  1.00  0.00     0.049 A 
ATOM     66  H   UNL     1     -14.916  -8.262  10.247  1.00  0.00     0.167 HD
ATOM     67  C   UNL     1     -17.015  -9.521   8.809  1.00  0.00     0.074 A 
ATOM     68  C   UNL     1     -17.915  -9.879   7.733  1.00  0.00     0.031 C 
ATOM     69  C   UNL     1     -17.038 -10.081  10.044  1.00  0.00     0.037 A 
BRANCH  56  70
ATOM     70  C   UNL     1     -12.699  -7.920  13.881  1.00  0.00     0.064 A 
ATOM     71  C   UNL     1     -12.777  -6.861  14.799  1.00  0.00     0.173 A 
ATOM     72  C   UNL     1     -12.014  -9.079  14.277  1.00  0.00     0.173 A 
ATOM     73  F   UNL     1     -13.411  -5.725  14.468  1.00  0.00    -0.203 F 
ATOM     74  C   UNL     1     -12.163  -6.945  16.047  1.00  0.00     0.198 A 
ATOM     75  C   UNL     1     -11.433  -9.173  15.539  1.00  0.00     0.198 A 
ATOM     76  F   UNL     1     -11.913 -10.124  13.443  1.00  0.00    -0.203 F 
ATOM     77  F   UNL     1     -12.202  -5.898  16.882  1.00  0.00    -0.200 F 
ATOM     78  C   UNL     1     -11.499  -8.103  16.419  1.00  0.00     0.200 A 
ATOM     79  F   UNL     1     -10.805 -10.300  15.903  1.00  0.00    -0.200 F 
ATOM     80  F   UNL     1     -10.916  -8.186  17.622  1.00  0.00    -0.200 F 
ENDBRANCH  56  70
BRANCH  57  81
ATOM     81  C   UNL     1     -16.571  -7.284   4.690  1.00  0.00     0.064 A 
ATOM     82  C   UNL     1     -17.884  -6.845   4.473  1.00  0.00     0.173 A 
ATOM     83  C   UNL     1     -15.819  -7.665   3.569  1.00  0.00     0.173 A 
ATOM     84  F   UNL     1     -18.651  -6.488   5.514  1.00  0.00    -0.203 F 
ATOM     85  C   UNL     1     -18.432  -6.812   3.192  1.00  0.00     0.198 A 
ATOM     86  C   UNL     1     -16.356  -7.601   2.285  1.00  0.00     0.198 A 
ATOM     87  F   UNL     1     -14.555  -8.088   3.719  1.00  0.00    -0.203 F 
ATOM     88  F   UNL     1     -19.707  -6.438   3.020  1.00  0.00    -0.200 F 
ATOM     89  C   UNL     1     -17.666  -7.185   2.098  1.00  0.00     0.200 A 
ATOM     90  F   UNL     1     -15.606  -7.946   1.229  1.00  0.00    -0.200 F 
ATOM     91  F   UNL     1     -18.191  -7.151   0.866  1.00  0.00    -0.200 F 
ENDBRANCH  57  81
BRANCH  69  92
ATOM     92  C   UNL     1     -18.102 -11.106  10.318  1.00  0.00     0.064 A 
ATOM     93  C   UNL     1     -18.076 -12.378   9.727  1.00  0.00     0.173 A 
ATOM     94  C   UNL     1     -19.141 -10.823  11.219  1.00  0.00     0.173 A 
ATOM     95  F   UNL     1     -17.113 -12.696   8.849  1.00  0.00    -0.203 F 
ATOM     96  C   UNL     1     -19.067 -13.317  10.005  1.00  0.00     0.198 A 
ATOM     97  C   UNL     1     -20.109 -11.776  11.521  1.00  0.00     0.198 A 
ATOM     98  F   UNL     1     -19.209  -9.625  11.818  1.00  0.00    -0.203 F 
ATOM     99  F   UNL     1     -19.052 -14.506   9.387  1.00  0.00    -0.200 F 
ATOM    100  C   UNL     1     -20.077 -13.018  10.907  1.00  0.00     0.200 A 
ATOM    101  F   UNL     1     -21.073 -11.491  12.407  1.00  0.00    -0.200 F 
ATOM    102  F   UNL     1     -21.024 -13.926  11.180  1.00  0.00    -0.200 F 
ENDBRANCH  69  92
ENDBRANCH  43  44
ENDBRANCH  35  38
ENDBRANCH  33  34
ENDBRANCH  32  33
ENDBRANCH  31  32
ENDBRANCH  30  31
ENDBRANCH   1  30
TORSDOF 18
