REMARK SMILES O=C(NCCCCCCNC(=O)[C@@H]1CCCN1C(=O)[C@@H]1CCCN1C(=O)OCC1c2ccccc2-c2ccccc21)c1ccc(-c2c3nc(c(-c4c(F)c(F)c(F)c(F)c4F)c4ccc([nH]4)c(-c4c(F)c(F)c(F)c(F)c4F)c4nc(c(-c5c(F)c(F)c(F)c(F)c5F)c5ccc2[nH]5)C=C4)C=C3)cc1
REMARK SMILES IDX 8 1 7 2 6 3 5 4 4 5 3 6 1 7 2 8 42 10 43 11 104 12 44 13
REMARK SMILES IDX 103 14 45 15 46 16 47 17 97 18 48 19 102 20 96 21 98 22
REMARK SMILES IDX 49 23 101 24 95 25 94 26 50 28 82 29 62 30 81 31 63 32 66 33
REMARK SMILES IDX 80 34 99 35 64 36 65 37 79 39 100 40 67 41 51 42 52 43 60 44
REMARK SMILES IDX 53 45 54 46 58 47 61 48 55 49 56 50 59 51 57 52 83 53 84 54
REMARK SMILES IDX 92 55 85 56 86 57 90 58 93 59 87 60 88 61 91 62 89 63 68 64
REMARK SMILES IDX 69 65 77 66 70 67 71 68 75 69 78 70 72 71 73 72 76 73 74 74
REMARK SMILES IDX 9 75 10 76 11 77 12 79 13 80 14 81 17 82 15 83 16 84 18 85
REMARK SMILES IDX 19 86 20 87 21 88 24 89 22 90 23 91 25 92 26 93 27 94 28 95
REMARK SMILES IDX 29 96 30 97 41 98 31 99 35 100 36 101 40 102 32 103 34 104
REMARK SMILES IDX 37 105 39 106 33 107 38 108
REMARK H PARENT 3 9 98 27 66 38 10 78
REMARK Flexibility Score: inf
ROOT
ATOM      1  C   UNL     1       5.953   3.689   1.809  1.00  0.00     0.021 C 
ENDROOT
BRANCH   1   2
ATOM      2  C   UNL     1       4.474   3.932   1.484  1.00  0.00     0.002 C 
BRANCH   2   3
ATOM      3  C   UNL     1       4.083   3.884   0.002  1.00  0.00     0.002 C 
BRANCH   3   4
ATOM      4  C   UNL     1       4.566   2.664  -0.782  1.00  0.00     0.021 C 
BRANCH   4   5
ATOM      5  C   UNL     1       4.274   1.318  -0.139  1.00  0.00     0.116 C 
BRANCH   5   6
ATOM      6  N   UNL     1       2.860   1.058   0.051  1.00  0.00    -0.352 N 
ATOM      7  O   UNL     1       0.975  -0.192   0.011  1.00  0.00    -0.269 OA
ATOM      8  C   UNL     1       2.193  -0.133  -0.102  1.00  0.00     0.251 C 
ATOM      9  H   UNL     1       2.311   1.829   0.324  1.00  0.00     0.163 HD
BRANCH   8  10
ATOM     10  C   UNL     1       2.967  -1.347  -0.441  1.00  0.00     0.039 A 
ATOM     11  C   UNL     1       4.120  -1.677   0.277  1.00  0.00     0.014 A 
ATOM     12  C   UNL     1       2.539  -2.149  -1.501  1.00  0.00     0.014 A 
ATOM     13  C   UNL     1       4.907  -2.743  -0.139  1.00  0.00     0.010 A 
ATOM     14  C   UNL     1       3.287  -3.272  -1.863  1.00  0.00     0.010 A 
ATOM     15  C   UNL     1       4.484  -3.568  -1.193  1.00  0.00    -0.014 A 
BRANCH  15  16
ATOM     16  C   UNL     1       5.249  -4.801  -1.498  1.00  0.00     0.031 A 
ATOM     17  C   UNL     1       5.950  -4.984  -2.812  1.00  0.00     0.074 A 
ATOM     18  C   UNL     1       5.301  -5.761  -0.554  1.00  0.00     0.049 A 
ATOM     19  N   UNL     1       6.646  -6.010  -3.236  1.00  0.00    -0.248 NA
ATOM     20  C   UNL     1       5.856  -3.883  -3.782  1.00  0.00     0.031 C 
ATOM     21  C   UNL     1       4.638  -5.692   0.751  1.00  0.00     0.029 A 
ATOM     22  N   UNL     1       5.941  -6.973  -0.535  1.00  0.00    -0.354 N 
ATOM     23  C   UNL     1       7.055  -5.689  -4.523  1.00  0.00     0.074 A 
ATOM     24  C   UNL     1       6.517  -4.378  -4.821  1.00  0.00     0.031 C 
ATOM     25  C   UNL     1       4.934  -6.792   1.456  1.00  0.00     0.029 A 
ATOM     26  C   UNL     1       5.748  -7.674   0.630  1.00  0.00     0.049 A 
ATOM     27  H   UNL     1       6.484  -7.309  -1.284  1.00  0.00     0.167 HD
ATOM     28  C   UNL     1       7.812  -6.426  -5.371  1.00  0.00     0.037 A 
ATOM     29  C   UNL     1       6.158  -8.905   0.986  1.00  0.00     0.037 A 
ATOM     30  C   UNL     1       8.355  -7.723  -5.053  1.00  0.00     0.049 A 
ATOM     31  C   UNL     1       6.978  -9.701   0.013  1.00  0.00     0.074 A 
ATOM     32  C   UNL     1       9.177  -8.526  -5.826  1.00  0.00     0.029 A 
ATOM     33  N   UNL     1       8.125  -8.410  -3.870  1.00  0.00    -0.354 N 
ATOM     34  N   UNL     1       7.398  -9.365  -1.182  1.00  0.00    -0.248 NA
ATOM     35  C   UNL     1       7.378 -11.048   0.436  1.00  0.00     0.031 C 
ATOM     36  C   UNL     1       9.402  -9.719  -5.131  1.00  0.00     0.029 A 
ATOM     37  C   UNL     1       8.766  -9.639  -3.904  1.00  0.00     0.049 A 
ATOM     38  H   UNL     1       7.586  -8.074  -3.117  1.00  0.00     0.167 HD
ATOM     39  C   UNL     1       8.124 -10.451  -1.648  1.00  0.00     0.074 A 
ATOM     40  C   UNL     1       8.110 -11.445  -0.595  1.00  0.00     0.031 C 
ATOM     41  C   UNL     1       8.741 -10.614  -2.844  1.00  0.00     0.037 A 
BRANCH  28  42
ATOM     42  C   UNL     1       8.098  -5.866  -6.734  1.00  0.00     0.064 A 
ATOM     43  C   UNL     1       9.001  -4.810  -6.924  1.00  0.00     0.173 A 
ATOM     44  C   UNL     1       7.529  -6.455  -7.875  1.00  0.00     0.173 A 
ATOM     45  F   UNL     1       9.567  -4.207  -5.868  1.00  0.00    -0.203 F 
ATOM     46  C   UNL     1       9.316  -4.359  -8.204  1.00  0.00     0.198 A 
ATOM     47  C   UNL     1       7.865  -6.017  -9.153  1.00  0.00     0.198 A 
ATOM     48  F   UNL     1       6.664  -7.473  -7.749  1.00  0.00    -0.203 F 
ATOM     49  F   UNL     1      10.164  -3.332  -8.361  1.00  0.00    -0.200 F 
ATOM     50  C   UNL     1       8.756  -4.969  -9.317  1.00  0.00     0.200 A 
ATOM     51  F   UNL     1       7.333  -6.618 -10.227  1.00  0.00    -0.200 F 
ATOM     52  F   UNL     1       9.076  -4.545 -10.548  1.00  0.00    -0.200 F 
ENDBRANCH  28  42
BRANCH  29  53
ATOM     53  C   UNL     1       5.778  -9.460   2.310  1.00  0.00     0.064 A 
ATOM     54  C   UNL     1       6.742  -9.699   3.298  1.00  0.00     0.173 A 
ATOM     55  C   UNL     1       4.443  -9.766   2.613  1.00  0.00     0.173 A 
ATOM     56  F   UNL     1       8.034  -9.438   3.049  1.00  0.00    -0.203 F 
ATOM     57  C   UNL     1       6.389 -10.246   4.529  1.00  0.00     0.198 A 
ATOM     58  C   UNL     1       4.086 -10.280   3.857  1.00  0.00     0.198 A 
ATOM     59  F   UNL     1       3.480  -9.549   1.705  1.00  0.00    -0.203 F 
ATOM     60  F   UNL     1       7.338 -10.512   5.438  1.00  0.00    -0.200 F 
ATOM     61  C   UNL     1       5.061 -10.530   4.811  1.00  0.00     0.200 A 
ATOM     62  F   UNL     1       2.800 -10.534   4.131  1.00  0.00    -0.200 F 
ATOM     63  F   UNL     1       4.722 -11.052   5.997  1.00  0.00    -0.200 F 
ENDBRANCH  29  53
BRANCH  41  64
ATOM     64  C   UNL     1       9.471 -11.906  -3.059  1.00  0.00     0.064 A 
ATOM     65  C   UNL     1       8.784 -13.114  -3.248  1.00  0.00     0.173 A 
ATOM     66  C   UNL     1      10.873 -11.932  -3.094  1.00  0.00     0.173 A 
ATOM     67  F   UNL     1       7.444 -13.143  -3.203  1.00  0.00    -0.203 F 
ATOM     68  C   UNL     1       9.476 -14.307  -3.434  1.00  0.00     0.198 A 
ATOM     69  C   UNL     1      11.561 -13.122  -3.312  1.00  0.00     0.198 A 
ATOM     70  F   UNL     1      11.575 -10.802  -2.923  1.00  0.00    -0.203 F 
ATOM     71  F   UNL     1       8.801 -15.459  -3.557  1.00  0.00    -0.200 F 
ATOM     72  C   UNL     1      10.863 -14.309  -3.473  1.00  0.00     0.200 A 
ATOM     73  F   UNL     1      12.900 -13.120  -3.361  1.00  0.00    -0.200 F 
ATOM     74  F   UNL     1      11.527 -15.459  -3.655  1.00  0.00    -0.200 F 
ENDBRANCH  41  64
ENDBRANCH  15  16
ENDBRANCH   8  10
ENDBRANCH   5   6
ENDBRANCH   4   5
ENDBRANCH   3   4
ENDBRANCH   2   3
ENDBRANCH   1   2
BRANCH   1  75
ATOM     75  C   UNL     1       6.924   4.609   1.086  1.00  0.00     0.116 C 
BRANCH  75  76
ATOM     76  N   UNL     1       6.855   5.969   1.577  1.00  0.00    -0.354 N 
ATOM     77  C   UNL     1       7.544   6.960   0.936  1.00  0.00     0.242 C 
ATOM     78  H   UNL     1       6.312   6.180   2.371  1.00  0.00     0.163 HD
ATOM     79  O   UNL     1       6.842   7.700   0.251  1.00  0.00    -0.273 OA
BRANCH  77  80
ATOM     80  C   UNL     1       9.067   7.173   1.149  1.00  0.00     0.174 C 
ATOM     81  C   UNL     1       9.738   5.935   1.770  1.00  0.00     0.037 C 
ATOM     82  N   UNL     1       9.582   8.259   2.019  1.00  0.00    -0.329 N 
ATOM     83  C   UNL     1      11.092   6.417   2.234  1.00  0.00     0.024 C 
ATOM     84  C   UNL     1      10.823   7.839   2.667  1.00  0.00     0.120 C 
BRANCH  82  85
ATOM     85  C   UNL     1       9.368   9.621   2.040  1.00  0.00     0.246 C 
ATOM     86  O   UNL     1      10.040  10.316   2.826  1.00  0.00    -0.272 OA
BRANCH  85  87
ATOM     87  C   UNL     1       8.224  10.348   1.322  1.00  0.00     0.178 C 
ATOM     88  C   UNL     1       6.901  10.120   2.066  1.00  0.00     0.037 C 
ATOM     89  N   UNL     1       7.894  10.160  -0.074  1.00  0.00    -0.296 N 
ATOM     90  C   UNL     1       5.797  10.337   1.032  1.00  0.00     0.024 C 
ATOM     91  C   UNL     1       6.502  10.483  -0.308  1.00  0.00     0.124 C 
BRANCH  89  92
ATOM     92  C   UNL     1       8.787  10.220  -1.109  1.00  0.00     0.410 C 
ATOM     93  O   UNL     1       8.479  10.596  -2.241  1.00  0.00    -0.224 OA
BRANCH  92  94
ATOM     94  O   UNL     1      10.026   9.767  -0.775  1.00  0.00    -0.448 OA
BRANCH  94  95
ATOM     95  C   UNL     1      10.988   9.750  -1.846  1.00  0.00     0.248 C 
BRANCH  95  96
ATOM     96  C   UNL     1      11.184   8.390  -2.558  1.00  0.00     0.088 C 
ATOM     97  C   UNL     1      12.352   7.563  -2.010  1.00  0.00    -0.029 A 
ATOM     98  C   UNL     1      10.054   7.364  -2.534  1.00  0.00    -0.029 A 
ATOM     99  C   UNL     1      13.683   7.932  -1.874  1.00  0.00     0.005 A 
ATOM    100  C   UNL     1      11.934   6.244  -1.734  1.00  0.00    -0.014 A 
ATOM    101  C   UNL     1      10.530   6.121  -2.055  1.00  0.00    -0.014 A 
ATOM    102  C   UNL     1       8.741   7.496  -2.954  1.00  0.00     0.005 A 
ATOM    103  C   UNL     1      14.594   6.973  -1.425  1.00  0.00     0.000 A 
ATOM    104  C   UNL     1      12.835   5.296  -1.275  1.00  0.00     0.009 A 
ATOM    105  C   UNL     1       9.691   5.019  -1.967  1.00  0.00     0.009 A 
ATOM    106  C   UNL     1       7.889   6.393  -2.846  1.00  0.00     0.000 A 
ATOM    107  C   UNL     1      14.173   5.669  -1.119  1.00  0.00     0.001 A 
ATOM    108  C   UNL     1       8.361   5.164  -2.363  1.00  0.00     0.001 A 
ENDBRANCH  95  96
ENDBRANCH  94  95
ENDBRANCH  92  94
ENDBRANCH  89  92
ENDBRANCH  85  87
ENDBRANCH  82  85
ENDBRANCH  77  80
ENDBRANCH  75  76
ENDBRANCH   1  75
TORSDOF 19
