REMARK SMILES C=CCOc1ccccc1-c1cc(C(=O)NCCCCCCNC(=O)c2ccc(-c3c4nc(c(-c5c(F)c(F)c(F)c(F)c5F)c5ccc([nH]5)c(-c5c(F)c(F)c(F)c(F)c5F)c5nc(c(-c6c(F)c(F)c(F)c(F)c6F)c6ccc3[nH]6)C=C5)C=C4)cc2)nc(N)n1
REMARK SMILES IDX 18 1 17 2 16 3 14 4 15 5 13 7 11 8 12 9 92 10 90 11 89 12
REMARK SMILES IDX 10 13 5 14 6 15 7 16 9 17 8 18 4 19 3 20 2 21 1 22 91 23
REMARK SMILES IDX 19 26 20 27 21 28 22 29 23 30 24 31 25 33 26 34 27 35 88 36
REMARK SMILES IDX 28 37 87 38 29 39 30 40 31 41 81 42 32 43 86 44 80 45 82 46
REMARK SMILES IDX 33 47 85 48 79 49 78 50 34 52 66 53 46 54 65 55 47 56 50 57
REMARK SMILES IDX 64 58 83 59 48 60 49 61 63 63 84 64 51 65 35 66 36 67 44 68
REMARK SMILES IDX 37 69 38 70 42 71 45 72 39 73 40 74 43 75 41 76 67 77 68 78
REMARK SMILES IDX 76 79 69 80 70 81 74 82 77 83 71 84 72 85 75 86 73 87 52 88
REMARK SMILES IDX 53 89 61 90 54 91 55 92 59 93 62 94 56 95 57 96 60 97 58 98
REMARK H PARENT 16 6 91 24 91 25 23 32 82 51 50 62
REMARK Flexibility Score: inf
ROOT
ATOM      1  C   UNL     1       4.221   0.879   4.406  1.00  0.00     0.021 C 
ENDROOT
BRANCH   1   2
ATOM      2  C   UNL     1       4.318  -0.167   3.297  1.00  0.00     0.116 C 
BRANCH   2   3
ATOM      3  N   UNL     1       3.721  -1.434   3.669  1.00  0.00    -0.351 N 
ATOM      4  C   UNL     1       3.020  -2.338   2.905  1.00  0.00     0.270 C 
ATOM      5  O   UNL     1       2.587  -3.350   3.459  1.00  0.00    -0.268 OA
ATOM      6  H   UNL     1       3.834  -1.687   4.614  1.00  0.00     0.163 HD
BRANCH   4   7
ATOM      7  C   UNL     1       2.735  -2.110   1.455  1.00  0.00     0.134 A 
ATOM      8  C   UNL     1       1.344  -2.408  -0.387  1.00  0.00     0.080 A 
ATOM      9  C   UNL     1       1.641  -2.742   0.913  1.00  0.00     0.063 A 
ATOM     10  N   UNL     1       2.119  -1.569  -1.109  1.00  0.00    -0.213 NA
ATOM     11  C   UNL     1       3.171  -1.028  -0.495  1.00  0.00     0.221 A 
ATOM     12  N   UNL     1       3.528  -1.268   0.763  1.00  0.00    -0.208 NA
BRANCH   8  13
ATOM     13  C   UNL     1       0.119  -2.874  -1.051  1.00  0.00     0.042 A 
ATOM     14  C   UNL     1      -1.155  -2.736  -0.464  1.00  0.00     0.129 A 
ATOM     15  C   UNL     1      -2.303  -3.228  -1.090  1.00  0.00     0.047 A 
ATOM     16  C   UNL     1      -2.205  -3.829  -2.343  1.00  0.00     0.004 A 
ATOM     17  C   UNL     1       0.187  -3.467  -2.324  1.00  0.00     0.014 A 
ATOM     18  C   UNL     1      -0.962  -3.942  -2.963  1.00  0.00     0.001 A 
BRANCH  14  19
ATOM     19  O   UNL     1      -1.300  -2.157   0.776  1.00  0.00    -0.489 OA
BRANCH  19  20
ATOM     20  C   UNL     1      -1.613  -0.760   0.670  1.00  0.00     0.257 C 
BRANCH  20  21
ATOM     21  C   UNL     1      -0.459   0.038   1.205  1.00  0.00     0.006 C 
ATOM     22  C   UNL     1       0.214   0.959   0.502  1.00  0.00     0.007 C 
ENDBRANCH  20  21
ENDBRANCH  19  20
ENDBRANCH  14  19
ENDBRANCH   8  13
BRANCH  11  23
ATOM     23  N   UNL     1       3.890  -0.096  -1.186  1.00  0.00    -0.368 N 
ATOM     24  H   UNL     1       4.674   0.329  -0.769  1.00  0.00     0.159 HD
ATOM     25  H   UNL     1       3.623   0.153  -2.100  1.00  0.00     0.159 HD
ENDBRANCH  11  23
ENDBRANCH   4   7
ENDBRANCH   2   3
ENDBRANCH   1   2
BRANCH   1  26
ATOM     26  C   UNL     1       4.871   0.509   5.742  1.00  0.00     0.002 C 
BRANCH  26  27
ATOM     27  C   UNL     1       6.342   0.091   5.678  1.00  0.00     0.002 C 
BRANCH  27  28
ATOM     28  C   UNL     1       7.279   1.076   4.980  1.00  0.00     0.021 C 
BRANCH  28  29
ATOM     29  C   UNL     1       7.254   2.497   5.530  1.00  0.00     0.116 C 
BRANCH  29  30
ATOM     30  N   UNL     1       7.744   2.585   6.896  1.00  0.00    -0.352 N 
ATOM     31  C   UNL     1       8.663   3.464   7.424  1.00  0.00     0.251 C 
ATOM     32  H   UNL     1       7.369   1.929   7.528  1.00  0.00     0.163 HD
ATOM     33  O   UNL     1       9.075   3.337   8.566  1.00  0.00    -0.269 OA
BRANCH  31  34
ATOM     34  C   UNL     1       9.170   4.561   6.571  1.00  0.00     0.039 A 
ATOM     35  C   UNL     1      10.550   4.745   6.448  1.00  0.00     0.014 A 
ATOM     36  C   UNL     1       8.280   5.374   5.866  1.00  0.00     0.014 A 
ATOM     37  C   UNL     1      11.042   5.703   5.558  1.00  0.00     0.010 A 
ATOM     38  C   UNL     1       8.770   6.277   4.931  1.00  0.00     0.010 A 
ATOM     39  C   UNL     1      10.155   6.450   4.767  1.00  0.00    -0.014 A 
BRANCH  39  40
ATOM     40  C   UNL     1      10.627   7.441   3.768  1.00  0.00     0.031 A 
ATOM     41  C   UNL     1      10.284   8.890   3.953  1.00  0.00     0.074 A 
ATOM     42  C   UNL     1      11.262   7.031   2.654  1.00  0.00     0.049 A 
ATOM     43  N   UNL     1      10.421   9.891   3.121  1.00  0.00    -0.248 NA
ATOM     44  C   UNL     1       9.671   9.255   5.239  1.00  0.00     0.031 C 
ATOM     45  C   UNL     1      11.645   5.651   2.355  1.00  0.00     0.029 A 
ATOM     46  N   UNL     1      11.676   7.738   1.553  1.00  0.00    -0.354 N 
ATOM     47  C   UNL     1       9.883  10.993   3.770  1.00  0.00     0.074 A 
ATOM     48  C   UNL     1       9.376  10.530   5.044  1.00  0.00     0.031 C 
ATOM     49  C   UNL     1      12.252   5.615   1.157  1.00  0.00     0.029 A 
ATOM     50  C   UNL     1      12.254   6.957   0.583  1.00  0.00     0.049 A 
ATOM     51  H   UNL     1      11.570   8.713   1.468  1.00  0.00     0.167 HD
ATOM     52  C   UNL     1       9.831  12.279   3.348  1.00  0.00     0.037 A 
ATOM     53  C   UNL     1      12.714   7.287  -0.639  1.00  0.00     0.037 A 
ATOM     54  C   UNL     1      10.360  12.736   2.090  1.00  0.00     0.049 A 
ATOM     55  C   UNL     1      12.609   8.714  -1.106  1.00  0.00     0.074 A 
ATOM     56  C   UNL     1      10.398  14.024   1.585  1.00  0.00     0.029 A 
ATOM     57  N   UNL     1      10.945  11.914   1.137  1.00  0.00    -0.354 N 
ATOM     58  N   UNL     1      12.127   9.757  -0.475  1.00  0.00    -0.248 NA
ATOM     59  C   UNL     1      13.106   9.008  -2.458  1.00  0.00     0.031 C 
ATOM     60  C   UNL     1      10.968  13.975   0.309  1.00  0.00     0.029 A 
ATOM     61  C   UNL     1      11.331  12.665   0.039  1.00  0.00     0.049 A 
ATOM     62  H   UNL     1      11.068  10.942   1.229  1.00  0.00     0.167 HD
ATOM     63  C   UNL     1      12.301  10.836  -1.332  1.00  0.00     0.074 A 
ATOM     64  C   UNL     1      12.926  10.319  -2.532  1.00  0.00     0.031 C 
ATOM     65  C   UNL     1      11.977  12.137  -1.137  1.00  0.00     0.037 A 
BRANCH  52  66
ATOM     66  C   UNL     1       9.164  13.273   4.255  1.00  0.00     0.064 A 
ATOM     67  C   UNL     1       9.730  13.645   5.484  1.00  0.00     0.173 A 
ATOM     68  C   UNL     1       7.940  13.855   3.894  1.00  0.00     0.173 A 
ATOM     69  F   UNL     1      10.894  13.108   5.881  1.00  0.00    -0.203 F 
ATOM     70  C   UNL     1       9.073  14.526   6.338  1.00  0.00     0.198 A 
ATOM     71  C   UNL     1       7.302  14.762   4.736  1.00  0.00     0.198 A 
ATOM     72  F   UNL     1       7.357  13.540   2.728  1.00  0.00    -0.203 F 
ATOM     73  F   UNL     1       9.600  14.812   7.537  1.00  0.00    -0.200 F 
ATOM     74  C   UNL     1       7.862  15.087   5.963  1.00  0.00     0.200 A 
ATOM     75  F   UNL     1       6.138  15.313   4.366  1.00  0.00    -0.200 F 
ATOM     76  F   UNL     1       7.228  15.930   6.789  1.00  0.00    -0.200 F 
ENDBRANCH  52  66
BRANCH  53  77
ATOM     77  C   UNL     1      13.348   6.250  -1.494  1.00  0.00     0.064 A 
ATOM     78  C   UNL     1      14.731   6.267  -1.723  1.00  0.00     0.173 A 
ATOM     79  C   UNL     1      12.600   5.222  -2.085  1.00  0.00     0.173 A 
ATOM     80  F   UNL     1      15.483   7.244  -1.196  1.00  0.00    -0.203 F 
ATOM     81  C   UNL     1      15.341   5.300  -2.518  1.00  0.00     0.198 A 
ATOM     82  C   UNL     1      13.215   4.241  -2.861  1.00  0.00     0.198 A 
ATOM     83  F   UNL     1      11.274   5.161  -1.895  1.00  0.00    -0.203 F 
ATOM     84  F   UNL     1      16.660   5.358  -2.747  1.00  0.00    -0.200 F 
ATOM     85  C   UNL     1      14.584   4.283  -3.080  1.00  0.00     0.200 A 
ATOM     86  F   UNL     1      12.482   3.253  -3.393  1.00  0.00    -0.200 F 
ATOM     87  F   UNL     1      15.172   3.348  -3.838  1.00  0.00    -0.200 F 
ENDBRANCH  53  77
BRANCH  65  88
ATOM     88  C   UNL     1      12.349  13.114  -2.212  1.00  0.00     0.064 A 
ATOM     89  C   UNL     1      11.636  13.195  -3.416  1.00  0.00     0.173 A 
ATOM     90  C   UNL     1      13.387  14.034  -1.997  1.00  0.00     0.173 A 
ATOM     91  F   UNL     1      10.646  12.328  -3.674  1.00  0.00    -0.203 F 
ATOM     92  C   UNL     1      11.955  14.157  -4.371  1.00  0.00     0.198 A 
ATOM     93  C   UNL     1      13.686  15.011  -2.942  1.00  0.00     0.198 A 
ATOM     94  F   UNL     1      14.096  14.000  -0.859  1.00  0.00    -0.203 F 
ATOM     95  F   UNL     1      11.280  14.200  -5.528  1.00  0.00    -0.200 F 
ATOM     96  C   UNL     1      12.972  15.070  -4.129  1.00  0.00     0.200 A 
ATOM     97  F   UNL     1      14.660  15.900  -2.701  1.00  0.00    -0.200 F 
ATOM     98  F   UNL     1      13.265  16.007  -5.042  1.00  0.00    -0.200 F 
ENDBRANCH  65  88
ENDBRANCH  39  40
ENDBRANCH  31  34
ENDBRANCH  29  30
ENDBRANCH  28  29
ENDBRANCH  27  28
ENDBRANCH  26  27
ENDBRANCH   1  26
TORSDOF 18
