REMARK SMILES CC(=O)O[C@H]1C[C@@H](C(=O)NCCCCCCNC(=O)c2ccc(-c3c4nc(c(-c5c(F)c(F)c(F)c(F)c5F)c5ccc([nH]5)c(-c5c(F)c(F)c(F)c(F)c5F)c5nc(c(-c6c(F)c(F)c(F)c(F)c6F)c6ccc3[nH]6)C=C5)C=C4)cc2)N(S(=O)(=O)c2ccc(F)cc2)C1
REMARK SMILES IDX 13 1 12 2 11 3 10 4 8 5 9 6 7 8 5 9 6 10 94 11 83 12 4 13
REMARK SMILES IDX 2 14 1 15 3 16 84 17 85 18 86 19 87 20 88 21 93 22 89 23
REMARK SMILES IDX 92 24 90 25 91 26 14 27 15 28 16 29 17 30 18 31 19 33 20 34
REMARK SMILES IDX 21 35 82 36 22 37 81 38 23 39 24 40 25 41 75 42 26 43 80 44
REMARK SMILES IDX 74 45 76 46 27 47 79 48 73 49 72 50 28 52 60 53 40 54 59 55
REMARK SMILES IDX 41 56 44 57 58 58 77 59 42 60 43 61 57 63 78 64 45 65 29 66
REMARK SMILES IDX 30 67 38 68 31 69 32 70 36 71 39 72 33 73 34 74 37 75 35 76
REMARK SMILES IDX 61 77 62 78 70 79 63 80 64 81 68 82 71 83 65 84 66 85 69 86
REMARK SMILES IDX 67 87 46 88 47 89 55 90 48 91 49 92 53 93 56 94 50 95 51 96
REMARK SMILES IDX 54 97 52 98
REMARK H PARENT 10 7 17 32 76 51 44 62
REMARK Flexibility Score: inf
ROOT
ATOM      1  C   UNL     1      -2.245  -4.718  -0.072  1.00  0.00     0.002 C 
ENDROOT
BRANCH   1   2
ATOM      2  C   UNL     1      -0.918  -3.947  -0.162  1.00  0.00     0.021 C 
BRANCH   2   3
ATOM      3  C   UNL     1       0.156  -4.624  -1.025  1.00  0.00     0.116 C 
BRANCH   3   4
ATOM      4  N   UNL     1      -0.363  -4.935  -2.344  1.00  0.00    -0.355 N 
ATOM      5  C   UNL     1      -0.712  -4.019  -3.297  1.00  0.00     0.238 C 
ATOM      6  O   UNL     1      -1.784  -4.199  -3.872  1.00  0.00    -0.273 OA
ATOM      7  H   UNL     1      -0.474  -5.886  -2.571  1.00  0.00     0.163 HD
BRANCH   5   8
ATOM      8  C   UNL     1       0.181  -2.826  -3.554  1.00  0.00     0.166 C 
ATOM      9  C   UNL     1       0.276  -0.459  -3.878  1.00  0.00     0.193 C 
ATOM     10  C   UNL     1      -0.656  -1.562  -3.425  1.00  0.00     0.077 C 
ATOM     11  C   UNL     1       1.170  -1.146  -4.929  1.00  0.00     0.148 C 
ATOM     12  N   UNL     1       0.928  -2.638  -4.832  1.00  0.00    -0.182 NA
BRANCH   9  13
ATOM     13  O   UNL     1      -0.416   0.640  -4.508  1.00  0.00    -0.461 OA
BRANCH  13  14
ATOM     14  C   UNL     1      -1.298   1.475  -3.913  1.00  0.00     0.302 C 
ATOM     15  C   UNL     1      -1.760   1.145  -2.527  1.00  0.00     0.139 C 
ATOM     16  O   UNL     1      -1.729   2.458  -4.508  1.00  0.00    -0.253 OA
ENDBRANCH  13  14
ENDBRANCH   9  13
BRANCH  12  17
ATOM     17  S   UNL     1       0.344  -3.295  -6.303  1.00  0.00     0.243 S 
ATOM     18  O   UNL     1      -1.079  -3.069  -6.373  1.00  0.00    -0.207 OA
ATOM     19  O   UNL     1       1.209  -2.773  -7.347  1.00  0.00    -0.207 OA
BRANCH  17  20
ATOM     20  C   UNL     1       0.668  -5.053  -6.257  1.00  0.00     0.082 A 
ATOM     21  C   UNL     1       1.845  -5.542  -6.844  1.00  0.00     0.025 A 
ATOM     22  C   UNL     1      -0.315  -5.957  -5.842  1.00  0.00     0.025 A 
ATOM     23  C   UNL     1       2.054  -6.921  -6.953  1.00  0.00     0.040 A 
ATOM     24  C   UNL     1      -0.080  -7.332  -5.897  1.00  0.00     0.040 A 
ATOM     25  C   UNL     1       1.100  -7.803  -6.457  1.00  0.00     0.123 A 
ATOM     26  F   UNL     1       1.304  -9.123  -6.553  1.00  0.00    -0.207 F 
ENDBRANCH  17  20
ENDBRANCH  12  17
ENDBRANCH   5   8
ENDBRANCH   3   4
ENDBRANCH   2   3
ENDBRANCH   1   2
BRANCH   1  27
ATOM     27  C   UNL     1      -2.138  -6.141   0.482  1.00  0.00     0.002 C 
BRANCH  27  28
ATOM     28  C   UNL     1      -1.503  -6.244   1.868  1.00  0.00     0.021 C 
BRANCH  28  29
ATOM     29  C   UNL     1      -2.186  -5.411   2.947  1.00  0.00     0.116 C 
BRANCH  29  30
ATOM     30  N   UNL     1      -3.543  -5.856   3.221  1.00  0.00    -0.352 N 
ATOM     31  C   UNL     1      -4.133  -6.107   4.436  1.00  0.00     0.251 C 
ATOM     32  H   UNL     1      -4.114  -5.995   2.432  1.00  0.00     0.163 HD
ATOM     33  O   UNL     1      -5.245  -6.619   4.501  1.00  0.00    -0.269 OA
BRANCH  31  34
ATOM     34  C   UNL     1      -3.397  -5.780   5.675  1.00  0.00     0.039 A 
ATOM     35  C   UNL     1      -3.266  -6.761   6.661  1.00  0.00     0.014 A 
ATOM     36  C   UNL     1      -2.813  -4.521   5.842  1.00  0.00     0.014 A 
ATOM     37  C   UNL     1      -2.486  -6.502   7.789  1.00  0.00     0.010 A 
ATOM     38  C   UNL     1      -1.988  -4.286   6.937  1.00  0.00     0.010 A 
ATOM     39  C   UNL     1      -1.812  -5.276   7.917  1.00  0.00    -0.014 A 
BRANCH  39  40
ATOM     40  C   UNL     1      -0.909  -5.011   9.062  1.00  0.00     0.031 A 
ATOM     41  C   UNL     1      -1.262  -3.956  10.070  1.00  0.00     0.074 A 
ATOM     42  C   UNL     1       0.263  -5.668   9.152  1.00  0.00     0.049 A 
ATOM     43  N   UNL     1      -0.565  -3.516  11.086  1.00  0.00    -0.248 NA
ATOM     44  C   UNL     1      -2.562  -3.291   9.897  1.00  0.00     0.031 C 
ATOM     45  C   UNL     1       0.734  -6.689   8.215  1.00  0.00     0.029 A 
ATOM     46  N   UNL     1       1.276  -5.566  10.071  1.00  0.00    -0.354 N 
ATOM     47  C   UNL     1      -1.334  -2.516  11.665  1.00  0.00     0.074 A 
ATOM     48  C   UNL     1      -2.529  -2.381  10.860  1.00  0.00     0.031 C 
ATOM     49  C   UNL     1       1.934  -7.134   8.618  1.00  0.00     0.029 A 
ATOM     50  C   UNL     1       2.333  -6.406   9.819  1.00  0.00     0.049 A 
ATOM     51  H   UNL     1       1.249  -4.950  10.838  1.00  0.00     0.167 HD
ATOM     52  C   UNL     1      -1.077  -1.792  12.780  1.00  0.00     0.037 A 
ATOM     53  C   UNL     1       3.496  -6.564  10.479  1.00  0.00     0.037 A 
ATOM     54  C   UNL     1       0.100  -1.946  13.594  1.00  0.00     0.049 A 
ATOM     55  C   UNL     1       3.769  -5.730  11.700  1.00  0.00     0.074 A 
ATOM     56  C   UNL     1       0.420  -1.308  14.780  1.00  0.00     0.029 A 
ATOM     57  N   UNL     1       1.153  -2.801  13.303  1.00  0.00    -0.354 N 
ATOM     58  N   UNL     1       3.010  -4.826  12.270  1.00  0.00    -0.248 NA
ATOM     59  C   UNL     1       5.063  -5.935  12.366  1.00  0.00     0.031 C 
ATOM     60  C   UNL     1       1.685  -1.749  15.185  1.00  0.00     0.029 A 
ATOM     61  C   UNL     1       2.136  -2.688  14.272  1.00  0.00     0.049 A 
ATOM     62  H   UNL     1       1.195  -3.399  12.522  1.00  0.00     0.167 HD
ATOM     63  C   UNL     1       3.723  -4.369  13.370  1.00  0.00     0.074 A 
ATOM     64  C   UNL     1       4.971  -5.104  13.395  1.00  0.00     0.031 C 
ATOM     65  C   UNL     1       3.374  -3.424  14.277  1.00  0.00     0.037 A 
BRANCH  52  66
ATOM     66  C   UNL     1      -2.095  -0.768  13.184  1.00  0.00     0.064 A 
ATOM     67  C   UNL     1      -3.342  -1.140  13.708  1.00  0.00     0.173 A 
ATOM     68  C   UNL     1      -1.816   0.601  13.061  1.00  0.00     0.173 A 
ATOM     69  F   UNL     1      -3.662  -2.438  13.832  1.00  0.00    -0.203 F 
ATOM     70  C   UNL     1      -4.285  -0.180  14.064  1.00  0.00     0.198 A 
ATOM     71  C   UNL     1      -2.752   1.559  13.443  1.00  0.00     0.198 A 
ATOM     72  F   UNL     1      -0.637   1.010  12.569  1.00  0.00    -0.203 F 
ATOM     73  F   UNL     1      -5.489  -0.560  14.513  1.00  0.00    -0.200 F 
ATOM     74  C   UNL     1      -3.988   1.168  13.936  1.00  0.00     0.200 A 
ATOM     75  F   UNL     1      -2.460   2.862  13.327  1.00  0.00    -0.200 F 
ATOM     76  F   UNL     1      -4.896   2.092  14.278  1.00  0.00    -0.200 F 
ENDBRANCH  52  66
BRANCH  53  77
ATOM     77  C   UNL     1       4.480  -7.571  10.010  1.00  0.00     0.064 A 
ATOM     78  C   UNL     1       4.689  -8.754  10.732  1.00  0.00     0.173 A 
ATOM     79  C   UNL     1       5.220  -7.380   8.835  1.00  0.00     0.173 A 
ATOM     80  F   UNL     1       4.018  -8.969  11.873  1.00  0.00    -0.203 F 
ATOM     81  C   UNL     1       5.610  -9.706  10.300  1.00  0.00     0.198 A 
ATOM     82  C   UNL     1       6.125  -8.343   8.393  1.00  0.00     0.198 A 
ATOM     83  F   UNL     1       5.053  -6.265   8.109  1.00  0.00    -0.203 F 
ATOM     84  F   UNL     1       5.814 -10.814  11.024  1.00  0.00    -0.200 F 
ATOM     85  C   UNL     1       6.322  -9.502   9.128  1.00  0.00     0.200 A 
ATOM     86  F   UNL     1       6.803  -8.148   7.254  1.00  0.00    -0.200 F 
ATOM     87  F   UNL     1       7.203 -10.421   8.709  1.00  0.00    -0.200 F 
ENDBRANCH  53  77
BRANCH  65  88
ATOM     88  C   UNL     1       4.351  -3.141  15.378  1.00  0.00     0.064 A 
ATOM     89  C   UNL     1       5.524  -2.409  15.143  1.00  0.00     0.173 A 
ATOM     90  C   UNL     1       4.093  -3.572  16.688  1.00  0.00     0.173 A 
ATOM     91  F   UNL     1       5.822  -1.992  13.904  1.00  0.00    -0.203 F 
ATOM     92  C   UNL     1       6.413  -2.134  16.179  1.00  0.00     0.198 A 
ATOM     93  C   UNL     1       4.973  -3.274  17.725  1.00  0.00     0.198 A 
ATOM     94  F   UNL     1       2.983  -4.273  16.962  1.00  0.00    -0.203 F 
ATOM     95  F   UNL     1       7.547  -1.466  15.925  1.00  0.00    -0.200 F 
ATOM     96  C   UNL     1       6.134  -2.560  17.469  1.00  0.00     0.200 A 
ATOM     97  F   UNL     1       4.697  -3.679  18.972  1.00  0.00    -0.200 F 
ATOM     98  F   UNL     1       6.988  -2.289  18.465  1.00  0.00    -0.200 F 
ENDBRANCH  65  88
ENDBRANCH  39  40
ENDBRANCH  31  34
ENDBRANCH  29  30
ENDBRANCH  28  29
ENDBRANCH  27  28
ENDBRANCH   1  27
TORSDOF 17
