REMARK SMILES CC(C)C[C@H](NC(=O)[C@@H](NC(=O)N1CC(NCCCCCCNC(=O)c2ccc(-c3c4nc(c(-c5c(F)c(F)c(F)c(F)c5F)c5ccc([nH]5)c(-c5c(F)c(F)c(F)c(F)c5F)c5nc(c(-c6c(F)c(F)c(F)c(F)c6F)c6ccc3[nH]6)C=C5)C=C4)cc2)=[NH+]c2ccccc21)C(C)C)C(=O)[O-]
REMARK SMILES IDX 18 1 17 2 16 3 13 4 14 5 95 6 15 7 90 8 94 9 89 10 91 11
REMARK SMILES IDX 93 12 92 15 11 16 10 17 12 19 9 20 7 21 6 22 8 24 5 25 4 26
REMARK SMILES IDX 2 27 1 28 3 29 99 30 100 31 101 32 96 33 97 34 98 35 19 36
REMARK SMILES IDX 20 37 21 38 22 39 23 40 24 41 25 43 26 44 27 45 88 46 28 47
REMARK SMILES IDX 87 48 29 49 30 50 31 51 81 52 32 53 86 54 80 55 82 56 33 57
REMARK SMILES IDX 85 58 79 59 78 60 34 62 66 63 46 64 65 65 47 66 50 67 64 68
REMARK SMILES IDX 83 69 48 70 49 71 63 73 84 74 51 75 35 76 36 77 44 78 37 79
REMARK SMILES IDX 38 80 42 81 45 82 39 83 40 84 43 85 41 86 67 87 68 88 76 89
REMARK SMILES IDX 69 90 70 91 74 92 77 93 71 94 72 95 75 96 73 97 52 98 53 99
REMARK SMILES IDX 61 100 54 101 55 102 59 103 62 104 56 105 57 106 60 107
REMARK SMILES IDX 58 108
REMARK H PARENT 16 13 89 14 10 18 6 23 23 42 82 61 50 72
REMARK Flexibility Score: inf
ROOT
ATOM      1  C   UNL     1      -3.814  -2.528   3.832  1.00  0.00     0.046 C 
ENDROOT
BRANCH   1   2
ATOM      2  C   UNL     1      -2.597  -2.643   4.758  1.00  0.00     0.233 C 
BRANCH   2   3
ATOM      3  N   UNL     1      -1.438  -2.981   3.976  1.00  0.00    -0.277 N 
ATOM      4  N   UNL     1       1.170  -0.356   3.764  1.00  0.00    -0.278 N 
ATOM      5  C   UNL     1       0.138  -1.037   4.559  1.00  0.00     0.255 C 
ATOM      6  C   UNL     1       2.285  -1.206   3.534  1.00  0.00     0.093 A 
ATOM      7  C   UNL     1      -0.208  -2.381   3.891  1.00  0.00     0.268 C 
ATOM      8  C   UNL     1       1.998  -2.542   3.195  1.00  0.00     0.148 A 
ATOM      9  C   UNL     1       3.608  -0.777   3.640  1.00  0.00     0.031 A 
ATOM     10  N   UNL     1       0.691  -3.062   3.227  1.00  0.00    -0.241 N 
ATOM     11  C   UNL     1       3.035  -3.376   2.784  1.00  0.00     0.054 A 
ATOM     12  C   UNL     1       4.644  -1.644   3.283  1.00  0.00     0.002 A 
ATOM     13  H   UNL     1      -1.547  -3.776   3.406  1.00  0.00     0.304 HD
ATOM     14  H   UNL     1       0.463  -3.903   2.770  1.00  0.00     0.312 HD
ATOM     15  C   UNL     1       4.354  -2.925   2.813  1.00  0.00     0.005 A 
BRANCH   4  16
ATOM     16  C   UNL     1       1.243   1.003   3.754  1.00  0.00     0.323 C 
ATOM     17  N   UNL     1       1.388   1.699   2.591  1.00  0.00    -0.326 N 
ATOM     18  H   UNL     1       1.525   2.653   2.792  1.00  0.00     0.166 HD
ATOM     19  O   UNL     1       1.045   1.667   4.775  1.00  0.00    -0.248 OA
BRANCH  17  20
ATOM     20  C   UNL     1       1.407   1.490   1.108  1.00  0.00     0.175 C 
BRANCH  20  21
ATOM     21  C   UNL     1       0.301   2.134   0.205  1.00  0.00     0.243 C 
ATOM     22  N   UNL     1      -1.029   1.897   0.279  1.00  0.00    -0.346 N 
ATOM     23  H   UNL     1      -1.535   2.245  -0.490  1.00  0.00     0.164 HD
ATOM     24  O   UNL     1       0.650   2.838  -0.755  1.00  0.00    -0.273 OA
BRANCH  22  25
ATOM     25  C   UNL     1      -1.862   1.225   1.276  1.00  0.00     0.128 C 
BRANCH  25  26
ATOM     26  C   UNL     1      -1.787   2.023   2.578  1.00  0.00     0.034 C 
BRANCH  26  27
ATOM     27  C   UNL     1      -2.915   2.025   3.611  1.00  0.00    -0.015 C 
ATOM     28  C   UNL     1      -3.473   0.640   3.863  1.00  0.00     0.007 C 
ATOM     29  C   UNL     1      -2.341   2.582   4.922  1.00  0.00     0.007 C 
ENDBRANCH  26  27
ENDBRANCH  25  26
BRANCH  25  30
ATOM     30  C   UNL     1      -3.288   1.125   0.724  1.00  0.00     0.064 C 
ATOM     31  O   UNL     1      -3.944   0.103   0.595  1.00  0.00    -0.548 OA
ATOM     32  O   UNL     1      -3.837   2.323   0.431  1.00  0.00    -0.548 OA
ENDBRANCH  25  30
ENDBRANCH  22  25
ENDBRANCH  20  21
BRANCH  20  33
ATOM     33  C   UNL     1       1.895   0.123   0.587  1.00  0.00     0.015 C 
ATOM     34  C   UNL     1       1.458  -0.273  -0.828  1.00  0.00     0.010 C 
ATOM     35  C   UNL     1       3.431   0.117   0.599  1.00  0.00     0.010 C 
ENDBRANCH  20  33
ENDBRANCH  17  20
ENDBRANCH   4  16
ENDBRANCH   2   3
ENDBRANCH   1   2
BRANCH   1  36
ATOM     36  C   UNL     1      -4.425  -3.858   3.385  1.00  0.00     0.004 C 
BRANCH  36  37
ATOM     37  C   UNL     1      -5.075  -4.681   4.499  1.00  0.00     0.002 C 
BRANCH  37  38
ATOM     38  C   UNL     1      -6.132  -3.945   5.327  1.00  0.00     0.021 C 
BRANCH  38  39
ATOM     39  C   UNL     1      -7.279  -3.345   4.518  1.00  0.00     0.116 C 
BRANCH  39  40
ATOM     40  N   UNL     1      -8.066  -4.365   3.840  1.00  0.00    -0.352 N 
ATOM     41  C   UNL     1      -9.386  -4.698   4.009  1.00  0.00     0.251 C 
ATOM     42  H   UNL     1      -7.581  -4.892   3.164  1.00  0.00     0.163 HD
ATOM     43  O   UNL     1      -9.840  -5.727   3.511  1.00  0.00    -0.269 OA
BRANCH  41  44
ATOM     44  C   UNL     1     -10.264  -3.821   4.808  1.00  0.00     0.039 A 
ATOM     45  C   UNL     1     -11.089  -4.385   5.784  1.00  0.00     0.014 A 
ATOM     46  C   UNL     1     -10.262  -2.439   4.598  1.00  0.00     0.014 A 
ATOM     47  C   UNL     1     -11.860  -3.554   6.600  1.00  0.00     0.010 A 
ATOM     48  C   UNL     1     -10.971  -1.610   5.460  1.00  0.00     0.010 A 
ATOM     49  C   UNL     1     -11.776  -2.158   6.472  1.00  0.00    -0.014 A 
BRANCH  49  50
ATOM     50  C   UNL     1     -12.510  -1.246   7.387  1.00  0.00     0.031 A 
ATOM     51  C   UNL     1     -13.556  -0.314   6.842  1.00  0.00     0.074 A 
ATOM     52  C   UNL     1     -12.175  -1.197   8.691  1.00  0.00     0.049 A 
ATOM     53  N   UNL     1     -14.222   0.633   7.452  1.00  0.00    -0.248 NA
ATOM     54  C   UNL     1     -13.874  -0.446   5.412  1.00  0.00     0.031 C 
ATOM     55  C   UNL     1     -11.151  -2.023   9.333  1.00  0.00     0.029 A 
ATOM     56  N   UNL     1     -12.647  -0.404   9.709  1.00  0.00    -0.354 N 
ATOM     57  C   UNL     1     -15.023   1.218   6.480  1.00  0.00     0.074 A 
ATOM     58  C   UNL     1     -14.720   0.557   5.229  1.00  0.00     0.031 C 
ATOM     59  C   UNL     1     -11.084  -1.706  10.636  1.00  0.00     0.029 A 
ATOM     60  C   UNL     1     -12.023  -0.623  10.913  1.00  0.00     0.049 A 
ATOM     61  H   UNL     1     -13.365   0.258   9.586  1.00  0.00     0.167 HD
ATOM     62  C   UNL     1     -15.943   2.202   6.623  1.00  0.00     0.037 A 
ATOM     63  C   UNL     1     -12.177  -0.008  12.101  1.00  0.00     0.037 A 
ATOM     64  C   UNL     1     -16.251   2.844   7.874  1.00  0.00     0.049 A 
ATOM     65  C   UNL     1     -13.187   1.102  12.227  1.00  0.00     0.074 A 
ATOM     66  C   UNL     1     -17.202   3.815   8.133  1.00  0.00     0.029 A 
ATOM     67  N   UNL     1     -15.609   2.583   9.076  1.00  0.00    -0.354 N 
ATOM     68  N   UNL     1     -13.982   1.605  11.315  1.00  0.00    -0.248 NA
ATOM     69  C   UNL     1     -13.323   1.727  13.550  1.00  0.00     0.031 C 
ATOM     70  C   UNL     1     -17.095   4.184   9.478  1.00  0.00     0.029 A 
ATOM     71  C   UNL     1     -16.126   3.394  10.074  1.00  0.00     0.049 A 
ATOM     72  H   UNL     1     -14.892   1.919   9.201  1.00  0.00     0.167 HD
ATOM     73  C   UNL     1     -14.740   2.574  11.960  1.00  0.00     0.074 A 
ATOM     74  C   UNL     1     -14.313   2.584  13.343  1.00  0.00     0.031 C 
ATOM     75  C   UNL     1     -15.704   3.380  11.452  1.00  0.00     0.037 A 
BRANCH  62  76
ATOM     76  C   UNL     1     -16.680   2.651   5.393  1.00  0.00     0.064 A 
ATOM     77  C   UNL     1     -17.602   1.819   4.739  1.00  0.00     0.173 A 
ATOM     78  C   UNL     1     -16.490   3.944   4.882  1.00  0.00     0.173 A 
ATOM     79  F   UNL     1     -17.815   0.570   5.179  1.00  0.00    -0.203 F 
ATOM     80  C   UNL     1     -18.281   2.253   3.603  1.00  0.00     0.198 A 
ATOM     81  C   UNL     1     -17.197   4.387   3.767  1.00  0.00     0.198 A 
ATOM     82  F   UNL     1     -15.625   4.785   5.471  1.00  0.00    -0.203 F 
ATOM     83  F   UNL     1     -19.115   1.421   2.965  1.00  0.00    -0.200 F 
ATOM     84  C   UNL     1     -18.084   3.539   3.123  1.00  0.00     0.200 A 
ATOM     85  F   UNL     1     -17.017   5.636   3.315  1.00  0.00    -0.200 F 
ATOM     86  F   UNL     1     -18.745   3.958   2.035  1.00  0.00    -0.200 F 
ENDBRANCH  62  76
BRANCH  63  87
ATOM     87  C   UNL     1     -11.365  -0.435  13.272  1.00  0.00     0.064 A 
ATOM     88  C   UNL     1     -11.965  -1.063  14.373  1.00  0.00     0.173 A 
ATOM     89  C   UNL     1      -9.980  -0.218  13.321  1.00  0.00     0.173 A 
ATOM     90  F   UNL     1     -13.289  -1.276  14.383  1.00  0.00    -0.203 F 
ATOM     91  C   UNL     1     -11.216  -1.435  15.488  1.00  0.00     0.198 A 
ATOM     92  C   UNL     1      -9.227  -0.620  14.422  1.00  0.00     0.198 A 
ATOM     93  F   UNL     1      -9.355   0.373  12.292  1.00  0.00    -0.203 F 
ATOM     94  F   UNL     1     -11.823  -1.985  16.547  1.00  0.00    -0.200 F 
ATOM     95  C   UNL     1      -9.846  -1.218  15.509  1.00  0.00     0.200 A 
ATOM     96  F   UNL     1      -7.901  -0.424  14.431  1.00  0.00    -0.200 F 
ATOM     97  F   UNL     1      -9.125  -1.578  16.579  1.00  0.00    -0.200 F 
ENDBRANCH  63  87
BRANCH  75  98
ATOM     98  C   UNL     1     -16.411   4.303  12.404  1.00  0.00     0.064 A 
ATOM     99  C   UNL     1     -15.778   5.421  12.964  1.00  0.00     0.173 A 
ATOM    100  C   UNL     1     -17.764   4.090  12.717  1.00  0.00     0.173 A 
ATOM    101  F   UNL     1     -14.483   5.662  12.709  1.00  0.00    -0.203 F 
ATOM    102  C   UNL     1     -16.465   6.279  13.819  1.00  0.00     0.198 A 
ATOM    103  C   UNL     1     -18.456   4.968  13.544  1.00  0.00     0.198 A 
ATOM    104  F   UNL     1     -18.419   3.038  12.203  1.00  0.00    -0.203 F 
ATOM    105  F   UNL     1     -15.826   7.315  14.380  1.00  0.00    -0.200 F 
ATOM    106  C   UNL     1     -17.805   6.058  14.101  1.00  0.00     0.200 A 
ATOM    107  F   UNL     1     -19.756   4.762  13.800  1.00  0.00    -0.200 F 
ATOM    108  F   UNL     1     -18.467   6.893  14.913  1.00  0.00    -0.200 F 
ENDBRANCH  75  98
ENDBRANCH  49  50
ENDBRANCH  41  44
ENDBRANCH  39  40
ENDBRANCH  38  39
ENDBRANCH  37  38
ENDBRANCH  36  37
ENDBRANCH   1  36
TORSDOF 20
