REMARK SMILES O=C(NCCCCCCNC(=O)c1cc2c(Cl)c(C(F)(F)F)cnc2n1S(=O)(=O)c1ccccc1)c1ccc(-c2c3nc(c(-c4c(F)c(F)c(F)c(F)c4F)c4ccc([nH]4)c(-c4c(F)c(F)c(F)c(F)c4F)c4nc(c(-c5c(F)c(F)c(F)c(F)c5F)c5ccc2[nH]5)C=C4)C=C3)cc1
REMARK SMILES IDX 6 1 5 2 4 3 3 4 1 5 2 6 36 8 37 9 98 10 38 11 97 12 39 13
REMARK SMILES IDX 40 14 41 15 91 16 42 17 96 18 90 19 92 20 43 21 95 22 89 23
REMARK SMILES IDX 88 24 44 26 76 27 56 28 75 29 57 30 60 31 74 32 93 33 58 34
REMARK SMILES IDX 59 35 73 37 94 38 61 39 45 40 46 41 54 42 47 43 48 44 52 45
REMARK SMILES IDX 55 46 49 47 50 48 53 49 51 50 77 51 78 52 86 53 79 54 80 55
REMARK SMILES IDX 84 56 87 57 81 58 82 59 85 60 83 61 62 62 63 63 71 64 64 65
REMARK SMILES IDX 65 66 69 67 72 68 66 69 67 70 70 71 68 72 7 73 8 74 9 75
REMARK SMILES IDX 10 76 11 77 12 79 13 80 14 81 26 82 15 83 25 84 16 85 24 86
REMARK SMILES IDX 17 87 18 88 23 89 27 90 28 91 29 92 30 93 31 94 35 95 32 96
REMARK SMILES IDX 34 97 33 98 19 99 20 100 21 101 22 102
REMARK H PARENT 3 7 92 25 60 36 10 78
REMARK Flexibility Score: inf
ROOT
ATOM      1  C   UNL     1       4.044  -3.567  -0.336  1.00  0.00     0.002 C 
ENDROOT
BRANCH   1   2
ATOM      2  C   UNL     1       4.655  -2.253   0.161  1.00  0.00     0.021 C 
BRANCH   2   3
ATOM      3  C   UNL     1       4.543  -1.078  -0.806  1.00  0.00     0.116 C 
BRANCH   3   4
ATOM      4  N   UNL     1       3.192  -0.640  -1.094  1.00  0.00    -0.352 N 
ATOM      5  O   UNL     1       1.196   0.342  -0.934  1.00  0.00    -0.269 OA
ATOM      6  C   UNL     1       2.261   0.068  -0.383  1.00  0.00     0.251 C 
ATOM      7  H   UNL     1       2.878  -0.907  -1.988  1.00  0.00     0.163 HD
BRANCH   6   8
ATOM      8  C   UNL     1       2.447   0.444   1.037  1.00  0.00     0.039 A 
ATOM      9  C   UNL     1       3.681   0.763   1.603  1.00  0.00     0.014 A 
ATOM     10  C   UNL     1       1.291   0.497   1.833  1.00  0.00     0.014 A 
ATOM     11  C   UNL     1       3.780   1.000   2.966  1.00  0.00     0.010 A 
ATOM     12  C   UNL     1       1.378   0.785   3.190  1.00  0.00     0.010 A 
ATOM     13  C   UNL     1       2.631   0.999   3.762  1.00  0.00    -0.014 A 
BRANCH  13  14
ATOM     14  C   UNL     1       2.796   1.386   5.160  1.00  0.00     0.031 A 
ATOM     15  C   UNL     1       3.290   2.777   5.385  1.00  0.00     0.074 A 
ATOM     16  C   UNL     1       2.417   0.623   6.202  1.00  0.00     0.049 A 
ATOM     17  N   UNL     1       4.320   3.174   6.063  1.00  0.00    -0.248 NA
ATOM     18  C   UNL     1       2.559   3.864   4.710  1.00  0.00     0.031 C 
ATOM     19  C   UNL     1       1.642  -0.617   6.175  1.00  0.00     0.029 A 
ATOM     20  N   UNL     1       2.568   0.873   7.535  1.00  0.00    -0.354 N 
ATOM     21  C   UNL     1       4.287   4.566   6.026  1.00  0.00     0.074 A 
ATOM     22  C   UNL     1       3.243   4.936   5.105  1.00  0.00     0.031 C 
ATOM     23  C   UNL     1       1.212  -0.894   7.426  1.00  0.00     0.029 A 
ATOM     24  C   UNL     1       1.781   0.075   8.348  1.00  0.00     0.049 A 
ATOM     25  H   UNL     1       3.181   1.558   7.887  1.00  0.00     0.167 HD
ATOM     26  C   UNL     1       4.995   5.343   6.890  1.00  0.00     0.037 A 
ATOM     27  C   UNL     1       1.549   0.258   9.670  1.00  0.00     0.037 A 
ATOM     28  C   UNL     1       6.095   4.646   7.488  1.00  0.00     0.049 A 
ATOM     29  C   UNL     1       2.624   1.126  10.209  1.00  0.00     0.074 A 
ATOM     30  C   UNL     1       7.241   4.044   7.007  1.00  0.00     0.029 A 
ATOM     31  N   UNL     1       5.974   4.219   8.785  1.00  0.00    -0.354 N 
ATOM     32  N   UNL     1       3.869   0.769  10.348  1.00  0.00    -0.248 NA
ATOM     33  C   UNL     1       2.372   2.557  10.290  1.00  0.00     0.031 C 
ATOM     34  C   UNL     1       7.468   2.930   7.867  1.00  0.00     0.029 A 
ATOM     35  C   UNL     1       6.455   2.936   8.827  1.00  0.00     0.049 A 
ATOM     36  H   UNL     1       5.610   4.734   9.541  1.00  0.00     0.167 HD
ATOM     37  C   UNL     1       4.595   1.928  10.122  1.00  0.00     0.074 A 
ATOM     38  C   UNL     1       3.625   3.011  10.219  1.00  0.00     0.031 C 
ATOM     39  C   UNL     1       5.857   1.879   9.607  1.00  0.00     0.037 A 
BRANCH  26  40
ATOM     40  C   UNL     1       4.486   6.658   7.410  1.00  0.00     0.064 A 
ATOM     41  C   UNL     1       5.362   7.572   8.022  1.00  0.00     0.173 A 
ATOM     42  C   UNL     1       3.108   6.926   7.564  1.00  0.00     0.173 A 
ATOM     43  F   UNL     1       6.688   7.376   7.983  1.00  0.00    -0.203 F 
ATOM     44  C   UNL     1       4.887   8.664   8.755  1.00  0.00     0.198 A 
ATOM     45  C   UNL     1       2.639   8.043   8.250  1.00  0.00     0.198 A 
ATOM     46  F   UNL     1       2.175   6.058   7.148  1.00  0.00    -0.203 F 
ATOM     47  F   UNL     1       5.750   9.455   9.406  1.00  0.00    -0.200 F 
ATOM     48  C   UNL     1       3.527   8.901   8.864  1.00  0.00     0.200 A 
ATOM     49  F   UNL     1       1.318   8.238   8.369  1.00  0.00    -0.200 F 
ATOM     50  F   UNL     1       3.071   9.922   9.601  1.00  0.00    -0.200 F 
ENDBRANCH  26  40
BRANCH  27  51
ATOM     51  C   UNL     1       0.303  -0.013  10.425  1.00  0.00     0.064 A 
ATOM     52  C   UNL     1       0.305  -0.040  11.829  1.00  0.00     0.173 A 
ATOM     53  C   UNL     1      -0.959   0.028   9.802  1.00  0.00     0.173 A 
ATOM     54  F   UNL     1       1.464  -0.035  12.504  1.00  0.00    -0.203 F 
ATOM     55  C   UNL     1      -0.883   0.005  12.565  1.00  0.00     0.198 A 
ATOM     56  C   UNL     1      -2.144   0.058  10.536  1.00  0.00     0.198 A 
ATOM     57  F   UNL     1      -1.069   0.141   8.470  1.00  0.00    -0.203 F 
ATOM     58  F   UNL     1      -0.839   0.052  13.903  1.00  0.00    -0.200 F 
ATOM     59  C   UNL     1      -2.106   0.064  11.917  1.00  0.00     0.200 A 
ATOM     60  F   UNL     1      -3.319   0.149   9.896  1.00  0.00    -0.200 F 
ATOM     61  F   UNL     1      -3.242   0.170  12.620  1.00  0.00    -0.200 F 
ENDBRANCH  27  51
BRANCH  39  62
ATOM     62  C   UNL     1       6.557   0.550   9.596  1.00  0.00     0.064 A 
ATOM     63  C   UNL     1       6.111  -0.562   8.861  1.00  0.00     0.173 A 
ATOM     64  C   UNL     1       7.799   0.446  10.237  1.00  0.00     0.173 A 
ATOM     65  F   UNL     1       4.986  -0.502   8.136  1.00  0.00    -0.203 F 
ATOM     66  C   UNL     1       6.855  -1.739   8.812  1.00  0.00     0.198 A 
ATOM     67  C   UNL     1       8.558  -0.718  10.154  1.00  0.00     0.198 A 
ATOM     68  F   UNL     1       8.302   1.496  10.904  1.00  0.00    -0.203 F 
ATOM     69  F   UNL     1       6.404  -2.791   8.113  1.00  0.00    -0.200 F 
ATOM     70  C   UNL     1       8.082  -1.813   9.451  1.00  0.00     0.200 A 
ATOM     71  F   UNL     1       9.767  -0.768  10.730  1.00  0.00    -0.200 F 
ATOM     72  F   UNL     1       8.820  -2.929   9.365  1.00  0.00    -0.200 F 
ENDBRANCH  39  62
ENDBRANCH  13  14
ENDBRANCH   6   8
ENDBRANCH   3   4
ENDBRANCH   2   3
ENDBRANCH   1   2
BRANCH   1  73
ATOM     73  C   UNL     1       4.427  -4.013  -1.754  1.00  0.00     0.002 C 
BRANCH  73  74
ATOM     74  C   UNL     1       5.921  -4.036  -2.102  1.00  0.00     0.021 C 
BRANCH  74  75
ATOM     75  C   UNL     1       6.798  -4.816  -1.135  1.00  0.00     0.116 C 
BRANCH  75  76
ATOM     76  N   UNL     1       6.577  -6.246  -1.158  1.00  0.00    -0.351 N 
ATOM     77  C   UNL     1       7.482  -7.269  -1.065  1.00  0.00     0.269 C 
ATOM     78  H   UNL     1       5.638  -6.524  -1.255  1.00  0.00     0.163 HD
ATOM     79  O   UNL     1       7.056  -8.421  -1.059  1.00  0.00    -0.268 OA
BRANCH  77  80
ATOM     80  C   UNL     1       8.893  -6.982  -1.124  1.00  0.00     0.124 A 
ATOM     81  C   UNL     1       9.736  -7.319  -2.175  1.00  0.00     0.047 A 
ATOM     82  N   UNL     1       9.706  -6.482  -0.120  1.00  0.00    -0.211 N 
ATOM     83  C   UNL     1      11.069  -6.988  -1.817  1.00  0.00     0.040 A 
ATOM     84  C   UNL     1      11.020  -6.475  -0.522  1.00  0.00     0.156 A 
ATOM     85  C   UNL     1      12.342  -7.072  -2.413  1.00  0.00     0.065 A 
ATOM     86  N   UNL     1      12.085  -6.055   0.183  1.00  0.00    -0.237 NA
ATOM     87  Cl  UNL     1      12.371  -7.733  -3.990  1.00  0.00    -0.083 Cl
ATOM     88  C   UNL     1      13.472  -6.634  -1.733  1.00  0.00     0.093 A 
ATOM     89  C   UNL     1      13.273  -6.144  -0.454  1.00  0.00     0.128 A 
BRANCH  82  90
ATOM     90  S   UNL     1       9.160  -6.113   1.444  1.00  0.00     0.270 S 
ATOM     91  O   UNL     1       8.235  -5.019   1.278  1.00  0.00    -0.201 OA
ATOM     92  O   UNL     1       8.728  -7.395   1.983  1.00  0.00    -0.201 OA
BRANCH  90  93
ATOM     93  C   UNL     1      10.457  -5.470   2.458  1.00  0.00     0.088 A 
ATOM     94  C   UNL     1      10.839  -6.155   3.612  1.00  0.00     0.022 A 
ATOM     95  C   UNL     1      10.983  -4.200   2.177  1.00  0.00     0.022 A 
ATOM     96  C   UNL     1      11.787  -5.588   4.464  1.00  0.00     0.001 A 
ATOM     97  C   UNL     1      11.946  -3.650   3.021  1.00  0.00     0.001 A 
ATOM     98  C   UNL     1      12.346  -4.344   4.163  1.00  0.00     0.000 A 
ENDBRANCH  90  93
ENDBRANCH  82  90
BRANCH  88  99
ATOM     99  C   UNL     1      14.842  -6.676  -2.319  1.00  0.00     0.419 C 
ATOM    100  F   UNL     1      15.268  -7.939  -2.586  1.00  0.00    -0.166 F 
ATOM    101  F   UNL     1      14.944  -5.978  -3.482  1.00  0.00    -0.166 F 
ATOM    102  F   UNL     1      15.788  -6.140  -1.495  1.00  0.00    -0.166 F 
ENDBRANCH  88  99
ENDBRANCH  77  80
ENDBRANCH  75  76
ENDBRANCH  74  75
ENDBRANCH  73  74
ENDBRANCH   1  73
TORSDOF 16
