REMARK SMILES [NH3+][C@@H](Cc1cn(-c2nc(Cl)nc(N3CCOCC3)n2)c2ccccc12)C(=O)NCCCCCCNC(=O)c1ccc(-c2c3nc(c(-c4c(F)c(F)c(F)c(F)c4F)c4ccc([nH]4)c(-c4c(F)c(F)c(F)c(F)c4F)c4nc(c(-c5c(F)c(F)c(F)c(F)c5F)c5ccc2[nH]5)C=C4)C=C3)cc1
REMARK SMILES IDX 30 1 29 2 28 3 26 4 27 5 2 7 1 8 3 12 4 13 5 14 25 15 6 16
REMARK SMILES IDX 20 17 24 18 21 19 23 20 22 21 7 22 8 23 19 24 9 25 12 26
REMARK SMILES IDX 10 27 11 28 13 29 14 30 18 31 15 32 17 33 16 34 31 35 32 36
REMARK SMILES IDX 33 37 34 38 35 39 36 40 37 42 38 43 39 44 100 45 40 46 99 47
REMARK SMILES IDX 41 48 42 49 43 50 93 51 44 52 98 53 92 54 94 55 45 56 97 57
REMARK SMILES IDX 91 58 90 59 46 61 78 62 58 63 77 64 59 65 62 66 76 67 95 68
REMARK SMILES IDX 60 69 61 70 75 72 96 73 63 74 47 75 48 76 56 77 49 78 50 79
REMARK SMILES IDX 54 80 57 81 51 82 52 83 55 84 53 85 79 86 80 87 88 88 81 89
REMARK SMILES IDX 82 90 86 91 89 92 83 93 84 94 87 95 85 96 64 97 65 98 73 99
REMARK SMILES IDX 66 100 67 101 71 102 74 103 68 104 69 105 72 106 70 107
REMARK H PARENT 28 6 1 9 1 10 1 11 35 41 94 60 62 71
REMARK Flexibility Score: inf
ROOT
ATOM      1  C   UNL     1      -2.832   1.593  -0.220  1.00  0.00     0.021 C 
ENDROOT
BRANCH   1   2
ATOM      2  C   UNL     1      -1.628   1.388   0.657  1.00  0.00     0.116 C 
BRANCH   2   3
ATOM      3  N   UNL     1      -1.620   0.235   1.497  1.00  0.00    -0.351 N 
ATOM      4  C   UNL     1      -0.495  -0.399   1.949  1.00  0.00     0.278 C 
ATOM      5  O   UNL     1      -0.660  -1.335   2.740  1.00  0.00    -0.268 OA
ATOM      6  H   UNL     1      -2.490  -0.133   1.772  1.00  0.00     0.163 HD
BRANCH   4   7
ATOM      7  C   UNL     1       0.943  -0.001   1.463  1.00  0.00     0.275 C 
BRANCH   7   8
ATOM      8  N   UNL     1       1.240  -0.564   0.130  1.00  0.00    -0.347 N 
ATOM      9  H   UNL     1       2.179  -0.287  -0.155  1.00  0.00     0.345 HD
ATOM     10  H   UNL     1       0.562  -0.213  -0.546  1.00  0.00     0.345 HD
ATOM     11  H   UNL     1       1.184  -1.582   0.171  1.00  0.00     0.345 HD
ENDBRANCH   7   8
BRANCH   7  12
ATOM     12  C   UNL     1       1.438   1.443   1.716  1.00  0.00     0.113 C 
BRANCH  12  13
ATOM     13  C   UNL     1       1.138   2.611   0.784  1.00  0.00    -0.015 A 
ATOM     14  C   UNL     1       0.809   2.680  -0.561  1.00  0.00     0.099 A 
ATOM     15  C   UNL     1       1.194   3.980   1.210  1.00  0.00     0.004 A 
ATOM     16  N   UNL     1       0.253   3.929  -0.830  1.00  0.00    -0.285 N 
ATOM     17  C   UNL     1       0.686   4.794   0.179  1.00  0.00     0.056 A 
ATOM     18  C   UNL     1       1.634   4.571   2.417  1.00  0.00     0.010 A 
ATOM     19  C   UNL     1       0.645   6.194   0.335  1.00  0.00     0.027 A 
ATOM     20  C   UNL     1       1.615   5.955   2.563  1.00  0.00     0.001 A 
ATOM     21  C   UNL     1       1.134   6.752   1.531  1.00  0.00     0.002 A 
BRANCH  16  22
ATOM     22  C   UNL     1      -0.621   4.184  -1.959  1.00  0.00     0.240 A 
ATOM     23  N   UNL     1      -0.090   4.751  -3.024  1.00  0.00    -0.181 NA
ATOM     24  N   UNL     1      -1.887   3.676  -1.938  1.00  0.00    -0.176 NA
ATOM     25  C   UNL     1      -0.905   4.692  -4.073  1.00  0.00     0.228 A 
ATOM     26  C   UNL     1      -2.643   3.671  -3.051  1.00  0.00     0.231 A 
ATOM     27  Cl  UNL     1      -0.304   5.422  -5.499  1.00  0.00    -0.041 Cl
ATOM     28  N   UNL     1      -2.137   4.173  -4.165  1.00  0.00    -0.182 NA
BRANCH  26  29
ATOM     29  N   UNL     1      -4.003   3.283  -3.061  1.00  0.00    -0.336 N 
ATOM     30  C   UNL     1      -5.198   3.922  -2.362  1.00  0.00     0.148 C 
ATOM     31  C   UNL     1      -4.502   2.752  -4.346  1.00  0.00     0.148 C 
ATOM     32  C   UNL     1      -6.365   2.946  -2.142  1.00  0.00     0.181 C 
ATOM     33  C   UNL     1      -5.655   1.766  -4.045  1.00  0.00     0.181 C 
ATOM     34  O   UNL     1      -6.775   2.394  -3.394  1.00  0.00    -0.378 OA
ENDBRANCH  26  29
ENDBRANCH  16  22
ENDBRANCH  12  13
ENDBRANCH   7  12
ENDBRANCH   4   7
ENDBRANCH   2   3
ENDBRANCH   1   2
BRANCH   1  35
ATOM     35  C   UNL     1      -3.732   2.786   0.157  1.00  0.00     0.002 C 
BRANCH  35  36
ATOM     36  C   UNL     1      -3.250   4.243   0.496  1.00  0.00     0.002 C 
BRANCH  36  37
ATOM     37  C   UNL     1      -3.339   5.705  -0.182  1.00  0.00     0.021 C 
BRANCH  37  38
ATOM     38  C   UNL     1      -3.126   6.467  -1.557  1.00  0.00     0.116 C 
BRANCH  38  39
ATOM     39  N   UNL     1      -3.892   6.216  -2.795  1.00  0.00    -0.352 N 
ATOM     40  C   UNL     1      -4.546   6.936  -3.760  1.00  0.00     0.251 C 
ATOM     41  H   UNL     1      -3.950   5.251  -2.980  1.00  0.00     0.163 HD
ATOM     42  O   UNL     1      -5.099   6.393  -4.714  1.00  0.00    -0.269 OA
BRANCH  40  43
ATOM     43  C   UNL     1      -4.599   8.366  -3.637  1.00  0.00     0.039 A 
ATOM     44  C   UNL     1      -3.416   8.982  -3.272  1.00  0.00     0.014 A 
ATOM     45  C   UNL     1      -5.837   9.012  -3.686  1.00  0.00     0.014 A 
ATOM     46  C   UNL     1      -3.531  10.163  -2.612  1.00  0.00     0.010 A 
ATOM     47  C   UNL     1      -5.922  10.276  -3.147  1.00  0.00     0.010 A 
ATOM     48  C   UNL     1      -4.788  10.790  -2.525  1.00  0.00    -0.014 A 
BRANCH  48  49
ATOM     49  C   UNL     1      -4.756  12.079  -1.865  1.00  0.00     0.031 A 
ATOM     50  C   UNL     1      -3.673  12.943  -2.407  1.00  0.00     0.074 A 
ATOM     51  C   UNL     1      -5.583  12.433  -0.871  1.00  0.00     0.049 A 
ATOM     52  N   UNL     1      -2.628  13.383  -1.787  1.00  0.00    -0.248 NA
ATOM     53  C   UNL     1      -3.627  13.108  -3.873  1.00  0.00     0.031 C 
ATOM     54  C   UNL     1      -6.810  11.779  -0.418  1.00  0.00     0.029 A 
ATOM     55  N   UNL     1      -5.527  13.552  -0.107  1.00  0.00    -0.354 N 
ATOM     56  C   UNL     1      -1.866  14.019  -2.760  1.00  0.00     0.074 A 
ATOM     57  C   UNL     1      -2.430  13.668  -4.034  1.00  0.00     0.031 C 
ATOM     58  C   UNL     1      -7.508  12.647   0.348  1.00  0.00     0.029 A 
ATOM     59  C   UNL     1      -6.713  13.848   0.540  1.00  0.00     0.049 A 
ATOM     60  H   UNL     1      -4.716  14.103  -0.021  1.00  0.00     0.167 HD
ATOM     61  C   UNL     1      -0.980  14.992  -2.428  1.00  0.00     0.037 A 
ATOM     62  C   UNL     1      -7.029  15.050   1.075  1.00  0.00     0.037 A 
ATOM     63  C   UNL     1      -0.534  14.849  -1.068  1.00  0.00     0.049 A 
ATOM     64  C   UNL     1      -5.754  15.787   1.292  1.00  0.00     0.074 A 
ATOM     65  C   UNL     1       0.183  13.891  -0.381  1.00  0.00     0.029 A 
ATOM     66  N   UNL     1      -1.132  15.632  -0.113  1.00  0.00    -0.354 N 
ATOM     67  N   UNL     1      -4.847  15.440   2.164  1.00  0.00    -0.248 NA
ATOM     68  C   UNL     1      -5.290  16.677   0.236  1.00  0.00     0.031 C 
ATOM     69  C   UNL     1      -0.371  13.876   0.932  1.00  0.00     0.029 A 
ATOM     70  C   UNL     1      -1.371  14.849   0.984  1.00  0.00     0.049 A 
ATOM     71  H   UNL     1      -1.350  16.588  -0.201  1.00  0.00     0.167 HD
ATOM     72  C   UNL     1      -3.634  15.726   1.553  1.00  0.00     0.074 A 
ATOM     73  C   UNL     1      -3.970  16.580   0.419  1.00  0.00     0.031 C 
ATOM     74  C   UNL     1      -2.510  15.016   1.859  1.00  0.00     0.037 A 
BRANCH  61  75
ATOM     75  C   UNL     1      -0.891  16.288  -3.198  1.00  0.00     0.064 A 
ATOM     76  C   UNL     1       0.058  17.248  -2.801  1.00  0.00     0.173 A 
ATOM     77  C   UNL     1      -1.889  16.751  -4.087  1.00  0.00     0.173 A 
ATOM     78  F   UNL     1       1.043  16.925  -1.949  1.00  0.00    -0.203 F 
ATOM     79  C   UNL     1      -0.046  18.587  -3.186  1.00  0.00     0.198 A 
ATOM     80  C   UNL     1      -1.958  18.074  -4.510  1.00  0.00     0.198 A 
ATOM     81  F   UNL     1      -2.906  15.987  -4.497  1.00  0.00    -0.203 F 
ATOM     82  F   UNL     1       0.797  19.492  -2.673  1.00  0.00    -0.200 F 
ATOM     83  C   UNL     1      -1.060  19.000  -4.031  1.00  0.00     0.200 A 
ATOM     84  F   UNL     1      -2.961  18.454  -5.314  1.00  0.00    -0.200 F 
ATOM     85  F   UNL     1      -1.204  20.294  -4.344  1.00  0.00    -0.200 F 
ENDBRANCH  61  75
BRANCH  62  86
ATOM     86  C   UNL     1      -8.351  15.723   1.044  1.00  0.00     0.064 A 
ATOM     87  C   UNL     1      -8.587  16.866   1.824  1.00  0.00     0.173 A 
ATOM     88  C   UNL     1      -9.319  15.428   0.062  1.00  0.00     0.173 A 
ATOM     89  F   UNL     1      -7.694  17.245   2.750  1.00  0.00    -0.203 F 
ATOM     90  C   UNL     1      -9.706  17.678   1.616  1.00  0.00     0.198 A 
ATOM     91  C   UNL     1     -10.442  16.231  -0.135  1.00  0.00     0.198 A 
ATOM     92  F   UNL     1      -9.153  14.410  -0.794  1.00  0.00    -0.203 F 
ATOM     93  F   UNL     1      -9.859  18.799   2.334  1.00  0.00    -0.200 F 
ATOM     94  C   UNL     1     -10.628  17.365   0.631  1.00  0.00     0.200 A 
ATOM     95  F   UNL     1     -11.308  15.932  -1.114  1.00  0.00    -0.200 F 
ATOM     96  F   UNL     1     -11.668  18.174   0.392  1.00  0.00    -0.200 F 
ENDBRANCH  62  86
BRANCH  74  97
ATOM     97  C   UNL     1      -2.544  14.134   3.073  1.00  0.00     0.064 A 
ATOM     98  C   UNL     1      -3.349  12.988   3.182  1.00  0.00     0.173 A 
ATOM     99  C   UNL     1      -1.587  14.354   4.074  1.00  0.00     0.173 A 
ATOM    100  F   UNL     1      -4.218  12.662   2.218  1.00  0.00    -0.203 F 
ATOM    101  C   UNL     1      -3.212  12.114   4.259  1.00  0.00     0.198 A 
ATOM    102  C   UNL     1      -1.428  13.459   5.127  1.00  0.00     0.198 A 
ATOM    103  F   UNL     1      -0.755  15.404   3.989  1.00  0.00    -0.203 F 
ATOM    104  F   UNL     1      -3.985  11.020   4.339  1.00  0.00    -0.200 F 
ATOM    105  C   UNL     1      -2.243  12.343   5.223  1.00  0.00     0.200 A 
ATOM    106  F   UNL     1      -0.454  13.656   6.027  1.00  0.00    -0.200 F 
ATOM    107  F   UNL     1      -2.069  11.468   6.223  1.00  0.00    -0.200 F 
ENDBRANCH  74  97
ENDBRANCH  48  49
ENDBRANCH  40  43
ENDBRANCH  38  39
ENDBRANCH  37  38
ENDBRANCH  36  37
ENDBRANCH  35  36
ENDBRANCH   1  35
TORSDOF 18
