REMARK SMILES Cc1c(C(=O)NCCCCCCNC(=O)c2ccc(-c3c4nc(c(-c5c(F)c(F)c(F)c(F)c5F)c5ccc([nH]5)c(-c5c(F)c(F)c(F)c(F)c5F)c5nc(c(-c6c(F)c(F)c(F)c(F)c6F)c6ccc3[nH]6)C=C5)C=C4)cc2)cccc1-n1c(C)cc(/C=C2/C(=O)NC(=S)N=C2O)c1C
REMARK SMILES IDX 9 1 8 2 7 3 6 4 4 5 5 6 3 8 1 9 2 10 82 11 79 12 81 13 80 14
REMARK SMILES IDX 83 15 84 16 98 17 85 18 86 19 87 20 99 21 88 22 89 23 90 24
REMARK SMILES IDX 96 25 91 26 92 27 95 28 93 29 94 31 97 32 10 34 11 35 12 36
REMARK SMILES IDX 13 37 14 38 15 40 16 41 17 42 78 43 18 44 77 45 19 46 20 47
REMARK SMILES IDX 21 48 71 49 22 50 76 51 70 52 72 53 23 54 75 55 69 56 68 57
REMARK SMILES IDX 24 59 56 60 36 61 55 62 37 63 40 64 54 65 73 66 38 67 39 68
REMARK SMILES IDX 53 70 74 71 41 72 25 73 26 74 34 75 27 76 28 77 32 78 35 79
REMARK SMILES IDX 29 80 30 81 33 82 31 83 57 84 58 85 66 86 59 87 60 88 64 89
REMARK SMILES IDX 67 90 61 91 62 92 65 93 63 94 42 95 43 96 51 97 44 98 45 99
REMARK SMILES IDX 49 100 52 101 46 102 47 103 50 104 48 105
REMARK H PARENT 6 7 92 30 97 33 13 39 72 58 40 69
REMARK Flexibility Score: inf
ROOT
ATOM      1  C   UNL     1       5.463  -3.235   0.968  1.00  0.00     0.002 C 
ENDROOT
BRANCH   1   2
ATOM      2  C   UNL     1       4.230  -2.323   0.941  1.00  0.00     0.021 C 
BRANCH   2   3
ATOM      3  C   UNL     1       3.257  -2.555  -0.230  1.00  0.00     0.116 C 
BRANCH   3   4
ATOM      4  N   UNL     1       1.973  -3.001   0.270  1.00  0.00    -0.352 N 
ATOM      5  C   UNL     1       0.716  -2.481   0.391  1.00  0.00     0.251 C 
ATOM      6  O   UNL     1      -0.115  -3.258   0.877  1.00  0.00    -0.269 OA
ATOM      7  H   UNL     1       2.018  -3.922   0.614  1.00  0.00     0.163 HD
BRANCH   5   8
ATOM      8  C   UNL     1       0.230  -1.128  -0.038  1.00  0.00     0.044 A 
ATOM      9  C   UNL     1       2.269   0.293   0.597  1.00  0.00     0.047 C 
ATOM     10  C   UNL     1       0.877   0.122   0.069  1.00  0.00    -0.014 A 
ATOM     11  C   UNL     1       0.140   1.282  -0.301  1.00  0.00     0.049 A 
ATOM     12  C   UNL     1      -1.133  -1.144  -0.439  1.00  0.00     0.014 A 
ATOM     13  C   UNL     1      -1.203   1.239  -0.689  1.00  0.00     0.027 A 
ATOM     14  C   UNL     1      -1.845   0.016  -0.747  1.00  0.00     0.003 A 
BRANCH  11  15
ATOM     15  N   UNL     1       0.703   2.573  -0.162  1.00  0.00    -0.318 N 
ATOM     16  C   UNL     1       1.402   3.248  -1.144  1.00  0.00     0.020 A 
ATOM     17  C   UNL     1       0.701   3.321   1.011  1.00  0.00     0.027 A 
ATOM     18  C   UNL     1       1.726   2.663  -2.473  1.00  0.00     0.065 C 
ATOM     19  C   UNL     1       1.724   4.488  -0.633  1.00  0.00     0.031 A 
ATOM     20  C   UNL     1       1.271   4.550   0.714  1.00  0.00    -0.003 A 
ATOM     21  C   UNL     1       0.183   2.738   2.287  1.00  0.00     0.065 C 
BRANCH  20  22
ATOM     22  C   UNL     1       1.567   5.650   1.577  1.00  0.00     0.029 C 
ATOM     23  C   UNL     1       0.911   6.194   2.618  1.00  0.00     0.102 C 
ATOM     24  C   UNL     1       1.653   7.233   3.378  1.00  0.00     0.262 C 
ATOM     25  C   UNL     1      -0.394   5.872   3.195  1.00  0.00     0.226 C 
ATOM     26  O   UNL     1       2.652   7.812   2.967  1.00  0.00    -0.269 OA
ATOM     27  N   UNL     1       1.155   7.463   4.633  1.00  0.00    -0.297 N 
ATOM     28  N   UNL     1      -0.811   6.181   4.369  1.00  0.00    -0.184 NA
ATOM     29  C   UNL     1       0.019   6.915   5.173  1.00  0.00     0.203 C 
ATOM     30  H   UNL     1       1.663   8.084   5.204  1.00  0.00     0.172 HD
ATOM     31  S   UNL     1      -0.306   7.234   6.786  1.00  0.00    -0.038 S 
BRANCH  25  32
ATOM     32  O   UNL     1      -1.264   5.258   2.392  1.00  0.00    -0.493 OA
ATOM     33  H   UNL     1      -1.008   5.011   1.525  1.00  0.00     0.295 HD
ENDBRANCH  25  32
ENDBRANCH  20  22
ENDBRANCH  11  15
ENDBRANCH   5   8
ENDBRANCH   3   4
ENDBRANCH   2   3
ENDBRANCH   1   2
BRANCH   1  34
ATOM     34  C   UNL     1       6.323  -3.245  -0.303  1.00  0.00     0.002 C 
BRANCH  34  35
ATOM     35  C   UNL     1       6.681  -1.869  -0.867  1.00  0.00     0.021 C 
BRANCH  35  36
ATOM     36  C   UNL     1       7.780  -1.157  -0.088  1.00  0.00     0.116 C 
BRANCH  36  37
ATOM     37  N   UNL     1       9.116  -1.439  -0.603  1.00  0.00    -0.352 N 
ATOM     38  C   UNL     1      10.356  -1.038  -0.132  1.00  0.00     0.251 C 
ATOM     39  H   UNL     1       9.140  -2.002  -1.410  1.00  0.00     0.163 HD
ATOM     40  O   UNL     1      11.371  -1.333  -0.726  1.00  0.00    -0.269 OA
BRANCH  38  41
ATOM     41  C   UNL     1      10.430  -0.375   1.192  1.00  0.00     0.039 A 
ATOM     42  C   UNL     1      11.302  -0.931   2.136  1.00  0.00     0.014 A 
ATOM     43  C   UNL     1       9.492   0.581   1.566  1.00  0.00     0.014 A 
ATOM     44  C   UNL     1      11.047  -0.737   3.488  1.00  0.00     0.010 A 
ATOM     45  C   UNL     1       9.177   0.699   2.903  1.00  0.00     0.010 A 
ATOM     46  C   UNL     1       9.903  -0.031   3.852  1.00  0.00    -0.014 A 
BRANCH  46  47
ATOM     47  C   UNL     1       9.310  -0.109   5.179  1.00  0.00     0.031 A 
ATOM     48  C   UNL     1       9.421   1.028   6.110  1.00  0.00     0.074 A 
ATOM     49  C   UNL     1       8.561  -1.190   5.491  1.00  0.00     0.049 A 
ATOM     50  N   UNL     1       9.214   0.956   7.380  1.00  0.00    -0.248 NA
ATOM     51  C   UNL     1       9.855   2.347   5.674  1.00  0.00     0.031 C 
ATOM     52  C   UNL     1       7.631  -1.335   6.606  1.00  0.00     0.029 A 
ATOM     53  N   UNL     1       8.651  -2.482   4.940  1.00  0.00    -0.354 N 
ATOM     54  C   UNL     1       9.203   2.239   7.881  1.00  0.00     0.074 A 
ATOM     55  C   UNL     1       9.713   3.048   6.802  1.00  0.00     0.031 C 
ATOM     56  C   UNL     1       7.457  -2.642   6.857  1.00  0.00     0.029 A 
ATOM     57  C   UNL     1       8.394  -3.365   6.015  1.00  0.00     0.049 A 
ATOM     58  H   UNL     1       8.851  -2.721   4.006  1.00  0.00     0.167 HD
ATOM     59  C   UNL     1       8.625   2.455   9.100  1.00  0.00     0.037 A 
ATOM     60  C   UNL     1       9.353  -4.217   6.479  1.00  0.00     0.037 A 
ATOM     61  C   UNL     1       8.336   1.178   9.763  1.00  0.00     0.049 A 
ATOM     62  C   UNL     1       9.705  -4.011   7.934  1.00  0.00     0.074 A 
ATOM     63  C   UNL     1       7.178   0.435   9.922  1.00  0.00     0.029 A 
ATOM     64  N   UNL     1       9.391   0.337  10.110  1.00  0.00    -0.354 N 
ATOM     65  N   UNL     1       9.460  -2.911   8.591  1.00  0.00    -0.248 NA
ATOM     66  C   UNL     1      10.384  -5.011   8.752  1.00  0.00     0.031 C 
ATOM     67  C   UNL     1       7.548  -0.882  10.299  1.00  0.00     0.029 A 
ATOM     68  C   UNL     1       8.928  -0.933  10.397  1.00  0.00     0.049 A 
ATOM     69  H   UNL     1      10.336   0.609  10.146  1.00  0.00     0.167 HD
ATOM     70  C   UNL     1       9.938  -3.026   9.870  1.00  0.00     0.074 A 
ATOM     71  C   UNL     1      10.492  -4.366   9.927  1.00  0.00     0.031 C 
ATOM     72  C   UNL     1       9.846  -2.000  10.767  1.00  0.00     0.037 A 
BRANCH  59  73
ATOM     73  C   UNL     1       8.047   3.785   9.571  1.00  0.00     0.064 A 
ATOM     74  C   UNL     1       7.067   3.816  10.592  1.00  0.00     0.173 A 
ATOM     75  C   UNL     1       8.320   5.048   9.009  1.00  0.00     0.173 A 
ATOM     76  F   UNL     1       6.763   2.724  11.305  1.00  0.00    -0.203 F 
ATOM     77  C   UNL     1       6.351   4.973  10.925  1.00  0.00     0.198 A 
ATOM     78  C   UNL     1       7.585   6.198   9.318  1.00  0.00     0.198 A 
ATOM     79  F   UNL     1       9.340   5.249   8.176  1.00  0.00    -0.203 F 
ATOM     80  F   UNL     1       5.414   4.924  11.883  1.00  0.00    -0.200 F 
ATOM     81  C   UNL     1       6.588   6.159  10.265  1.00  0.00     0.200 A 
ATOM     82  F   UNL     1       7.860   7.347   8.683  1.00  0.00    -0.200 F 
ATOM     83  F   UNL     1       5.882   7.260  10.554  1.00  0.00    -0.200 F 
ENDBRANCH  59  73
BRANCH  60  84
ATOM     84  C   UNL     1      10.300  -4.666   5.425  1.00  0.00     0.064 A 
ATOM     85  C   UNL     1       9.793  -5.436   4.360  1.00  0.00     0.173 A 
ATOM     86  C   UNL     1      11.543  -4.050   5.243  1.00  0.00     0.173 A 
ATOM     87  F   UNL     1       8.603  -6.046   4.483  1.00  0.00    -0.203 F 
ATOM     88  C   UNL     1      10.443  -5.489   3.129  1.00  0.00     0.198 A 
ATOM     89  C   UNL     1      12.198  -4.116   4.010  1.00  0.00     0.198 A 
ATOM     90  F   UNL     1      12.070  -3.286   6.211  1.00  0.00    -0.203 F 
ATOM     91  F   UNL     1       9.876  -6.138   2.102  1.00  0.00    -0.200 F 
ATOM     92  C   UNL     1      11.632  -4.804   2.947  1.00  0.00     0.200 A 
ATOM     93  F   UNL     1      13.335  -3.429   3.823  1.00  0.00    -0.200 F 
ATOM     94  F   UNL     1      12.210  -4.773   1.738  1.00  0.00    -0.200 F 
ENDBRANCH  60  84
BRANCH  72  95
ATOM     95  C   UNL     1      10.537  -1.932  12.108  1.00  0.00     0.064 A 
ATOM     96  C   UNL     1      11.762  -2.559  12.393  1.00  0.00     0.173 A 
ATOM     97  C   UNL     1      10.040  -1.078  13.124  1.00  0.00     0.173 A 
ATOM     98  F   UNL     1      12.397  -3.298  11.475  1.00  0.00    -0.203 F 
ATOM     99  C   UNL     1      12.409  -2.393  13.622  1.00  0.00     0.198 A 
ATOM    100  C   UNL     1      10.719  -0.869  14.324  1.00  0.00     0.198 A 
ATOM    101  F   UNL     1       8.894  -0.400  12.970  1.00  0.00    -0.203 F 
ATOM    102  F   UNL     1      13.556  -3.045  13.859  1.00  0.00    -0.200 F 
ATOM    103  C   UNL     1      11.896  -1.539  14.580  1.00  0.00     0.200 A 
ATOM    104  F   UNL     1      10.235   0.004  15.219  1.00  0.00    -0.200 F 
ATOM    105  F   UNL     1      12.546  -1.345  15.735  1.00  0.00    -0.200 F 
ENDBRANCH  72  95
ENDBRANCH  46  47
ENDBRANCH  38  41
ENDBRANCH  36  37
ENDBRANCH  35  36
ENDBRANCH  34  35
ENDBRANCH   1  34
TORSDOF 16
