REMARK SMILES O=C(NCCCCCCNC(=O)c1cccn(CC[NH+]2CCCC2)c1=O)c1ccc(-c2c3nc(c(-c4c(F)c(F)c(F)c(F)c4F)c4ccc([nH]4)c(-c4c(F)c(F)c(F)c(F)c4F)c4nc(c(-c5c(F)c(F)c(F)c(F)c5F)c5ccc2[nH]5)C=C4)C=C3)cc1
REMARK SMILES IDX 7 1 6 2 5 3 4 4 3 5 1 6 2 7 27 9 28 10 89 11 29 12 88 13
REMARK SMILES IDX 30 14 31 15 32 16 82 17 33 18 87 19 81 20 83 21 34 22 86 23
REMARK SMILES IDX 80 24 79 25 35 27 67 28 47 29 66 30 48 31 51 32 65 33 84 34
REMARK SMILES IDX 49 35 50 36 64 38 85 39 52 40 36 41 37 42 45 43 38 44 39 45
REMARK SMILES IDX 43 46 46 47 40 48 41 49 44 50 42 51 68 52 69 53 77 54 70 55
REMARK SMILES IDX 71 56 75 57 78 58 72 59 73 60 76 61 74 62 53 63 54 64 62 65
REMARK SMILES IDX 55 66 56 67 60 68 63 69 57 70 58 71 61 72 59 73 8 74 9 75
REMARK SMILES IDX 10 76 11 77 12 79 13 80 14 81 25 82 15 83 17 84 26 85 16 86
REMARK SMILES IDX 18 87 19 88 20 89 21 90 24 91 22 93 23 94
REMARK H PARENT 3 8 83 26 51 37 10 78 20 92
REMARK Flexibility Score: inf
ROOT
ATOM      1  C   UNL     1       4.686  -3.557   2.375  1.00  0.00     0.002 C 
ENDROOT
BRANCH   1   2
ATOM      2  C   UNL     1       4.175  -2.254   2.996  1.00  0.00     0.002 C 
BRANCH   2   3
ATOM      3  C   UNL     1       4.694  -0.969   2.344  1.00  0.00     0.021 C 
BRANCH   3   4
ATOM      4  C   UNL     1       4.425  -0.854   0.848  1.00  0.00     0.116 C 
BRANCH   4   5
ATOM      5  N   UNL     1       3.003  -0.879   0.551  1.00  0.00    -0.352 N 
ATOM      6  O   UNL     1       1.006  -0.059  -0.075  1.00  0.00    -0.269 OA
ATOM      7  C   UNL     1       2.232   0.033  -0.115  1.00  0.00     0.251 C 
ATOM      8  H   UNL     1       2.522  -1.673   0.879  1.00  0.00     0.163 HD
BRANCH   7   9
ATOM      9  C   UNL     1       2.853   1.123  -0.898  1.00  0.00     0.039 A 
ATOM     10  C   UNL     1       2.246   2.383  -0.893  1.00  0.00     0.014 A 
ATOM     11  C   UNL     1       3.962   0.883  -1.716  1.00  0.00     0.014 A 
ATOM     12  C   UNL     1       2.744   3.401  -1.708  1.00  0.00     0.010 A 
ATOM     13  C   UNL     1       4.498   1.916  -2.480  1.00  0.00     0.010 A 
ATOM     14  C   UNL     1       3.869   3.170  -2.513  1.00  0.00    -0.014 A 
BRANCH  14  15
ATOM     15  C   UNL     1       4.332   4.176  -3.499  1.00  0.00     0.031 A 
ATOM     16  C   UNL     1       4.173   3.887  -4.966  1.00  0.00     0.074 A 
ATOM     17  C   UNL     1       4.909   5.320  -3.095  1.00  0.00     0.049 A 
ATOM     18  N   UNL     1       4.618   4.553  -6.000  1.00  0.00    -0.248 NA
ATOM     19  C   UNL     1       3.427   2.666  -5.312  1.00  0.00     0.031 C 
ATOM     20  C   UNL     1       5.096   5.727  -1.704  1.00  0.00     0.029 A 
ATOM     21  N   UNL     1       5.447   6.349  -3.824  1.00  0.00    -0.354 N 
ATOM     22  C   UNL     1       4.222   3.825  -7.114  1.00  0.00     0.074 A 
ATOM     23  C   UNL     1       3.550   2.639  -6.629  1.00  0.00     0.031 C 
ATOM     24  C   UNL     1       5.685   6.934  -1.680  1.00  0.00     0.029 A 
ATOM     25  C   UNL     1       5.957   7.360  -3.051  1.00  0.00     0.049 A 
ATOM     26  H   UNL     1       5.464   6.361  -4.809  1.00  0.00     0.167 HD
ATOM     27  C   UNL     1       4.380   4.129  -8.425  1.00  0.00     0.037 A 
ATOM     28  C   UNL     1       6.582   8.497  -3.412  1.00  0.00     0.037 A 
ATOM     29  C   UNL     1       5.035   5.317  -8.904  1.00  0.00     0.049 A 
ATOM     30  C   UNL     1       6.808   8.785  -4.870  1.00  0.00     0.074 A 
ATOM     31  C   UNL     1       5.247   5.722 -10.210  1.00  0.00     0.029 A 
ATOM     32  N   UNL     1       5.581   6.299  -8.088  1.00  0.00    -0.354 N 
ATOM     33  N   UNL     1       6.451   8.083  -5.919  1.00  0.00    -0.248 NA
ATOM     34  C   UNL     1       7.531  10.022  -5.193  1.00  0.00     0.031 C 
ATOM     35  C   UNL     1       5.955   6.930 -10.184  1.00  0.00     0.029 A 
ATOM     36  C   UNL     1       6.144   7.302  -8.862  1.00  0.00     0.049 A 
ATOM     37  H   UNL     1       5.571   6.285  -7.103  1.00  0.00     0.167 HD
ATOM     38  C   UNL     1       6.893   8.796  -7.025  1.00  0.00     0.074 A 
ATOM     39  C   UNL     1       7.526   9.998  -6.519  1.00  0.00     0.031 C 
ATOM     40  C   UNL     1       6.786   8.483  -8.341  1.00  0.00     0.037 A 
BRANCH  27  41
ATOM     41  C   UNL     1       3.838   3.148  -9.424  1.00  0.00     0.064 A 
ATOM     42  C   UNL     1       2.457   2.954  -9.587  1.00  0.00     0.173 A 
ATOM     43  C   UNL     1       4.705   2.385 -10.220  1.00  0.00     0.173 A 
ATOM     44  F   UNL     1       1.585   3.645  -8.837  1.00  0.00    -0.203 F 
ATOM     45  C   UNL     1       1.966   2.005 -10.480  1.00  0.00     0.198 A 
ATOM     46  C   UNL     1       4.209   1.461 -11.137  1.00  0.00     0.198 A 
ATOM     47  F   UNL     1       6.033   2.531 -10.107  1.00  0.00    -0.203 F 
ATOM     48  F   UNL     1       0.646   1.792 -10.570  1.00  0.00    -0.200 F 
ATOM     49  C   UNL     1       2.842   1.263 -11.258  1.00  0.00     0.200 A 
ATOM     50  F   UNL     1       5.057   0.751 -11.895  1.00  0.00    -0.200 F 
ATOM     51  F   UNL     1       2.369   0.348 -12.115  1.00  0.00    -0.200 F 
ENDBRANCH  27  41
BRANCH  28  52
ATOM     52  C   UNL     1       7.005   9.459  -2.364  1.00  0.00     0.064 A 
ATOM     53  C   UNL     1       6.318  10.668  -2.192  1.00  0.00     0.173 A 
ATOM     54  C   UNL     1       8.063   9.177  -1.489  1.00  0.00     0.173 A 
ATOM     55  F   UNL     1       5.314  10.991  -3.021  1.00  0.00    -0.203 F 
ATOM     56  C   UNL     1       6.671  11.558  -1.180  1.00  0.00     0.198 A 
ATOM     57  C   UNL     1       8.401  10.057  -0.463  1.00  0.00     0.198 A 
ATOM     58  F   UNL     1       8.751   8.032  -1.614  1.00  0.00    -0.203 F 
ATOM     59  F   UNL     1       6.010  12.716  -1.049  1.00  0.00    -0.200 F 
ATOM     60  C   UNL     1       7.705  11.247  -0.310  1.00  0.00     0.200 A 
ATOM     61  F   UNL     1       9.393   9.748   0.383  1.00  0.00    -0.200 F 
ATOM     62  F   UNL     1       8.032  12.094   0.675  1.00  0.00    -0.200 F 
ENDBRANCH  28  52
BRANCH  40  63
ATOM     63  C   UNL     1       7.365   9.457  -9.326  1.00  0.00     0.064 A 
ATOM     64  C   UNL     1       8.752   9.611  -9.476  1.00  0.00     0.173 A 
ATOM     65  C   UNL     1       6.527  10.220 -10.154  1.00  0.00     0.173 A 
ATOM     66  F   UNL     1       9.595   8.915  -8.699  1.00  0.00    -0.203 F 
ATOM     67  C   UNL     1       9.277  10.513 -10.397  1.00  0.00     0.198 A 
ATOM     68  C   UNL     1       7.056  11.099 -11.095  1.00  0.00     0.198 A 
ATOM     69  F   UNL     1       5.194  10.105 -10.057  1.00  0.00    -0.203 F 
ATOM     70  F   UNL     1      10.603  10.680 -10.488  1.00  0.00    -0.200 F 
ATOM     71  C   UNL     1       8.429  11.251 -11.211  1.00  0.00     0.200 A 
ATOM     72  F   UNL     1       6.236  11.800 -11.890  1.00  0.00    -0.200 F 
ATOM     73  F   UNL     1       8.936  12.115 -12.101  1.00  0.00    -0.200 F 
ENDBRANCH  40  63
ENDBRANCH  14  15
ENDBRANCH   7   9
ENDBRANCH   4   5
ENDBRANCH   3   4
ENDBRANCH   2   3
ENDBRANCH   1   2
BRANCH   1  74
ATOM     74  C   UNL     1       6.209  -3.683   2.294  1.00  0.00     0.021 C 
BRANCH  74  75
ATOM     75  C   UNL     1       6.928  -3.527   3.630  1.00  0.00     0.116 C 
BRANCH  75  76
ATOM     76  N   UNL     1       6.620  -4.615   4.545  1.00  0.00    -0.352 N 
ATOM     77  C   UNL     1       7.494  -5.447   5.190  1.00  0.00     0.256 C 
ATOM     78  H   UNL     1       5.664  -4.772   4.721  1.00  0.00     0.163 HD
ATOM     79  O   UNL     1       7.086  -6.378   5.880  1.00  0.00    -0.269 OA
BRANCH  77  80
ATOM     80  C   UNL     1       8.929  -5.243   4.929  1.00  0.00     0.105 A 
ATOM     81  C   UNL     1       9.544  -6.133   4.133  1.00  0.00     0.021 A 
ATOM     82  C   UNL     1       9.643  -4.016   5.384  1.00  0.00     0.263 A 
ATOM     83  C   UNL     1      10.878  -5.879   3.653  1.00  0.00     0.019 A 
ATOM     84  N   UNL     1      10.904  -3.811   4.817  1.00  0.00    -0.309 N 
ATOM     85  O   UNL     1       9.115  -3.231   6.168  1.00  0.00    -0.268 OA
ATOM     86  C   UNL     1      11.492  -4.732   3.965  1.00  0.00     0.089 A 
BRANCH  84  87
ATOM     87  C   UNL     1      11.642  -2.602   5.184  1.00  0.00     0.186 C 
BRANCH  87  88
ATOM     88  C   UNL     1      12.518  -2.745   6.449  1.00  0.00     0.284 C 
BRANCH  88  89
ATOM     89  N   UNL     1      13.735  -3.549   6.210  1.00  0.00    -0.333 N 
ATOM     90  C   UNL     1      13.527  -4.978   6.503  1.00  0.00     0.262 C 
ATOM     91  C   UNL     1      14.861  -3.119   7.060  1.00  0.00     0.262 C 
ATOM     92  H   UNL     1      13.948  -3.408   5.223  1.00  0.00     0.348 HD
ATOM     93  C   UNL     1      13.986  -5.178   7.931  1.00  0.00     0.067 C 
ATOM     94  C   UNL     1      15.165  -4.242   8.042  1.00  0.00     0.067 C 
ENDBRANCH  88  89
ENDBRANCH  87  88
ENDBRANCH  84  87
ENDBRANCH  77  80
ENDBRANCH  75  76
ENDBRANCH  74  75
ENDBRANCH   1  74
TORSDOF 16
