REMARK SMILES O=C(NCCCCCCNC(=O)c1cc(/C=C/c2cc(O)cc(O)c2)ccc1O)c1ccc(-c2c3nc(c(-c4c(F)c(F)c(F)c(F)c4F)c4ccc([nH]4)c(-c4c(F)c(F)c(F)c(F)c4F)c4nc(c(-c5c(F)c(F)c(F)c(F)c5F)c5ccc2[nH]5)C=C4)C=C3)cc1
REMARK SMILES IDX 7 1 6 2 5 3 4 4 3 5 1 6 2 7 30 9 31 10 92 11 32 12 91 13
REMARK SMILES IDX 33 14 34 15 35 16 85 17 36 18 90 19 84 20 86 21 37 22 89 23
REMARK SMILES IDX 83 24 82 25 38 27 70 28 50 29 69 30 51 31 54 32 68 33 87 34
REMARK SMILES IDX 52 35 53 36 67 38 88 39 55 40 39 41 40 42 48 43 41 44 42 45
REMARK SMILES IDX 46 46 49 47 43 48 44 49 47 50 45 51 71 52 72 53 80 54 73 55
REMARK SMILES IDX 74 56 78 57 81 58 75 59 76 60 79 61 77 62 56 63 57 64 65 65
REMARK SMILES IDX 58 66 59 67 63 68 66 69 60 70 61 71 64 72 62 73 8 74 9 75
REMARK SMILES IDX 10 76 11 77 12 79 13 80 14 81 28 82 15 83 27 84 26 85 29 86
REMARK SMILES IDX 16 88 17 89 18 90 19 91 25 92 20 93 23 94 22 95 21 96 24 98
REMARK H PARENT 3 8 86 26 54 37 10 78 29 87 21 97 24 99
REMARK Flexibility Score: inf
ROOT
ATOM      1  C   UNL     1       4.643  -3.204  -3.063  1.00  0.00     0.002 C 
ENDROOT
BRANCH   1   2
ATOM      2  C   UNL     1       4.081  -3.601  -1.695  1.00  0.00     0.002 C 
BRANCH   2   3
ATOM      3  C   UNL     1       4.538  -2.747  -0.513  1.00  0.00     0.021 C 
BRANCH   3   4
ATOM      4  C   UNL     1       4.325  -1.247  -0.666  1.00  0.00     0.116 C 
BRANCH   4   5
ATOM      5  N   UNL     1       2.923  -0.870  -0.745  1.00  0.00    -0.352 N 
ATOM      6  O   UNL     1       1.016   0.183  -0.150  1.00  0.00    -0.269 OA
ATOM      7  C   UNL     1       2.232   0.077  -0.028  1.00  0.00     0.251 C 
ATOM      8  H   UNL     1       2.391  -1.366  -1.409  1.00  0.00     0.163 HD
BRANCH   7   9
ATOM      9  C   UNL     1       2.952   0.950   0.928  1.00  0.00     0.039 A 
ATOM     10  C   UNL     1       4.162   1.551   0.581  1.00  0.00     0.014 A 
ATOM     11  C   UNL     1       2.409   1.155   2.200  1.00  0.00     0.014 A 
ATOM     12  C   UNL     1       4.908   2.212   1.551  1.00  0.00     0.010 A 
ATOM     13  C   UNL     1       3.120   1.897   3.150  1.00  0.00     0.010 A 
ATOM     14  C   UNL     1       4.398   2.391   2.848  1.00  0.00    -0.014 A 
BRANCH  14  15
ATOM     15  C   UNL     1       5.216   3.112   3.857  1.00  0.00     0.031 A 
ATOM     16  C   UNL     1       5.733   2.411   5.084  1.00  0.00     0.074 A 
ATOM     17  C   UNL     1       5.535   4.402   3.636  1.00  0.00     0.049 A 
ATOM     18  N   UNL     1       6.510   2.873   6.034  1.00  0.00    -0.248 NA
ATOM     19  C   UNL     1       5.321   1.013   5.280  1.00  0.00     0.031 C 
ATOM     20  C   UNL     1       5.080   5.195   2.493  1.00  0.00     0.029 A 
ATOM     21  N   UNL     1       6.333   5.265   4.343  1.00  0.00    -0.354 N 
ATOM     22  C   UNL     1       6.657   1.837   6.947  1.00  0.00     0.074 A 
ATOM     23  C   UNL     1       5.871   0.727   6.452  1.00  0.00     0.031 C 
ATOM     24  C   UNL     1       5.650   6.408   2.545  1.00  0.00     0.029 A 
ATOM     25  C   UNL     1       6.467   6.496   3.750  1.00  0.00     0.049 A 
ATOM     26  H   UNL     1       6.768   5.025   5.193  1.00  0.00     0.167 HD
ATOM     27  C   UNL     1       7.387   1.811   8.088  1.00  0.00     0.037 A 
ATOM     28  C   UNL     1       7.169   7.578   4.134  1.00  0.00     0.037 A 
ATOM     29  C   UNL     1       8.193   2.907   8.564  1.00  0.00     0.049 A 
ATOM     30  C   UNL     1       7.976   7.517   5.399  1.00  0.00     0.074 A 
ATOM     31  C   UNL     1       9.004   2.960   9.685  1.00  0.00     0.029 A 
ATOM     32  N   UNL     1       8.288   4.145   7.946  1.00  0.00    -0.354 N 
ATOM     33  N   UNL     1       8.140   6.516   6.229  1.00  0.00    -0.248 NA
ATOM     34  C   UNL     1       8.697   8.739   5.780  1.00  0.00     0.031 C 
ATOM     35  C   UNL     1       9.558   4.242   9.767  1.00  0.00     0.029 A 
ATOM     36  C   UNL     1       9.130   4.974   8.671  1.00  0.00     0.049 A 
ATOM     37  H   UNL     1       7.826   4.398   7.114  1.00  0.00     0.167 HD
ATOM     38  C   UNL     1       8.998   6.978   7.216  1.00  0.00     0.074 A 
ATOM     39  C   UNL     1       9.335   8.344   6.872  1.00  0.00     0.031 C 
ATOM     40  C   UNL     1       9.463   6.328   8.312  1.00  0.00     0.037 A 
BRANCH  27  41
ATOM     41  C   UNL     1       7.341   0.561   8.919  1.00  0.00     0.064 A 
ATOM     42  C   UNL     1       7.983  -0.619   8.514  1.00  0.00     0.173 A 
ATOM     43  C   UNL     1       6.686   0.558  10.160  1.00  0.00     0.173 A 
ATOM     44  F   UNL     1       8.614  -0.673   7.332  1.00  0.00    -0.203 F 
ATOM     45  C   UNL     1       7.951  -1.761   9.311  1.00  0.00     0.198 A 
ATOM     46  C   UNL     1       6.679  -0.578  10.966  1.00  0.00     0.198 A 
ATOM     47  F   UNL     1       6.063   1.662  10.598  1.00  0.00    -0.203 F 
ATOM     48  F   UNL     1       8.538  -2.889   8.886  1.00  0.00    -0.200 F 
ATOM     49  C   UNL     1       7.306  -1.738  10.538  1.00  0.00     0.200 A 
ATOM     50  F   UNL     1       6.065  -0.549  12.157  1.00  0.00    -0.200 F 
ATOM     51  F   UNL     1       7.284  -2.836  11.307  1.00  0.00    -0.200 F 
ENDBRANCH  27  41
BRANCH  28  52
ATOM     52  C   UNL     1       7.154   8.802   3.294  1.00  0.00     0.064 A 
ATOM     53  C   UNL     1       8.295   9.204   2.587  1.00  0.00     0.173 A 
ATOM     54  C   UNL     1       5.997   9.586   3.170  1.00  0.00     0.173 A 
ATOM     55  F   UNL     1       9.430   8.496   2.690  1.00  0.00    -0.203 F 
ATOM     56  C   UNL     1       8.285  10.352   1.799  1.00  0.00     0.198 A 
ATOM     57  C   UNL     1       5.980  10.717   2.359  1.00  0.00     0.198 A 
ATOM     58  F   UNL     1       4.878   9.239   3.822  1.00  0.00    -0.203 F 
ATOM     59  F   UNL     1       9.400  10.736   1.164  1.00  0.00    -0.200 F 
ATOM     60  C   UNL     1       7.125  11.104   1.679  1.00  0.00     0.200 A 
ATOM     61  F   UNL     1       4.853  11.432   2.234  1.00  0.00    -0.200 F 
ATOM     62  F   UNL     1       7.114  12.203   0.914  1.00  0.00    -0.200 F 
ENDBRANCH  28  52
BRANCH  40  63
ATOM     63  C   UNL     1      10.415   7.078   9.195  1.00  0.00     0.064 A 
ATOM     64  C   UNL     1       9.983   8.127  10.020  1.00  0.00     0.173 A 
ATOM     65  C   UNL     1      11.774   6.731   9.228  1.00  0.00     0.173 A 
ATOM     66  F   UNL     1       8.697   8.507  10.011  1.00  0.00    -0.203 F 
ATOM     67  C   UNL     1      10.884   8.821  10.823  1.00  0.00     0.198 A 
ATOM     68  C   UNL     1      12.666   7.409  10.053  1.00  0.00     0.198 A 
ATOM     69  F   UNL     1      12.235   5.731   8.461  1.00  0.00    -0.203 F 
ATOM     70  F   UNL     1      10.460   9.855  11.564  1.00  0.00    -0.200 F 
ATOM     71  C   UNL     1      12.223   8.459  10.843  1.00  0.00     0.200 A 
ATOM     72  F   UNL     1      13.958   7.051  10.078  1.00  0.00    -0.200 F 
ATOM     73  F   UNL     1      13.088   9.129  11.616  1.00  0.00    -0.200 F 
ENDBRANCH  40  63
ENDBRANCH  14  15
ENDBRANCH   7   9
ENDBRANCH   4   5
ENDBRANCH   3   4
ENDBRANCH   2   3
ENDBRANCH   1   2
BRANCH   1  74
ATOM     74  C   UNL     1       6.167  -3.072  -3.154  1.00  0.00     0.021 C 
BRANCH  74  75
ATOM     75  C   UNL     1       6.965  -4.287  -2.689  1.00  0.00     0.116 C 
BRANCH  75  76
ATOM     76  N   UNL     1       6.666  -5.473  -3.467  1.00  0.00    -0.352 N 
ATOM     77  C   UNL     1       7.539  -6.374  -4.021  1.00  0.00     0.255 C 
ATOM     78  H   UNL     1       5.710  -5.655  -3.618  1.00  0.00     0.163 HD
ATOM     79  O   UNL     1       7.116  -7.300  -4.709  1.00  0.00    -0.269 OA
BRANCH  77  80
ATOM     80  C   UNL     1       8.996  -6.189  -3.870  1.00  0.00     0.082 A 
ATOM     81  C   UNL     1       9.739  -6.043  -5.051  1.00  0.00     0.025 A 
ATOM     82  C   UNL     1       9.640  -6.202  -2.631  1.00  0.00     0.128 A 
ATOM     83  C   UNL     1      11.127  -5.866  -5.007  1.00  0.00    -0.025 A 
ATOM     84  C   UNL     1      11.019  -6.018  -2.569  1.00  0.00     0.047 A 
ATOM     85  C   UNL     1      11.752  -5.845  -3.749  1.00  0.00     0.012 A 
BRANCH  82  86
ATOM     86  O   UNL     1       8.931  -6.390  -1.479  1.00  0.00    -0.507 OA
ATOM     87  H   UNL     1       8.003  -6.514  -1.515  1.00  0.00     0.293 HD
ENDBRANCH  82  86
BRANCH  83  88
ATOM     88  C   UNL     1      11.966  -5.708  -6.210  1.00  0.00     0.009 C 
ATOM     89  C   UNL     1      11.538  -5.759  -7.483  1.00  0.00     0.009 C 
BRANCH  89  90
ATOM     90  C   UNL     1      12.436  -5.621  -8.638  1.00  0.00    -0.018 A 
ATOM     91  C   UNL     1      13.638  -6.339  -8.723  1.00  0.00     0.054 A 
ATOM     92  C   UNL     1      12.047  -4.804  -9.709  1.00  0.00     0.054 A 
ATOM     93  C   UNL     1      14.441  -6.215  -9.855  1.00  0.00     0.119 A 
ATOM     94  C   UNL     1      12.867  -4.694 -10.831  1.00  0.00     0.119 A 
ATOM     95  C   UNL     1      14.065  -5.393 -10.910  1.00  0.00     0.092 A 
BRANCH  93  96
ATOM     96  O   UNL     1      15.614  -6.903  -9.970  1.00  0.00    -0.508 OA
ATOM     97  H   UNL     1      15.896  -7.466  -9.277  1.00  0.00     0.293 HD
ENDBRANCH  93  96
BRANCH  94  98
ATOM     98  O   UNL     1      12.520  -3.904 -11.888  1.00  0.00    -0.508 OA
ATOM     99  H   UNL     1      13.085  -3.844 -12.633  1.00  0.00     0.293 HD
ENDBRANCH  94  98
ENDBRANCH  89  90
ENDBRANCH  83  88
ENDBRANCH  77  80
ENDBRANCH  75  76
ENDBRANCH  74  75
ENDBRANCH   1  74
TORSDOF 18
