REMARK SMILES Cc1ccccc1OCC(=O)c1nc(C)c(C(=O)NCCCCCCNC(=O)c2ccc(-c3c4nc(c(-c5c(F)c(F)c(F)c(F)c5F)c5ccc([nH]5)c(-c5c(F)c(F)c(F)c(F)c5F)c5nc(c(-c6c(F)c(F)c(F)c(F)c6F)c6ccc3[nH]6)C=C5)C=C4)cc2)s1
REMARK SMILES IDX 21 1 20 2 19 3 17 4 18 5 16 7 12 8 13 9 92 10 14 11 15 12
REMARK SMILES IDX 10 13 11 14 9 15 8 16 7 17 1 18 2 19 3 20 4 21 6 22 5 23
REMARK SMILES IDX 22 24 23 25 24 26 25 27 26 28 27 29 28 31 29 32 30 33 91 34
REMARK SMILES IDX 31 35 90 36 32 37 33 38 34 39 84 40 35 41 89 42 83 43 85 44
REMARK SMILES IDX 36 45 88 46 82 47 81 48 37 50 69 51 49 52 68 53 50 54 53 55
REMARK SMILES IDX 67 56 86 57 51 58 52 59 66 61 87 62 54 63 38 64 39 65 47 66
REMARK SMILES IDX 40 67 41 68 45 69 48 70 42 71 43 72 46 73 44 74 70 75 71 76
REMARK SMILES IDX 79 77 72 78 73 79 77 80 80 81 74 82 75 83 78 84 76 85 55 86
REMARK SMILES IDX 56 87 64 88 57 89 58 90 62 91 65 92 59 93 60 94 63 95 61 96
REMARK H PARENT 19 6 26 30 85 49 53 60
REMARK Flexibility Score: inf
ROOT
ATOM      1  C   UNL     1       2.697   4.122   8.383  1.00  0.00     0.021 C 
ENDROOT
BRANCH   1   2
ATOM      2  C   UNL     1       1.884   2.971   7.778  1.00  0.00     0.116 C 
BRANCH   2   3
ATOM      3  N   UNL     1       0.908   3.460   6.836  1.00  0.00    -0.351 N 
ATOM      4  C   UNL     1       0.824   3.515   5.469  1.00  0.00     0.263 C 
ATOM      5  O   UNL     1      -0.256   3.986   5.087  1.00  0.00    -0.268 OA
ATOM      6  H   UNL     1       0.117   3.845   7.278  1.00  0.00     0.163 HD
BRANCH   4   7
ATOM      7  C   UNL     1       1.847   3.063   4.527  1.00  0.00     0.115 A 
ATOM      8  C   UNL     1       2.826   2.438   2.343  1.00  0.00     0.164 A 
ATOM      9  N   UNL     1       3.724   2.365   3.298  1.00  0.00    -0.237 NA
ATOM     10  S   UNL     1       1.285   2.902   2.876  1.00  0.00    -0.105 S 
ATOM     11  C   UNL     1       3.207   2.765   4.527  1.00  0.00     0.062 A 
ATOM     12  C   UNL     1       4.241   2.844   5.588  1.00  0.00     0.068 C 
BRANCH   8  13
ATOM     13  C   UNL     1       3.184   2.162   0.954  1.00  0.00     0.228 C 
ATOM     14  O   UNL     1       4.293   1.708   0.635  1.00  0.00    -0.288 OA
BRANCH  13  15
ATOM     15  C   UNL     1       2.228   2.557  -0.177  1.00  0.00     0.313 C 
BRANCH  15  16
ATOM     16  O   UNL     1       0.854   2.281  -0.137  1.00  0.00    -0.485 OA
BRANCH  16  17
ATOM     17  C   UNL     1       0.318   1.031  -0.147  1.00  0.00     0.122 A 
ATOM     18  C   UNL     1       2.374  -0.510  -0.510  1.00  0.00     0.048 C 
ATOM     19  C   UNL     1       0.915  -0.229  -0.293  1.00  0.00    -0.009 A 
ATOM     20  C   UNL     1       0.089  -1.374  -0.195  1.00  0.00     0.007 A 
ATOM     21  C   UNL     1      -1.289  -1.280  -0.007  1.00  0.00     0.001 A 
ATOM     22  C   UNL     1      -1.078   1.105   0.028  1.00  0.00     0.047 A 
ATOM     23  C   UNL     1      -1.878  -0.032   0.094  1.00  0.00     0.004 A 
ENDBRANCH  16  17
ENDBRANCH  15  16
ENDBRANCH  13  15
ENDBRANCH   8  13
ENDBRANCH   4   7
ENDBRANCH   2   3
ENDBRANCH   1   2
BRANCH   1  24
ATOM     24  C   UNL     1       2.169   4.664   9.720  1.00  0.00     0.002 C 
BRANCH  24  25
ATOM     25  C   UNL     1       2.035   3.648  10.869  1.00  0.00     0.002 C 
BRANCH  25  26
ATOM     26  C   UNL     1       3.209   2.682  11.057  1.00  0.00     0.021 C 
BRANCH  26  27
ATOM     27  C   UNL     1       4.468   3.340  11.612  1.00  0.00     0.116 C 
BRANCH  27  28
ATOM     28  N   UNL     1       4.640   3.155  13.046  1.00  0.00    -0.352 N 
ATOM     29  C   UNL     1       5.552   3.758  13.899  1.00  0.00     0.251 C 
ATOM     30  H   UNL     1       4.024   2.513  13.468  1.00  0.00     0.163 HD
ATOM     31  O   UNL     1       5.583   3.474  15.086  1.00  0.00    -0.269 OA
BRANCH  29  32
ATOM     32  C   UNL     1       6.411   4.835  13.364  1.00  0.00     0.039 A 
ATOM     33  C   UNL     1       6.396   6.072  14.017  1.00  0.00     0.014 A 
ATOM     34  C   UNL     1       7.052   4.688  12.136  1.00  0.00     0.014 A 
ATOM     35  C   UNL     1       6.821   7.208  13.330  1.00  0.00     0.010 A 
ATOM     36  C   UNL     1       7.402   5.820  11.424  1.00  0.00     0.010 A 
ATOM     37  C   UNL     1       7.224   7.082  11.998  1.00  0.00    -0.014 A 
BRANCH  37  38
ATOM     38  C   UNL     1       7.348   8.230  11.108  1.00  0.00     0.031 A 
ATOM     39  C   UNL     1       8.671   8.792  10.776  1.00  0.00     0.074 A 
ATOM     40  C   UNL     1       6.240   8.795  10.579  1.00  0.00     0.049 A 
ATOM     41  N   UNL     1       8.877  10.051  10.565  1.00  0.00    -0.248 NA
ATOM     42  C   UNL     1       9.880   7.981  10.680  1.00  0.00     0.031 C 
ATOM     43  C   UNL     1       6.188   9.821   9.542  1.00  0.00     0.029 A 
ATOM     44  N   UNL     1       4.914   8.684  11.031  1.00  0.00    -0.354 N 
ATOM     45  C   UNL     1      10.149  10.181  10.069  1.00  0.00     0.074 A 
ATOM     46  C   UNL     1      10.760   8.879  10.223  1.00  0.00     0.031 C 
ATOM     47  C   UNL     1       5.011  10.459   9.625  1.00  0.00     0.029 A 
ATOM     48  C   UNL     1       4.318   9.943  10.791  1.00  0.00     0.049 A 
ATOM     49  H   UNL     1       4.487   7.892  11.432  1.00  0.00     0.167 HD
ATOM     50  C   UNL     1      10.527  11.331   9.446  1.00  0.00     0.037 A 
ATOM     51  C   UNL     1       3.800  10.700  11.799  1.00  0.00     0.037 A 
ATOM     52  C   UNL     1       9.445  12.300   9.376  1.00  0.00     0.049 A 
ATOM     53  C   UNL     1       4.423  12.069  11.925  1.00  0.00     0.074 A 
ATOM     54  C   UNL     1       8.518  12.583   8.385  1.00  0.00     0.029 A 
ATOM     55  N   UNL     1       8.981  12.909  10.536  1.00  0.00    -0.354 N 
ATOM     56  N   UNL     1       5.565  12.392  11.386  1.00  0.00    -0.248 NA
ATOM     57  C   UNL     1       3.843  13.162  12.701  1.00  0.00     0.031 C 
ATOM     58  C   UNL     1       7.470  13.335   8.962  1.00  0.00     0.029 A 
ATOM     59  C   UNL     1       7.769  13.528  10.298  1.00  0.00     0.049 A 
ATOM     60  H   UNL     1       9.448  12.900  11.402  1.00  0.00     0.167 HD
ATOM     61  C   UNL     1       5.892  13.674  11.744  1.00  0.00     0.074 A 
ATOM     62  C   UNL     1       4.774  14.122  12.551  1.00  0.00     0.031 C 
ATOM     63  C   UNL     1       7.068  14.245  11.350  1.00  0.00     0.037 A 
BRANCH  50  64
ATOM     64  C   UNL     1      11.796  11.412   8.645  1.00  0.00     0.064 A 
ATOM     65  C   UNL     1      11.826  12.005   7.367  1.00  0.00     0.173 A 
ATOM     66  C   UNL     1      13.011  10.861   9.088  1.00  0.00     0.173 A 
ATOM     67  F   UNL     1      10.752  12.617   6.853  1.00  0.00    -0.203 F 
ATOM     68  C   UNL     1      12.960  11.962   6.555  1.00  0.00     0.198 A 
ATOM     69  C   UNL     1      14.133  10.778   8.258  1.00  0.00     0.198 A 
ATOM     70  F   UNL     1      13.131  10.384  10.337  1.00  0.00    -0.203 F 
ATOM     71  F   UNL     1      12.929  12.525   5.338  1.00  0.00    -0.200 F 
ATOM     72  C   UNL     1      14.103  11.319   6.987  1.00  0.00     0.200 A 
ATOM     73  F   UNL     1      15.236  10.151   8.690  1.00  0.00    -0.200 F 
ATOM     74  F   UNL     1      15.171  11.227   6.184  1.00  0.00    -0.200 F 
ENDBRANCH  50  64
BRANCH  51  75
ATOM     75  C   UNL     1       3.269   9.894  12.926  1.00  0.00     0.064 A 
ATOM     76  C   UNL     1       2.156   9.066  12.681  1.00  0.00     0.173 A 
ATOM     77  C   UNL     1       4.034   9.633  14.068  1.00  0.00     0.173 A 
ATOM     78  F   UNL     1       1.393   9.274  11.596  1.00  0.00    -0.203 F 
ATOM     79  C   UNL     1       1.892   7.955  13.477  1.00  0.00     0.198 A 
ATOM     80  C   UNL     1       3.756   8.525  14.872  1.00  0.00     0.198 A 
ATOM     81  F   UNL     1       5.115  10.376  14.344  1.00  0.00    -0.203 F 
ATOM     82  F   UNL     1       0.894   7.120  13.149  1.00  0.00    -0.200 F 
ATOM     83  C   UNL     1       2.710   7.669  14.556  1.00  0.00     0.200 A 
ATOM     84  F   UNL     1       4.558   8.237  15.907  1.00  0.00    -0.200 F 
ATOM     85  F   UNL     1       2.514   6.550  15.267  1.00  0.00    -0.200 F 
ENDBRANCH  51  75
BRANCH  63  86
ATOM     86  C   UNL     1       7.636  15.558  11.826  1.00  0.00     0.064 A 
ATOM     87  C   UNL     1       7.420  16.086  13.107  1.00  0.00     0.173 A 
ATOM     88  C   UNL     1       8.568  16.261  11.022  1.00  0.00     0.173 A 
ATOM     89  F   UNL     1       6.638  15.458  13.996  1.00  0.00    -0.203 F 
ATOM     90  C   UNL     1       8.056  17.255  13.539  1.00  0.00     0.198 A 
ATOM     91  C   UNL     1       9.240  17.394  11.476  1.00  0.00     0.198 A 
ATOM     92  F   UNL     1       8.873  15.853   9.782  1.00  0.00    -0.203 F 
ATOM     93  F   UNL     1       7.794  17.738  14.761  1.00  0.00    -0.200 F 
ATOM     94  C   UNL     1       8.975  17.899  12.731  1.00  0.00     0.200 A 
ATOM     95  F   UNL     1      10.162  17.978  10.697  1.00  0.00    -0.200 F 
ATOM     96  F   UNL     1       9.618  18.989  13.169  1.00  0.00    -0.200 F 
ENDBRANCH  63  86
ENDBRANCH  37  38
ENDBRANCH  29  32
ENDBRANCH  27  28
ENDBRANCH  26  27
ENDBRANCH  25  26
ENDBRANCH  24  25
ENDBRANCH   1  24
TORSDOF 17
