REMARK SMILES Cc1cccc(C)c1Nc1ccccc1CC(=O)NCCCCCCNC(=O)c1ccc(-c2c3nc(c(-c4c(F)c(F)c(F)c(F)c4F)c4ccc([nH]4)c(-c4c(F)c(F)c(F)c(F)c4F)c4nc(c(-c5c(F)c(F)c(F)c(F)c5F)c5ccc2[nH]5)C=C4)C=C3)cc1
REMARK SMILES IDX 22 1 21 2 20 3 19 4 17 5 18 6 16 8 15 9 10 10 11 11 12 12
REMARK SMILES IDX 14 13 13 14 9 15 8 17 1 18 2 19 3 20 4 21 6 22 5 23 7 24
REMARK SMILES IDX 23 25 24 26 25 27 26 28 27 29 28 31 29 32 30 33 91 34 31 35
REMARK SMILES IDX 90 36 32 37 33 38 34 39 84 40 35 41 89 42 83 43 85 44 36 45
REMARK SMILES IDX 88 46 82 47 81 48 37 50 69 51 49 52 68 53 50 54 53 55 67 56
REMARK SMILES IDX 86 57 51 58 52 59 66 61 87 62 54 63 38 64 39 65 47 66 40 67
REMARK SMILES IDX 41 68 45 69 48 70 42 71 43 72 46 73 44 74 70 75 71 76 79 77
REMARK SMILES IDX 72 78 73 79 77 80 80 81 74 82 75 83 78 84 76 85 55 86 56 87
REMARK SMILES IDX 64 88 57 89 58 90 62 91 65 92 59 93 60 94 63 95 61 96
REMARK H PARENT 19 7 9 16 26 30 85 49 53 60
REMARK Flexibility Score: inf
ROOT
ATOM      1  C   UNL     1       0.537   6.331   3.747  1.00  0.00     0.002 C 
ENDROOT
BRANCH   1   2
ATOM      2  C   UNL     1       0.212   5.409   2.566  1.00  0.00     0.021 C 
BRANCH   2   3
ATOM      3  C   UNL     1       0.429   3.929   2.885  1.00  0.00     0.116 C 
BRANCH   3   4
ATOM      4  N   UNL     1      -0.560   3.469   3.835  1.00  0.00    -0.356 N 
ATOM      5  C   UNL     1      -1.713   2.785   3.574  1.00  0.00     0.224 C 
ATOM      6  O   UNL     1      -2.541   2.661   4.477  1.00  0.00    -0.275 OA
ATOM      7  H   UNL     1      -0.382   3.673   4.781  1.00  0.00     0.163 HD
BRANCH   5   8
ATOM      8  C   UNL     1      -1.910   2.141   2.213  1.00  0.00     0.137 C 
BRANCH   8   9
ATOM      9  C   UNL     1      -2.176   3.110   1.077  1.00  0.00    -0.015 A 
ATOM     10  C   UNL     1      -1.379   3.170  -0.089  1.00  0.00     0.042 A 
ATOM     11  C   UNL     1      -1.654   4.167  -1.044  1.00  0.00     0.026 A 
ATOM     12  C   UNL     1      -2.713   5.058  -0.884  1.00  0.00     0.002 A 
ATOM     13  C   UNL     1      -3.258   4.005   1.211  1.00  0.00     0.006 A 
ATOM     14  C   UNL     1      -3.524   4.968   0.238  1.00  0.00     0.000 A 
BRANCH  10  15
ATOM     15  N   UNL     1      -0.346   2.263  -0.402  1.00  0.00    -0.355 N 
ATOM     16  H   UNL     1       0.469   2.700  -0.739  1.00  0.00     0.167 HD
BRANCH  15  17
ATOM     17  C   UNL     1      -0.242   0.854  -0.332  1.00  0.00     0.044 A 
ATOM     18  C   UNL     1       2.287   1.136  -0.021  1.00  0.00     0.046 C 
ATOM     19  C   UNL     1       1.044   0.287  -0.111  1.00  0.00    -0.027 A 
ATOM     20  C   UNL     1       1.185  -1.100   0.060  1.00  0.00     0.005 A 
ATOM     21  C   UNL     1       0.076  -1.934   0.024  1.00  0.00     0.001 A 
ATOM     22  C   UNL     1      -1.357  -0.013  -0.421  1.00  0.00    -0.027 A 
ATOM     23  C   UNL     1      -1.183  -1.394  -0.213  1.00  0.00     0.005 A 
ATOM     24  C   UNL     1      -2.748   0.449  -0.767  1.00  0.00     0.046 C 
ENDBRANCH  15  17
ENDBRANCH  10  15
ENDBRANCH   8   9
ENDBRANCH   5   8
ENDBRANCH   3   4
ENDBRANCH   2   3
ENDBRANCH   1   2
BRANCH   1  25
ATOM     25  C   UNL     1       1.969   6.200   4.276  1.00  0.00     0.002 C 
BRANCH  25  26
ATOM     26  C   UNL     1       3.054   6.423   3.221  1.00  0.00     0.021 C 
BRANCH  26  27
ATOM     27  C   UNL     1       3.018   7.807   2.585  1.00  0.00     0.116 C 
BRANCH  27  28
ATOM     28  N   UNL     1       3.255   8.855   3.567  1.00  0.00    -0.352 N 
ATOM     29  C   UNL     1       4.219   9.828   3.578  1.00  0.00     0.251 C 
ATOM     30  H   UNL     1       2.636   8.865   4.333  1.00  0.00     0.163 HD
ATOM     31  O   UNL     1       4.435  10.482   4.595  1.00  0.00    -0.269 OA
BRANCH  29  32
ATOM     32  C   UNL     1       5.008  10.079   2.357  1.00  0.00     0.039 A 
ATOM     33  C   UNL     1       6.390  10.245   2.463  1.00  0.00     0.014 A 
ATOM     34  C   UNL     1       4.380  10.151   1.110  1.00  0.00     0.014 A 
ATOM     35  C   UNL     1       7.151  10.428   1.309  1.00  0.00     0.010 A 
ATOM     36  C   UNL     1       5.147  10.253  -0.044  1.00  0.00     0.010 A 
ATOM     37  C   UNL     1       6.539  10.400   0.044  1.00  0.00    -0.014 A 
BRANCH  37  38
ATOM     38  C   UNL     1       7.338  10.528  -1.199  1.00  0.00     0.031 A 
ATOM     39  C   UNL     1       7.127  11.703  -2.112  1.00  0.00     0.074 A 
ATOM     40  C   UNL     1       8.208   9.555  -1.533  1.00  0.00     0.049 A 
ATOM     41  N   UNL     1       7.675  11.958  -3.274  1.00  0.00    -0.248 NA
ATOM     42  C   UNL     1       6.151  12.713  -1.675  1.00  0.00     0.031 C 
ATOM     43  C   UNL     1       8.469   8.348  -0.748  1.00  0.00     0.029 A 
ATOM     44  N   UNL     1       9.028   9.424  -2.626  1.00  0.00    -0.354 N 
ATOM     45  C   UNL     1       7.105  13.148  -3.706  1.00  0.00     0.074 A 
ATOM     46  C   UNL     1       6.124  13.533  -2.715  1.00  0.00     0.031 C 
ATOM     47  C   UNL     1       9.404   7.612  -1.370  1.00  0.00     0.029 A 
ATOM     48  C   UNL     1       9.775   8.271  -2.618  1.00  0.00     0.049 A 
ATOM     49  H   UNL     1       9.076  10.092  -3.347  1.00  0.00     0.167 HD
ATOM     50  C   UNL     1       7.393  13.868  -4.816  1.00  0.00     0.037 A 
ATOM     51  C   UNL     1      10.653   7.797  -3.522  1.00  0.00     0.037 A 
ATOM     52  C   UNL     1       8.381  13.487  -5.791  1.00  0.00     0.049 A 
ATOM     53  C   UNL     1      10.931   8.602  -4.764  1.00  0.00     0.074 A 
ATOM     54  C   UNL     1       8.782  14.169  -6.926  1.00  0.00     0.029 A 
ATOM     55  N   UNL     1       9.121  12.314  -5.747  1.00  0.00    -0.354 N 
ATOM     56  N   UNL     1      10.435   9.759  -5.130  1.00  0.00    -0.248 NA
ATOM     57  C   UNL     1      11.897   8.037  -5.715  1.00  0.00     0.031 C 
ATOM     58  C   UNL     1       9.723  13.384  -7.598  1.00  0.00     0.029 A 
ATOM     59  C   UNL     1       9.957  12.241  -6.850  1.00  0.00     0.049 A 
ATOM     60  H   UNL     1       9.062  11.634  -5.038  1.00  0.00     0.167 HD
ATOM     61  C   UNL     1      11.052  10.076  -6.333  1.00  0.00     0.074 A 
ATOM     62  C   UNL     1      11.970   8.996  -6.627  1.00  0.00     0.031 C 
ATOM     63  C   UNL     1      10.874  11.164  -7.122  1.00  0.00     0.037 A 
BRANCH  50  64
ATOM     64  C   UNL     1       6.631  15.144  -5.034  1.00  0.00     0.064 A 
ATOM     65  C   UNL     1       6.811  16.262  -4.204  1.00  0.00     0.173 A 
ATOM     66  C   UNL     1       5.735  15.265  -6.107  1.00  0.00     0.173 A 
ATOM     67  F   UNL     1       7.648  16.197  -3.157  1.00  0.00    -0.203 F 
ATOM     68  C   UNL     1       6.101  17.440  -4.421  1.00  0.00     0.198 A 
ATOM     69  C   UNL     1       5.052  16.456  -6.342  1.00  0.00     0.198 A 
ATOM     70  F   UNL     1       5.528  14.231  -6.936  1.00  0.00    -0.203 F 
ATOM     71  F   UNL     1       6.250  18.474  -3.582  1.00  0.00    -0.200 F 
ATOM     72  C   UNL     1       5.229  17.539  -5.494  1.00  0.00     0.200 A 
ATOM     73  F   UNL     1       4.221  16.555  -7.388  1.00  0.00    -0.200 F 
ATOM     74  F   UNL     1       4.552  18.676  -5.706  1.00  0.00    -0.200 F 
ENDBRANCH  50  64
BRANCH  51  75
ATOM     75  C   UNL     1      11.347   6.504  -3.282  1.00  0.00     0.064 A 
ATOM     76  C   UNL     1      12.729   6.461  -3.051  1.00  0.00     0.173 A 
ATOM     77  C   UNL     1      10.651   5.286  -3.294  1.00  0.00     0.173 A 
ATOM     78  F   UNL     1      13.443   7.596  -3.049  1.00  0.00    -0.203 F 
ATOM     79  C   UNL     1      13.393   5.249  -2.871  1.00  0.00     0.198 A 
ATOM     80  C   UNL     1      11.310   4.077  -3.080  1.00  0.00     0.198 A 
ATOM     81  F   UNL     1       9.326   5.270  -3.503  1.00  0.00    -0.203 F 
ATOM     82  F   UNL     1      14.723   5.234  -2.708  1.00  0.00    -0.200 F 
ATOM     83  C   UNL     1      12.682   4.059  -2.880  1.00  0.00     0.200 A 
ATOM     84  F   UNL     1      10.617   2.931  -3.073  1.00  0.00    -0.200 F 
ATOM     85  F   UNL     1      13.320   2.893  -2.705  1.00  0.00    -0.200 F 
ENDBRANCH  51  75
BRANCH  63  86
ATOM     86  C   UNL     1      11.722  11.264  -8.359  1.00  0.00     0.064 A 
ATOM     87  C   UNL     1      11.525  10.420  -9.462  1.00  0.00     0.173 A 
ATOM     88  C   UNL     1      12.718  12.248  -8.456  1.00  0.00     0.173 A 
ATOM     89  F   UNL     1      10.595   9.453  -9.415  1.00  0.00    -0.203 F 
ATOM     90  C   UNL     1      12.312  10.539 -10.604  1.00  0.00     0.198 A 
ATOM     91  C   UNL     1      13.480  12.387  -9.612  1.00  0.00     0.198 A 
ATOM     92  F   UNL     1      12.943  13.086  -7.433  1.00  0.00    -0.203 F 
ATOM     93  F   UNL     1      12.142   9.687 -11.624  1.00  0.00    -0.200 F 
ATOM     94  C   UNL     1      13.282  11.527 -10.682  1.00  0.00     0.200 A 
ATOM     95  F   UNL     1      14.405  13.354  -9.691  1.00  0.00    -0.200 F 
ATOM     96  F   UNL     1      14.032  11.646 -11.786  1.00  0.00    -0.200 F 
ENDBRANCH  63  86
ENDBRANCH  37  38
ENDBRANCH  29  32
ENDBRANCH  27  28
ENDBRANCH  26  27
ENDBRANCH  25  26
ENDBRANCH   1  25
TORSDOF 16
