REMARK SMILES CC(C)(O)C#Cc1ccc(C(=O)N[C@@H](CC2=c3ccccc3=NC2)C(=O)NCCCCCCNC(=O)c2ccc(-c3c4nc(c(-c5c(F)c(F)c(F)c(F)c5F)c5ccc([nH]5)c(-c5c(F)c(F)c(F)c(F)c5F)c5nc(c(-c6c(F)c(F)c(F)c(F)c6F)c6ccc3[nH]6)C=C5)C=C4)cc2)s1
REMARK SMILES IDX 29 1 28 2 27 3 25 4 26 5 14 7 13 8 11 9 12 10 10 12 7 13
REMARK SMILES IDX 8 14 100 15 9 16 6 17 5 18 2 19 1 20 3 21 4 22 15 24 16 25
REMARK SMILES IDX 17 26 24 27 18 28 22 29 23 30 19 31 21 32 20 33 30 34 31 35
REMARK SMILES IDX 32 36 33 37 34 38 35 39 36 41 37 42 38 43 99 44 39 45 98 46
REMARK SMILES IDX 40 47 41 48 42 49 92 50 43 51 97 52 91 53 93 54 44 55 96 56
REMARK SMILES IDX 90 57 89 58 45 60 77 61 57 62 76 63 58 64 61 65 75 66 94 67
REMARK SMILES IDX 59 68 60 69 74 71 95 72 62 73 46 74 47 75 55 76 48 77 49 78
REMARK SMILES IDX 53 79 56 80 50 81 51 82 54 83 52 84 78 85 79 86 87 87 80 88
REMARK SMILES IDX 81 89 85 90 88 91 82 92 83 93 86 94 84 95 63 96 64 97 72 98
REMARK SMILES IDX 65 99 66 100 70 101 73 102 67 103 68 104 71 105 69 106
REMARK H PARENT 27 6 13 11 4 23 34 40 93 59 61 70
REMARK Flexibility Score: inf
ROOT
ATOM      1  C   UNL     1      -2.538 -11.135   1.960  1.00  0.00     0.021 C 
ENDROOT
BRANCH   1   2
ATOM      2  C   UNL     1      -2.280  -9.989   1.006  1.00  0.00     0.116 C 
BRANCH   2   3
ATOM      3  N   UNL     1      -2.611  -8.692   1.530  1.00  0.00    -0.354 N 
ATOM      4  C   UNL     1      -1.962  -7.511   1.345  1.00  0.00     0.242 C 
ATOM      5  O   UNL     1      -2.609  -6.481   1.567  1.00  0.00    -0.273 OA
ATOM      6  H   UNL     1      -3.414  -8.654   2.099  1.00  0.00     0.163 HD
BRANCH   4   7
ATOM      7  C   UNL     1      -0.511  -7.419   0.810  1.00  0.00     0.175 C 
BRANCH   7   8
ATOM      8  N   UNL     1       0.448  -8.279   1.533  1.00  0.00    -0.339 N 
ATOM      9  C   UNL     1       1.664  -8.036   2.119  1.00  0.00     0.262 C 
ATOM     10  O   UNL     1       2.205  -9.009   2.667  1.00  0.00    -0.268 OA
ATOM     11  H   UNL     1       0.155  -9.215   1.610  1.00  0.00     0.164 HD
BRANCH   9  12
ATOM     12  C   UNL     1       2.221  -6.711   2.195  1.00  0.00     0.093 A 
ATOM     13  C   UNL     1       2.133  -4.327   2.141  1.00  0.00     0.078 A 
ATOM     14  C   UNL     1       2.918  -4.743   3.193  1.00  0.00     0.030 A 
ATOM     15  S   UNL     1       2.079  -5.544   0.954  1.00  0.00    -0.121 S 
ATOM     16  C   UNL     1       3.005  -6.171   3.204  1.00  0.00     0.027 A 
BRANCH  13  17
ATOM     17  C   UNL     1       1.512  -3.074   1.963  1.00  0.00    -0.053 C 
ATOM     18  C   UNL     1       1.078  -1.876   1.685  1.00  0.00    -0.063 C 
BRANCH  18  19
ATOM     19  C   UNL     1       0.571  -0.480   1.361  1.00  0.00     0.120 C 
ATOM     20  C   UNL     1       1.050  -0.067  -0.028  1.00  0.00     0.056 C 
ATOM     21  C   UNL     1       1.048   0.502   2.428  1.00  0.00     0.056 C 
BRANCH  19  22
ATOM     22  O   UNL     1      -0.852  -0.515   1.368  1.00  0.00    -0.378 OA
ATOM     23  H   UNL     1      -1.198   0.368   1.163  1.00  0.00     0.212 HD
ENDBRANCH  19  22
ENDBRANCH  18  19
ENDBRANCH  13  17
ENDBRANCH   9  12
ENDBRANCH   7   8
BRANCH   7  24
ATOM     24  C   UNL     1      -0.376  -7.490  -0.744  1.00  0.00     0.068 C 
BRANCH  24  25
ATOM     25  C   UNL     1      -0.557  -8.815  -1.433  1.00  0.00    -0.037 C 
ATOM     26  C   UNL     1       0.154  -9.936  -1.310  1.00  0.00     0.001 A 
ATOM     27  C   UNL     1      -1.740  -9.049  -2.332  1.00  0.00     0.174 C 
ATOM     28  C   UNL     1       1.325 -10.319  -0.590  1.00  0.00     0.010 A 
ATOM     29  C   UNL     1      -0.731 -10.942  -1.924  1.00  0.00     0.065 A 
ATOM     30  N   UNL     1      -1.796 -10.519  -2.532  1.00  0.00    -0.280 NA
ATOM     31  C   UNL     1       1.549 -11.623  -0.359  1.00  0.00     0.001 A 
ATOM     32  C   UNL     1      -0.391 -12.361  -1.669  1.00  0.00     0.028 A 
ATOM     33  C   UNL     1       0.661 -12.646  -0.884  1.00  0.00     0.002 A 
ENDBRANCH  24  25
ENDBRANCH   7  24
ENDBRANCH   4   7
ENDBRANCH   2   3
ENDBRANCH   1   2
BRANCH   1  34
ATOM     34  C   UNL     1      -4.009 -11.512   2.097  1.00  0.00     0.002 C 
BRANCH  34  35
ATOM     35  C   UNL     1      -4.738 -11.841   0.787  1.00  0.00     0.002 C 
BRANCH  35  36
ATOM     36  C   UNL     1      -4.074 -12.885  -0.123  1.00  0.00     0.021 C 
BRANCH  36  37
ATOM     37  C   UNL     1      -3.700 -14.201   0.557  1.00  0.00     0.116 C 
BRANCH  37  38
ATOM     38  N   UNL     1      -4.793 -14.800   1.290  1.00  0.00    -0.352 N 
ATOM     39  C   UNL     1      -5.804 -15.668   1.005  1.00  0.00     0.251 C 
ATOM     40  H   UNL     1      -4.811 -14.509   2.230  1.00  0.00     0.163 HD
ATOM     41  O   UNL     1      -6.505 -16.005   1.963  1.00  0.00    -0.269 OA
BRANCH  39  42
ATOM     42  C   UNL     1      -6.157 -16.183  -0.346  1.00  0.00     0.039 A 
ATOM     43  C   UNL     1      -5.486 -15.902  -1.534  1.00  0.00     0.014 A 
ATOM     44  C   UNL     1      -7.323 -16.974  -0.408  1.00  0.00     0.014 A 
ATOM     45  C   UNL     1      -6.027 -16.307  -2.753  1.00  0.00     0.010 A 
ATOM     46  C   UNL     1      -7.858 -17.395  -1.621  1.00  0.00     0.010 A 
ATOM     47  C   UNL     1      -7.238 -17.012  -2.801  1.00  0.00    -0.014 A 
BRANCH  47  48
ATOM     48  C   UNL     1      -7.760 -17.396  -4.113  1.00  0.00     0.031 A 
ATOM     49  C   UNL     1      -6.804 -18.181  -4.942  1.00  0.00     0.074 A 
ATOM     50  C   UNL     1      -9.000 -17.116  -4.568  1.00  0.00     0.049 A 
ATOM     51  N   UNL     1      -6.211 -17.799  -6.025  1.00  0.00    -0.248 NA
ATOM     52  C   UNL     1      -6.351 -19.486  -4.440  1.00  0.00     0.031 C 
ATOM     53  C   UNL     1     -10.147 -16.576  -3.835  1.00  0.00     0.029 A 
ATOM     54  N   UNL     1      -9.511 -17.314  -5.820  1.00  0.00    -0.354 N 
ATOM     55  C   UNL     1      -5.423 -18.870  -6.439  1.00  0.00     0.074 A 
ATOM     56  C   UNL     1      -5.454 -19.831  -5.366  1.00  0.00     0.031 C 
ATOM     57  C   UNL     1     -11.264 -16.689  -4.593  1.00  0.00     0.029 A 
ATOM     58  C   UNL     1     -10.889 -17.157  -5.916  1.00  0.00     0.049 A 
ATOM     59  H   UNL     1      -8.947 -17.550  -6.593  1.00  0.00     0.167 HD
ATOM     60  C   UNL     1      -4.975 -18.951  -7.722  1.00  0.00     0.037 A 
ATOM     61  C   UNL     1     -11.663 -17.408  -7.003  1.00  0.00     0.037 A 
ATOM     62  C   UNL     1      -5.027 -17.665  -8.370  1.00  0.00     0.049 A 
ATOM     63  C   UNL     1     -10.783 -17.349  -8.193  1.00  0.00     0.074 A 
ATOM     64  C   UNL     1      -4.406 -16.446  -8.185  1.00  0.00     0.029 A 
ATOM     65  N   UNL     1      -6.090 -17.417  -9.198  1.00  0.00    -0.354 N 
ATOM     66  N   UNL     1     -10.235 -16.256  -8.639  1.00  0.00    -0.248 NA
ATOM     67  C   UNL     1     -10.178 -18.589  -8.648  1.00  0.00     0.031 C 
ATOM     68  C   UNL     1      -5.393 -15.472  -8.518  1.00  0.00     0.029 A 
ATOM     69  C   UNL     1      -6.538 -16.151  -8.938  1.00  0.00     0.049 A 
ATOM     70  H   UNL     1      -6.466 -18.040  -9.862  1.00  0.00     0.167 HD
ATOM     71  C   UNL     1      -8.971 -16.647  -9.049  1.00  0.00     0.074 A 
ATOM     72  C   UNL     1      -9.029 -18.105  -9.124  1.00  0.00     0.031 C 
ATOM     73  C   UNL     1      -7.927 -15.770  -9.016  1.00  0.00     0.037 A 
BRANCH  60  74
ATOM     74  C   UNL     1      -4.879 -20.235  -8.518  1.00  0.00     0.064 A 
ATOM     75  C   UNL     1      -4.390 -20.179  -9.841  1.00  0.00     0.173 A 
ATOM     76  C   UNL     1      -5.551 -21.426  -8.172  1.00  0.00     0.173 A 
ATOM     77  F   UNL     1      -3.731 -19.097 -10.284  1.00  0.00    -0.203 F 
ATOM     78  C   UNL     1      -4.661 -21.184 -10.774  1.00  0.00     0.198 A 
ATOM     79  C   UNL     1      -5.778 -22.447  -9.094  1.00  0.00     0.198 A 
ATOM     80  F   UNL     1      -6.114 -21.607  -6.973  1.00  0.00    -0.203 F 
ATOM     81  F   UNL     1      -4.304 -21.017 -12.055  1.00  0.00    -0.200 F 
ATOM     82  C   UNL     1      -5.369 -22.310 -10.403  1.00  0.00     0.200 A 
ATOM     83  F   UNL     1      -6.479 -23.527  -8.718  1.00  0.00    -0.200 F 
ATOM     84  F   UNL     1      -5.698 -23.238 -11.310  1.00  0.00    -0.200 F 
ENDBRANCH  60  74
BRANCH  61  85
ATOM     85  C   UNL     1     -13.008 -18.034  -7.071  1.00  0.00     0.064 A 
ATOM     86  C   UNL     1     -13.752 -18.020  -8.267  1.00  0.00     0.173 A 
ATOM     87  C   UNL     1     -13.439 -18.936  -6.080  1.00  0.00     0.173 A 
ATOM     88  F   UNL     1     -13.386 -17.222  -9.280  1.00  0.00    -0.203 F 
ATOM     89  C   UNL     1     -14.828 -18.891  -8.475  1.00  0.00     0.198 A 
ATOM     90  C   UNL     1     -14.516 -19.801  -6.289  1.00  0.00     0.198 A 
ATOM     91  F   UNL     1     -12.758 -19.070  -4.934  1.00  0.00    -0.203 F 
ATOM     92  F   UNL     1     -15.460 -18.903  -9.658  1.00  0.00    -0.200 F 
ATOM     93  C   UNL     1     -15.198 -19.791  -7.492  1.00  0.00     0.200 A 
ATOM     94  F   UNL     1     -14.841 -20.695  -5.344  1.00  0.00    -0.200 F 
ATOM     95  F   UNL     1     -16.178 -20.677  -7.718  1.00  0.00    -0.200 F 
ENDBRANCH  61  85
BRANCH  73  96
ATOM     96  C   UNL     1      -8.242 -14.314  -8.823  1.00  0.00     0.064 A 
ATOM     97  C   UNL     1      -8.828 -13.777  -7.664  1.00  0.00     0.173 A 
ATOM     98  C   UNL     1      -7.798 -13.413  -9.801  1.00  0.00     0.173 A 
ATOM     99  F   UNL     1      -9.198 -14.565  -6.647  1.00  0.00    -0.203 F 
ATOM    100  C   UNL     1      -8.991 -12.400  -7.511  1.00  0.00     0.198 A 
ATOM    101  C   UNL     1      -7.928 -12.039  -9.629  1.00  0.00     0.198 A 
ATOM    102  F   UNL     1      -7.189 -13.868 -10.907  1.00  0.00    -0.203 F 
ATOM    103  F   UNL     1      -9.561 -11.908  -6.401  1.00  0.00    -0.200 F 
ATOM    104  C   UNL     1      -8.531 -11.533  -8.489  1.00  0.00     0.200 A 
ATOM    105  F   UNL     1      -7.439 -11.204 -10.556  1.00  0.00    -0.200 F 
ATOM    106  F   UNL     1      -8.645 -10.207  -8.322  1.00  0.00    -0.200 F 
ENDBRANCH  73  96
ENDBRANCH  47  48
ENDBRANCH  39  42
ENDBRANCH  37  38
ENDBRANCH  36  37
ENDBRANCH  35  36
ENDBRANCH  34  35
ENDBRANCH   1  34
TORSDOF 20
