REMARK SMILES O=C(NCCCCCCNC(=O)c1ccc(-c2c3nc(c(-c4c(F)c(F)c(F)c(F)c4F)c4ccc([nH]4)c(-c4c(F)c(F)c(F)c(F)c4F)c4nc(c(-c5c(F)c(F)c(F)c(F)c5F)c5ccc2[nH]5)C=C4)C=C3)cc1)/C(=C/c1ccsc1)c1ccccc1
REMARK SMILES IDX 7 1 6 2 5 3 4 4 3 5 1 6 2 7 76 9 77 10 83 11 84 12 88 13
REMARK SMILES IDX 85 14 87 15 86 16 78 17 79 18 82 19 80 20 81 21 8 22 9 23
REMARK SMILES IDX 10 24 11 25 12 27 13 28 14 29 75 30 15 31 74 32 16 33 17 34
REMARK SMILES IDX 18 35 68 36 19 37 73 38 67 39 69 40 20 41 72 42 66 43 65 44
REMARK SMILES IDX 21 46 53 47 33 48 52 49 34 50 37 51 51 52 70 53 35 54 36 55
REMARK SMILES IDX 50 57 71 58 38 59 22 60 23 61 31 62 24 63 25 64 29 65 32 66
REMARK SMILES IDX 26 67 27 68 30 69 28 70 54 71 55 72 63 73 56 74 57 75 61 76
REMARK SMILES IDX 64 77 58 78 59 79 62 80 60 81 39 82 40 83 48 84 41 85 42 86
REMARK SMILES IDX 46 87 49 88 43 89 44 90 47 91 45 92
REMARK H PARENT 3 8 10 26 69 45 37 56
REMARK Flexibility Score: inf
ROOT
ATOM      1  C   UNL     1       4.748   4.166   1.446  1.00  0.00     0.002 C 
ENDROOT
BRANCH   1   2
ATOM      2  C   UNL     1       4.139   4.070   0.045  1.00  0.00     0.002 C 
BRANCH   2   3
ATOM      3  C   UNL     1       4.599   2.896  -0.817  1.00  0.00     0.021 C 
BRANCH   3   4
ATOM      4  C   UNL     1       4.462   1.510  -0.200  1.00  0.00     0.116 C 
BRANCH   4   5
ATOM      5  N   UNL     1       3.092   1.081  -0.004  1.00  0.00    -0.352 N 
ATOM      6  O   UNL     1       1.308  -0.217   0.182  1.00  0.00    -0.269 OA
ATOM      7  C   UNL     1       2.516  -0.156  -0.062  1.00  0.00     0.251 C 
ATOM      8  H   UNL     1       2.465   1.810   0.208  1.00  0.00     0.163 HD
BRANCH   7   9
ATOM      9  C   UNL     1       3.291  -1.400  -0.431  1.00  0.00     0.047 C 
ATOM     10  C   UNL     1       2.541  -2.439  -0.872  1.00  0.00     0.023 C 
BRANCH   9  11
ATOM     11  C   UNL     1       4.761  -1.503  -0.347  1.00  0.00    -0.013 A 
ATOM     12  C   UNL     1       5.526  -1.689  -1.512  1.00  0.00     0.009 A 
ATOM     13  C   UNL     1       5.415  -1.384   0.886  1.00  0.00     0.009 A 
ATOM     14  C   UNL     1       6.918  -1.734  -1.447  1.00  0.00     0.001 A 
ATOM     15  C   UNL     1       6.810  -1.413   0.946  1.00  0.00     0.001 A 
ATOM     16  C   UNL     1       7.559  -1.585  -0.219  1.00  0.00     0.000 A 
ENDBRANCH   9  11
BRANCH  10  17
ATOM     17  C   UNL     1       3.010  -3.721  -1.322  1.00  0.00    -0.014 A 
ATOM     18  C   UNL     1       3.977  -4.550  -0.675  1.00  0.00     0.020 A 
ATOM     19  C   UNL     1       2.560  -4.289  -2.496  1.00  0.00     0.073 A 
ATOM     20  C   UNL     1       4.298  -5.660  -1.425  1.00  0.00     0.065 A 
ATOM     21  S   UNL     1       3.377  -5.750  -2.863  1.00  0.00    -0.152 S 
ENDBRANCH  10  17
ENDBRANCH   7   9
ENDBRANCH   4   5
ENDBRANCH   3   4
ENDBRANCH   2   3
ENDBRANCH   1   2
BRANCH   1  22
ATOM     22  C   UNL     1       6.274   4.092   1.533  1.00  0.00     0.021 C 
BRANCH  22  23
ATOM     23  C   UNL     1       7.042   5.059   0.638  1.00  0.00     0.116 C 
BRANCH  23  24
ATOM     24  N   UNL     1       6.730   6.451   0.907  1.00  0.00    -0.352 N 
ATOM     25  C   UNL     1       7.574   7.510   1.137  1.00  0.00     0.251 C 
ATOM     26  H   UNL     1       5.770   6.668   0.929  1.00  0.00     0.163 HD
ATOM     27  O   UNL     1       7.118   8.595   1.480  1.00  0.00    -0.269 OA
BRANCH  25  28
ATOM     28  C   UNL     1       9.038   7.340   1.002  1.00  0.00     0.039 A 
ATOM     29  C   UNL     1       9.868   7.885   1.986  1.00  0.00     0.014 A 
ATOM     30  C   UNL     1       9.596   6.665  -0.087  1.00  0.00     0.014 A 
ATOM     31  C   UNL     1      11.250   7.698   1.911  1.00  0.00     0.010 A 
ATOM     32  C   UNL     1      10.967   6.416  -0.122  1.00  0.00     0.010 A 
ATOM     33  C   UNL     1      11.809   6.931   0.876  1.00  0.00    -0.014 A 
BRANCH  33  34
ATOM     34  C   UNL     1      13.269   6.656   0.826  1.00  0.00     0.031 A 
ATOM     35  C   UNL     1      14.101   7.175  -0.315  1.00  0.00     0.074 A 
ATOM     36  C   UNL     1      13.835   5.890   1.779  1.00  0.00     0.049 A 
ATOM     37  N   UNL     1      15.373   6.990  -0.563  1.00  0.00    -0.248 NA
ATOM     38  C   UNL     1      13.406   7.990  -1.324  1.00  0.00     0.031 C 
ATOM     39  C   UNL     1      13.129   5.295   2.915  1.00  0.00     0.029 A 
ATOM     40  N   UNL     1      15.133   5.472   1.942  1.00  0.00    -0.354 N 
ATOM     41  C   UNL     1      15.625   7.649  -1.760  1.00  0.00     0.074 A 
ATOM     42  C   UNL     1      14.366   8.198  -2.213  1.00  0.00     0.031 C 
ATOM     43  C   UNL     1      14.005   4.613   3.671  1.00  0.00     0.029 A 
ATOM     44  C   UNL     1      15.324   4.684   3.051  1.00  0.00     0.049 A 
ATOM     45  H   UNL     1      15.858   5.714   1.322  1.00  0.00     0.167 HD
ATOM     46  C   UNL     1      16.805   7.798  -2.409  1.00  0.00     0.037 A 
ATOM     47  C   UNL     1      16.437   4.080   3.511  1.00  0.00     0.037 A 
ATOM     48  C   UNL     1      18.061   7.276  -1.938  1.00  0.00     0.049 A 
ATOM     49  C   UNL     1      17.729   4.251   2.757  1.00  0.00     0.074 A 
ATOM     50  C   UNL     1      19.321   7.436  -2.488  1.00  0.00     0.029 A 
ATOM     51  N   UNL     1      18.215   6.487  -0.808  1.00  0.00    -0.354 N 
ATOM     52  N   UNL     1      17.970   4.941   1.669  1.00  0.00    -0.248 NA
ATOM     53  C   UNL     1      18.907   3.559   3.300  1.00  0.00     0.031 C 
ATOM     54  C   UNL     1      20.229   6.695  -1.725  1.00  0.00     0.029 A 
ATOM     55  C   UNL     1      19.546   6.126  -0.663  1.00  0.00     0.049 A 
ATOM     56  H   UNL     1      17.488   6.223  -0.199  1.00  0.00     0.167 HD
ATOM     57  C   UNL     1      19.328   4.799   1.419  1.00  0.00     0.074 A 
ATOM     58  C   UNL     1      19.863   3.967   2.477  1.00  0.00     0.031 C 
ATOM     59  C   UNL     1      20.067   5.311   0.405  1.00  0.00     0.037 A 
BRANCH  46  60
ATOM     60  C   UNL     1      16.800   8.556  -3.706  1.00  0.00     0.064 A 
ATOM     61  C   UNL     1      16.582   9.941  -3.752  1.00  0.00     0.173 A 
ATOM     62  C   UNL     1      17.078   7.896  -4.914  1.00  0.00     0.173 A 
ATOM     63  F   UNL     1      16.304  10.619  -2.629  1.00  0.00    -0.203 F 
ATOM     64  C   UNL     1      16.619  10.633  -4.961  1.00  0.00     0.198 A 
ATOM     65  C   UNL     1      17.145   8.596  -6.115  1.00  0.00     0.198 A 
ATOM     66  F   UNL     1      17.300   6.573  -4.926  1.00  0.00    -0.203 F 
ATOM     67  F   UNL     1      16.365  11.949  -4.985  1.00  0.00    -0.200 F 
ATOM     68  C   UNL     1      16.909   9.962  -6.139  1.00  0.00     0.200 A 
ATOM     69  F   UNL     1      17.441   7.949  -7.251  1.00  0.00    -0.200 F 
ATOM     70  F   UNL     1      16.958  10.632  -7.299  1.00  0.00    -0.200 F 
ENDBRANCH  46  60
BRANCH  47  71
ATOM     71  C   UNL     1      16.391   3.272   4.759  1.00  0.00     0.064 A 
ATOM     72  C   UNL     1      17.073   3.688   5.912  1.00  0.00     0.173 A 
ATOM     73  C   UNL     1      15.695   2.055   4.819  1.00  0.00     0.173 A 
ATOM     74  F   UNL     1      17.771   4.833   5.899  1.00  0.00    -0.203 F 
ATOM     75  C   UNL     1      17.088   2.905   7.064  1.00  0.00     0.198 A 
ATOM     76  C   UNL     1      15.682   1.289   5.983  1.00  0.00     0.198 A 
ATOM     77  F   UNL     1      15.022   1.612   3.747  1.00  0.00    -0.203 F 
ATOM     78  F   UNL     1      17.798   3.299   8.130  1.00  0.00    -0.200 F 
ATOM     79  C   UNL     1      16.389   1.709   7.101  1.00  0.00     0.200 A 
ATOM     80  F   UNL     1      14.993   0.141   6.019  1.00  0.00    -0.200 F 
ATOM     81  F   UNL     1      16.404   0.955   8.208  1.00  0.00    -0.200 F 
ENDBRANCH  47  71
BRANCH  59  82
ATOM     82  C   UNL     1      21.543   5.029   0.414  1.00  0.00     0.064 A 
ATOM     83  C   UNL     1      22.054   3.750   0.151  1.00  0.00     0.173 A 
ATOM     84  C   UNL     1      22.459   6.066   0.651  1.00  0.00     0.173 A 
ATOM     85  F   UNL     1      21.221   2.721  -0.068  1.00  0.00    -0.203 F 
ATOM     86  C   UNL     1      23.426   3.513   0.155  1.00  0.00     0.198 A 
ATOM     87  C   UNL     1      23.831   5.833   0.619  1.00  0.00     0.198 A 
ATOM     88  F   UNL     1      22.023   7.310   0.900  1.00  0.00    -0.203 F 
ATOM     89  F   UNL     1      23.890   2.272  -0.046  1.00  0.00    -0.200 F 
ATOM     90  C   UNL     1      24.313   4.556   0.380  1.00  0.00     0.200 A 
ATOM     91  F   UNL     1      24.686   6.845   0.821  1.00  0.00    -0.200 F 
ATOM     92  F   UNL     1      25.633   4.327   0.374  1.00  0.00    -0.200 F 
ENDBRANCH  59  82
ENDBRANCH  33  34
ENDBRANCH  25  28
ENDBRANCH  23  24
ENDBRANCH  22  23
ENDBRANCH   1  22
TORSDOF 15
