REMARK SMILES Cc1oc(C)c(C(=O)Nc2cc(C(=O)NCCCCCCNC(=O)c3ccc(-c4c5nc(c(-c6c(F)c(F)c(F)c(F)c6F)c6ccc([nH]6)c(-c6c(F)c(F)c(F)c(F)c6F)c6nc(c(-c7c(F)c(F)c(F)c(F)c7F)c7ccc4[nH]7)C=C6)C=C5)cc3)ccc2Cl)c1C
REMARK SMILES IDX 18 1 17 2 16 3 15 4 13 5 14 6 12 8 10 9 11 10 90 11 89 12
REMARK SMILES IDX 91 13 88 14 9 15 7 16 8 17 6 19 1 20 2 21 3 22 92 23 4 24
REMARK SMILES IDX 93 25 5 26 19 27 20 28 21 29 22 30 23 31 24 33 25 34 26 35
REMARK SMILES IDX 87 36 27 37 86 38 28 39 29 40 30 41 80 42 31 43 85 44 79 45
REMARK SMILES IDX 81 46 32 47 84 48 78 49 77 50 33 52 65 53 45 54 64 55 46 56
REMARK SMILES IDX 49 57 63 58 82 59 47 60 48 61 62 63 83 64 50 65 34 66 35 67
REMARK SMILES IDX 43 68 36 69 37 70 41 71 44 72 38 73 39 74 42 75 40 76 66 77
REMARK SMILES IDX 67 78 75 79 68 80 69 81 73 82 76 83 70 84 71 85 74 86 72 87
REMARK SMILES IDX 51 88 52 89 60 90 53 91 54 92 58 93 61 94 55 95 56 96 59 97
REMARK SMILES IDX 57 98
REMARK H PARENT 15 7 9 18 22 32 81 51 49 62
REMARK Flexibility Score: inf
ROOT
ATOM      1  C   UNL     1       3.909   4.450   6.996  1.00  0.00     0.002 C 
ENDROOT
BRANCH   1   2
ATOM      2  C   UNL     1       4.029   3.946   5.550  1.00  0.00     0.021 C 
BRANCH   2   3
ATOM      3  C   UNL     1       2.688   3.575   4.915  1.00  0.00     0.116 C 
BRANCH   3   4
ATOM      4  N   UNL     1       2.026   4.741   4.378  1.00  0.00    -0.352 N 
ATOM      5  C   UNL     1       1.871   5.282   3.133  1.00  0.00     0.251 C 
ATOM      6  O   UNL     1       1.196   6.314   3.083  1.00  0.00    -0.269 OA
ATOM      7  H   UNL     1       1.580   5.273   5.075  1.00  0.00     0.163 HD
BRANCH   5   8
ATOM      8  C   UNL     1       2.388   4.710   1.849  1.00  0.00     0.041 A 
ATOM      9  C   UNL     1       2.064   4.721  -0.584  1.00  0.00     0.061 A 
ATOM     10  C   UNL     1       1.868   5.300   0.678  1.00  0.00     0.041 A 
ATOM     11  C   UNL     1       2.969   3.662  -0.716  1.00  0.00     0.064 A 
ATOM     12  C   UNL     1       3.540   3.102   0.427  1.00  0.00     0.023 A 
ATOM     13  Cl  UNL     1       3.499   3.073  -2.250  1.00  0.00    -0.082 Cl
ATOM     14  C   UNL     1       3.236   3.609   1.701  1.00  0.00     0.015 A 
BRANCH   9  15
ATOM     15  N   UNL     1       1.217   5.190  -1.604  1.00  0.00    -0.320 N 
ATOM     16  C   UNL     1       0.410   4.470  -2.471  1.00  0.00     0.259 C 
ATOM     17  O   UNL     1      -0.157   5.091  -3.371  1.00  0.00    -0.269 OA
ATOM     18  H   UNL     1       1.193   6.168  -1.718  1.00  0.00     0.170 HD
BRANCH  16  19
ATOM     19  C   UNL     1       0.214   3.032  -2.281  1.00  0.00     0.084 A 
ATOM     20  C   UNL     1       0.484  -0.358  -0.818  1.00  0.00     0.088 C 
ATOM     21  C   UNL     1       0.243   0.919  -1.519  1.00  0.00     0.104 A 
ATOM     22  O   UNL     1       0.137   0.855  -2.869  1.00  0.00    -0.466 OA
ATOM     23  C   UNL     1       0.062   2.223  -1.095  1.00  0.00     0.003 A 
ATOM     24  C   UNL     1       0.010   2.134  -3.320  1.00  0.00     0.114 A 
ATOM     25  C   UNL     1      -0.224   2.634   0.301  1.00  0.00     0.049 C 
ATOM     26  C   UNL     1      -0.311   2.264  -4.756  1.00  0.00     0.088 C 
ENDBRANCH  16  19
ENDBRANCH   9  15
ENDBRANCH   5   8
ENDBRANCH   3   4
ENDBRANCH   2   3
ENDBRANCH   1   2
BRANCH   1  27
ATOM     27  C   UNL     1       3.133   3.538   7.962  1.00  0.00     0.002 C 
BRANCH  27  28
ATOM     28  C   UNL     1       3.513   2.049   7.946  1.00  0.00     0.021 C 
BRANCH  28  29
ATOM     29  C   UNL     1       4.930   1.780   8.423  1.00  0.00     0.116 C 
BRANCH  29  30
ATOM     30  N   UNL     1       5.109   2.123   9.830  1.00  0.00    -0.352 N 
ATOM     31  C   UNL     1       6.246   2.022  10.606  1.00  0.00     0.251 C 
ATOM     32  H   UNL     1       4.311   2.473  10.288  1.00  0.00     0.163 HD
ATOM     33  O   UNL     1       6.175   1.990  11.822  1.00  0.00    -0.269 OA
BRANCH  31  34
ATOM     34  C   UNL     1       7.558   1.960   9.937  1.00  0.00     0.039 A 
ATOM     35  C   UNL     1       8.581   1.147  10.436  1.00  0.00     0.014 A 
ATOM     36  C   UNL     1       7.759   2.738   8.799  1.00  0.00     0.014 A 
ATOM     37  C   UNL     1       9.783   1.075   9.738  1.00  0.00     0.010 A 
ATOM     38  C   UNL     1       8.878   2.552   8.031  1.00  0.00     0.010 A 
ATOM     39  C   UNL     1       9.914   1.770   8.526  1.00  0.00    -0.014 A 
BRANCH  39  40
ATOM     40  C   UNL     1      11.089   1.595   7.684  1.00  0.00     0.031 A 
ATOM     41  C   UNL     1      11.320   0.190   7.252  1.00  0.00     0.074 A 
ATOM     42  C   UNL     1      11.756   2.642   7.152  1.00  0.00     0.049 A 
ATOM     43  N   UNL     1      12.337  -0.555   7.529  1.00  0.00    -0.248 NA
ATOM     44  C   UNL     1      10.239  -0.523   6.549  1.00  0.00     0.031 C 
ATOM     45  C   UNL     1      11.437   4.071   7.253  1.00  0.00     0.029 A 
ATOM     46  N   UNL     1      12.814   2.640   6.297  1.00  0.00    -0.354 N 
ATOM     47  C   UNL     1      12.119  -1.769   6.885  1.00  0.00     0.074 A 
ATOM     48  C   UNL     1      10.747  -1.754   6.451  1.00  0.00     0.031 C 
ATOM     49  C   UNL     1      12.119   4.756   6.308  1.00  0.00     0.029 A 
ATOM     50  C   UNL     1      13.033   3.848   5.640  1.00  0.00     0.049 A 
ATOM     51  H   UNL     1      13.380   1.847   6.153  1.00  0.00     0.167 HD
ATOM     52  C   UNL     1      13.162  -2.585   6.566  1.00  0.00     0.037 A 
ATOM     53  C   UNL     1      13.871   4.056   4.591  1.00  0.00     0.037 A 
ATOM     54  C   UNL     1      14.348  -2.202   7.292  1.00  0.00     0.049 A 
ATOM     55  C   UNL     1      14.834   2.922   4.572  1.00  0.00     0.074 A 
ATOM     56  C   UNL     1      14.664  -2.105   8.634  1.00  0.00     0.029 A 
ATOM     57  N   UNL     1      15.292  -1.454   6.630  1.00  0.00    -0.354 N 
ATOM     58  N   UNL     1      15.748   2.740   5.485  1.00  0.00    -0.248 NA
ATOM     59  C   UNL     1      14.452   1.732   3.823  1.00  0.00     0.031 C 
ATOM     60  C   UNL     1      15.440  -0.914   8.740  1.00  0.00     0.029 A 
ATOM     61  C   UNL     1      15.638  -0.413   7.453  1.00  0.00     0.049 A 
ATOM     62  H   UNL     1      15.653  -1.631   5.731  1.00  0.00     0.167 HD
ATOM     63  C   UNL     1      15.721   1.377   5.737  1.00  0.00     0.074 A 
ATOM     64  C   UNL     1      14.956   0.797   4.633  1.00  0.00     0.031 C 
ATOM     65  C   UNL     1      16.048   0.881   6.966  1.00  0.00     0.037 A 
BRANCH  52  66
ATOM     66  C   UNL     1      13.229  -3.476   5.350  1.00  0.00     0.064 A 
ATOM     67  C   UNL     1      14.330  -4.345   5.201  1.00  0.00     0.173 A 
ATOM     68  C   UNL     1      12.438  -3.296   4.196  1.00  0.00     0.173 A 
ATOM     69  F   UNL     1      15.158  -4.582   6.229  1.00  0.00    -0.203 F 
ATOM     70  C   UNL     1      14.664  -4.912   3.968  1.00  0.00     0.198 A 
ATOM     71  C   UNL     1      12.743  -3.908   2.981  1.00  0.00     0.198 A 
ATOM     72  F   UNL     1      11.411  -2.441   4.158  1.00  0.00    -0.203 F 
ATOM     73  F   UNL     1      15.795  -5.619   3.846  1.00  0.00    -0.200 F 
ATOM     74  C   UNL     1      13.874  -4.686   2.857  1.00  0.00     0.200 A 
ATOM     75  F   UNL     1      11.973  -3.663   1.910  1.00  0.00    -0.200 F 
ATOM     76  F   UNL     1      14.226  -5.174   1.661  1.00  0.00    -0.200 F 
ENDBRANCH  52  66
BRANCH  53  77
ATOM     77  C   UNL     1      13.723   4.989   3.445  1.00  0.00     0.064 A 
ATOM     78  C   UNL     1      14.800   5.253   2.581  1.00  0.00     0.173 A 
ATOM     79  C   UNL     1      12.456   5.421   3.006  1.00  0.00     0.173 A 
ATOM     80  F   UNL     1      16.036   4.840   2.897  1.00  0.00    -0.203 F 
ATOM     81  C   UNL     1      14.615   5.880   1.342  1.00  0.00     0.198 A 
ATOM     82  C   UNL     1      12.274   6.053   1.774  1.00  0.00     0.198 A 
ATOM     83  F   UNL     1      11.351   5.154   3.717  1.00  0.00    -0.203 F 
ATOM     84  F   UNL     1      15.658   6.053   0.517  1.00  0.00    -0.200 F 
ATOM     85  C   UNL     1      13.350   6.268   0.935  1.00  0.00     0.200 A 
ATOM     86  F   UNL     1      11.038   6.390   1.378  1.00  0.00    -0.200 F 
ATOM     87  F   UNL     1      13.162   6.808  -0.278  1.00  0.00    -0.200 F 
ENDBRANCH  53  77
BRANCH  65  88
ATOM     88  C   UNL     1      16.681   1.809   7.968  1.00  0.00     0.064 A 
ATOM     89  C   UNL     1      16.076   2.977   8.465  1.00  0.00     0.173 A 
ATOM     90  C   UNL     1      17.882   1.405   8.566  1.00  0.00     0.173 A 
ATOM     91  F   UNL     1      14.876   3.377   8.027  1.00  0.00    -0.203 F 
ATOM     92  C   UNL     1      16.672   3.725   9.479  1.00  0.00     0.198 A 
ATOM     93  C   UNL     1      18.454   2.130   9.607  1.00  0.00     0.198 A 
ATOM     94  F   UNL     1      18.479   0.268   8.174  1.00  0.00    -0.203 F 
ATOM     95  F   UNL     1      16.081   4.844   9.926  1.00  0.00    -0.200 F 
ATOM     96  C   UNL     1      17.856   3.296  10.055  1.00  0.00     0.200 A 
ATOM     97  F   UNL     1      19.569   1.679  10.196  1.00  0.00    -0.200 F 
ATOM     98  F   UNL     1      18.407   3.990  11.060  1.00  0.00    -0.200 F 
ENDBRANCH  65  88
ENDBRANCH  39  40
ENDBRANCH  31  34
ENDBRANCH  29  30
ENDBRANCH  28  29
ENDBRANCH  27  28
ENDBRANCH   1  27
TORSDOF 15
