REMARK SMILES CCc1ccc2c(CC(=O)NCCCCCCNC(=O)c3ccc(-c4c5nc(c(-c6c(F)c(F)c(F)c(F)c6F)c6ccc([nH]6)c(-c6c(F)c(F)c(F)c(F)c6F)c6nc(c(-c7c(F)c(F)c(F)c(F)c7F)c7ccc4[nH]7)C=C6)C=C5)cc3)c(C(=O)c3cc(C)ccn3)[nH]c2c1
REMARK SMILES IDX 14 1 13 2 12 3 11 4 9 5 10 6 8 8 7 9 3 10 4 11 96 12 5 13
REMARK SMILES IDX 95 14 6 15 94 16 84 17 2 19 1 20 85 21 86 22 87 23 88 24
REMARK SMILES IDX 93 25 89 26 92 27 90 28 91 29 15 30 16 31 17 32 18 33 19 34
REMARK SMILES IDX 20 36 21 37 22 38 83 39 23 40 82 41 24 42 25 43 26 44 76 45
REMARK SMILES IDX 27 46 81 47 75 48 77 49 28 50 80 51 74 52 73 53 29 55 61 56
REMARK SMILES IDX 41 57 60 58 42 59 45 60 59 61 78 62 43 63 44 64 58 66 79 67
REMARK SMILES IDX 46 68 30 69 31 70 39 71 32 72 33 73 37 74 40 75 34 76 35 77
REMARK SMILES IDX 38 78 36 79 62 80 63 81 71 82 64 83 65 84 69 85 72 86 66 87
REMARK SMILES IDX 67 88 70 89 68 90 47 91 48 92 56 93 49 94 50 95 54 96 57 97
REMARK SMILES IDX 51 98 52 99 55 100 53 101
REMARK H PARENT 11 7 94 18 18 35 77 54 45 65
REMARK Flexibility Score: inf
ROOT
ATOM      1  C   UNL     1       4.992   6.553   4.101  1.00  0.00     0.002 C 
ENDROOT
BRANCH   1   2
ATOM      2  C   UNL     1       3.896   6.015   3.170  1.00  0.00     0.021 C 
BRANCH   2   3
ATOM      3  C   UNL     1       2.688   6.938   3.019  1.00  0.00     0.116 C 
BRANCH   3   4
ATOM      4  N   UNL     1       3.013   8.148   2.298  1.00  0.00    -0.356 N 
ATOM      5  C   UNL     1       2.645   8.551   1.047  1.00  0.00     0.224 C 
ATOM      6  O   UNL     1       2.916   9.715   0.739  1.00  0.00    -0.275 OA
ATOM      7  H   UNL     1       3.589   8.780   2.785  1.00  0.00     0.163 HD
BRANCH   5   8
ATOM      8  C   UNL     1       1.805   7.665   0.134  1.00  0.00     0.138 C 
BRANCH   8   9
ATOM      9  C   UNL     1       2.359   6.291  -0.145  1.00  0.00    -0.002 A 
ATOM     10  C   UNL     1       1.049   2.345   0.676  1.00  0.00    -0.046 A 
ATOM     11  C   UNL     1       0.176   3.375   1.047  1.00  0.00     0.004 A 
ATOM     12  C   UNL     1       2.279   2.668   0.076  1.00  0.00     0.030 A 
ATOM     13  C   UNL     1       0.491   4.719   0.812  1.00  0.00     0.011 A 
ATOM     14  C   UNL     1       2.573   4.020  -0.157  1.00  0.00     0.046 A 
ATOM     15  C   UNL     1       1.716   5.053   0.200  1.00  0.00     0.004 A 
ATOM     16  N   UNL     1       3.678   4.599  -0.733  1.00  0.00    -0.352 N 
ATOM     17  C   UNL     1       3.535   5.969  -0.824  1.00  0.00     0.093 A 
ATOM     18  H   UNL     1       4.470   4.101  -1.040  1.00  0.00     0.167 HD
BRANCH  10  19
ATOM     19  C   UNL     1       0.667   0.916   0.992  1.00  0.00     0.032 C 
ATOM     20  C   UNL     1       1.002  -0.094  -0.099  1.00  0.00     0.009 C 
ENDBRANCH  10  19
BRANCH  17  21
ATOM     21  C   UNL     1       4.471   6.866  -1.494  1.00  0.00     0.227 C 
ATOM     22  O   UNL     1       4.303   8.083  -1.570  1.00  0.00    -0.285 OA
BRANCH  21  23
ATOM     23  C   UNL     1       5.659   6.294  -2.180  1.00  0.00     0.113 A 
ATOM     24  C   UNL     1       5.488   5.484  -3.300  1.00  0.00     0.036 A 
ATOM     25  N   UNL     1       6.868   6.617  -1.657  1.00  0.00    -0.253 NA
ATOM     26  C   UNL     1       6.625   4.971  -3.926  1.00  0.00    -0.047 A 
ATOM     27  C   UNL     1       7.950   6.140  -2.303  1.00  0.00     0.112 A 
ATOM     28  C   UNL     1       6.520   4.088  -5.132  1.00  0.00     0.044 C 
ATOM     29  C   UNL     1       7.881   5.321  -3.420  1.00  0.00     0.023 A 
ENDBRANCH  21  23
ENDBRANCH  17  21
ENDBRANCH   8   9
ENDBRANCH   5   8
ENDBRANCH   3   4
ENDBRANCH   2   3
ENDBRANCH   1   2
BRANCH   1  30
ATOM     30  C   UNL     1       4.541   6.899   5.525  1.00  0.00     0.002 C 
BRANCH  30  31
ATOM     31  C   UNL     1       3.821   5.777   6.278  1.00  0.00     0.021 C 
BRANCH  31  32
ATOM     32  C   UNL     1       4.644   4.508   6.482  1.00  0.00     0.116 C 
BRANCH  32  33
ATOM     33  N   UNL     1       5.795   4.729   7.344  1.00  0.00    -0.352 N 
ATOM     34  C   UNL     1       6.210   4.024   8.444  1.00  0.00     0.251 C 
ATOM     35  H   UNL     1       6.359   5.498   7.101  1.00  0.00     0.163 HD
ATOM     36  O   UNL     1       7.117   4.460   9.150  1.00  0.00    -0.269 OA
BRANCH  34  37
ATOM     37  C   UNL     1       5.562   2.743   8.801  1.00  0.00     0.039 A 
ATOM     38  C   UNL     1       5.254   2.495  10.143  1.00  0.00     0.014 A 
ATOM     39  C   UNL     1       5.291   1.774   7.831  1.00  0.00     0.014 A 
ATOM     40  C   UNL     1       4.632   1.298  10.505  1.00  0.00     0.010 A 
ATOM     41  C   UNL     1       4.617   0.607   8.184  1.00  0.00     0.010 A 
ATOM     42  C   UNL     1       4.289   0.354   9.524  1.00  0.00    -0.014 A 
BRANCH  42  43
ATOM     43  C   UNL     1       3.607  -0.915   9.883  1.00  0.00     0.031 A 
ATOM     44  C   UNL     1       4.319  -2.227   9.704  1.00  0.00     0.074 A 
ATOM     45  C   UNL     1       2.331  -0.892  10.311  1.00  0.00     0.049 A 
ATOM     46  N   UNL     1       3.870  -3.445   9.874  1.00  0.00    -0.248 NA
ATOM     47  C   UNL     1       5.716  -2.160   9.247  1.00  0.00     0.031 C 
ATOM     48  C   UNL     1       1.521   0.312  10.492  1.00  0.00     0.029 A 
ATOM     49  N   UNL     1       1.487  -1.917  10.660  1.00  0.00    -0.354 N 
ATOM     50  C   UNL     1       4.918  -4.286   9.527  1.00  0.00     0.074 A 
ATOM     51  C   UNL     1       6.013  -3.443   9.096  1.00  0.00     0.031 C 
ATOM     52  C   UNL     1       0.302  -0.040  10.933  1.00  0.00     0.029 A 
ATOM     53  C   UNL     1       0.235  -1.495  11.035  1.00  0.00     0.049 A 
ATOM     54  H   UNL     1       1.754  -2.865  10.643  1.00  0.00     0.167 HD
ATOM     55  C   UNL     1       4.971  -5.638   9.582  1.00  0.00     0.037 A 
ATOM     56  C   UNL     1      -0.845  -2.204  11.413  1.00  0.00     0.037 A 
ATOM     57  C   UNL     1       3.894  -6.474  10.043  1.00  0.00     0.049 A 
ATOM     58  C   UNL     1      -0.756  -3.705  11.479  1.00  0.00     0.074 A 
ATOM     59  C   UNL     1       3.866  -7.851  10.181  1.00  0.00     0.029 A 
ATOM     60  N   UNL     1       2.652  -6.007  10.448  1.00  0.00    -0.354 N 
ATOM     61  N   UNL     1       0.256  -4.487  11.193  1.00  0.00    -0.248 NA
ATOM     62  C   UNL     1      -1.959  -4.420  11.926  1.00  0.00     0.031 C 
ATOM     63  C   UNL     1       2.597  -8.220  10.640  1.00  0.00     0.029 A 
ATOM     64  C   UNL     1       1.848  -7.069  10.827  1.00  0.00     0.049 A 
ATOM     65  H   UNL     1       2.383  -5.060  10.464  1.00  0.00     0.167 HD
ATOM     66  C   UNL     1      -0.175  -5.780  11.456  1.00  0.00     0.074 A 
ATOM     67  C   UNL     1      -1.539  -5.678  11.932  1.00  0.00     0.031 C 
ATOM     68  C   UNL     1       0.499  -6.947  11.315  1.00  0.00     0.037 A 
BRANCH  55  69
ATOM     69  C   UNL     1       6.241  -6.300   9.136  1.00  0.00     0.064 A 
ATOM     70  C   UNL     1       7.416  -6.223   9.900  1.00  0.00     0.173 A 
ATOM     71  C   UNL     1       6.278  -7.044   7.947  1.00  0.00     0.173 A 
ATOM     72  F   UNL     1       7.436  -5.513  11.037  1.00  0.00    -0.203 F 
ATOM     73  C   UNL     1       8.588  -6.844   9.476  1.00  0.00     0.198 A 
ATOM     74  C   UNL     1       7.444  -7.687   7.540  1.00  0.00     0.198 A 
ATOM     75  F   UNL     1       5.181  -7.152   7.182  1.00  0.00    -0.203 F 
ATOM     76  F   UNL     1       9.710  -6.718  10.198  1.00  0.00    -0.200 F 
ATOM     77  C   UNL     1       8.600  -7.580   8.301  1.00  0.00     0.200 A 
ATOM     78  F   UNL     1       7.452  -8.406   6.410  1.00  0.00    -0.200 F 
ATOM     79  F   UNL     1       9.727  -8.181   7.896  1.00  0.00    -0.200 F 
ENDBRANCH  55  69
BRANCH  56  80
ATOM     80  C   UNL     1      -2.097  -1.502  11.792  1.00  0.00     0.064 A 
ATOM     81  C   UNL     1      -2.518  -1.458  13.128  1.00  0.00     0.173 A 
ATOM     82  C   UNL     1      -2.898  -0.867  10.832  1.00  0.00     0.173 A 
ATOM     83  F   UNL     1      -1.795  -2.070  14.077  1.00  0.00    -0.203 F 
ATOM     84  C   UNL     1      -3.704  -0.822  13.489  1.00  0.00     0.198 A 
ATOM     85  C   UNL     1      -4.071  -0.209  11.197  1.00  0.00     0.198 A 
ATOM     86  F   UNL     1      -2.537  -0.878   9.541  1.00  0.00    -0.203 F 
ATOM     87  F   UNL     1      -4.105  -0.832  14.767  1.00  0.00    -0.200 F 
ATOM     88  C   UNL     1      -4.477  -0.193  12.524  1.00  0.00     0.200 A 
ATOM     89  F   UNL     1      -4.810   0.406  10.264  1.00  0.00    -0.200 F 
ATOM     90  F   UNL     1      -5.617   0.420  12.870  1.00  0.00    -0.200 F 
ENDBRANCH  56  80
BRANCH  68  91
ATOM     91  C   UNL     1      -0.211  -8.203  11.723  1.00  0.00     0.064 A 
ATOM     92  C   UNL     1      -1.237  -8.755  10.943  1.00  0.00     0.173 A 
ATOM     93  C   UNL     1       0.168  -8.884  12.890  1.00  0.00     0.173 A 
ATOM     94  F   UNL     1      -1.645  -8.132   9.826  1.00  0.00    -0.203 F 
ATOM     95  C   UNL     1      -1.873  -9.931  11.328  1.00  0.00     0.198 A 
ATOM     96  C   UNL     1      -0.452 -10.074  13.258  1.00  0.00     0.198 A 
ATOM     97  F   UNL     1       1.149  -8.399  13.666  1.00  0.00    -0.203 F 
ATOM     98  F   UNL     1      -2.880 -10.419  10.589  1.00  0.00    -0.200 F 
ATOM     99  C   UNL     1      -1.476 -10.593  12.480  1.00  0.00     0.200 A 
ATOM    100  F   UNL     1      -0.061 -10.717  14.366  1.00  0.00    -0.200 F 
ATOM    101  F   UNL     1      -2.086 -11.729  12.846  1.00  0.00    -0.200 F 
ENDBRANCH  68  91
ENDBRANCH  42  43
ENDBRANCH  34  37
ENDBRANCH  32  33
ENDBRANCH  31  32
ENDBRANCH  30  31
ENDBRANCH   1  30
TORSDOF 17
