REMARK SMILES Nc1ccc(F)cc1SCCOc1ccc(C(=O)NCCCCCCNC(=O)c2ccc(-c3c4nc(c(-c5c(F)c(F)c(F)c(F)c5F)c5ccc([nH]5)c(-c5c(F)c(F)c(F)c(F)c5F)c5nc(c(-c6c(F)c(F)c(F)c(F)c6F)c6ccc3[nH]6)C=C5)C=C4)cc2)cc1
REMARK SMILES IDX 20 1 19 2 17 3 18 4 16 6 13 7 14 8 93 9 15 10 92 11 12 12
REMARK SMILES IDX 11 13 10 14 9 15 8 16 2 17 3 18 4 19 7 20 5 21 6 22 1 23
REMARK SMILES IDX 21 26 22 27 23 28 24 29 25 30 26 31 27 32 28 34 29 35 30 36
REMARK SMILES IDX 91 37 31 38 90 39 32 40 33 41 34 42 84 43 35 44 89 45 83 46
REMARK SMILES IDX 85 47 36 48 88 49 82 50 81 51 37 53 69 54 49 55 68 56 50 57
REMARK SMILES IDX 53 58 67 59 86 60 51 61 52 62 66 64 87 65 54 66 38 67 39 68
REMARK SMILES IDX 47 69 40 70 41 71 45 72 48 73 42 74 43 75 46 76 44 77 70 78
REMARK SMILES IDX 71 79 79 80 72 81 73 82 77 83 80 84 74 85 75 86 78 87 76 88
REMARK SMILES IDX 55 89 56 90 64 91 57 92 58 93 62 94 65 95 59 96 60 97 63 98
REMARK SMILES IDX 61 99
REMARK H PARENT 19 5 1 24 1 25 26 33 85 52 53 63
REMARK Flexibility Score: inf
ROOT
ATOM      1  C   UNL     1      -3.882   0.910  -4.942  1.00  0.00     0.116 C 
ENDROOT
BRANCH   1   2
ATOM      2  N   UNL     1      -3.871   2.124  -4.157  1.00  0.00    -0.352 N 
ATOM      3  C   UNL     1      -3.631   2.296  -2.820  1.00  0.00     0.251 C 
ATOM      4  O   UNL     1      -3.954   3.353  -2.285  1.00  0.00    -0.269 OA
ATOM      5  H   UNL     1      -4.064   2.949  -4.658  1.00  0.00     0.163 HD
BRANCH   3   6
ATOM      6  C   UNL     1      -2.994   1.233  -2.008  1.00  0.00     0.040 A 
ATOM      7  C   UNL     1      -1.595  -0.457  -0.264  1.00  0.00     0.119 A 
ATOM      8  C   UNL     1      -2.721   0.233   0.184  1.00  0.00     0.047 A 
ATOM      9  C   UNL     1      -1.241  -0.388  -1.613  1.00  0.00     0.047 A 
ATOM     10  C   UNL     1      -3.414   1.082  -0.684  1.00  0.00     0.017 A 
ATOM     11  C   UNL     1      -1.902   0.493  -2.469  1.00  0.00     0.017 A 
BRANCH   7  12
ATOM     12  O   UNL     1      -0.713  -1.153   0.517  1.00  0.00    -0.493 OA
BRANCH  12  13
ATOM     13  C   UNL     1      -0.645  -0.812   1.905  1.00  0.00     0.241 C 
BRANCH  13  14
ATOM     14  C   UNL     1       0.345   0.310   2.256  1.00  0.00     0.116 C 
BRANCH  14  15
ATOM     15  S   UNL     1      -0.102   2.013   1.758  1.00  0.00    -0.120 SA
BRANCH  15  16
ATOM     16  C   UNL     1       0.367   2.238   0.030  1.00  0.00     0.033 A 
ATOM     17  C   UNL     1       1.336   1.534  -0.723  1.00  0.00     0.045 A 
ATOM     18  C   UNL     1       1.547   1.879  -2.074  1.00  0.00     0.029 A 
ATOM     19  C   UNL     1       0.848   2.922  -2.675  1.00  0.00     0.041 A 
ATOM     20  C   UNL     1      -0.315   3.304  -0.595  1.00  0.00     0.056 A 
ATOM     21  C   UNL     1      -0.075   3.629  -1.926  1.00  0.00     0.124 A 
ATOM     22  F   UNL     1      -0.758   4.626  -2.502  1.00  0.00    -0.207 F 
BRANCH  17  23
ATOM     23  N   UNL     1       1.976   0.376  -0.269  1.00  0.00    -0.398 N 
ATOM     24  H   UNL     1       2.643  -0.072  -0.838  1.00  0.00     0.156 HD
ATOM     25  H   UNL     1       1.760   0.010   0.619  1.00  0.00     0.156 HD
ENDBRANCH  17  23
ENDBRANCH  15  16
ENDBRANCH  14  15
ENDBRANCH  13  14
ENDBRANCH  12  13
ENDBRANCH   7  12
ENDBRANCH   3   6
ENDBRANCH   1   2
BRANCH   1  26
ATOM     26  C   UNL     1      -5.282   0.317  -5.040  1.00  0.00     0.021 C 
BRANCH  26  27
ATOM     27  C   UNL     1      -6.263   1.121  -5.897  1.00  0.00     0.002 C 
BRANCH  27  28
ATOM     28  C   UNL     1      -5.784   1.482  -7.308  1.00  0.00     0.002 C 
BRANCH  28  29
ATOM     29  C   UNL     1      -5.161   0.344  -8.115  1.00  0.00     0.021 C 
BRANCH  29  30
ATOM     30  C   UNL     1      -6.018  -0.907  -8.236  1.00  0.00     0.116 C 
BRANCH  30  31
ATOM     31  N   UNL     1      -7.214  -0.693  -9.030  1.00  0.00    -0.352 N 
ATOM     32  C   UNL     1      -7.631  -1.358 -10.158  1.00  0.00     0.251 C 
ATOM     33  H   UNL     1      -7.808   0.028  -8.718  1.00  0.00     0.163 HD
ATOM     34  O   UNL     1      -8.597  -0.959 -10.799  1.00  0.00    -0.269 OA
BRANCH  32  35
ATOM     35  C   UNL     1      -6.878  -2.544 -10.617  1.00  0.00     0.039 A 
ATOM     36  C   UNL     1      -6.515  -3.549  -9.718  1.00  0.00     0.014 A 
ATOM     37  C   UNL     1      -6.494  -2.626 -11.958  1.00  0.00     0.014 A 
ATOM     38  C   UNL     1      -5.631  -4.544 -10.119  1.00  0.00     0.010 A 
ATOM     39  C   UNL     1      -5.676  -3.677 -12.380  1.00  0.00     0.010 A 
ATOM     40  C   UNL     1      -5.200  -4.618 -11.454  1.00  0.00    -0.014 A 
BRANCH  40  41
ATOM     41  C   UNL     1      -4.252  -5.688 -11.859  1.00  0.00     0.031 A 
ATOM     42  C   UNL     1      -2.862  -5.350 -12.322  1.00  0.00     0.074 A 
ATOM     43  C   UNL     1      -4.635  -6.975 -11.756  1.00  0.00     0.049 A 
ATOM     44  N   UNL     1      -1.903  -6.153 -12.712  1.00  0.00    -0.248 NA
ATOM     45  C   UNL     1      -2.496  -3.925 -12.354  1.00  0.00     0.031 C 
ATOM     46  C   UNL     1      -5.950  -7.426 -11.299  1.00  0.00     0.029 A 
ATOM     47  N   UNL     1      -3.950  -8.138 -12.002  1.00  0.00    -0.354 N 
ATOM     48  C   UNL     1      -0.832  -5.335 -13.047  1.00  0.00     0.074 A 
ATOM     49  C   UNL     1      -1.264  -3.970 -12.844  1.00  0.00     0.031 C 
ATOM     50  C   UNL     1      -5.958  -8.765 -11.240  1.00  0.00     0.029 A 
ATOM     51  C   UNL     1      -4.676  -9.269 -11.720  1.00  0.00     0.049 A 
ATOM     52  H   UNL     1      -3.029  -8.160 -12.346  1.00  0.00     0.167 HD
ATOM     53  C   UNL     1       0.404  -5.694 -13.472  1.00  0.00     0.037 A 
ATOM     54  C   UNL     1      -4.351 -10.569 -11.846  1.00  0.00     0.037 A 
ATOM     55  C   UNL     1       0.836  -7.056 -13.657  1.00  0.00     0.049 A 
ATOM     56  C   UNL     1      -2.994 -10.937 -12.373  1.00  0.00     0.074 A 
ATOM     57  C   UNL     1       2.068  -7.519 -14.083  1.00  0.00     0.029 A 
ATOM     58  N   UNL     1       0.048  -8.174 -13.422  1.00  0.00    -0.354 N 
ATOM     59  N   UNL     1      -1.995 -10.153 -12.698  1.00  0.00    -0.248 NA
ATOM     60  C   UNL     1      -2.724 -12.368 -12.564  1.00  0.00     0.031 C 
ATOM     61  C   UNL     1       2.015  -8.915 -14.143  1.00  0.00     0.029 A 
ATOM     62  C   UNL     1       0.765  -9.325 -13.709  1.00  0.00     0.049 A 
ATOM     63  H   UNL     1      -0.882  -8.152 -13.100  1.00  0.00     0.167 HD
ATOM     64  C   UNL     1      -0.973 -10.993 -13.117  1.00  0.00     0.074 A 
ATOM     65  C   UNL     1      -1.467 -12.349 -12.988  1.00  0.00     0.031 C 
ATOM     66  C   UNL     1       0.261 -10.668 -13.572  1.00  0.00     0.037 A 
BRANCH  53  67
ATOM     67  C   UNL     1       1.387  -4.600 -13.772  1.00  0.00     0.064 A 
ATOM     68  C   UNL     1       1.992  -3.857 -12.748  1.00  0.00     0.173 A 
ATOM     69  C   UNL     1       1.782  -4.339 -15.094  1.00  0.00     0.173 A 
ATOM     70  F   UNL     1       1.641  -4.059 -11.469  1.00  0.00    -0.203 F 
ATOM     71  C   UNL     1       2.946  -2.884 -13.037  1.00  0.00     0.198 A 
ATOM     72  C   UNL     1       2.754  -3.384 -15.377  1.00  0.00     0.198 A 
ATOM     73  F   UNL     1       1.239  -5.027 -16.110  1.00  0.00    -0.203 F 
ATOM     74  F   UNL     1       3.487  -2.164 -12.044  1.00  0.00    -0.200 F 
ATOM     75  C   UNL     1       3.333  -2.654 -14.349  1.00  0.00     0.200 A 
ATOM     76  F   UNL     1       3.136  -3.173 -16.644  1.00  0.00    -0.200 F 
ATOM     77  F   UNL     1       4.262  -1.728 -14.623  1.00  0.00    -0.200 F 
ENDBRANCH  53  67
BRANCH  54  78
ATOM     78  C   UNL     1      -5.332 -11.611 -11.450  1.00  0.00     0.064 A 
ATOM     79  C   UNL     1      -5.118 -12.400 -10.312  1.00  0.00     0.173 A 
ATOM     80  C   UNL     1      -6.517 -11.811 -12.173  1.00  0.00     0.173 A 
ATOM     81  F   UNL     1      -3.990 -12.258  -9.601  1.00  0.00    -0.203 F 
ATOM     82  C   UNL     1      -6.054 -13.352  -9.913  1.00  0.00     0.198 A 
ATOM     83  C   UNL     1      -7.464 -12.743 -11.757  1.00  0.00     0.198 A 
ATOM     84  F   UNL     1      -6.769 -11.077 -13.267  1.00  0.00    -0.203 F 
ATOM     85  F   UNL     1      -5.814 -14.113  -8.836  1.00  0.00    -0.200 F 
ATOM     86  C   UNL     1      -7.230 -13.516 -10.629  1.00  0.00     0.200 A 
ATOM     87  F   UNL     1      -8.607 -12.886 -12.442  1.00  0.00    -0.200 F 
ATOM     88  F   UNL     1      -8.137 -14.419 -10.234  1.00  0.00    -0.200 F 
ENDBRANCH  54  78
BRANCH  66  89
ATOM     89  C   UNL     1       1.177 -11.794 -13.946  1.00  0.00     0.064 A 
ATOM     90  C   UNL     1       0.987 -12.533 -15.122  1.00  0.00     0.173 A 
ATOM     91  C   UNL     1       2.292 -12.097 -13.150  1.00  0.00     0.173 A 
ATOM     92  F   UNL     1      -0.073 -12.289 -15.908  1.00  0.00    -0.203 F 
ATOM     93  C   UNL     1       1.873 -13.545 -15.481  1.00  0.00     0.198 A 
ATOM     94  C   UNL     1       3.190 -13.091 -13.525  1.00  0.00     0.198 A 
ATOM     95  F   UNL     1       2.521 -11.414 -12.018  1.00  0.00    -0.203 F 
ATOM     96  F   UNL     1       1.654 -14.261 -16.592  1.00  0.00    -0.200 F 
ATOM     97  C   UNL     1       2.978 -13.817 -14.688  1.00  0.00     0.200 A 
ATOM     98  F   UNL     1       4.264 -13.345 -12.765  1.00  0.00    -0.200 F 
ATOM     99  F   UNL     1       3.837 -14.783 -15.042  1.00  0.00    -0.200 F 
ENDBRANCH  66  89
ENDBRANCH  40  41
ENDBRANCH  32  35
ENDBRANCH  30  31
ENDBRANCH  29  30
ENDBRANCH  28  29
ENDBRANCH  27  28
ENDBRANCH  26  27
ENDBRANCH   1  26
TORSDOF 19
