REMARK SMILES C=CCOc1ccc(C(=O)N2CCC[C@H]2C(=O)NCCCCCCNC(=O)c2ccc(-c3c4nc(c(-c5c(F)c(F)c(F)c(F)c5F)c5ccc([nH]5)c(-c5c(F)c(F)c(F)c(F)c5F)c5nc(c(-c6c(F)c(F)c(F)c(F)c6F)c6ccc3[nH]6)C=C5)C=C4)cc2)cc1
REMARK SMILES IDX 20 1 19 2 18 3 16 4 17 5 15 7 11 8 12 9 13 10 14 11 9 12
REMARK SMILES IDX 10 13 8 14 5 15 6 16 92 17 7 18 91 19 4 20 3 21 2 22 1 23
REMARK SMILES IDX 21 24 22 25 23 26 24 27 25 28 26 29 27 31 28 32 29 33 90 34
REMARK SMILES IDX 30 35 89 36 31 37 32 38 33 39 83 40 34 41 88 42 82 43 84 44
REMARK SMILES IDX 35 45 87 46 81 47 80 48 36 50 68 51 48 52 67 53 49 54 52 55
REMARK SMILES IDX 66 56 85 57 50 58 51 59 65 61 86 62 53 63 37 64 38 65 46 66
REMARK SMILES IDX 39 67 40 68 44 69 47 70 41 71 42 72 45 73 43 74 69 75 70 76
REMARK SMILES IDX 78 77 71 78 72 79 76 80 79 81 73 82 74 83 77 84 75 85 54 86
REMARK SMILES IDX 55 87 63 88 56 89 57 90 61 91 64 92 58 93 59 94 62 95 60 96
REMARK H PARENT 18 6 25 30 84 49 52 60
REMARK Flexibility Score: inf
ROOT
ATOM      1  C   UNL     1       2.398  -9.530   4.286  1.00  0.00     0.021 C 
ENDROOT
BRANCH   1   2
ATOM      2  C   UNL     1       2.870  -9.409   2.841  1.00  0.00     0.116 C 
BRANCH   2   3
ATOM      3  N   UNL     1       1.801  -9.594   1.887  1.00  0.00    -0.354 N 
ATOM      4  C   UNL     1       1.235  -8.754   0.979  1.00  0.00     0.242 C 
ATOM      5  O   UNL     1       0.496  -9.280   0.138  1.00  0.00    -0.273 OA
ATOM      6  H   UNL     1       1.410 -10.497   1.894  1.00  0.00     0.163 HD
BRANCH   4   7
ATOM      7  C   UNL     1       1.567  -7.250   0.889  1.00  0.00     0.174 C 
ATOM      8  N   UNL     1       1.234  -6.417   2.044  1.00  0.00    -0.327 N 
ATOM      9  C   UNL     1       2.424  -5.893   2.683  1.00  0.00     0.121 C 
ATOM     10  C   UNL     1       3.446  -5.837   1.560  1.00  0.00     0.024 C 
ATOM     11  C   UNL     1       3.042  -6.952   0.590  1.00  0.00     0.037 C 
BRANCH   8  12
ATOM     12  C   UNL     1      -0.083  -5.992   2.165  1.00  0.00     0.254 C 
ATOM     13  O   UNL     1      -1.022  -6.765   1.988  1.00  0.00    -0.269 OA
BRANCH  12  14
ATOM     14  C   UNL     1      -0.391  -4.539   2.339  1.00  0.00     0.040 A 
ATOM     15  C   UNL     1      -1.106  -1.818   2.393  1.00  0.00     0.119 A 
ATOM     16  C   UNL     1      -2.035  -2.789   2.763  1.00  0.00     0.047 A 
ATOM     17  C   UNL     1       0.180  -2.200   2.033  1.00  0.00     0.047 A 
ATOM     18  C   UNL     1      -1.679  -4.147   2.735  1.00  0.00     0.017 A 
ATOM     19  C   UNL     1       0.514  -3.548   1.952  1.00  0.00     0.017 A 
BRANCH  15  20
ATOM     20  O   UNL     1      -1.471  -0.500   2.443  1.00  0.00    -0.490 OA
BRANCH  20  21
ATOM     21  C   UNL     1      -1.370   0.165   1.171  1.00  0.00     0.257 C 
BRANCH  21  22
ATOM     22  C   UNL     1      -0.011   0.783   0.978  1.00  0.00     0.006 C 
ATOM     23  C   UNL     1       0.773   0.567  -0.089  1.00  0.00     0.007 C 
ENDBRANCH  21  22
ENDBRANCH  20  21
ENDBRANCH  15  20
ENDBRANCH  12  14
ENDBRANCH   8  12
ENDBRANCH   4   7
ENDBRANCH   2   3
ENDBRANCH   1   2
BRANCH   1  24
ATOM     24  C   UNL     1       1.806 -10.895   4.651  1.00  0.00     0.002 C 
BRANCH  24  25
ATOM     25  C   UNL     1       2.691 -12.107   4.341  1.00  0.00     0.002 C 
BRANCH  25  26
ATOM     26  C   UNL     1       4.094 -12.078   4.952  1.00  0.00     0.021 C 
BRANCH  26  27
ATOM     27  C   UNL     1       4.138 -11.939   6.469  1.00  0.00     0.116 C 
BRANCH  27  28
ATOM     28  N   UNL     1       3.509 -13.056   7.153  1.00  0.00    -0.352 N 
ATOM     29  C   UNL     1       3.962 -13.797   8.212  1.00  0.00     0.251 C 
ATOM     30  H   UNL     1       2.628 -13.319   6.803  1.00  0.00     0.163 HD
ATOM     31  O   UNL     1       3.347 -14.808   8.561  1.00  0.00    -0.269 OA
BRANCH  29  32
ATOM     32  C   UNL     1       5.193 -13.411   8.934  1.00  0.00     0.039 A 
ATOM     33  C   UNL     1       6.087 -14.415   9.321  1.00  0.00     0.014 A 
ATOM     34  C   UNL     1       5.456 -12.079   9.267  1.00  0.00     0.014 A 
ATOM     35  C   UNL     1       7.260 -14.080  10.002  1.00  0.00     0.010 A 
ATOM     36  C   UNL     1       6.659 -11.739   9.882  1.00  0.00     0.010 A 
ATOM     37  C   UNL     1       7.566 -12.736  10.270  1.00  0.00    -0.014 A 
BRANCH  37  38
ATOM     38  C   UNL     1       8.811 -12.361  10.988  1.00  0.00     0.031 A 
ATOM     39  C   UNL     1       8.730 -11.722  12.348  1.00  0.00     0.074 A 
ATOM     40  C   UNL     1      10.009 -12.548  10.402  1.00  0.00     0.049 A 
ATOM     41  N   UNL     1       9.693 -11.263  13.108  1.00  0.00    -0.248 NA
ATOM     42  C   UNL     1       7.385 -11.550  12.918  1.00  0.00     0.031 C 
ATOM     43  C   UNL     1      10.219 -13.120   9.072  1.00  0.00     0.029 A 
ATOM     44  N   UNL     1      11.277 -12.267  10.847  1.00  0.00    -0.354 N 
ATOM     45  C   UNL     1       9.070 -10.736  14.232  1.00  0.00     0.074 A 
ATOM     46  C   UNL     1       7.644 -10.882  14.032  1.00  0.00     0.031 C 
ATOM     47  C   UNL     1      11.537 -13.167   8.817  1.00  0.00     0.029 A 
ATOM     48  C   UNL     1      12.262 -12.600   9.950  1.00  0.00     0.049 A 
ATOM     49  H   UNL     1      11.462 -11.865  11.726  1.00  0.00     0.167 HD
ATOM     50  C   UNL     1       9.634 -10.201  15.341  1.00  0.00     0.037 A 
ATOM     51  C   UNL     1      13.599 -12.460  10.033  1.00  0.00     0.037 A 
ATOM     52  C   UNL     1      11.053 -10.086  15.553  1.00  0.00     0.049 A 
ATOM     53  C   UNL     1      14.201 -11.872  11.281  1.00  0.00     0.074 A 
ATOM     54  C   UNL     1      11.725  -9.602  16.662  1.00  0.00     0.029 A 
ATOM     55  N   UNL     1      12.020 -10.466  14.634  1.00  0.00    -0.354 N 
ATOM     56  N   UNL     1      13.604 -11.429  12.360  1.00  0.00    -0.248 NA
ATOM     57  C   UNL     1      15.667 -11.776  11.326  1.00  0.00     0.031 C 
ATOM     58  C   UNL     1      13.098  -9.654  16.399  1.00  0.00     0.029 A 
ATOM     59  C   UNL     1      13.283 -10.217  15.147  1.00  0.00     0.049 A 
ATOM     60  H   UNL     1      11.837 -10.855  13.748  1.00  0.00     0.167 HD
ATOM     61  C   UNL     1      14.617 -11.039  13.225  1.00  0.00     0.074 A 
ATOM     62  C   UNL     1      15.869 -11.306  12.549  1.00  0.00     0.031 C 
ATOM     63  C   UNL     1      14.520 -10.509  14.469  1.00  0.00     0.037 A 
BRANCH  50  64
ATOM     64  C   UNL     1       8.713  -9.704  16.418  1.00  0.00     0.064 A 
ATOM     65  C   UNL     1       7.955 -10.587  17.202  1.00  0.00     0.173 A 
ATOM     66  C   UNL     1       8.612  -8.332  16.692  1.00  0.00     0.173 A 
ATOM     67  F   UNL     1       8.007 -11.908  16.973  1.00  0.00    -0.203 F 
ATOM     68  C   UNL     1       7.109 -10.113  18.201  1.00  0.00     0.198 A 
ATOM     69  C   UNL     1       7.788  -7.864  17.713  1.00  0.00     0.198 A 
ATOM     70  F   UNL     1       9.318  -7.444  15.976  1.00  0.00    -0.203 F 
ATOM     71  F   UNL     1       6.358 -10.972  18.904  1.00  0.00    -0.200 F 
ATOM     72  C   UNL     1       7.032  -8.753  18.460  1.00  0.00     0.200 A 
ATOM     73  F   UNL     1       7.724  -6.550  17.971  1.00  0.00    -0.200 F 
ATOM     74  F   UNL     1       6.222  -8.299  19.427  1.00  0.00    -0.200 F 
ENDBRANCH  50  64
BRANCH  51  75
ATOM     75  C   UNL     1      14.466 -12.915   8.915  1.00  0.00     0.064 A 
ATOM     76  C   UNL     1      15.299 -14.032   9.060  1.00  0.00     0.173 A 
ATOM     77  C   UNL     1      14.490 -12.238   7.687  1.00  0.00     0.173 A 
ATOM     78  F   UNL     1      15.326 -14.700  10.223  1.00  0.00    -0.203 F 
ATOM     79  C   UNL     1      16.143 -14.441   8.030  1.00  0.00     0.198 A 
ATOM     80  C   UNL     1      15.314 -12.664   6.647  1.00  0.00     0.198 A 
ATOM     81  F   UNL     1      13.708 -11.166   7.495  1.00  0.00    -0.203 F 
ATOM     82  F   UNL     1      16.967 -15.481   8.214  1.00  0.00    -0.200 F 
ATOM     83  C   UNL     1      16.147 -13.759   6.822  1.00  0.00     0.200 A 
ATOM     84  F   UNL     1      15.305 -12.011   5.477  1.00  0.00    -0.200 F 
ATOM     85  F   UNL     1      16.959 -14.152   5.831  1.00  0.00    -0.200 F 
ENDBRANCH  51  75
BRANCH  63  86
ATOM     86  C   UNL     1      15.800 -10.234  15.203  1.00  0.00     0.064 A 
ATOM     87  C   UNL     1      16.650  -9.180  14.839  1.00  0.00     0.173 A 
ATOM     88  C   UNL     1      16.160 -11.016  16.311  1.00  0.00     0.173 A 
ATOM     89  F   UNL     1      16.357  -8.412  13.779  1.00  0.00    -0.203 F 
ATOM     90  C   UNL     1      17.828  -8.937  15.540  1.00  0.00     0.198 A 
ATOM     91  C   UNL     1      17.323 -10.752  17.028  1.00  0.00     0.198 A 
ATOM     92  F   UNL     1      15.377 -12.032  16.705  1.00  0.00    -0.203 F 
ATOM     93  F   UNL     1      18.651  -7.956  15.144  1.00  0.00    -0.200 F 
ATOM     94  C   UNL     1      18.160  -9.718  16.637  1.00  0.00     0.200 A 
ATOM     95  F   UNL     1      17.635 -11.499  18.096  1.00  0.00    -0.200 F 
ATOM     96  F   UNL     1      19.292  -9.479  17.314  1.00  0.00    -0.200 F 
ENDBRANCH  63  86
ENDBRANCH  37  38
ENDBRANCH  29  32
ENDBRANCH  27  28
ENDBRANCH  26  27
ENDBRANCH  25  26
ENDBRANCH  24  25
ENDBRANCH   1  24
TORSDOF 18
