REMARK SMILES O=C(C[C@H](C(=O)Nc1ccc([N+](=O)[O-])cc1)[C@H]1CCCO1)NCCCCCCNC(=O)c1ccc(-c2c3nc(c(-c4c(F)c(F)c(F)c(F)c4F)c4ccc([nH]4)c(-c4c(F)c(F)c(F)c(F)c4F)c4nc(c(-c5c(F)c(F)c(F)c(F)c5F)c5ccc2[nH]5)C=C4)C=C3)cc1
REMARK SMILES IDX 24 1 23 2 22 3 1 4 2 5 3 7 4 8 5 9 6 10 7 11 8 13 9 14 16 15
REMARK SMILES IDX 10 16 15 17 11 18 12 19 13 20 14 21 17 22 18 23 21 24 19 25
REMARK SMILES IDX 20 26 25 27 26 28 27 29 28 30 29 31 30 32 31 34 32 35 33 36
REMARK SMILES IDX 94 37 34 38 93 39 35 40 36 41 37 42 87 43 38 44 92 45 86 46
REMARK SMILES IDX 88 47 39 48 91 49 85 50 84 51 40 53 72 54 52 55 71 56 53 57
REMARK SMILES IDX 56 58 70 59 89 60 54 61 55 62 69 64 90 65 57 66 41 67 42 68
REMARK SMILES IDX 50 69 43 70 44 71 48 72 51 73 45 74 46 75 49 76 47 77 73 78
REMARK SMILES IDX 74 79 82 80 75 81 76 82 80 83 83 84 77 85 78 86 81 87 79 88
REMARK SMILES IDX 58 89 59 90 67 91 60 92 61 93 65 94 68 95 62 96 63 97 66 98
REMARK SMILES IDX 64 99
REMARK H PARENT 22 6 7 12 29 33 88 52 56 63
REMARK Flexibility Score: inf
ROOT
ATOM      1  C   UNL     1       7.469  -5.535   5.176  1.00  0.00     0.021 C 
ENDROOT
BRANCH   1   2
ATOM      2  C   UNL     1       6.706  -4.241   4.954  1.00  0.00     0.116 C 
BRANCH   2   3
ATOM      3  N   UNL     1       6.002  -4.184   3.693  1.00  0.00    -0.356 N 
ATOM      4  O   UNL     1       4.033  -4.975   4.539  1.00  0.00    -0.275 OA
ATOM      5  C   UNL     1       4.647  -4.418   3.632  1.00  0.00     0.220 C 
ATOM      6  H   UNL     1       6.498  -3.976   2.868  1.00  0.00     0.163 HD
BRANCH   5   7
ATOM      7  C   UNL     1       3.946  -3.993   2.357  1.00  0.00     0.116 C 
BRANCH   7   8
ATOM      8  C   UNL     1       4.429  -2.667   1.719  1.00  0.00     0.117 C 
BRANCH   8   9
ATOM      9  C   UNL     1       3.521  -1.434   1.963  1.00  0.00     0.230 C 
ATOM     10  O   UNL     1       3.439  -0.531   1.120  1.00  0.00    -0.274 OA
ATOM     11  N   UNL     1       2.792  -1.226   3.094  1.00  0.00    -0.326 N 
ATOM     12  H   UNL     1       2.077  -0.558   2.993  1.00  0.00     0.169 HD
BRANCH  11  13
ATOM     13  C   UNL     1       2.871  -1.784   4.366  1.00  0.00     0.041 A 
ATOM     14  C   UNL     1       1.696  -2.301   4.918  1.00  0.00     0.033 A 
ATOM     15  C   UNL     1       4.052  -1.770   5.108  1.00  0.00     0.033 A 
ATOM     16  C   UNL     1       1.733  -2.966   6.145  1.00  0.00     0.088 A 
ATOM     17  C   UNL     1       4.080  -2.373   6.372  1.00  0.00     0.088 A 
ATOM     18  C   UNL     1       2.938  -3.032   6.851  1.00  0.00     0.269 A 
BRANCH  18  19
ATOM     19  N   UNL     1       3.026  -3.850   8.066  1.00  0.00     0.062 N 
ATOM     20  O   UNL     1       1.970  -4.295   8.540  1.00  0.00    -0.258 OA
ATOM     21  O   UNL     1       4.151  -4.041   8.553  1.00  0.00    -0.258 OA
ENDBRANCH  18  19
ENDBRANCH  11  13
ENDBRANCH   8   9
BRANCH   8  22
ATOM     22  C   UNL     1       4.591  -2.822   0.155  1.00  0.00     0.131 C 
ATOM     23  C   UNL     1       6.041  -2.884  -0.314  1.00  0.00     0.035 C 
ATOM     24  O   UNL     1       3.974  -4.033  -0.339  1.00  0.00    -0.377 OA
ATOM     25  C   UNL     1       6.315  -4.362  -0.395  1.00  0.00     0.031 C 
ATOM     26  C   UNL     1       4.986  -4.905  -0.865  1.00  0.00     0.160 C 
ENDBRANCH   8  22
ENDBRANCH   7   8
ENDBRANCH   5   7
ENDBRANCH   2   3
ENDBRANCH   1   2
BRANCH   1  27
ATOM     27  C   UNL     1       8.827  -5.595   4.477  1.00  0.00     0.002 C 
BRANCH  27  28
ATOM     28  C   UNL     1       9.800  -4.457   4.815  1.00  0.00     0.002 C 
BRANCH  28  29
ATOM     29  C   UNL     1      10.015  -4.178   6.306  1.00  0.00     0.021 C 
BRANCH  29  30
ATOM     30  C   UNL     1      10.423  -5.387   7.142  1.00  0.00     0.116 C 
BRANCH  30  31
ATOM     31  N   UNL     1      11.614  -6.037   6.616  1.00  0.00    -0.352 N 
ATOM     32  C   UNL     1      12.820  -6.263   7.216  1.00  0.00     0.251 C 
ATOM     33  H   UNL     1      11.540  -6.362   5.690  1.00  0.00     0.163 HD
ATOM     34  O   UNL     1      13.785  -6.635   6.547  1.00  0.00    -0.269 OA
BRANCH  32  35
ATOM     35  C   UNL     1      12.973  -6.055   8.667  1.00  0.00     0.039 A 
ATOM     36  C   UNL     1      14.098  -5.372   9.138  1.00  0.00     0.014 A 
ATOM     37  C   UNL     1      12.022  -6.556   9.562  1.00  0.00     0.014 A 
ATOM     38  C   UNL     1      14.245  -5.147  10.507  1.00  0.00     0.010 A 
ATOM     39  C   UNL     1      12.138  -6.277  10.919  1.00  0.00     0.010 A 
ATOM     40  C   UNL     1      13.253  -5.576  11.403  1.00  0.00    -0.014 A 
BRANCH  40  41
ATOM     41  C   UNL     1      13.363  -5.302  12.854  1.00  0.00     0.031 A 
ATOM     42  C   UNL     1      13.543  -6.435  13.822  1.00  0.00     0.074 A 
ATOM     43  C   UNL     1      13.219  -4.041  13.300  1.00  0.00     0.049 A 
ATOM     44  N   UNL     1      13.579  -6.409  15.130  1.00  0.00    -0.248 NA
ATOM     45  C   UNL     1      13.668  -7.781  13.242  1.00  0.00     0.031 C 
ATOM     46  C   UNL     1      12.981  -2.871  12.454  1.00  0.00     0.029 A 
ATOM     47  N   UNL     1      13.231  -3.536  14.575  1.00  0.00    -0.354 N 
ATOM     48  C   UNL     1      13.719  -7.732  15.528  1.00  0.00     0.074 A 
ATOM     49  C   UNL     1      13.707  -8.540  14.327  1.00  0.00     0.031 C 
ATOM     50  C   UNL     1      12.873  -1.782  13.233  1.00  0.00     0.029 A 
ATOM     51  C   UNL     1      13.006  -2.183  14.630  1.00  0.00     0.049 A 
ATOM     52  H   UNL     1      13.386  -4.091  15.373  1.00  0.00     0.167 HD
ATOM     53  C   UNL     1      13.867  -8.223  16.781  1.00  0.00     0.037 A 
ATOM     54  C   UNL     1      12.907  -1.362  15.691  1.00  0.00     0.037 A 
ATOM     55  C   UNL     1      13.895  -7.410  17.968  1.00  0.00     0.049 A 
ATOM     56  C   UNL     1      13.082  -1.927  17.073  1.00  0.00     0.074 A 
ATOM     57  C   UNL     1      14.111  -7.798  19.278  1.00  0.00     0.029 A 
ATOM     58  N   UNL     1      13.692  -6.037  17.985  1.00  0.00    -0.354 N 
ATOM     59  N   UNL     1      13.292  -3.169  17.435  1.00  0.00    -0.248 NA
ATOM     60  C   UNL     1      13.016  -0.977  18.190  1.00  0.00     0.031 C 
ATOM     61  C   UNL     1      13.999  -6.665  20.093  1.00  0.00     0.029 A 
ATOM     62  C   UNL     1      13.754  -5.565  19.286  1.00  0.00     0.049 A 
ATOM     63  H   UNL     1      13.528  -5.480  17.190  1.00  0.00     0.167 HD
ATOM     64  C   UNL     1      13.391  -3.152  18.819  1.00  0.00     0.074 A 
ATOM     65  C   UNL     1      13.241  -1.770  19.229  1.00  0.00     0.031 C 
ATOM     66  C   UNL     1      13.586  -4.186  19.673  1.00  0.00     0.037 A 
BRANCH  53  67
ATOM     67  C   UNL     1      14.011  -9.711  16.923  1.00  0.00     0.064 A 
ATOM     68  C   UNL     1      15.165 -10.381  16.487  1.00  0.00     0.173 A 
ATOM     69  C   UNL     1      12.991 -10.475  17.508  1.00  0.00     0.173 A 
ATOM     70  F   UNL     1      16.165  -9.697  15.910  1.00  0.00    -0.203 F 
ATOM     71  C   UNL     1      15.275 -11.765  16.596  1.00  0.00     0.198 A 
ATOM     72  C   UNL     1      13.117 -11.856  17.641  1.00  0.00     0.198 A 
ATOM     73  F   UNL     1      11.869  -9.885  17.947  1.00  0.00    -0.203 F 
ATOM     74  F   UNL     1      16.362 -12.388  16.119  1.00  0.00    -0.200 F 
ATOM     75  C   UNL     1      14.254 -12.500  17.176  1.00  0.00     0.200 A 
ATOM     76  F   UNL     1      12.134 -12.565  18.212  1.00  0.00    -0.200 F 
ATOM     77  F   UNL     1      14.361 -13.832  17.279  1.00  0.00    -0.200 F 
ENDBRANCH  53  67
BRANCH  54  78
ATOM     78  C   UNL     1      12.648   0.083  15.474  1.00  0.00     0.064 A 
ATOM     79  C   UNL     1      13.662   1.032  15.664  1.00  0.00     0.173 A 
ATOM     80  C   UNL     1      11.398   0.540  15.033  1.00  0.00     0.173 A 
ATOM     81  F   UNL     1      14.868   0.643  16.100  1.00  0.00    -0.203 F 
ATOM     82  C   UNL     1      13.432   2.385  15.427  1.00  0.00     0.198 A 
ATOM     83  C   UNL     1      11.176   1.891  14.774  1.00  0.00     0.198 A 
ATOM     84  F   UNL     1      10.399  -0.331  14.829  1.00  0.00    -0.203 F 
ATOM     85  F   UNL     1      14.411   3.276  15.640  1.00  0.00    -0.200 F 
ATOM     86  C   UNL     1      12.193   2.813  14.975  1.00  0.00     0.200 A 
ATOM     87  F   UNL     1       9.982   2.298  14.322  1.00  0.00    -0.200 F 
ATOM     88  F   UNL     1      11.977   4.113  14.733  1.00  0.00    -0.200 F 
ENDBRANCH  54  78
BRANCH  66  89
ATOM     89  C   UNL     1      13.647  -3.860  21.135  1.00  0.00     0.064 A 
ATOM     90  C   UNL     1      12.491  -3.528  21.856  1.00  0.00     0.173 A 
ATOM     91  C   UNL     1      14.864  -3.919  21.830  1.00  0.00     0.173 A 
ATOM     92  F   UNL     1      11.307  -3.442  21.232  1.00  0.00    -0.203 F 
ATOM     93  C   UNL     1      12.555  -3.247  23.218  1.00  0.00     0.198 A 
ATOM     94  C   UNL     1      14.920  -3.663  23.197  1.00  0.00     0.198 A 
ATOM     95  F   UNL     1      15.996  -4.236  21.184  1.00  0.00    -0.203 F 
ATOM     96  F   UNL     1      11.445  -2.892  23.880  1.00  0.00    -0.200 F 
ATOM     97  C   UNL     1      13.767  -3.322  23.888  1.00  0.00     0.200 A 
ATOM     98  F   UNL     1      16.090  -3.745  23.845  1.00  0.00    -0.200 F 
ATOM     99  F   UNL     1      13.826  -3.058  25.201  1.00  0.00    -0.200 F 
ENDBRANCH  66  89
ENDBRANCH  40  41
ENDBRANCH  32  35
ENDBRANCH  30  31
ENDBRANCH  29  30
ENDBRANCH  28  29
ENDBRANCH  27  28
ENDBRANCH   1  27
TORSDOF 18
