REMARK SMILES CSc1nc(C2CC2)nc(C)c1C(=O)NCCCCCCNC(=O)c1ccc(-c2c3nc(c(-c4c(F)c(F)c(F)c(F)c4F)c4ccc([nH]4)c(-c4c(F)c(F)c(F)c(F)c4F)c4nc(c(-c5c(F)c(F)c(F)c(F)c5F)c5ccc2[nH]5)C=C4)C=C3)cc1
REMARK SMILES IDX 19 1 18 2 17 3 16 4 15 5 13 6 14 7 12 9 3 10 4 11 5 12 10 13
REMARK SMILES IDX 9 14 11 15 2 16 1 17 6 18 7 19 8 20 20 21 21 22 22 23 23 24
REMARK SMILES IDX 24 26 25 27 26 28 87 29 27 30 86 31 28 32 29 33 30 34 80 35
REMARK SMILES IDX 31 36 85 37 79 38 81 39 32 40 84 41 78 42 77 43 33 45 65 46
REMARK SMILES IDX 45 47 64 48 46 49 49 50 63 51 82 52 47 53 48 54 62 56 83 57
REMARK SMILES IDX 50 58 34 59 35 60 43 61 36 62 37 63 41 64 44 65 38 66 39 67
REMARK SMILES IDX 42 68 40 69 66 70 67 71 75 72 68 73 69 74 73 75 76 76 70 77
REMARK SMILES IDX 71 78 74 79 72 80 51 81 52 82 60 83 53 84 54 85 58 86 61 87
REMARK SMILES IDX 55 88 56 89 59 90 57 91
REMARK H PARENT 15 8 22 25 81 44 49 55
REMARK Flexibility Score: inf
ROOT
ATOM      1  C   UNL     1       0.656   9.361   3.627  1.00  0.00     0.002 C 
ENDROOT
BRANCH   1   2
ATOM      2  C   UNL     1       1.684   8.644   2.743  1.00  0.00     0.002 C 
BRANCH   2   3
ATOM      3  C   UNL     1       2.078   7.248   3.223  1.00  0.00     0.021 C 
BRANCH   3   4
ATOM      4  C   UNL     1       0.882   6.334   3.477  1.00  0.00     0.116 C 
BRANCH   4   5
ATOM      5  N   UNL     1       0.663   5.429   2.385  1.00  0.00    -0.352 N 
ATOM      6  C   UNL     1       0.783   4.099   2.109  1.00  0.00     0.255 C 
ATOM      7  O   UNL     1       0.759   3.923   0.885  1.00  0.00    -0.269 OA
ATOM      8  H   UNL     1       0.323   5.914   1.599  1.00  0.00     0.163 HD
BRANCH   6   9
ATOM      9  C   UNL     1       0.984   2.912   3.019  1.00  0.00     0.093 A 
ATOM     10  C   UNL     1       0.819   1.623   2.462  1.00  0.00     0.113 A 
ATOM     11  N   UNL     1       1.166   0.464   3.086  1.00  0.00    -0.225 NA
ATOM     12  C   UNL     1       1.666   0.531   4.313  1.00  0.00     0.133 A 
ATOM     13  C   UNL     1       1.389   2.848   4.351  1.00  0.00     0.055 A 
ATOM     14  N   UNL     1       1.750   1.688   4.958  1.00  0.00    -0.237 NA
ATOM     15  C   UNL     1       1.474   3.920   5.376  1.00  0.00     0.068 C 
BRANCH  10  16
ATOM     16  S   UNL     1      -0.069   1.250   0.932  1.00  0.00    -0.109 SA
ATOM     17  C   UNL     1       0.960  -0.098   0.297  1.00  0.00     0.092 C 
ENDBRANCH  10  16
BRANCH  12  18
ATOM     18  C   UNL     1       2.149  -0.687   5.044  1.00  0.00     0.058 C 
ATOM     19  C   UNL     1       2.089  -2.070   4.454  1.00  0.00     0.012 C 
ATOM     20  C   UNL     1       3.413  -1.369   4.574  1.00  0.00     0.012 C 
ENDBRANCH  12  18
ENDBRANCH   6   9
ENDBRANCH   4   5
ENDBRANCH   3   4
ENDBRANCH   2   3
ENDBRANCH   1   2
BRANCH   1  21
ATOM     21  C   UNL     1       0.996   9.399   5.121  1.00  0.00     0.021 C 
BRANCH  21  22
ATOM     22  C   UNL     1       2.327  10.068   5.444  1.00  0.00     0.116 C 
BRANCH  22  23
ATOM     23  N   UNL     1       2.386  11.422   4.915  1.00  0.00    -0.352 N 
ATOM     24  C   UNL     1       2.561  12.607   5.572  1.00  0.00     0.251 C 
ATOM     25  H   UNL     1       2.285  11.495   3.939  1.00  0.00     0.163 HD
ATOM     26  O   UNL     1       2.325  13.672   5.000  1.00  0.00    -0.269 OA
BRANCH  24  27
ATOM     27  C   UNL     1       3.031  12.613   6.969  1.00  0.00     0.039 A 
ATOM     28  C   UNL     1       2.445  13.498   7.877  1.00  0.00     0.014 A 
ATOM     29  C   UNL     1       4.068  11.768   7.375  1.00  0.00     0.014 A 
ATOM     30  C   UNL     1       2.869  13.502   9.206  1.00  0.00     0.010 A 
ATOM     31  C   UNL     1       4.435  11.719   8.715  1.00  0.00     0.010 A 
ATOM     32  C   UNL     1       3.847  12.593   9.641  1.00  0.00    -0.014 A 
BRANCH  32  33
ATOM     33  C   UNL     1       4.271  12.546  11.061  1.00  0.00     0.031 A 
ATOM     34  C   UNL     1       5.686  12.884  11.438  1.00  0.00     0.074 A 
ATOM     35  C   UNL     1       3.396  12.141  12.001  1.00  0.00     0.049 A 
ATOM     36  N   UNL     1       6.263  12.842  12.612  1.00  0.00    -0.248 NA
ATOM     37  C   UNL     1       6.581  13.299  10.345  1.00  0.00     0.031 C 
ATOM     38  C   UNL     1       2.010  11.743  11.748  1.00  0.00     0.029 A 
ATOM     39  N   UNL     1       3.544  11.987  13.356  1.00  0.00    -0.354 N 
ATOM     40  C   UNL     1       7.585  13.211  12.397  1.00  0.00     0.074 A 
ATOM     41  C   UNL     1       7.741  13.417  10.974  1.00  0.00     0.031 C 
ATOM     42  C   UNL     1       1.428  11.414  12.911  1.00  0.00     0.029 A 
ATOM     43  C   UNL     1       2.410  11.535  13.985  1.00  0.00     0.049 A 
ATOM     44  H   UNL     1       4.383  12.182  13.832  1.00  0.00     0.167 HD
ATOM     45  C   UNL     1       8.571  13.384  13.309  1.00  0.00     0.037 A 
ATOM     46  C   UNL     1       2.191  11.243  15.281  1.00  0.00     0.037 A 
ATOM     47  C   UNL     1       8.401  13.196  14.726  1.00  0.00     0.049 A 
ATOM     48  C   UNL     1       3.309  11.431  16.271  1.00  0.00     0.074 A 
ATOM     49  C   UNL     1       9.320  13.403  15.740  1.00  0.00     0.029 A 
ATOM     50  N   UNL     1       7.234  12.750  15.329  1.00  0.00    -0.354 N 
ATOM     51  N   UNL     1       4.534  11.851  16.067  1.00  0.00    -0.248 NA
ATOM     52  C   UNL     1       3.010  11.113  17.673  1.00  0.00     0.031 C 
ATOM     53  C   UNL     1       8.727  13.028  16.950  1.00  0.00     0.029 A 
ATOM     54  C   UNL     1       7.418  12.649  16.699  1.00  0.00     0.049 A 
ATOM     55  H   UNL     1       6.398  12.537  14.854  1.00  0.00     0.167 HD
ATOM     56  C   UNL     1       5.142  11.877  17.315  1.00  0.00     0.074 A 
ATOM     57  C   UNL     1       4.144  11.446  18.272  1.00  0.00     0.031 C 
ATOM     58  C   UNL     1       6.411  12.225  17.639  1.00  0.00     0.037 A 
BRANCH  45  59
ATOM     59  C   UNL     1       9.923  13.798  12.803  1.00  0.00     0.064 A 
ATOM     60  C   UNL     1      10.149  15.071  12.256  1.00  0.00     0.173 A 
ATOM     61  C   UNL     1      11.018  12.926  12.901  1.00  0.00     0.173 A 
ATOM     62  F   UNL     1       9.136  15.941  12.129  1.00  0.00    -0.203 F 
ATOM     63  C   UNL     1      11.411  15.443  11.800  1.00  0.00     0.198 A 
ATOM     64  C   UNL     1      12.286  13.313  12.475  1.00  0.00     0.198 A 
ATOM     65  F   UNL     1      10.861  11.699  13.420  1.00  0.00    -0.203 F 
ATOM     66  F   UNL     1      11.590  16.645  11.234  1.00  0.00    -0.200 F 
ATOM     67  C   UNL     1      12.480  14.567  11.917  1.00  0.00     0.200 A 
ATOM     68  F   UNL     1      13.320  12.470  12.602  1.00  0.00    -0.200 F 
ATOM     69  F   UNL     1      13.696  14.930  11.486  1.00  0.00    -0.200 F 
ENDBRANCH  45  59
BRANCH  46  70
ATOM     70  C   UNL     1       0.855  10.759  15.719  1.00  0.00     0.064 A 
ATOM     71  C   UNL     1       0.035  11.549  16.537  1.00  0.00     0.173 A 
ATOM     72  C   UNL     1       0.374   9.498  15.337  1.00  0.00     0.173 A 
ATOM     73  F   UNL     1       0.458  12.755  16.943  1.00  0.00    -0.203 F 
ATOM     74  C   UNL     1      -1.203  11.086  16.977  1.00  0.00     0.198 A 
ATOM     75  C   UNL     1      -0.878   9.049  15.751  1.00  0.00     0.198 A 
ATOM     76  F   UNL     1       1.115   8.706  14.549  1.00  0.00    -0.203 F 
ATOM     77  F   UNL     1      -1.943  11.840  17.800  1.00  0.00    -0.200 F 
ATOM     78  C   UNL     1      -1.661   9.839  16.579  1.00  0.00     0.200 A 
ATOM     79  F   UNL     1      -1.325   7.851  15.350  1.00  0.00    -0.200 F 
ATOM     80  F   UNL     1      -2.853   9.395  17.001  1.00  0.00    -0.200 F 
ENDBRANCH  46  70
BRANCH  58  81
ATOM     81  C   UNL     1       6.784  12.194  19.094  1.00  0.00     0.064 A 
ATOM     82  C   UNL     1       6.925  10.988  19.795  1.00  0.00     0.173 A 
ATOM     83  C   UNL     1       7.040  13.389  19.785  1.00  0.00     0.173 A 
ATOM     84  F   UNL     1       6.677   9.819  19.185  1.00  0.00    -0.203 F 
ATOM     85  C   UNL     1       7.282  10.980  21.141  1.00  0.00     0.198 A 
ATOM     86  C   UNL     1       7.431  13.376  21.120  1.00  0.00     0.198 A 
ATOM     87  F   UNL     1       6.927  14.570  19.159  1.00  0.00    -0.203 F 
ATOM     88  F   UNL     1       7.359   9.818  21.805  1.00  0.00    -0.200 F 
ATOM     89  C   UNL     1       7.542  12.173  21.800  1.00  0.00     0.200 A 
ATOM     90  F   UNL     1       7.698  14.528  21.750  1.00  0.00    -0.200 F 
ATOM     91  F   UNL     1       7.894  12.162  23.093  1.00  0.00    -0.200 F 
ENDBRANCH  58  81
ENDBRANCH  32  33
ENDBRANCH  24  27
ENDBRANCH  22  23
ENDBRANCH  21  22
ENDBRANCH   1  21
TORSDOF 15
