REMARK SMILES O=C(NCCCCCCNC(=O)c1cccc(OS(=O)(=O)c2cccc([N+](=O)[O-])c2)c1)c1ccc(-c2c3nc(c(-c4c(F)c(F)c(F)c(F)c4F)c4ccc([nH]4)c(-c4c(F)c(F)c(F)c(F)c4F)c4nc(c(-c5c(F)c(F)c(F)c(F)c5F)c5ccc2[nH]5)C=C4)C=C3)cc1
REMARK SMILES IDX 7 1 6 2 5 3 4 4 3 5 1 6 2 7 32 9 33 10 94 11 34 12 93 13
REMARK SMILES IDX 35 14 36 15 37 16 87 17 38 18 92 19 86 20 88 21 39 22 91 23
REMARK SMILES IDX 85 24 84 25 40 27 72 28 52 29 71 30 53 31 56 32 70 33 89 34
REMARK SMILES IDX 54 35 55 36 69 38 90 39 57 40 41 41 42 42 50 43 43 44 44 45
REMARK SMILES IDX 48 46 51 47 45 48 46 49 49 50 47 51 73 52 74 53 82 54 75 55
REMARK SMILES IDX 76 56 80 57 83 58 77 59 78 60 81 61 79 62 58 63 59 64 67 65
REMARK SMILES IDX 60 66 61 67 65 68 68 69 62 70 63 71 66 72 64 73 8 74 9 75
REMARK SMILES IDX 10 76 11 77 12 79 13 80 14 81 31 82 15 83 17 84 16 85 18 86
REMARK SMILES IDX 19 87 20 88 21 89 22 90 23 91 30 92 24 93 26 94 25 95 27 96
REMARK SMILES IDX 28 97 29 98
REMARK H PARENT 3 8 88 26 56 37 10 78
REMARK Flexibility Score: inf
ROOT
ATOM      1  C   UNL     1       4.631  -4.277   0.979  1.00  0.00     0.002 C 
ENDROOT
BRANCH   1   2
ATOM      2  C   UNL     1       4.103  -3.335   2.064  1.00  0.00     0.002 C 
BRANCH   2   3
ATOM      3  C   UNL     1       4.586  -1.886   1.984  1.00  0.00     0.021 C 
BRANCH   3   4
ATOM      4  C   UNL     1       4.359  -1.188   0.647  1.00  0.00     0.116 C 
BRANCH   4   5
ATOM      5  N   UNL     1       2.952  -1.067   0.303  1.00  0.00    -0.352 N 
ATOM      6  O   UNL     1       1.030  -0.024  -0.248  1.00  0.00    -0.269 OA
ATOM      7  C   UNL     1       2.250   0.033  -0.123  1.00  0.00     0.251 C 
ATOM      8  H   UNL     1       2.426  -1.895   0.387  1.00  0.00     0.163 HD
BRANCH   7   9
ATOM      9  C   UNL     1       2.954   1.303  -0.409  1.00  0.00     0.039 A 
ATOM     10  C   UNL     1       4.131   1.326  -1.162  1.00  0.00     0.014 A 
ATOM     11  C   UNL     1       2.404   2.499   0.065  1.00  0.00     0.014 A 
ATOM     12  C   UNL     1       4.818   2.525  -1.341  1.00  0.00     0.010 A 
ATOM     13  C   UNL     1       3.061   3.710  -0.168  1.00  0.00     0.010 A 
ATOM     14  C   UNL     1       4.287   3.729  -0.851  1.00  0.00    -0.014 A 
BRANCH  14  15
ATOM     15  C   UNL     1       5.002   5.005  -1.100  1.00  0.00     0.031 A 
ATOM     16  C   UNL     1       5.629   5.773   0.028  1.00  0.00     0.074 A 
ATOM     17  C   UNL     1       5.093   5.465  -2.362  1.00  0.00     0.049 A 
ATOM     18  N   UNL     1       6.286   6.906  -0.009  1.00  0.00    -0.248 NA
ATOM     19  C   UNL     1       5.497   5.201   1.376  1.00  0.00     0.031 C 
ATOM     20  C   UNL     1       4.513   4.812  -3.537  1.00  0.00     0.029 A 
ATOM     21  N   UNL     1       5.711   6.579  -2.869  1.00  0.00    -0.354 N 
ATOM     22  C   UNL     1       6.629   7.191   1.305  1.00  0.00     0.074 A 
ATOM     23  C   UNL     1       6.091   6.123   2.122  1.00  0.00     0.031 C 
ATOM     24  C   UNL     1       4.829   5.520  -4.632  1.00  0.00     0.029 A 
ATOM     25  C   UNL     1       5.593   6.698  -4.231  1.00  0.00     0.049 A 
ATOM     26  H   UNL     1       6.192   7.231  -2.310  1.00  0.00     0.167 HD
ATOM     27  C   UNL     1       7.335   8.244   1.784  1.00  0.00     0.037 A 
ATOM     28  C   UNL     1       6.039   7.655  -5.065  1.00  0.00     0.037 A 
ATOM     29  C   UNL     1       7.888   9.293   0.967  1.00  0.00     0.049 A 
ATOM     30  C   UNL     1       6.813   8.814  -4.507  1.00  0.00     0.074 A 
ATOM     31  C   UNL     1       8.652  10.380   1.357  1.00  0.00     0.029 A 
ATOM     32  N   UNL     1       7.735   9.387  -0.408  1.00  0.00    -0.354 N 
ATOM     33  N   UNL     1       7.155   9.056  -3.265  1.00  0.00    -0.248 NA
ATOM     34  C   UNL     1       7.260   9.833  -5.465  1.00  0.00     0.031 C 
ATOM     35  C   UNL     1       8.932  11.150   0.223  1.00  0.00     0.029 A 
ATOM     36  C   UNL     1       8.375  10.522  -0.880  1.00  0.00     0.049 A 
ATOM     37  H   UNL     1       7.245   8.742  -0.967  1.00  0.00     0.167 HD
ATOM     38  C   UNL     1       7.867  10.246  -3.292  1.00  0.00     0.074 A 
ATOM     39  C   UNL     1       7.923  10.668  -4.677  1.00  0.00     0.031 C 
ATOM     40  C   UNL     1       8.420  10.929  -2.261  1.00  0.00     0.037 A 
BRANCH  27  41
ATOM     41  C   UNL     1       7.540   8.325   3.268  1.00  0.00     0.064 A 
ATOM     42  C   UNL     1       8.444   7.483   3.932  1.00  0.00     0.173 A 
ATOM     43  C   UNL     1       6.859   9.289   4.027  1.00  0.00     0.173 A 
ATOM     44  F   UNL     1       9.113   6.542   3.251  1.00  0.00    -0.203 F 
ATOM     45  C   UNL     1       8.643   7.590   5.307  1.00  0.00     0.198 A 
ATOM     46  C   UNL     1       7.077   9.408   5.397  1.00  0.00     0.198 A 
ATOM     47  F   UNL     1       5.989  10.123   3.437  1.00  0.00    -0.203 F 
ATOM     48  F   UNL     1       9.486   6.755   5.928  1.00  0.00    -0.200 F 
ATOM     49  C   UNL     1       7.965   8.555   6.036  1.00  0.00     0.200 A 
ATOM     50  F   UNL     1       6.430  10.349   6.098  1.00  0.00    -0.200 F 
ATOM     51  F   UNL     1       8.162   8.662   7.358  1.00  0.00    -0.200 F 
ENDBRANCH  27  41
BRANCH  28  52
ATOM     52  C   UNL     1       5.765   7.542  -6.519  1.00  0.00     0.064 A 
ATOM     53  C   UNL     1       6.790   7.231  -7.421  1.00  0.00     0.173 A 
ATOM     54  C   UNL     1       4.471   7.714  -7.030  1.00  0.00     0.173 A 
ATOM     55  F   UNL     1       8.047   7.078  -6.980  1.00  0.00    -0.203 F 
ATOM     56  C   UNL     1       6.531   7.101  -8.784  1.00  0.00     0.198 A 
ATOM     57  C   UNL     1       4.208   7.560  -8.388  1.00  0.00     0.198 A 
ATOM     58  F   UNL     1       3.457   8.008  -6.203  1.00  0.00    -0.203 F 
ATOM     59  F   UNL     1       7.534   6.832  -9.631  1.00  0.00    -0.200 F 
ATOM     60  C   UNL     1       5.240   7.258  -9.265  1.00  0.00     0.200 A 
ATOM     61  F   UNL     1       2.957   7.698  -8.847  1.00  0.00    -0.200 F 
ATOM     62  F   UNL     1       4.990   7.121 -10.574  1.00  0.00    -0.200 F 
ENDBRANCH  28  52
BRANCH  40  63
ATOM     63  C   UNL     1       9.149  12.195  -2.596  1.00  0.00     0.064 A 
ATOM     64  C   UNL     1       8.458  13.368  -2.931  1.00  0.00     0.173 A 
ATOM     65  C   UNL     1      10.550  12.242  -2.553  1.00  0.00     0.173 A 
ATOM     66  F   UNL     1       7.118  13.366  -3.002  1.00  0.00    -0.203 F 
ATOM     67  C   UNL     1       9.146  14.540  -3.232  1.00  0.00     0.198 A 
ATOM     68  C   UNL     1      11.233  13.421  -2.832  1.00  0.00     0.198 A 
ATOM     69  F   UNL     1      11.254  11.145  -2.235  1.00  0.00    -0.203 F 
ATOM     70  F   UNL     1       8.469  15.640  -3.590  1.00  0.00    -0.200 F 
ATOM     71  C   UNL     1      10.532  14.567  -3.177  1.00  0.00     0.200 A 
ATOM     72  F   UNL     1      12.572  13.448  -2.771  1.00  0.00    -0.200 F 
ATOM     73  F   UNL     1      11.193  15.697  -3.465  1.00  0.00    -0.200 F 
ENDBRANCH  40  63
ENDBRANCH  14  15
ENDBRANCH   7   9
ENDBRANCH   4   5
ENDBRANCH   3   4
ENDBRANCH   2   3
ENDBRANCH   1   2
BRANCH   1  74
ATOM     74  C   UNL     1       6.153  -4.324   0.817  1.00  0.00     0.021 C 
BRANCH  74  75
ATOM     75  C   UNL     1       6.930  -4.730   2.067  1.00  0.00     0.116 C 
BRANCH  75  76
ATOM     76  N   UNL     1       6.670  -6.108   2.457  1.00  0.00    -0.352 N 
ATOM     77  C   UNL     1       7.567  -7.089   2.805  1.00  0.00     0.251 C 
ATOM     78  H   UNL     1       5.722  -6.373   2.473  1.00  0.00     0.163 HD
ATOM     79  O   UNL     1       7.202  -8.250   2.955  1.00  0.00    -0.269 OA
BRANCH  77  80
ATOM     80  C   UNL     1       8.990  -6.737   2.993  1.00  0.00     0.043 A 
ATOM     81  C   UNL     1       9.977  -7.465   2.330  1.00  0.00     0.014 A 
ATOM     82  C   UNL     1       9.337  -5.677   3.837  1.00  0.00     0.062 A 
ATOM     83  C   UNL     1      11.313  -7.088   2.467  1.00  0.00     0.005 A 
ATOM     84  C   UNL     1      10.665  -5.265   3.935  1.00  0.00     0.143 A 
ATOM     85  C   UNL     1      11.655  -5.984   3.257  1.00  0.00     0.048 A 
BRANCH  84  86
ATOM     86  O   UNL     1      11.080  -4.168   4.656  1.00  0.00    -0.379 OA
BRANCH  86  87
ATOM     87  S   UNL     1      10.001  -3.033   5.129  1.00  0.00     0.339 S 
ATOM     88  O   UNL     1       9.348  -2.499   3.946  1.00  0.00    -0.181 OA
ATOM     89  O   UNL     1       9.221  -3.553   6.236  1.00  0.00    -0.181 OA
BRANCH  87  90
ATOM     90  C   UNL     1      10.974  -1.715   5.818  1.00  0.00     0.112 A 
ATOM     91  C   UNL     1      11.952  -2.009   6.773  1.00  0.00     0.024 A 
ATOM     92  C   UNL     1      10.679  -0.393   5.467  1.00  0.00     0.109 A 
ATOM     93  C   UNL     1      12.636  -0.964   7.399  1.00  0.00     0.009 A 
ATOM     94  C   UNL     1      11.363   0.645   6.109  1.00  0.00     0.270 A 
ATOM     95  C   UNL     1      12.341   0.364   7.075  1.00  0.00     0.086 A 
BRANCH  94  96
ATOM     96  N   UNL     1      11.028   2.040   5.793  1.00  0.00     0.062 N 
ATOM     97  O   UNL     1      11.608   2.929   6.430  1.00  0.00    -0.258 OA
ATOM     98  O   UNL     1      10.180   2.240   4.911  1.00  0.00    -0.258 OA
ENDBRANCH  94  96
ENDBRANCH  87  90
ENDBRANCH  86  87
ENDBRANCH  84  86
ENDBRANCH  77  80
ENDBRANCH  75  76
ENDBRANCH  74  75
ENDBRANCH   1  74
TORSDOF 17
