REMARK SMILES C[C@](NC(=O)[C@](C)([NH3+])C(F)(F)F)(C(=O)NCCCCCCNC(=O)c1ccc(-c2c3nc(c(-c4c(F)c(F)c(F)c(F)c4F)c4ccc([nH]4)c(-c4c(F)c(F)c(F)c(F)c4F)c4nc(c(-c5c(F)c(F)c(F)c(F)c5F)c5ccc2[nH]5)C=C4)C=C3)cc1)c1ccccc1
REMARK SMILES IDX 18 1 17 2 16 3 15 4 13 5 14 6 2 8 1 9 88 10 89 11 93 12
REMARK SMILES IDX 90 13 92 14 91 15 3 16 4 17 5 19 6 20 7 21 8 22 9 26 10 27
REMARK SMILES IDX 11 28 12 29 19 30 20 31 21 32 22 33 23 34 24 36 25 37 26 38
REMARK SMILES IDX 87 39 27 40 86 41 28 42 29 43 30 44 80 45 31 46 85 47 79 48
REMARK SMILES IDX 81 49 32 50 84 51 78 52 77 53 33 55 65 56 45 57 64 58 46 59
REMARK SMILES IDX 49 60 63 61 82 62 47 63 48 64 62 66 83 67 50 68 34 69 35 70
REMARK SMILES IDX 43 71 36 72 37 73 41 74 44 75 38 76 39 77 42 78 40 79 66 80
REMARK SMILES IDX 67 81 75 82 68 83 69 84 73 85 76 86 70 87 71 88 74 89 72 90
REMARK SMILES IDX 51 91 52 92 60 93 53 94 54 95 58 96 61 97 55 98 56 99 59 100
REMARK SMILES IDX 57 101
REMARK H PARENT 15 7 3 18 8 23 8 24 8 25 22 35 81 54 49 65
REMARK Flexibility Score: inf
ROOT
ATOM      1  C   UNL     1       6.860  -6.000   2.648  1.00  0.00     0.002 C 
ENDROOT
BRANCH   1   2
ATOM      2  C   UNL     1       5.387  -5.563   2.606  1.00  0.00     0.021 C 
BRANCH   2   3
ATOM      3  C   UNL     1       5.201  -4.063   2.403  1.00  0.00     0.116 C 
BRANCH   3   4
ATOM      4  N   UNL     1       5.870  -3.663   1.190  1.00  0.00    -0.354 N 
ATOM      5  C   UNL     1       5.228  -3.470   0.006  1.00  0.00     0.250 C 
ATOM      6  O   UNL     1       5.645  -4.096  -0.968  1.00  0.00    -0.272 OA
ATOM      7  H   UNL     1       6.844  -3.522   1.220  1.00  0.00     0.163 HD
BRANCH   5   8
ATOM      8  C   UNL     1       4.029  -2.477  -0.032  1.00  0.00     0.142 C 
ATOM      9  C   UNL     1       4.269  -1.296   0.926  1.00  0.00     0.051 C 
BRANCH   8  10
ATOM     10  C   UNL     1       3.844  -2.084  -1.472  1.00  0.00    -0.013 A 
ATOM     11  C   UNL     1       3.817  -0.348  -1.916  1.00  0.00     0.007 A 
ATOM     12  C   UNL     1       2.933  -3.303  -2.476  1.00  0.00     0.007 A 
ATOM     13  C   UNL     1       2.811   0.185  -3.274  1.00  0.00     0.000 A 
ATOM     14  C   UNL     1       1.945  -2.738  -3.851  1.00  0.00     0.000 A 
ATOM     15  C   UNL     1       1.891  -1.000  -4.240  1.00  0.00     0.000 A 
ENDBRANCH   8  10
BRANCH   8  16
ATOM     16  N   UNL     1       2.686  -2.958   0.196  1.00  0.00    -0.332 N 
ATOM     17  C   UNL     1       1.665  -2.550  -0.650  1.00  0.00     0.291 C 
ATOM     18  H   UNL     1       2.498  -3.570   0.944  1.00  0.00     0.165 HD
ATOM     19  O   UNL     1       0.517  -2.928  -0.379  1.00  0.00    -0.267 OA
BRANCH  17  20
ATOM     20  C   UNL     1       1.994  -1.458  -2.129  1.00  0.00     0.267 C 
ATOM     21  C   UNL     1       1.565  -0.036  -1.129  1.00  0.00     0.100 C 
BRANCH  20  22
ATOM     22  N   UNL     1       0.288  -1.500  -2.542  1.00  0.00    -0.337 N 
ATOM     23  H   UNL     1       0.129  -0.946  -3.384  1.00  0.00     0.345 HD
ATOM     24  H   UNL     1      -0.258  -1.114  -1.772  1.00  0.00     0.345 HD
ATOM     25  H   UNL     1       0.003  -2.464  -2.711  1.00  0.00     0.345 HD
ENDBRANCH  20  22
BRANCH  20  26
ATOM     26  C   UNL     1       3.731  -1.697  -3.496  1.00  0.00     0.453 C 
ATOM     27  F   UNL     1       3.955  -0.846  -4.630  1.00  0.00    -0.164 F 
ATOM     28  F   UNL     1       5.091  -1.602  -3.017  1.00  0.00    -0.164 F 
ATOM     29  F   UNL     1       3.967  -2.916  -4.231  1.00  0.00    -0.164 F 
ENDBRANCH  20  26
ENDBRANCH  17  20
ENDBRANCH   8  16
ENDBRANCH   5   8
ENDBRANCH   3   4
ENDBRANCH   2   3
ENDBRANCH   1   2
BRANCH   1  30
ATOM     30  C   UNL     1       7.747  -5.161   3.576  1.00  0.00     0.002 C 
BRANCH  30  31
ATOM     31  C   UNL     1       7.221  -5.041   5.005  1.00  0.00     0.021 C 
BRANCH  31  32
ATOM     32  C   UNL     1       6.910  -6.379   5.649  1.00  0.00     0.116 C 
BRANCH  32  33
ATOM     33  N   UNL     1       8.097  -7.205   5.758  1.00  0.00    -0.352 N 
ATOM     34  C   UNL     1       8.589  -7.834   6.870  1.00  0.00     0.251 C 
ATOM     35  H   UNL     1       8.614  -7.329   4.929  1.00  0.00     0.163 HD
ATOM     36  O   UNL     1       9.723  -8.298   6.878  1.00  0.00    -0.269 OA
BRANCH  34  37
ATOM     37  C   UNL     1       7.733  -7.924   8.068  1.00  0.00     0.039 A 
ATOM     38  C   UNL     1       8.289  -7.642   9.314  1.00  0.00     0.014 A 
ATOM     39  C   UNL     1       6.381  -8.265   7.949  1.00  0.00     0.014 A 
ATOM     40  C   UNL     1       7.476  -7.678  10.446  1.00  0.00     0.010 A 
ATOM     41  C   UNL     1       5.554  -8.200   9.062  1.00  0.00     0.010 A 
ATOM     42  C   UNL     1       6.099  -7.935  10.326  1.00  0.00    -0.014 A 
BRANCH  42  43
ATOM     43  C   UNL     1       5.228  -7.981  11.525  1.00  0.00     0.031 A 
ATOM     44  C   UNL     1       4.532  -9.263  11.893  1.00  0.00     0.074 A 
ATOM     45  C   UNL     1       5.050  -6.871  12.265  1.00  0.00     0.049 A 
ATOM     46  N   UNL     1       3.707  -9.503  12.882  1.00  0.00    -0.248 NA
ATOM     47  C   UNL     1       4.770 -10.425  11.020  1.00  0.00     0.031 C 
ATOM     48  C   UNL     1       5.637  -5.560  11.980  1.00  0.00     0.029 A 
ATOM     49  N   UNL     1       4.321  -6.667  13.409  1.00  0.00    -0.354 N 
ATOM     50  C   UNL     1       3.340 -10.836  12.750  1.00  0.00     0.074 A 
ATOM     51  C   UNL     1       3.958 -11.331  11.541  1.00  0.00     0.031 C 
ATOM     52  C   UNL     1       5.270  -4.696  12.939  1.00  0.00     0.029 A 
ATOM     53  C   UNL     1       4.387  -5.378  13.880  1.00  0.00     0.049 A 
ATOM     54  H   UNL     1       3.801  -7.376  13.850  1.00  0.00     0.167 HD
ATOM     55  C   UNL     1       2.587 -11.591  13.583  1.00  0.00     0.037 A 
ATOM     56  C   UNL     1       3.792  -4.812  14.948  1.00  0.00     0.037 A 
ATOM     57  C   UNL     1       1.977 -11.095  14.788  1.00  0.00     0.049 A 
ATOM     58  C   UNL     1       2.927  -5.668  15.836  1.00  0.00     0.074 A 
ATOM     59  C   UNL     1       1.203 -11.779  15.709  1.00  0.00     0.029 A 
ATOM     60  N   UNL     1       2.073  -9.787  15.239  1.00  0.00    -0.354 N 
ATOM     61  N   UNL     1       2.631  -6.941  15.731  1.00  0.00    -0.248 NA
ATOM     62  C   UNL     1       2.325  -5.009  17.003  1.00  0.00     0.031 C 
ATOM     63  C   UNL     1       0.789 -10.872  16.690  1.00  0.00     0.029 A 
ATOM     64  C   UNL     1       1.362  -9.640  16.419  1.00  0.00     0.049 A 
ATOM     65  H   UNL     1       2.572  -9.068  14.787  1.00  0.00     0.167 HD
ATOM     66  C   UNL     1       1.847  -7.244  16.837  1.00  0.00     0.074 A 
ATOM     67  C   UNL     1       1.730  -6.025  17.609  1.00  0.00     0.031 C 
ATOM     68  C   UNL     1       1.274  -8.423  17.185  1.00  0.00     0.037 A 
BRANCH  55  69
ATOM     69  C   UNL     1       2.395 -13.038  13.226  1.00  0.00     0.064 A 
ATOM     70  C   UNL     1       3.463 -13.950  13.264  1.00  0.00     0.173 A 
ATOM     71  C   UNL     1       1.128 -13.531  12.881  1.00  0.00     0.173 A 
ATOM     72  F   UNL     1       4.699 -13.530  13.573  1.00  0.00    -0.203 F 
ATOM     73  C   UNL     1       3.274 -15.291  12.943  1.00  0.00     0.198 A 
ATOM     74  C   UNL     1       0.936 -14.880  12.596  1.00  0.00     0.198 A 
ATOM     75  F   UNL     1       0.071 -12.706  12.832  1.00  0.00    -0.203 F 
ATOM     76  F   UNL     1       4.320 -16.130  12.934  1.00  0.00    -0.200 F 
ATOM     77  C   UNL     1       2.010 -15.757  12.619  1.00  0.00     0.200 A 
ATOM     78  F   UNL     1      -0.290 -15.332  12.299  1.00  0.00    -0.200 F 
ATOM     79  F   UNL     1       1.827 -17.051  12.323  1.00  0.00    -0.200 F 
ENDBRANCH  55  69
BRANCH  56  80
ATOM     80  C   UNL     1       3.992  -3.368  15.244  1.00  0.00     0.064 A 
ATOM     81  C   UNL     1       4.647  -2.948  16.411  1.00  0.00     0.173 A 
ATOM     82  C   UNL     1       3.491  -2.375  14.388  1.00  0.00     0.173 A 
ATOM     83  F   UNL     1       5.133  -3.857  17.270  1.00  0.00    -0.203 F 
ATOM     84  C   UNL     1       4.750  -1.596  16.734  1.00  0.00     0.198 A 
ATOM     85  C   UNL     1       3.630  -1.023  14.692  1.00  0.00     0.198 A 
ATOM     86  F   UNL     1       2.867  -2.719  13.252  1.00  0.00    -0.203 F 
ATOM     87  F   UNL     1       5.313  -1.228  17.893  1.00  0.00    -0.200 F 
ATOM     88  C   UNL     1       4.244  -0.635  15.873  1.00  0.00     0.200 A 
ATOM     89  F   UNL     1       3.158  -0.097  13.846  1.00  0.00    -0.200 F 
ATOM     90  F   UNL     1       4.336   0.664  16.187  1.00  0.00    -0.200 F 
ENDBRANCH  56  80
BRANCH  68  91
ATOM     91  C   UNL     1       0.529  -8.469  18.490  1.00  0.00     0.064 A 
ATOM     92  C   UNL     1      -0.675  -7.777  18.686  1.00  0.00     0.173 A 
ATOM     93  C   UNL     1       1.024  -9.237  19.556  1.00  0.00     0.173 A 
ATOM     94  F   UNL     1      -1.187  -7.019  17.704  1.00  0.00    -0.203 F 
ATOM     95  C   UNL     1      -1.330  -7.815  19.915  1.00  0.00     0.198 A 
ATOM     96  C   UNL     1       0.344  -9.306  20.768  1.00  0.00     0.198 A 
ATOM     97  F   UNL     1       2.166  -9.929  19.420  1.00  0.00    -0.203 F 
ATOM     98  F   UNL     1      -2.441  -7.088  20.101  1.00  0.00    -0.200 F 
ATOM     99  C   UNL     1      -0.824  -8.584  20.951  1.00  0.00     0.200 A 
ATOM    100  F   UNL     1       0.825 -10.067  21.761  1.00  0.00    -0.200 F 
ATOM    101  F   UNL     1      -1.458  -8.622  22.131  1.00  0.00    -0.200 F 
ENDBRANCH  68  91
ENDBRANCH  42  43
ENDBRANCH  34  37
ENDBRANCH  32  33
ENDBRANCH  31  32
ENDBRANCH  30  31
ENDBRANCH   1  30
TORSDOF 18
