REMARK SMILES Cc1cc(C(=O)NCCCCCCNC(=O)c2ccc(-c3c4nc(c(-c5c(F)c(F)c(F)c(F)c5F)c5ccc([nH]5)c(-c5c(F)c(F)c(F)c(F)c5F)c5nc(c(-c6c(F)c(F)c(F)c(F)c6F)c6ccc3[nH]6)C=C5)C=C4)cc2)ccc1-c1ccc(C(=O)N2CCCCC2)cc1
REMARK SMILES IDX 10 1 9 2 8 3 7 4 5 5 6 6 4 8 1 9 2 10 3 11 82 12 81 13 80 14
REMARK SMILES IDX 83 15 84 16 96 17 85 18 95 19 86 20 87 21 88 22 89 23 90 24
REMARK SMILES IDX 94 25 91 26 93 27 92 28 11 29 12 30 13 31 14 32 15 33 16 35
REMARK SMILES IDX 17 36 18 37 79 38 19 39 78 40 20 41 21 42 22 43 72 44 23 45
REMARK SMILES IDX 77 46 71 47 73 48 24 49 76 50 70 51 69 52 25 54 57 55 37 56
REMARK SMILES IDX 56 57 38 58 41 59 55 60 74 61 39 62 40 63 54 65 75 66 42 67
REMARK SMILES IDX 26 68 27 69 35 70 28 71 29 72 33 73 36 74 30 75 31 76 34 77
REMARK SMILES IDX 32 78 58 79 59 80 67 81 60 82 61 83 65 84 68 85 62 86 63 87
REMARK SMILES IDX 66 88 64 89 43 90 44 91 52 92 45 93 46 94 50 95 53 96 47 97
REMARK SMILES IDX 48 98 51 99 49 100
REMARK H PARENT 7 7 14 34 73 53 41 64
REMARK Flexibility Score: inf
ROOT
ATOM      1  C   UNL     1      -6.048  -2.596  -1.013  1.00  0.00     0.002 C 
ENDROOT
BRANCH   1   2
ATOM      2  C   UNL     1      -5.029  -1.468  -0.787  1.00  0.00     0.021 C 
BRANCH   2   3
ATOM      3  C   UNL     1      -4.101  -1.684   0.412  1.00  0.00     0.116 C 
BRANCH   3   4
ATOM      4  N   UNL     1      -3.046  -2.618   0.083  1.00  0.00    -0.352 N 
ATOM      5  C   UNL     1      -1.710  -2.456  -0.172  1.00  0.00     0.251 C 
ATOM      6  O   UNL     1      -1.045  -3.475  -0.367  1.00  0.00    -0.269 OA
ATOM      7  H   UNL     1      -3.347  -3.554   0.033  1.00  0.00     0.163 HD
BRANCH   5   8
ATOM      8  C   UNL     1      -1.021  -1.134  -0.182  1.00  0.00     0.040 A 
ATOM      9  C   UNL     1       2.595  -0.078   0.359  1.00  0.00     0.045 C 
ATOM     10  C   UNL     1       1.112   0.049   0.119  1.00  0.00    -0.042 A 
ATOM     11  C   UNL     1       0.351  -1.135   0.110  1.00  0.00     0.018 A 
ATOM     12  C   UNL     1       0.481   1.279  -0.168  1.00  0.00    -0.015 A 
ATOM     13  C   UNL     1      -0.888   1.269  -0.483  1.00  0.00     0.010 A 
ATOM     14  C   UNL     1      -1.621   0.077  -0.523  1.00  0.00     0.014 A 
BRANCH  12  15
ATOM     15  C   UNL     1       1.207   2.556  -0.186  1.00  0.00    -0.018 A 
ATOM     16  C   UNL     1       2.138   2.825  -1.198  1.00  0.00     0.009 A 
ATOM     17  C   UNL     1       1.022   3.512   0.825  1.00  0.00     0.009 A 
ATOM     18  C   UNL     1       2.909   3.989  -1.170  1.00  0.00     0.014 A 
ATOM     19  C   UNL     1       1.776   4.692   0.840  1.00  0.00     0.014 A 
ATOM     20  C   UNL     1       2.730   4.936  -0.156  1.00  0.00     0.040 A 
BRANCH  20  21
ATOM     21  C   UNL     1       3.671   6.081   0.015  1.00  0.00     0.253 C 
ATOM     22  O   UNL     1       3.885   6.486   1.157  1.00  0.00    -0.269 OA
ATOM     23  N   UNL     1       4.375   6.561  -1.085  1.00  0.00    -0.339 N 
ATOM     24  C   UNL     1       5.759   6.973  -0.890  1.00  0.00     0.120 C 
ATOM     25  C   UNL     1       3.827   6.710  -2.433  1.00  0.00     0.120 C 
ATOM     26  C   UNL     1       6.019   8.377  -1.413  1.00  0.00     0.022 C 
ATOM     27  C   UNL     1       4.072   8.119  -2.976  1.00  0.00     0.022 C 
ATOM     28  C   UNL     1       5.543   8.515  -2.857  1.00  0.00     0.004 C 
ENDBRANCH  20  21
ENDBRANCH  12  15
ENDBRANCH   5   8
ENDBRANCH   3   4
ENDBRANCH   2   3
ENDBRANCH   1   2
BRANCH   1  29
ATOM     29  C   UNL     1      -6.964  -2.936   0.177  1.00  0.00     0.002 C 
BRANCH  29  30
ATOM     30  C   UNL     1      -7.599  -1.742   0.898  1.00  0.00     0.021 C 
BRANCH  30  31
ATOM     31  C   UNL     1      -8.641  -1.006   0.066  1.00  0.00     0.116 C 
BRANCH  31  32
ATOM     32  N   UNL     1     -10.017  -1.304   0.444  1.00  0.00    -0.352 N 
ATOM     33  C   UNL     1     -11.196  -0.975  -0.203  1.00  0.00     0.251 C 
ATOM     34  H   UNL     1     -10.124  -1.812   1.280  1.00  0.00     0.163 HD
ATOM     35  O   UNL     1     -12.274  -1.269   0.285  1.00  0.00    -0.269 OA
BRANCH  33  36
ATOM     36  C   UNL     1     -11.132  -0.369  -1.556  1.00  0.00     0.039 A 
ATOM     37  C   UNL     1     -11.921  -0.930  -2.567  1.00  0.00     0.014 A 
ATOM     38  C   UNL     1     -10.185   0.604  -1.864  1.00  0.00     0.014 A 
ATOM     39  C   UNL     1     -11.598  -0.688  -3.901  1.00  0.00     0.010 A 
ATOM     40  C   UNL     1      -9.804   0.773  -3.181  1.00  0.00     0.010 A 
ATOM     41  C   UNL     1     -10.466   0.074  -4.194  1.00  0.00    -0.014 A 
BRANCH  41  42
ATOM     42  C   UNL     1      -9.841   0.106  -5.512  1.00  0.00     0.031 A 
ATOM     43  C   UNL     1      -9.991   1.283  -6.393  1.00  0.00     0.074 A 
ATOM     44  C   UNL     1      -9.051  -0.923  -5.890  1.00  0.00     0.049 A 
ATOM     45  N   UNL     1      -9.787   1.267  -7.667  1.00  0.00    -0.248 NA
ATOM     46  C   UNL     1     -10.420   2.583  -5.894  1.00  0.00     0.031 C 
ATOM     47  C   UNL     1      -8.142  -0.976  -7.033  1.00  0.00     0.029 A 
ATOM     48  N   UNL     1      -9.090  -2.245  -5.417  1.00  0.00    -0.354 N 
ATOM     49  C   UNL     1      -9.832   2.564  -8.122  1.00  0.00     0.074 A 
ATOM     50  C   UNL     1     -10.259   3.344  -6.982  1.00  0.00     0.031 C 
ATOM     51  C   UNL     1      -7.965  -2.261  -7.380  1.00  0.00     0.029 A 
ATOM     52  C   UNL     1      -8.863  -3.053  -6.559  1.00  0.00     0.049 A 
ATOM     53  H   UNL     1      -9.242  -2.546  -4.492  1.00  0.00     0.167 HD
ATOM     54  C   UNL     1      -9.409   2.845  -9.388  1.00  0.00     0.037 A 
ATOM     55  C   UNL     1      -9.837  -3.886  -7.028  1.00  0.00     0.037 A 
ATOM     56  C   UNL     1      -9.064   1.633 -10.124  1.00  0.00     0.049 A 
ATOM     57  C   UNL     1     -10.293  -3.596  -8.442  1.00  0.00     0.074 A 
ATOM     58  C   UNL     1      -7.881   0.960 -10.382  1.00  0.00     0.029 A 
ATOM     59  N   UNL     1     -10.082   0.767 -10.477  1.00  0.00    -0.354 N 
ATOM     60  N   UNL     1      -9.920  -2.559  -9.139  1.00  0.00    -0.248 NA
ATOM     61  C   UNL     1     -11.298  -4.403  -9.139  1.00  0.00     0.031 C 
ATOM     62  C   UNL     1      -8.206  -0.339 -10.866  1.00  0.00     0.029 A 
ATOM     63  C   UNL     1      -9.584  -0.448 -10.905  1.00  0.00     0.049 A 
ATOM     64  H   UNL     1     -11.040   0.988 -10.430  1.00  0.00     0.167 HD
ATOM     65  C   UNL     1     -10.631  -2.523 -10.306  1.00  0.00     0.074 A 
ATOM     66  C   UNL     1     -11.482  -3.695 -10.265  1.00  0.00     0.031 C 
ATOM     67  C   UNL     1     -10.511  -1.517 -11.215  1.00  0.00     0.037 A 
BRANCH  54  68
ATOM     68  C   UNL     1      -9.110   4.236  -9.892  1.00  0.00     0.064 A 
ATOM     69  C   UNL     1      -8.089   4.454 -10.841  1.00  0.00     0.173 A 
ATOM     70  C   UNL     1      -9.764   5.400  -9.448  1.00  0.00     0.173 A 
ATOM     71  F   UNL     1      -7.446   3.434 -11.425  1.00  0.00    -0.203 F 
ATOM     72  C   UNL     1      -7.680   5.735 -11.222  1.00  0.00     0.198 A 
ATOM     73  C   UNL     1      -9.314   6.682  -9.780  1.00  0.00     0.198 A 
ATOM     74  F   UNL     1     -10.889   5.331  -8.725  1.00  0.00    -0.203 F 
ATOM     75  F   UNL     1      -6.702   5.879 -12.127  1.00  0.00    -0.200 F 
ATOM     76  C   UNL     1      -8.264   6.850 -10.659  1.00  0.00     0.200 A 
ATOM     77  F   UNL     1      -9.909   7.755  -9.239  1.00  0.00    -0.200 F 
ATOM     78  F   UNL     1      -7.835   8.078 -10.980  1.00  0.00    -0.200 F 
ENDBRANCH  54  68
BRANCH  55  79
ATOM     79  C   UNL     1     -10.716  -4.415  -5.950  1.00  0.00     0.064 A 
ATOM     80  C   UNL     1     -10.128  -5.152  -4.902  1.00  0.00     0.173 A 
ATOM     81  C   UNL     1     -12.008  -3.918  -5.747  1.00  0.00     0.173 A 
ATOM     82  F   UNL     1      -8.890  -5.651  -5.045  1.00  0.00    -0.203 F 
ATOM     83  C   UNL     1     -10.753  -5.273  -3.664  1.00  0.00     0.198 A 
ATOM     84  C   UNL     1     -12.642  -4.065  -4.512  1.00  0.00     0.198 A 
ATOM     85  F   UNL     1     -12.616  -3.193  -6.696  1.00  0.00    -0.203 F 
ATOM     86  F   UNL     1     -10.114  -5.870  -2.648  1.00  0.00    -0.200 F 
ATOM     87  C   UNL     1     -12.000  -4.706  -3.463  1.00  0.00     0.200 A 
ATOM     88  F   UNL     1     -13.838  -3.495  -4.311  1.00  0.00    -0.200 F 
ATOM     89  F   UNL     1     -12.565  -4.741  -2.249  1.00  0.00    -0.200 F 
ENDBRANCH  55  79
BRANCH  67  90
ATOM     90  C   UNL     1     -11.280  -1.490 -12.494  1.00  0.00     0.064 A 
ATOM     91  C   UNL     1     -11.274  -2.576 -13.382  1.00  0.00     0.173 A 
ATOM     92  C   UNL     1     -11.947  -0.325 -12.919  1.00  0.00     0.173 A 
ATOM     93  F   UNL     1     -10.633  -3.712 -13.065  1.00  0.00    -0.203 F 
ATOM     94  C   UNL     1     -11.919  -2.508 -14.616  1.00  0.00     0.198 A 
ATOM     95  C   UNL     1     -12.552  -0.245 -14.170  1.00  0.00     0.198 A 
ATOM     96  F   UNL     1     -12.040   0.749 -12.121  1.00  0.00    -0.203 F 
ATOM     97  F   UNL     1     -11.928  -3.578 -15.422  1.00  0.00    -0.200 F 
ATOM     98  C   UNL     1     -12.546  -1.339 -15.015  1.00  0.00     0.200 A 
ATOM     99  F   UNL     1     -13.144   0.897 -14.551  1.00  0.00    -0.200 F 
ATOM    100  F   UNL     1     -13.146  -1.267 -16.211  1.00  0.00    -0.200 F 
ENDBRANCH  67  90
ENDBRANCH  41  42
ENDBRANCH  33  36
ENDBRANCH  31  32
ENDBRANCH  30  31
ENDBRANCH  29  30
ENDBRANCH   1  29
TORSDOF 15
