REMARK SMILES CC(C)(C(=O)NCCCCCCNC(=O)c1ccc(-c2c3nc(c(-c4c(F)c(F)c(F)c(F)c4F)c4ccc([nH]4)c(-c4c(F)c(F)c(F)c(F)c4F)c4nc(c(-c5c(F)c(F)c(F)c(F)c5F)c5ccc2[nH]5)C=C4)C=C3)cc1)n1nnnc1C(F)(F)C(F)F
REMARK SMILES IDX 9 1 8 2 7 3 6 4 4 5 5 6 2 8 1 9 3 10 79 11 80 12 83 13 81 14
REMARK SMILES IDX 82 15 84 16 85 17 86 18 87 19 88 20 89 21 10 22 11 23 12 24
REMARK SMILES IDX 13 25 14 26 15 28 16 29 17 30 78 31 18 32 77 33 19 34 20 35
REMARK SMILES IDX 21 36 71 37 22 38 76 39 70 40 72 41 23 42 75 43 69 44 68 45
REMARK SMILES IDX 24 47 56 48 36 49 55 50 37 51 40 52 54 53 73 54 38 55 39 56
REMARK SMILES IDX 53 58 74 59 41 60 25 61 26 62 34 63 27 64 28 65 32 66 35 67
REMARK SMILES IDX 29 68 30 69 33 70 31 71 57 72 58 73 66 74 59 75 60 76 64 77
REMARK SMILES IDX 67 78 61 79 62 80 65 81 63 82 42 83 43 84 51 85 44 86 45 87
REMARK SMILES IDX 49 88 52 89 46 90 47 91 50 92 48 93
REMARK H PARENT 6 7 13 27 72 46 40 57
REMARK Flexibility Score: inf
ROOT
ATOM      1  C   UNL     1      -3.007   2.587  -0.768  1.00  0.00     0.002 C 
ENDROOT
BRANCH   1   2
ATOM      2  C   UNL     1      -1.486   2.382  -0.732  1.00  0.00     0.021 C 
BRANCH   2   3
ATOM      3  C   UNL     1      -0.889   2.320   0.674  1.00  0.00     0.116 C 
BRANCH   3   4
ATOM      4  N   UNL     1      -1.389   1.176   1.406  1.00  0.00    -0.354 N 
ATOM      5  C   UNL     1      -0.797   0.044   1.860  1.00  0.00     0.247 C 
ATOM      6  O   UNL     1      -1.517  -0.702   2.535  1.00  0.00    -0.272 OA
ATOM      7  H   UNL     1      -2.350   1.231   1.616  1.00  0.00     0.163 HD
BRANCH   5   8
ATOM      8  C   UNL     1       0.692  -0.285   1.671  1.00  0.00     0.139 C 
ATOM      9  C   UNL     1       1.351  -0.028   0.303  1.00  0.00     0.047 C 
ATOM     10  C   UNL     1       1.385   0.638   2.722  1.00  0.00     0.047 C 
BRANCH   8  11
ATOM     11  N   UNL     1       0.892  -1.714   1.993  1.00  0.00    -0.209 N 
ATOM     12  N   UNL     1       1.913  -2.014   2.832  1.00  0.00    -0.044 NA
ATOM     13  C   UNL     1       0.321  -2.898   1.548  1.00  0.00     0.228 A 
ATOM     14  N   UNL     1       1.909  -3.321   2.972  1.00  0.00    -0.024 NA
ATOM     15  N   UNL     1       0.948  -3.878   2.195  1.00  0.00    -0.107 NA
BRANCH  13  16
ATOM     16  C   UNL     1      -0.717  -3.233   0.516  1.00  0.00     0.367 C 
ATOM     17  F   UNL     1      -0.105  -4.081  -0.391  1.00  0.00    -0.191 F 
ATOM     18  F   UNL     1      -1.689  -4.020   1.086  1.00  0.00    -0.191 F 
BRANCH  16  19
ATOM     19  C   UNL     1      -1.430  -2.207  -0.351  1.00  0.00     0.419 C 
ATOM     20  F   UNL     1      -2.351  -1.468   0.302  1.00  0.00    -0.203 F 
ATOM     21  F   UNL     1      -0.573  -1.334  -0.934  1.00  0.00    -0.203 F 
ENDBRANCH  16  19
ENDBRANCH  13  16
ENDBRANCH   8  11
ENDBRANCH   5   8
ENDBRANCH   3   4
ENDBRANCH   2   3
ENDBRANCH   1   2
BRANCH   1  22
ATOM     22  C   UNL     1      -3.528   3.783   0.036  1.00  0.00     0.002 C 
BRANCH  22  23
ATOM     23  C   UNL     1      -2.847   5.117  -0.270  1.00  0.00     0.021 C 
BRANCH  23  24
ATOM     24  C   UNL     1      -2.949   5.560  -1.724  1.00  0.00     0.116 C 
BRANCH  24  25
ATOM     25  N   UNL     1      -4.317   5.865  -2.107  1.00  0.00    -0.352 N 
ATOM     26  C   UNL     1      -4.825   7.017  -2.651  1.00  0.00     0.251 C 
ATOM     27  H   UNL     1      -4.971   5.144  -1.956  1.00  0.00     0.163 HD
ATOM     28  O   UNL     1      -6.041   7.181  -2.734  1.00  0.00    -0.269 OA
BRANCH  26  29
ATOM     29  C   UNL     1      -3.906   8.075  -3.121  1.00  0.00     0.039 A 
ATOM     30  C   UNL     1      -4.179   9.405  -2.793  1.00  0.00     0.014 A 
ATOM     31  C   UNL     1      -2.779   7.755  -3.882  1.00  0.00     0.014 A 
ATOM     32  C   UNL     1      -3.290  10.409  -3.182  1.00  0.00     0.010 A 
ATOM     33  C   UNL     1      -1.854   8.746  -4.199  1.00  0.00     0.010 A 
ATOM     34  C   UNL     1      -2.104  10.085  -3.859  1.00  0.00    -0.014 A 
BRANCH  34  35
ATOM     35  C   UNL     1      -1.118  11.129  -4.239  1.00  0.00     0.031 A 
ATOM     36  C   UNL     1      -0.816  11.382  -5.691  1.00  0.00     0.074 A 
ATOM     37  C   UNL     1      -0.448  11.800  -3.281  1.00  0.00     0.049 A 
ATOM     38  N   UNL     1       0.077  12.177  -6.226  1.00  0.00    -0.248 NA
ATOM     39  C   UNL     1      -1.603  10.621  -6.674  1.00  0.00     0.031 C 
ATOM     40  C   UNL     1      -0.625  11.620  -1.840  1.00  0.00     0.029 A 
ATOM     41  N   UNL     1       0.529  12.761  -3.377  1.00  0.00    -0.354 N 
ATOM     42  C   UNL     1      -0.031  11.997  -7.599  1.00  0.00     0.074 A 
ATOM     43  C   UNL     1      -1.037  10.981  -7.816  1.00  0.00     0.031 C 
ATOM     44  C   UNL     1       0.201  12.453  -1.187  1.00  0.00     0.029 A 
ATOM     45  C   UNL     1       0.998  13.194  -2.160  1.00  0.00     0.049 A 
ATOM     46  H   UNL     1       0.861  13.107  -4.237  1.00  0.00     0.167 HD
ATOM     47  C   UNL     1       0.632  12.639  -8.589  1.00  0.00     0.037 A 
ATOM     48  C   UNL     1       1.971  14.077  -1.865  1.00  0.00     0.037 A 
ATOM     49  C   UNL     1       1.612  13.671  -8.370  1.00  0.00     0.049 A 
ATOM     50  C   UNL     1       2.706  14.762  -2.988  1.00  0.00     0.074 A 
ATOM     51  C   UNL     1       2.298  14.421  -9.308  1.00  0.00     0.029 A 
ATOM     52  N   UNL     1       2.045  14.096  -7.122  1.00  0.00    -0.354 N 
ATOM     53  N   UNL     1       2.548  14.631  -4.283  1.00  0.00    -0.248 NA
ATOM     54  C   UNL     1       3.750  15.724  -2.608  1.00  0.00     0.031 C 
ATOM     55  C   UNL     1       3.187  15.260  -8.632  1.00  0.00     0.029 A 
ATOM     56  C   UNL     1       3.008  15.081  -7.269  1.00  0.00     0.049 A 
ATOM     57  H   UNL     1       1.718  13.749  -6.261  1.00  0.00     0.167 HD
ATOM     58  C   UNL     1       3.441  15.520  -4.868  1.00  0.00     0.074 A 
ATOM     59  C   UNL     1       4.130  16.192  -3.788  1.00  0.00     0.031 C 
ATOM     60  C   UNL     1       3.668  15.759  -6.183  1.00  0.00     0.037 A 
BRANCH  47  61
ATOM     61  C   UNL     1       0.324  12.251 -10.007  1.00  0.00     0.064 A 
ATOM     62  C   UNL     1      -0.908  12.558 -10.604  1.00  0.00     0.173 A 
ATOM     63  C   UNL     1       1.295  11.616 -10.797  1.00  0.00     0.173 A 
ATOM     64  F   UNL     1      -1.875  13.154  -9.890  1.00  0.00    -0.203 F 
ATOM     65  C   UNL     1      -1.164  12.224 -11.932  1.00  0.00     0.198 A 
ATOM     66  C   UNL     1       1.047  11.313 -12.133  1.00  0.00     0.198 A 
ATOM     67  F   UNL     1       2.492  11.304 -10.277  1.00  0.00    -0.203 F 
ATOM     68  F   UNL     1      -2.364  12.488 -12.467  1.00  0.00    -0.200 F 
ATOM     69  C   UNL     1      -0.183  11.612 -12.697  1.00  0.00     0.200 A 
ATOM     70  F   UNL     1       2.002  10.736 -12.876  1.00  0.00    -0.200 F 
ATOM     71  F   UNL     1      -0.426  11.305 -13.979  1.00  0.00    -0.200 F 
ENDBRANCH  47  61
BRANCH  48  72
ATOM     72  C   UNL     1       2.309  14.376  -0.447  1.00  0.00     0.064 A 
ATOM     73  C   UNL     1       2.071  15.645   0.100  1.00  0.00     0.173 A 
ATOM     74  C   UNL     1       2.908  13.414   0.380  1.00  0.00     0.173 A 
ATOM     75  F   UNL     1       1.518  16.606  -0.655  1.00  0.00    -0.203 F 
ATOM     76  C   UNL     1       2.450  15.951   1.406  1.00  0.00     0.198 A 
ATOM     77  C   UNL     1       3.255  13.711   1.697  1.00  0.00     0.198 A 
ATOM     78  F   UNL     1       3.153  12.182  -0.089  1.00  0.00    -0.203 F 
ATOM     79  F   UNL     1       2.268  17.191   1.880  1.00  0.00    -0.200 F 
ATOM     80  C   UNL     1       3.038  14.983   2.204  1.00  0.00     0.200 A 
ATOM     81  F   UNL     1       3.808  12.766   2.470  1.00  0.00    -0.200 F 
ATOM     82  F   UNL     1       3.406  15.278   3.458  1.00  0.00    -0.200 F 
ENDBRANCH  48  72
BRANCH  60  83
ATOM     83  C   UNL     1       4.659  16.832  -6.533  1.00  0.00     0.064 A 
ATOM     84  C   UNL     1       6.036  16.666  -6.329  1.00  0.00     0.173 A 
ATOM     85  C   UNL     1       4.223  18.026  -7.131  1.00  0.00     0.173 A 
ATOM     86  F   UNL     1       6.503  15.550  -5.749  1.00  0.00    -0.203 F 
ATOM     87  C   UNL     1       6.938  17.665  -6.686  1.00  0.00     0.198 A 
ATOM     88  C   UNL     1       5.130  19.007  -7.519  1.00  0.00     0.198 A 
ATOM     89  F   UNL     1       2.916  18.231  -7.356  1.00  0.00    -0.203 F 
ATOM     90  F   UNL     1       8.245  17.506  -6.437  1.00  0.00    -0.200 F 
ATOM     91  C   UNL     1       6.485  18.830  -7.289  1.00  0.00     0.200 A 
ATOM     92  F   UNL     1       4.691  20.123  -8.117  1.00  0.00    -0.200 F 
ATOM     93  F   UNL     1       7.356  19.784  -7.644  1.00  0.00    -0.200 F 
ENDBRANCH  60  83
ENDBRANCH  34  35
ENDBRANCH  26  29
ENDBRANCH  24  25
ENDBRANCH  23  24
ENDBRANCH  22  23
ENDBRANCH   1  22
TORSDOF 16
