REMARK SMILES CC(C)[N@@H+]1CC[C@@H]([N@@H+]2CC[C@@H](C(=O)NCCCCCCNC(=O)c3ccc(-c4c5nc(c(-c6c(F)c(F)c(F)c(F)c6F)c6ccc([nH]6)c(-c6c(F)c(F)c(F)c(F)c6F)c6nc(c(-c7c(F)c(F)c(F)c(F)c7F)c7ccc4[nH]7)C=C6)C=C5)cc3)[C@H]2C)C1
REMARK SMILES IDX 17 1 16 2 15 3 14 4 12 5 13 6 11 8 8 9 9 10 87 11 10 13
REMARK SMILES IDX 88 14 7 15 4 16 5 17 89 18 6 20 2 21 1 22 3 23 18 24 19 25
REMARK SMILES IDX 20 26 21 27 22 28 23 30 24 31 25 32 86 33 26 34 85 35 27 36
REMARK SMILES IDX 28 37 29 38 79 39 30 40 84 41 78 42 80 43 31 44 83 45 77 46
REMARK SMILES IDX 76 47 32 49 64 50 44 51 63 52 45 53 48 54 62 55 81 56 46 57
REMARK SMILES IDX 47 58 61 60 82 61 49 62 33 63 34 64 42 65 35 66 36 67 40 68
REMARK SMILES IDX 43 69 37 70 38 71 41 72 39 73 65 74 66 75 74 76 67 77 68 78
REMARK SMILES IDX 72 79 75 80 69 81 70 82 73 83 71 84 50 85 51 86 59 87 52 88
REMARK SMILES IDX 53 89 57 90 60 91 54 92 55 93 58 94 56 95
REMARK H PARENT 14 7 8 12 4 19 21 29 80 48 48 59
REMARK Flexibility Score: inf
ROOT
ATOM      1  C   UNL     1      -7.686   5.861   1.638  1.00  0.00     0.002 C 
ENDROOT
BRANCH   1   2
ATOM      2  C   UNL     1      -6.207   5.454   1.641  1.00  0.00     0.021 C 
BRANCH   2   3
ATOM      3  C   UNL     1      -5.740   4.833   2.958  1.00  0.00     0.116 C 
BRANCH   3   4
ATOM      4  N   UNL     1      -6.509   3.644   3.268  1.00  0.00    -0.356 N 
ATOM      5  C   UNL     1      -6.185   2.329   3.159  1.00  0.00     0.229 C 
ATOM      6  O   UNL     1      -7.096   1.506   3.243  1.00  0.00    -0.275 OA
ATOM      7  H   UNL     1      -7.415   3.818   3.613  1.00  0.00     0.163 HD
BRANCH   5   8
ATOM      8  C   UNL     1      -4.744   1.933   2.915  1.00  0.00     0.142 C 
ATOM      9  N   UNL     1      -3.502  -0.108   3.302  1.00  0.00    -0.325 N 
ATOM     10  C   UNL     1      -4.254  -0.248   2.050  1.00  0.00     0.263 C 
ATOM     11  C   UNL     1      -4.096   1.054   4.004  1.00  0.00     0.194 C 
ATOM     12  H   UNL     1      -3.600  -0.973   3.833  1.00  0.00     0.348 HD
ATOM     13  C   UNL     1      -4.633   1.150   1.614  1.00  0.00     0.081 C 
ATOM     14  C   UNL     1      -5.004   0.577   5.137  1.00  0.00     0.076 C 
BRANCH   9  15
ATOM     15  C   UNL     1      -2.030  -0.036   3.195  1.00  0.00     0.245 C 
ATOM     16  N   UNL     1      -0.627  -0.640   1.277  1.00  0.00    -0.328 N 
ATOM     17  C   UNL     1      -1.045   0.754   1.150  1.00  0.00     0.269 C 
ATOM     18  C   UNL     1      -1.352  -1.208   2.435  1.00  0.00     0.328 C 
ATOM     19  H   UNL     1      -0.883  -1.138   0.424  1.00  0.00     0.348 HD
ATOM     20  C   UNL     1      -1.417   1.202   2.544  1.00  0.00     0.132 C 
BRANCH  16  21
ATOM     21  C   UNL     1       0.824  -0.877   1.288  1.00  0.00     0.177 C 
ATOM     22  C   UNL     1       1.429  -0.509  -0.076  1.00  0.00     0.075 C 
ATOM     23  C   UNL     1       1.601  -0.172   2.405  1.00  0.00     0.075 C 
ENDBRANCH  16  21
ENDBRANCH   9  15
ENDBRANCH   5   8
ENDBRANCH   3   4
ENDBRANCH   2   3
ENDBRANCH   1   2
BRANCH   1  24
ATOM     24  C   UNL     1      -8.114   6.736   2.821  1.00  0.00     0.002 C 
BRANCH  24  25
ATOM     25  C   UNL     1      -7.299   8.018   2.994  1.00  0.00     0.021 C 
BRANCH  25  26
ATOM     26  C   UNL     1      -7.330   8.943   1.785  1.00  0.00     0.116 C 
BRANCH  26  27
ATOM     27  N   UNL     1      -8.672   9.431   1.509  1.00  0.00    -0.352 N 
ATOM     28  C   UNL     1      -9.109  10.722   1.373  1.00  0.00     0.251 C 
ATOM     29  H   UNL     1      -9.362   8.736   1.406  1.00  0.00     0.163 HD
ATOM     30  O   UNL     1     -10.311  10.974   1.350  1.00  0.00    -0.269 OA
BRANCH  28  31
ATOM     31  C   UNL     1      -8.123  11.817   1.274  1.00  0.00     0.039 A 
ATOM     32  C   UNL     1      -8.324  12.978   2.022  1.00  0.00     0.014 A 
ATOM     33  C   UNL     1      -7.000  11.691   0.451  1.00  0.00     0.014 A 
ATOM     34  C   UNL     1      -7.366  13.993   1.988  1.00  0.00     0.010 A 
ATOM     35  C   UNL     1      -6.009  12.665   0.482  1.00  0.00     0.010 A 
ATOM     36  C   UNL     1      -6.185  13.830   1.244  1.00  0.00    -0.014 A 
BRANCH  36  37
ATOM     37  C   UNL     1      -5.126  14.869   1.247  1.00  0.00     0.031 A 
ATOM     38  C   UNL     1      -4.763  15.579  -0.028  1.00  0.00     0.074 A 
ATOM     39  C   UNL     1      -4.450  15.130   2.383  1.00  0.00     0.049 A 
ATOM     40  N   UNL     1      -3.824  16.465  -0.244  1.00  0.00    -0.248 NA
ATOM     41  C   UNL     1      -5.542  15.226  -1.225  1.00  0.00     0.031 C 
ATOM     42  C   UNL     1      -4.681  14.477   3.672  1.00  0.00     0.029 A 
ATOM     43  N   UNL     1      -3.425  16.007   2.634  1.00  0.00    -0.354 N 
ATOM     44  C   UNL     1      -3.894  16.765  -1.598  1.00  0.00     0.074 A 
ATOM     45  C   UNL     1      -4.923  15.923  -2.166  1.00  0.00     0.031 C 
ATOM     46  C   UNL     1      -3.841  14.993   4.583  1.00  0.00     0.029 A 
ATOM     47  C   UNL     1      -2.983  15.979   3.934  1.00  0.00     0.049 A 
ATOM     48  H   UNL     1      -3.043  16.600   1.948  1.00  0.00     0.167 HD
ATOM     49  C   UNL     1      -3.181  17.679  -2.299  1.00  0.00     0.037 A 
ATOM     50  C   UNL     1      -1.990  16.664   4.532  1.00  0.00     0.037 A 
ATOM     51  C   UNL     1      -2.169  18.526  -1.724  1.00  0.00     0.049 A 
ATOM     52  C   UNL     1      -1.195  17.655   3.724  1.00  0.00     0.074 A 
ATOM     53  C   UNL     1      -1.425  19.520  -2.337  1.00  0.00     0.029 A 
ATOM     54  N   UNL     1      -1.753  18.474  -0.401  1.00  0.00    -0.354 N 
ATOM     55  N   UNL     1      -1.315  17.980   2.460  1.00  0.00    -0.248 NA
ATOM     56  C   UNL     1      -0.129  18.380   4.430  1.00  0.00     0.031 C 
ATOM     57  C   UNL     1      -0.519  20.027  -1.401  1.00  0.00     0.029 A 
ATOM     58  C   UNL     1      -0.743  19.399  -0.186  1.00  0.00     0.049 A 
ATOM     59  H   UNL     1      -2.120  17.870   0.283  1.00  0.00     0.167 HD
ATOM     60  C   UNL     1      -0.367  18.968   2.227  1.00  0.00     0.074 A 
ATOM     61  C   UNL     1       0.311  19.200   3.486  1.00  0.00     0.031 C 
ATOM     62  C   UNL     1      -0.084  19.625   1.075  1.00  0.00     0.037 A 
BRANCH  49  63
ATOM     63  C   UNL     1      -3.470  17.810  -3.768  1.00  0.00     0.064 A 
ATOM     64  C   UNL     1      -4.688  18.328  -4.237  1.00  0.00     0.173 A 
ATOM     65  C   UNL     1      -2.504  17.448  -4.718  1.00  0.00     0.173 A 
ATOM     66  F   UNL     1      -5.651  18.680  -3.372  1.00  0.00    -0.203 F 
ATOM     67  C   UNL     1      -4.939  18.446  -5.602  1.00  0.00     0.198 A 
ATOM     68  C   UNL     1      -2.745  17.601  -6.081  1.00  0.00     0.198 A 
ATOM     69  F   UNL     1      -1.320  16.953  -4.326  1.00  0.00    -0.203 F 
ATOM     70  F   UNL     1      -6.130  18.890  -6.026  1.00  0.00    -0.200 F 
ATOM     71  C   UNL     1      -3.965  18.090  -6.522  1.00  0.00     0.200 A 
ATOM     72  F   UNL     1      -1.796  17.271  -6.969  1.00  0.00    -0.200 F 
ATOM     73  F   UNL     1      -4.205  18.213  -7.835  1.00  0.00    -0.200 F 
ENDBRANCH  49  63
BRANCH  50  74
ATOM     74  C   UNL     1      -1.700  16.450   5.975  1.00  0.00     0.064 A 
ATOM     75  C   UNL     1      -1.937  17.463   6.916  1.00  0.00     0.173 A 
ATOM     76  C   UNL     1      -1.171  15.238   6.443  1.00  0.00     0.173 A 
ATOM     77  F   UNL     1      -2.424  18.647   6.516  1.00  0.00    -0.203 F 
ATOM     78  C   UNL     1      -1.631  17.281   8.263  1.00  0.00     0.198 A 
ATOM     79  C   UNL     1      -0.896  15.046   7.795  1.00  0.00     0.198 A 
ATOM     80  F   UNL     1      -0.931  14.234   5.586  1.00  0.00    -0.203 F 
ATOM     81  F   UNL     1      -1.816  18.285   9.131  1.00  0.00    -0.200 F 
ATOM     82  C   UNL     1      -1.116  16.071   8.702  1.00  0.00     0.200 A 
ATOM     83  F   UNL     1      -0.415  13.868   8.217  1.00  0.00    -0.200 F 
ATOM     84  F   UNL     1      -0.824  15.895   9.998  1.00  0.00    -0.200 F 
ENDBRANCH  50  74
BRANCH  62  85
ATOM     85  C   UNL     1       0.974  20.690   1.129  1.00  0.00     0.064 A 
ATOM     86  C   UNL     1       2.331  20.379   1.299  1.00  0.00     0.173 A 
ATOM     87  C   UNL     1       0.627  22.041   0.966  1.00  0.00     0.173 A 
ATOM     88  F   UNL     1       2.715  19.105   1.473  1.00  0.00    -0.203 F 
ATOM     89  C   UNL     1       3.297  21.381   1.332  1.00  0.00     0.198 A 
ATOM     90  C   UNL     1       1.599  23.037   0.964  1.00  0.00     0.198 A 
ATOM     91  F   UNL     1      -0.656  22.393   0.793  1.00  0.00    -0.203 F 
ATOM     92  F   UNL     1       4.581  21.064   1.548  1.00  0.00    -0.200 F 
ATOM     93  C   UNL     1       2.932  22.708   1.155  1.00  0.00     0.200 A 
ATOM     94  F   UNL     1       1.245  24.316   0.775  1.00  0.00    -0.200 F 
ATOM     95  F   UNL     1       3.864  23.670   1.177  1.00  0.00    -0.200 F 
ENDBRANCH  62  85
ENDBRANCH  36  37
ENDBRANCH  28  31
ENDBRANCH  26  27
ENDBRANCH  25  26
ENDBRANCH  24  25
ENDBRANCH   1  24
TORSDOF 15
