REMARK SMILES O=C(NCCCCCCNC(=O)C1CC[NH+]([C@H]2CC(=O)N(c3ccc4c(c3)OCCO4)C2=O)CC1)c1ccc(-c2c3nc(c(-c4c(F)c(F)c(F)c(F)c4F)c4ccc([nH]4)c(-c4c(F)c(F)c(F)c(F)c4F)c4nc(c(-c5c(F)c(F)c(F)c(F)c5F)c5ccc2[nH]5)C=C4)C=C3)cc1
REMARK SMILES IDX 6 1 5 2 4 3 3 4 1 5 2 6 36 8 37 9 98 10 38 11 97 12 39 13
REMARK SMILES IDX 40 14 41 15 91 16 42 17 96 18 90 19 92 20 43 21 95 22 89 23
REMARK SMILES IDX 88 24 44 26 76 27 56 28 75 29 57 30 60 31 74 32 93 33 58 34
REMARK SMILES IDX 59 35 73 37 94 38 61 39 45 40 46 41 54 42 47 43 48 44 52 45
REMARK SMILES IDX 55 46 49 47 50 48 53 49 51 50 77 51 78 52 86 53 79 54 80 55
REMARK SMILES IDX 84 56 87 57 81 58 82 59 85 60 83 61 62 62 63 63 71 64 64 65
REMARK SMILES IDX 65 66 69 67 72 68 66 69 67 70 70 71 68 72 7 73 8 74 9 75
REMARK SMILES IDX 10 76 11 77 12 79 13 80 14 81 35 82 15 83 34 84 16 85 17 87
REMARK SMILES IDX 18 88 32 89 19 90 21 91 33 92 20 93 22 94 23 95 27 96 24 97
REMARK SMILES IDX 26 98 25 99 28 100 31 101 29 102 30 103
REMARK H PARENT 3 7 92 25 60 36 10 78 16 86
REMARK Flexibility Score: inf
ROOT
ATOM      1  C   UNL     1      12.675   3.044  -9.245  1.00  0.00     0.002 C 
ENDROOT
BRANCH   1   2
ATOM      2  C   UNL     1      13.683   2.565  -8.199  1.00  0.00     0.021 C 
BRANCH   2   3
ATOM      3  C   UNL     1      14.059   1.097  -8.343  1.00  0.00     0.116 C 
BRANCH   3   4
ATOM      4  N   UNL     1      14.671   0.833  -9.637  1.00  0.00    -0.352 N 
ATOM      5  O   UNL     1      16.398   0.525 -11.060  1.00  0.00    -0.269 OA
ATOM      6  C   UNL     1      15.951   0.434  -9.919  1.00  0.00     0.251 C 
ATOM      7  H   UNL     1      14.085   0.958 -10.418  1.00  0.00     0.163 HD
BRANCH   6   8
ATOM      8  C   UNL     1      16.787  -0.116  -8.837  1.00  0.00     0.039 A 
ATOM      9  C   UNL     1      16.236  -1.023  -7.928  1.00  0.00     0.014 A 
ATOM     10  C   UNL     1      18.131   0.254  -8.743  1.00  0.00     0.014 A 
ATOM     11  C   UNL     1      16.991  -1.463  -6.852  1.00  0.00     0.010 A 
ATOM     12  C   UNL     1      18.917  -0.268  -7.715  1.00  0.00     0.010 A 
ATOM     13  C   UNL     1      18.348  -1.119  -6.755  1.00  0.00    -0.014 A 
BRANCH  13  14
ATOM     14  C   UNL     1      19.169  -1.752  -5.696  1.00  0.00     0.031 A 
ATOM     15  C   UNL     1      19.799  -0.937  -4.606  1.00  0.00     0.074 A 
ATOM     16  C   UNL     1      19.319  -3.091  -5.728  1.00  0.00     0.049 A 
ATOM     17  N   UNL     1      20.547  -1.338  -3.609  1.00  0.00    -0.248 NA
ATOM     18  C   UNL     1      19.570   0.515  -4.639  1.00  0.00     0.031 C 
ATOM     19  C   UNL     1      18.756  -3.976  -6.752  1.00  0.00     0.029 A 
ATOM     20  N   UNL     1      19.971  -3.945  -4.877  1.00  0.00    -0.354 N 
ATOM     21  C   UNL     1      20.891  -0.191  -2.907  1.00  0.00     0.074 A 
ATOM     22  C   UNL     1      20.292   0.927  -3.604  1.00  0.00     0.031 C 
ATOM     23  C   UNL     1      19.050  -5.247  -6.447  1.00  0.00     0.029 A 
ATOM     24  C   UNL     1      19.882  -5.263  -5.252  1.00  0.00     0.049 A 
ATOM     25  H   UNL     1      20.455  -3.643  -4.075  1.00  0.00     0.167 HD
ATOM     26  C   UNL     1      21.636  -0.091  -1.780  1.00  0.00     0.037 A 
ATOM     27  C   UNL     1      20.434  -6.362  -4.709  1.00  0.00     0.037 A 
ATOM     28  C   UNL     1      22.215  -1.216  -1.090  1.00  0.00     0.049 A 
ATOM     29  C   UNL     1      21.282  -6.209  -3.479  1.00  0.00     0.074 A 
ATOM     30  C   UNL     1      22.953  -1.223   0.081  1.00  0.00     0.029 A 
ATOM     31  N   UNL     1      22.126  -2.536  -1.513  1.00  0.00    -0.354 N 
ATOM     32  N   UNL     1      21.566  -5.125  -2.801  1.00  0.00    -0.248 NA
ATOM     33  C   UNL     1      21.888  -7.433  -2.941  1.00  0.00     0.031 C 
ATOM     34  C   UNL     1      23.360  -2.537   0.335  1.00  0.00     0.029 A 
ATOM     35  C   UNL     1      22.822  -3.360  -0.641  1.00  0.00     0.049 A 
ATOM     36  H   UNL     1      21.641  -2.841  -2.313  1.00  0.00     0.167 HD
ATOM     37  C   UNL     1      22.364  -5.536  -1.744  1.00  0.00     0.074 A 
ATOM     38  C   UNL     1      22.498  -6.974  -1.858  1.00  0.00     0.031 C 
ATOM     39  C   UNL     1      22.938  -4.790  -0.768  1.00  0.00     0.037 A 
BRANCH  26  40
ATOM     40  C   UNL     1      21.890   1.280  -1.221  1.00  0.00     0.064 A 
ATOM     41  C   UNL     1      20.878   2.023  -0.596  1.00  0.00     0.173 A 
ATOM     42  C   UNL     1      23.184   1.825  -1.244  1.00  0.00     0.173 A 
ATOM     43  F   UNL     1      19.622   1.554  -0.555  1.00  0.00    -0.203 F 
ATOM     44  C   UNL     1      21.149   3.267  -0.028  1.00  0.00     0.198 A 
ATOM     45  C   UNL     1      23.456   3.055  -0.651  1.00  0.00     0.198 A 
ATOM     46  F   UNL     1      24.190   1.153  -1.824  1.00  0.00    -0.203 F 
ATOM     47  F   UNL     1      20.160   3.974   0.536  1.00  0.00    -0.200 F 
ATOM     48  C   UNL     1      22.439   3.776  -0.046  1.00  0.00     0.200 A 
ATOM     49  F   UNL     1      24.707   3.538  -0.656  1.00  0.00    -0.200 F 
ATOM     50  F   UNL     1      22.700   4.964   0.517  1.00  0.00    -0.200 F 
ENDBRANCH  26  40
BRANCH  27  51
ATOM     51  C   UNL     1      20.219  -7.691  -5.338  1.00  0.00     0.064 A 
ATOM     52  C   UNL     1      19.499  -8.696  -4.679  1.00  0.00     0.173 A 
ATOM     53  C   UNL     1      20.738  -7.986  -6.608  1.00  0.00     0.173 A 
ATOM     54  F   UNL     1      18.996  -8.469  -3.457  1.00  0.00    -0.203 F 
ATOM     55  C   UNL     1      19.330  -9.954  -5.253  1.00  0.00     0.198 A 
ATOM     56  C   UNL     1      20.537  -9.232  -7.197  1.00  0.00     0.198 A 
ATOM     57  F   UNL     1      21.427  -7.057  -7.286  1.00  0.00    -0.203 F 
ATOM     58  F   UNL     1      18.686 -10.915  -4.578  1.00  0.00    -0.200 F 
ATOM     59  C   UNL     1      19.845 -10.219  -6.514  1.00  0.00     0.200 A 
ATOM     60  F   UNL     1      21.018  -9.476  -8.424  1.00  0.00    -0.200 F 
ATOM     61  F   UNL     1      19.680 -11.429  -7.066  1.00  0.00    -0.200 F 
ENDBRANCH  27  51
BRANCH  39  62
ATOM     62  C   UNL     1      23.729  -5.526   0.274  1.00  0.00     0.064 A 
ATOM     63  C   UNL     1      24.966  -6.119  -0.021  1.00  0.00     0.173 A 
ATOM     64  C   UNL     1      23.253  -5.617   1.591  1.00  0.00     0.173 A 
ATOM     65  F   UNL     1      25.455  -6.075  -1.270  1.00  0.00    -0.203 F 
ATOM     66  C   UNL     1      25.681  -6.804   0.957  1.00  0.00     0.198 A 
ATOM     67  C   UNL     1      23.988  -6.273   2.574  1.00  0.00     0.198 A 
ATOM     68  F   UNL     1      22.079  -5.062   1.926  1.00  0.00    -0.203 F 
ATOM     69  F   UNL     1      26.831  -7.414   0.638  1.00  0.00    -0.200 F 
ATOM     70  C   UNL     1      25.196  -6.874   2.254  1.00  0.00     0.200 A 
ATOM     71  F   UNL     1      23.524  -6.326   3.830  1.00  0.00    -0.200 F 
ATOM     72  F   UNL     1      25.888  -7.530   3.195  1.00  0.00    -0.200 F 
ENDBRANCH  39  62
ENDBRANCH  13  14
ENDBRANCH   6   8
ENDBRANCH   3   4
ENDBRANCH   2   3
ENDBRANCH   1   2
BRANCH   1  73
ATOM     73  C   UNL     1      11.337   2.292  -9.236  1.00  0.00     0.002 C 
BRANCH  73  74
ATOM     74  C   UNL     1      10.624   2.297  -7.882  1.00  0.00     0.021 C 
BRANCH  74  75
ATOM     75  C   UNL     1      10.254   3.704  -7.423  1.00  0.00     0.116 C 
BRANCH  75  76
ATOM     76  N   UNL     1       8.926   4.061  -7.846  1.00  0.00    -0.356 N 
ATOM     77  C   UNL     1       7.771   4.133  -7.141  1.00  0.00     0.223 C 
ATOM     78  H   UNL     1       8.842   4.291  -8.800  1.00  0.00     0.163 HD
ATOM     79  O   UNL     1       6.752   4.434  -7.769  1.00  0.00    -0.275 OA
BRANCH  77  80
ATOM     80  C   UNL     1       7.703   3.919  -5.627  1.00  0.00     0.089 C 
ATOM     81  C   UNL     1       8.210   5.134  -4.842  1.00  0.00     0.075 C 
ATOM     82  C   UNL     1       8.153   2.543  -5.120  1.00  0.00     0.075 C 
ATOM     83  C   UNL     1       9.514   4.935  -4.077  1.00  0.00     0.263 C 
ATOM     84  C   UNL     1       9.415   2.506  -4.255  1.00  0.00     0.263 C 
ATOM     85  N   UNL     1       9.635   3.656  -3.385  1.00  0.00    -0.324 N 
ATOM     86  H   UNL     1      10.621   3.543  -3.149  1.00  0.00     0.348 HD
BRANCH  85  87
ATOM     87  C   UNL     1       9.059   3.632  -2.026  1.00  0.00     0.284 C 
ATOM     88  C   UNL     1       7.560   3.448  -1.905  1.00  0.00     0.176 C 
ATOM     89  C   UNL     1       9.605   2.449  -1.225  1.00  0.00     0.292 C 
ATOM     90  C   UNL     1       7.406   1.987  -1.627  1.00  0.00     0.240 C 
ATOM     91  N   UNL     1       8.602   1.504  -1.149  1.00  0.00    -0.245 N 
ATOM     92  O   UNL     1      10.762   2.360  -0.835  1.00  0.00    -0.267 OA
ATOM     93  O   UNL     1       6.335   1.407  -1.747  1.00  0.00    -0.274 OA
BRANCH  91  94
ATOM     94  C   UNL     1       8.789   0.179  -0.689  1.00  0.00     0.056 A 
ATOM     95  C   UNL     1       9.634  -0.096   0.395  1.00  0.00     0.031 A 
ATOM     96  C   UNL     1       8.129  -0.887  -1.316  1.00  0.00     0.077 A 
ATOM     97  C   UNL     1       9.776  -1.402   0.874  1.00  0.00     0.052 A 
ATOM     98  C   UNL     1       8.306  -2.195  -0.866  1.00  0.00     0.163 A 
ATOM     99  C   UNL     1       9.124  -2.452   0.234  1.00  0.00     0.161 A 
ATOM    100  O   UNL     1       7.660  -3.176  -1.573  1.00  0.00    -0.486 OA
ATOM    101  O   UNL     1       9.325  -3.708   0.744  1.00  0.00    -0.486 OA
ATOM    102  C   UNL     1       7.606  -4.402  -0.838  1.00  0.00     0.271 C 
ATOM    103  C   UNL     1       8.947  -4.719  -0.196  1.00  0.00     0.271 C 
ENDBRANCH  91  94
ENDBRANCH  85  87
ENDBRANCH  77  80
ENDBRANCH  75  76
ENDBRANCH  74  75
ENDBRANCH  73  74
ENDBRANCH   1  73
TORSDOF 15
