REMARK SMILES O=C(CCc1ccc(S(=O)(=O)Nc2cccc(I)c2)cc1)NCCCCCCNC(=O)c1ccc(-c2c3nc(c(-c4c(F)c(F)c(F)c(F)c4F)c4ccc([nH]4)c(-c4c(F)c(F)c(F)c(F)c4F)c4nc(c(-c5c(F)c(F)c(F)c(F)c5F)c5ccc2[nH]5)C=C4)C=C3)cc1
REMARK SMILES IDX 24 1 23 2 22 3 1 4 2 5 3 7 4 8 5 9 6 10 21 11 7 12 20 13
REMARK SMILES IDX 8 14 9 15 10 16 11 17 12 18 13 20 14 21 19 22 15 23 17 24
REMARK SMILES IDX 16 25 18 26 25 27 26 28 27 29 28 30 29 31 30 32 31 34 32 35
REMARK SMILES IDX 33 36 94 37 34 38 93 39 35 40 36 41 37 42 87 43 38 44 92 45
REMARK SMILES IDX 86 46 88 47 39 48 91 49 85 50 84 51 40 53 72 54 52 55 71 56
REMARK SMILES IDX 53 57 56 58 70 59 89 60 54 61 55 62 69 64 90 65 57 66 41 67
REMARK SMILES IDX 42 68 50 69 43 70 44 71 48 72 51 73 45 74 46 75 49 76 47 77
REMARK SMILES IDX 73 78 74 79 82 80 75 81 76 82 80 83 83 84 77 85 78 86 81 87
REMARK SMILES IDX 79 88 58 89 59 90 67 91 60 92 61 93 65 94 68 95 62 96 63 97
REMARK SMILES IDX 66 98 64 99
REMARK H PARENT 22 6 12 19 29 33 88 52 56 63
REMARK Flexibility Score: inf
ROOT
ATOM      1  C   UNL     1       2.362   2.349   2.656  1.00  0.00     0.021 C 
ENDROOT
BRANCH   1   2
ATOM      2  C   UNL     1       2.072   1.760   1.276  1.00  0.00     0.116 C 
BRANCH   2   3
ATOM      3  N   UNL     1       2.761   0.515   1.008  1.00  0.00    -0.356 N 
ATOM      4  O   UNL     1       1.170  -0.275  -0.454  1.00  0.00    -0.275 OA
ATOM      5  C   UNL     1       2.249  -0.405   0.116  1.00  0.00     0.220 C 
ATOM      6  H   UNL     1       3.608   0.322   1.470  1.00  0.00     0.163 HD
BRANCH   5   7
ATOM      7  C   UNL     1       3.144  -1.601  -0.139  1.00  0.00     0.105 C 
BRANCH   7   8
ATOM      8  C   UNL     1       3.886  -1.469  -1.474  1.00  0.00     0.045 C 
BRANCH   8   9
ATOM      9  C   UNL     1       4.866  -0.316  -1.506  1.00  0.00    -0.047 A 
ATOM     10  C   UNL     1       5.872  -0.215  -0.538  1.00  0.00     0.005 A 
ATOM     11  C   UNL     1       4.762   0.682  -2.487  1.00  0.00     0.005 A 
ATOM     12  C   UNL     1       6.660   0.930  -0.468  1.00  0.00     0.022 A 
ATOM     13  C   UNL     1       5.596   1.806  -2.457  1.00  0.00     0.022 A 
ATOM     14  C   UNL     1       6.488   1.962  -1.400  1.00  0.00     0.087 A 
BRANCH  14  15
ATOM     15  S   UNL     1       7.368   3.462  -1.070  1.00  0.00     0.261 S 
ATOM     16  O   UNL     1       7.037   3.859   0.293  1.00  0.00    -0.201 OA
ATOM     17  O   UNL     1       8.735   3.217  -1.437  1.00  0.00    -0.201 OA
BRANCH  15  18
ATOM     18  N   UNL     1       6.853   4.697  -2.068  1.00  0.00    -0.280 N 
ATOM     19  H   UNL     1       7.563   5.125  -2.598  1.00  0.00     0.180 HD
BRANCH  18  20
ATOM     20  C   UNL     1       5.543   5.230  -2.274  1.00  0.00     0.050 A 
ATOM     21  C   UNL     1       5.502   6.313  -3.165  1.00  0.00     0.027 A 
ATOM     22  C   UNL     1       4.340   4.673  -1.847  1.00  0.00     0.041 A 
ATOM     23  C   UNL     1       4.293   6.841  -3.617  1.00  0.00     0.003 A 
ATOM     24  C   UNL     1       3.124   5.200  -2.309  1.00  0.00     0.015 A 
ATOM     25  C   UNL     1       3.097   6.279  -3.190  1.00  0.00     0.015 A 
ATOM     26  I   UNL     1       1.310   4.356  -1.740  1.00  0.00    -0.044 I 
ENDBRANCH  18  20
ENDBRANCH  15  18
ENDBRANCH  14  15
ENDBRANCH   8   9
ENDBRANCH   7   8
ENDBRANCH   5   7
ENDBRANCH   2   3
ENDBRANCH   1   2
BRANCH   1  27
ATOM     27  C   UNL     1       3.809   2.784   2.912  1.00  0.00     0.002 C 
BRANCH  27  28
ATOM     28  C   UNL     1       4.412   3.745   1.891  1.00  0.00     0.002 C 
BRANCH  28  29
ATOM     29  C   UNL     1       3.732   5.108   1.753  1.00  0.00     0.021 C 
BRANCH  29  30
ATOM     30  C   UNL     1       4.015   6.076   2.895  1.00  0.00     0.116 C 
BRANCH  30  31
ATOM     31  N   UNL     1       5.404   6.518   2.933  1.00  0.00    -0.352 N 
ATOM     32  C   UNL     1       5.938   7.772   3.112  1.00  0.00     0.251 C 
ATOM     33  H   UNL     1       6.067   5.801   2.811  1.00  0.00     0.163 HD
ATOM     34  O   UNL     1       7.149   7.942   2.994  1.00  0.00    -0.269 OA
BRANCH  32  35
ATOM     35  C   UNL     1       5.069   8.938   3.401  1.00  0.00     0.039 A 
ATOM     36  C   UNL     1       5.391  10.172   2.824  1.00  0.00     0.014 A 
ATOM     37  C   UNL     1       3.954   8.838   4.234  1.00  0.00     0.014 A 
ATOM     38  C   UNL     1       4.555  11.276   3.016  1.00  0.00     0.010 A 
ATOM     39  C   UNL     1       3.073   9.911   4.350  1.00  0.00     0.010 A 
ATOM     40  C   UNL     1       3.363  11.142   3.744  1.00  0.00    -0.014 A 
BRANCH  40  41
ATOM     41  C   UNL     1       2.407  12.271   3.888  1.00  0.00     0.031 A 
ATOM     42  C   UNL     1       2.074  12.810   5.253  1.00  0.00     0.074 A 
ATOM     43  C   UNL     1       1.774  12.756   2.801  1.00  0.00     0.049 A 
ATOM     44  N   UNL     1       1.186  13.709   5.597  1.00  0.00    -0.248 NA
ATOM     45  C   UNL     1       2.812  12.234   6.388  1.00  0.00     0.031 C 
ATOM     46  C   UNL     1       1.963  12.282   1.429  1.00  0.00     0.029 A 
ATOM     47  N   UNL     1       0.832  13.748   2.681  1.00  0.00    -0.354 N 
ATOM     48  C   UNL     1       1.237  13.780   6.983  1.00  0.00     0.074 A 
ATOM     49  C   UNL     1       2.206  12.799   7.421  1.00  0.00     0.031 C 
ATOM     50  C   UNL     1       1.183  12.998   0.604  1.00  0.00     0.029 A 
ATOM     51  C   UNL     1       0.411  13.955   1.390  1.00  0.00     0.049 A 
ATOM     52  H   UNL     1       0.490  14.262   3.448  1.00  0.00     0.167 HD
ATOM     53  C   UNL     1       0.556  14.605   7.814  1.00  0.00     0.037 A 
ATOM     54  C   UNL     1      -0.499  14.817   0.897  1.00  0.00     0.037 A 
ATOM     55  C   UNL     1      -0.369  15.614   7.373  1.00  0.00     0.049 A 
ATOM     56  C   UNL     1      -1.216  15.746   1.837  1.00  0.00     0.074 A 
ATOM     57  C   UNL     1      -1.051  16.551   8.129  1.00  0.00     0.029 A 
ATOM     58  N   UNL     1      -0.736  15.822   6.051  1.00  0.00    -0.354 N 
ATOM     59  N   UNL     1      -1.112  15.847   3.140  1.00  0.00    -0.248 NA
ATOM     60  C   UNL     1      -2.174  16.686   1.238  1.00  0.00     0.031 C 
ATOM     61  C   UNL     1      -1.857  17.305   7.269  1.00  0.00     0.029 A 
ATOM     62  C   UNL     1      -1.645  16.865   5.972  1.00  0.00     0.049 A 
ATOM     63  H   UNL     1      -0.400  15.306   5.283  1.00  0.00     0.167 HD
ATOM     64  C   UNL     1      -1.967  16.875   3.513  1.00  0.00     0.074 A 
ATOM     65  C   UNL     1      -2.572  17.377   2.297  1.00  0.00     0.031 C 
ATOM     66  C   UNL     1      -2.229  17.358   4.752  1.00  0.00     0.037 A 
BRANCH  53  67
ATOM     67  C   UNL     1       0.798  14.457   9.288  1.00  0.00     0.064 A 
ATOM     68  C   UNL     1       2.017  14.832   9.875  1.00  0.00     0.173 A 
ATOM     69  C   UNL     1      -0.209  13.961  10.130  1.00  0.00     0.173 A 
ATOM     70  F   UNL     1       3.017  15.301   9.113  1.00  0.00    -0.203 F 
ATOM     71  C   UNL     1       2.230  14.684  11.243  1.00  0.00     0.198 A 
ATOM     72  C   UNL     1      -0.003  13.843  11.502  1.00  0.00     0.198 A 
ATOM     73  F   UNL     1      -1.395  13.594   9.623  1.00  0.00    -0.203 F 
ATOM     74  F   UNL     1       3.421  14.998  11.771  1.00  0.00    -0.200 F 
ATOM     75  C   UNL     1       1.219  14.196  12.056  1.00  0.00     0.200 A 
ATOM     76  F   UNL     1      -0.985  13.383  12.289  1.00  0.00    -0.200 F 
ATOM     77  F   UNL     1       1.424  14.058  13.373  1.00  0.00    -0.200 F 
ENDBRANCH  53  67
BRANCH  54  78
ATOM     78  C   UNL     1      -0.758  14.865  -0.565  1.00  0.00     0.064 A 
ATOM     79  C   UNL     1      -0.332  15.960  -1.331  1.00  0.00     0.173 A 
ATOM     80  C   UNL     1      -1.430  13.827  -1.226  1.00  0.00     0.173 A 
ATOM     81  F   UNL     1       0.297  16.986  -0.740  1.00  0.00    -0.203 F 
ATOM     82  C   UNL     1      -0.584  16.023  -2.700  1.00  0.00     0.198 A 
ATOM     83  C   UNL     1      -1.658  13.879  -2.600  1.00  0.00     0.198 A 
ATOM     84  F   UNL     1      -1.852  12.756  -0.540  1.00  0.00    -0.203 F 
ATOM     85  F   UNL     1      -0.203  17.099  -3.400  1.00  0.00    -0.200 F 
ATOM     86  C   UNL     1      -1.242  14.980  -3.334  1.00  0.00     0.200 A 
ATOM     87  F   UNL     1      -2.281  12.863  -3.213  1.00  0.00    -0.200 F 
ATOM     88  F   UNL     1      -1.480  15.038  -4.652  1.00  0.00    -0.200 F 
ENDBRANCH  54  78
BRANCH  66  89
ATOM     89  C   UNL     1      -3.186  18.509   4.852  1.00  0.00     0.064 A 
ATOM     90  C   UNL     1      -4.565  18.335   4.665  1.00  0.00     0.173 A 
ATOM     91  C   UNL     1      -2.721  19.791   5.180  1.00  0.00     0.173 A 
ATOM     92  F   UNL     1      -5.055  17.131   4.334  1.00  0.00    -0.203 F 
ATOM     93  C   UNL     1      -5.442  19.410   4.782  1.00  0.00     0.198 A 
ATOM     94  C   UNL     1      -3.603  20.857   5.323  1.00  0.00     0.198 A 
ATOM     95  F   UNL     1      -1.411  20.006   5.374  1.00  0.00    -0.203 F 
ATOM     96  F   UNL     1      -6.751  19.231   4.558  1.00  0.00    -0.200 F 
ATOM     97  C   UNL     1      -4.962  20.668   5.118  1.00  0.00     0.200 A 
ATOM     98  F   UNL     1      -3.140  22.069   5.659  1.00  0.00    -0.200 F 
ATOM     99  F   UNL     1      -5.809  21.699   5.237  1.00  0.00    -0.200 F 
ENDBRANCH  66  89
ENDBRANCH  40  41
ENDBRANCH  32  35
ENDBRANCH  30  31
ENDBRANCH  29  30
ENDBRANCH  28  29
ENDBRANCH  27  28
ENDBRANCH   1  27
TORSDOF 18
