REMARK SMILES C[C@H]1[C@@H](C(=O)NCCCCCCNC(=O)c2ccc(-c3c4nc(c(-c5c(F)c(F)c(F)c(F)c5F)c5ccc([nH]5)c(-c5c(F)c(F)c(F)c(F)c5F)c5nc(c(-c6c(F)c(F)c(F)c(F)c6F)c6ccc3[nH]6)C=C5)C=C4)cc2)CCN1C(=O)c1cc2cc(F)ccc2s1
REMARK SMILES IDX 9 1 8 2 7 3 6 4 4 5 5 6 3 8 1 9 2 10 81 11 79 12 80 13 82 14
REMARK SMILES IDX 83 15 84 16 85 17 93 18 86 19 92 20 87 21 91 22 88 23 90 24
REMARK SMILES IDX 89 25 10 26 11 27 12 28 13 29 14 30 15 32 16 33 17 34 78 35
REMARK SMILES IDX 18 36 77 37 19 38 20 39 21 40 71 41 22 42 76 43 70 44 72 45
REMARK SMILES IDX 23 46 75 47 69 48 68 49 24 51 56 52 36 53 55 54 37 55 40 56
REMARK SMILES IDX 54 57 73 58 38 59 39 60 53 62 74 63 41 64 25 65 26 66 34 67
REMARK SMILES IDX 27 68 28 69 32 70 35 71 29 72 30 73 33 74 31 75 57 76 58 77
REMARK SMILES IDX 66 78 59 79 60 80 64 81 67 82 61 83 62 84 65 85 63 86 42 87
REMARK SMILES IDX 43 88 51 89 44 90 45 91 49 92 52 93 46 94 47 95 50 96 48 97
REMARK H PARENT 6 7 13 31 72 50 40 61
REMARK Flexibility Score: inf
ROOT
ATOM      1  C   UNL     1       4.460   1.468  -3.245  1.00  0.00     0.002 C 
ENDROOT
BRANCH   1   2
ATOM      2  C   UNL     1       3.653   0.945  -2.054  1.00  0.00     0.021 C 
BRANCH   2   3
ATOM      3  C   UNL     1       2.725   1.989  -1.428  1.00  0.00     0.116 C 
BRANCH   3   4
ATOM      4  N   UNL     1       1.404   1.861  -2.012  1.00  0.00    -0.356 N 
ATOM      5  C   UNL     1       0.257   1.334  -1.499  1.00  0.00     0.225 C 
ATOM      6  O   UNL     1      -0.672   1.153  -2.288  1.00  0.00    -0.275 OA
ATOM      7  H   UNL     1       1.322   2.213  -2.928  1.00  0.00     0.163 HD
BRANCH   5   8
ATOM      8  C   UNL     1       0.122   1.077   0.003  1.00  0.00     0.102 C 
ATOM      9  C   UNL     1       1.727  -0.994  -0.074  1.00  0.00     0.032 C 
ATOM     10  C   UNL     1       0.527  -0.309   0.549  1.00  0.00     0.094 C 
ATOM     11  N   UNL     1      -0.682  -1.140   0.516  1.00  0.00    -0.334 N 
ATOM     12  C   UNL     1      -1.365   1.115   0.396  1.00  0.00     0.037 C 
ATOM     13  C   UNL     1      -1.820  -0.316   0.139  1.00  0.00     0.121 C 
BRANCH  11  14
ATOM     14  C   UNL     1      -0.868  -2.028   1.577  1.00  0.00     0.264 C 
ATOM     15  O   UNL     1      -1.371  -1.635   2.632  1.00  0.00    -0.268 OA
BRANCH  14  16
ATOM     16  C   UNL     1      -0.410  -3.396   1.399  1.00  0.00     0.093 A 
ATOM     17  C   UNL     1      -0.057  -4.267   2.410  1.00  0.00     0.034 A 
ATOM     18  S   UNL     1      -0.353  -4.166  -0.122  1.00  0.00    -0.130 S 
ATOM     19  C   UNL     1       0.177  -5.605   1.957  1.00  0.00    -0.004 A 
ATOM     20  C   UNL     1       0.019  -5.702   0.572  1.00  0.00     0.035 A 
ATOM     21  C   UNL     1       0.487  -6.777   2.685  1.00  0.00     0.048 A 
ATOM     22  C   UNL     1       0.148  -6.936  -0.099  1.00  0.00     0.022 A 
ATOM     23  C   UNL     1       0.594  -7.996   2.020  1.00  0.00     0.123 A 
ATOM     24  C   UNL     1       0.424  -8.084   0.649  1.00  0.00     0.041 A 
ATOM     25  F   UNL     1       0.852  -9.105   2.725  1.00  0.00    -0.207 F 
ENDBRANCH  14  16
ENDBRANCH  11  14
ENDBRANCH   5   8
ENDBRANCH   3   4
ENDBRANCH   2   3
ENDBRANCH   1   2
BRANCH   1  26
ATOM     26  C   UNL     1       5.743   2.211  -2.862  1.00  0.00     0.002 C 
BRANCH  26  27
ATOM     27  C   UNL     1       6.717   1.444  -1.957  1.00  0.00     0.021 C 
BRANCH  27  28
ATOM     28  C   UNL     1       7.028   0.008  -2.378  1.00  0.00     0.116 C 
BRANCH  28  29
ATOM     29  N   UNL     1       7.692  -0.059  -3.667  1.00  0.00    -0.352 N 
ATOM     30  C   UNL     1       8.923  -0.569  -3.992  1.00  0.00     0.251 C 
ATOM     31  H   UNL     1       7.183   0.318  -4.420  1.00  0.00     0.163 HD
ATOM     32  O   UNL     1       9.388  -0.386  -5.115  1.00  0.00    -0.269 OA
BRANCH  30  33
ATOM     33  C   UNL     1       9.709  -1.326  -2.995  1.00  0.00     0.039 A 
ATOM     34  C   UNL     1      11.060  -1.007  -2.828  1.00  0.00     0.014 A 
ATOM     35  C   UNL     1       9.140  -2.373  -2.263  1.00  0.00     0.014 A 
ATOM     36  C   UNL     1      11.830  -1.702  -1.894  1.00  0.00     0.010 A 
ATOM     37  C   UNL     1       9.899  -3.042  -1.302  1.00  0.00     0.010 A 
ATOM     38  C   UNL     1      11.250  -2.713  -1.112  1.00  0.00    -0.014 A 
BRANCH  38  39
ATOM     39  C   UNL     1      12.049  -3.442  -0.098  1.00  0.00     0.031 A 
ATOM     40  C   UNL     1      12.438  -4.873  -0.329  1.00  0.00     0.074 A 
ATOM     41  C   UNL     1      12.384  -2.831   1.053  1.00  0.00     0.049 A 
ATOM     42  N   UNL     1      13.072  -5.697   0.467  1.00  0.00    -0.248 NA
ATOM     43  C   UNL     1      12.047  -5.462  -1.619  1.00  0.00     0.031 C 
ATOM     44  C   UNL     1      12.043  -1.454   1.410  1.00  0.00     0.029 A 
ATOM     45  N   UNL     1      13.079  -3.296   2.141  1.00  0.00    -0.354 N 
ATOM     46  C   UNL     1      13.136  -6.904  -0.213  1.00  0.00     0.074 A 
ATOM     47  C   UNL     1      12.461  -6.714  -1.480  1.00  0.00     0.031 C 
ATOM     48  C   UNL     1      12.537  -1.182   2.629  1.00  0.00     0.029 A 
ATOM     49  C   UNL     1      13.208  -2.371   3.147  1.00  0.00     0.049 A 
ATOM     50  H   UNL     1      13.449  -4.207   2.196  1.00  0.00     0.167 HD
ATOM     51  C   UNL     1      13.714  -8.064   0.179  1.00  0.00     0.037 A 
ATOM     52  C   UNL     1      13.798  -2.473   4.353  1.00  0.00     0.037 A 
ATOM     53  C   UNL     1      14.419  -8.249   1.419  1.00  0.00     0.049 A 
ATOM     54  C   UNL     1      14.454  -3.763   4.753  1.00  0.00     0.074 A 
ATOM     55  C   UNL     1      15.088  -9.373   1.874  1.00  0.00     0.029 A 
ATOM     56  N   UNL     1      14.549  -7.280   2.401  1.00  0.00    -0.354 N 
ATOM     57  N   UNL     1      14.540  -4.887   4.085  1.00  0.00    -0.248 NA
ATOM     58  C   UNL     1      15.097  -3.798   6.074  1.00  0.00     0.031 C 
ATOM     59  C   UNL     1      15.609  -9.089   3.142  1.00  0.00     0.029 A 
ATOM     60  C   UNL     1      15.280  -7.782   3.466  1.00  0.00     0.049 A 
ATOM     61  H   UNL     1      14.178  -6.370   2.350  1.00  0.00     0.167 HD
ATOM     62  C   UNL     1      15.256  -5.757   4.894  1.00  0.00     0.074 A 
ATOM     63  C   UNL     1      15.589  -5.029   6.102  1.00  0.00     0.031 C 
ATOM     64  C   UNL     1      15.604  -7.044   4.657  1.00  0.00     0.037 A 
BRANCH  51  65
ATOM     65  C   UNL     1      13.605  -9.232  -0.750  1.00  0.00     0.064 A 
ATOM     66  C   UNL     1      14.410  -9.332  -1.894  1.00  0.00     0.173 A 
ATOM     67  C   UNL     1      12.709 -10.275  -0.478  1.00  0.00     0.173 A 
ATOM     68  F   UNL     1      15.271  -8.351  -2.200  1.00  0.00    -0.203 F 
ATOM     69  C   UNL     1      14.308 -10.430  -2.744  1.00  0.00     0.198 A 
ATOM     70  C   UNL     1      12.621 -11.379  -1.321  1.00  0.00     0.198 A 
ATOM     71  F   UNL     1      11.919 -10.223   0.605  1.00  0.00    -0.203 F 
ATOM     72  F   UNL     1      15.063 -10.492  -3.849  1.00  0.00    -0.200 F 
ATOM     73  C   UNL     1      13.418 -11.454  -2.455  1.00  0.00     0.200 A 
ATOM     74  F   UNL     1      11.764 -12.370  -1.040  1.00  0.00    -0.200 F 
ATOM     75  F   UNL     1      13.321 -12.510  -3.274  1.00  0.00    -0.200 F 
ENDBRANCH  51  65
BRANCH  52  76
ATOM     76  C   UNL     1      13.810  -1.304   5.263  1.00  0.00     0.064 A 
ATOM     77  C   UNL     1      14.969  -0.535   5.422  1.00  0.00     0.173 A 
ATOM     78  C   UNL     1      12.665  -0.927   5.977  1.00  0.00     0.173 A 
ATOM     79  F   UNL     1      16.092  -0.874   4.772  1.00  0.00    -0.203 F 
ATOM     80  C   UNL     1      14.986   0.569   6.271  1.00  0.00     0.198 A 
ATOM     81  C   UNL     1      12.678   0.186   6.814  1.00  0.00     0.198 A 
ATOM     82  F   UNL     1      11.533  -1.635   5.853  1.00  0.00    -0.203 F 
ATOM     83  F   UNL     1      16.113   1.276   6.426  1.00  0.00    -0.200 F 
ATOM     84  C   UNL     1      13.839   0.931   6.963  1.00  0.00     0.200 A 
ATOM     85  F   UNL     1      11.567   0.537   7.476  1.00  0.00    -0.200 F 
ATOM     86  F   UNL     1      13.854   1.996   7.776  1.00  0.00    -0.200 F 
ENDBRANCH  52  76
BRANCH  64  87
ATOM     87  C   UNL     1      16.399  -7.741   5.716  1.00  0.00     0.064 A 
ATOM     88  C   UNL     1      15.782  -8.261   6.863  1.00  0.00     0.173 A 
ATOM     89  C   UNL     1      17.781  -7.922   5.566  1.00  0.00     0.173 A 
ATOM     90  F   UNL     1      14.465  -8.095   7.054  1.00  0.00    -0.203 F 
ATOM     91  C   UNL     1      16.527  -8.930   7.830  1.00  0.00     0.198 A 
ATOM     92  C   UNL     1      18.519  -8.604   6.528  1.00  0.00     0.198 A 
ATOM     93  F   UNL     1      18.412  -7.440   4.485  1.00  0.00    -0.203 F 
ATOM     94  F   UNL     1      15.924  -9.396   8.933  1.00  0.00    -0.200 F 
ATOM     95  C   UNL     1      17.892  -9.105   7.660  1.00  0.00     0.200 A 
ATOM     96  F   UNL     1      19.838  -8.774   6.363  1.00  0.00    -0.200 F 
ATOM     97  F   UNL     1      18.607  -9.750   8.592  1.00  0.00    -0.200 F 
ENDBRANCH  64  87
ENDBRANCH  38  39
ENDBRANCH  30  33
ENDBRANCH  28  29
ENDBRANCH  27  28
ENDBRANCH  26  27
ENDBRANCH   1  26
TORSDOF 15
