REMARK SMILES CC1=C(C)C[C@H](C(=O)Nc2sc3c(c2C(=O)NC2CCCC2)CCCC3)[C@@H](C(=O)NCCCCCCNC(=O)c2ccc(-c3c4nc(c(-c5c(F)c(F)c(F)c(F)c5F)c5ccc([nH]5)c(-c5c(F)c(F)c(F)c(F)c5F)c5nc(c(-c6c(F)c(F)c(F)c(F)c6F)c6ccc3[nH]6)C=C5)C=C4)cc2)C1
REMARK SMILES IDX 32 1 31 2 30 3 28 4 29 5 27 7 1 8 2 9 3 10 103 11 4 12 5 13
REMARK SMILES IDX 6 14 7 15 8 16 9 17 10 19 11 20 14 21 12 22 13 23 26 24
REMARK SMILES IDX 23 25 25 26 24 27 15 28 16 29 17 30 18 32 19 33 22 34 20 35
REMARK SMILES IDX 21 36 33 37 34 38 35 39 36 40 37 41 38 42 39 44 40 45 41 46
REMARK SMILES IDX 102 47 42 48 101 49 43 50 44 51 45 52 95 53 46 54 100 55
REMARK SMILES IDX 94 56 96 57 47 58 99 59 93 60 92 61 48 63 80 64 60 65 79 66
REMARK SMILES IDX 61 67 64 68 78 69 97 70 62 71 63 72 77 74 98 75 65 76 49 77
REMARK SMILES IDX 50 78 58 79 51 80 52 81 56 82 59 83 53 84 54 85 57 86 55 87
REMARK SMILES IDX 81 88 82 89 90 90 83 91 84 92 88 93 91 94 85 95 86 96 89 97
REMARK SMILES IDX 87 98 66 99 67 100 75 101 68 102 69 103 73 104 76 105 70 106
REMARK SMILES IDX 71 107 74 108 72 109
REMARK H PARENT 30 6 9 18 17 31 37 43 96 62 64 73
REMARK Flexibility Score: inf
ROOT
ATOM      1  C   UNL     1       2.311   6.710   3.808  1.00  0.00     0.021 C 
ENDROOT
BRANCH   1   2
ATOM      2  C   UNL     1       1.752   5.435   3.231  1.00  0.00     0.116 C 
BRANCH   2   3
ATOM      3  N   UNL     1       2.542   4.241   3.211  1.00  0.00    -0.356 N 
ATOM      4  C   UNL     1       2.175   3.103   2.514  1.00  0.00     0.224 C 
ATOM      5  O   UNL     1       2.928   2.133   2.536  1.00  0.00    -0.275 OA
ATOM      6  H   UNL     1       3.386   4.229   3.716  1.00  0.00     0.163 HD
BRANCH   4   7
ATOM      7  C   UNL     1       0.845   3.141   1.718  1.00  0.00     0.095 C 
ATOM      8  C   UNL     1       0.876  -0.340   0.018  1.00  0.00     0.039 C 
ATOM      9  C   UNL     1       0.403   0.711   0.991  1.00  0.00    -0.074 C 
ATOM     10  C   UNL     1      -0.289   0.495   2.127  1.00  0.00    -0.074 C 
ATOM     11  C   UNL     1       0.807   2.103   0.593  1.00  0.00     0.045 C 
ATOM     12  C   UNL     1      -0.672  -0.871   2.648  1.00  0.00     0.039 C 
ATOM     13  C   UNL     1      -0.727   1.634   3.035  1.00  0.00     0.045 C 
ATOM     14  C   UNL     1      -0.379   3.107   2.638  1.00  0.00     0.095 C 
BRANCH  14  15
ATOM     15  C   UNL     1      -1.641   3.998   2.308  1.00  0.00     0.229 C 
ATOM     16  O   UNL     1      -2.766   3.481   2.358  1.00  0.00    -0.274 OA
ATOM     17  N   UNL     1      -1.624   5.386   2.328  1.00  0.00    -0.317 N 
ATOM     18  H   UNL     1      -2.356   5.776   2.860  1.00  0.00     0.170 HD
BRANCH  17  19
ATOM     19  C   UNL     1      -0.789   6.348   1.754  1.00  0.00     0.108 A 
ATOM     20  S   UNL     1      -0.307   6.048   0.142  1.00  0.00    -0.122 S 
ATOM     21  C   UNL     1      -0.476   7.655   2.246  1.00  0.00     0.078 A 
ATOM     22  C   UNL     1       0.968   7.151   0.270  1.00  0.00     0.011 A 
ATOM     23  C   UNL     1       0.774   8.124   1.532  1.00  0.00    -0.019 A 
ATOM     24  C   UNL     1       2.401   7.108  -0.956  1.00  0.00     0.047 C 
ATOM     25  C   UNL     1       2.078   9.496   1.931  1.00  0.00     0.037 C 
ATOM     26  C   UNL     1       3.908   8.289  -0.659  1.00  0.00     0.006 C 
ATOM     27  C   UNL     1       3.765   9.559   0.840  1.00  0.00     0.005 C 
BRANCH  21  28
ATOM     28  C   UNL     1      -1.323   8.139   3.393  1.00  0.00     0.254 C 
ATOM     29  O   UNL     1      -2.424   7.610   3.597  1.00  0.00    -0.269 OA
ATOM     30  N   UNL     1      -1.018   9.130   4.302  1.00  0.00    -0.349 N 
ATOM     31  H   UNL     1      -1.681   9.257   5.019  1.00  0.00     0.164 HD
BRANCH  30  32
ATOM     32  C   UNL     1       0.105   9.996   4.363  1.00  0.00     0.082 C 
ATOM     33  C   UNL     1      -0.164  11.479   4.190  1.00  0.00     0.025 C 
ATOM     34  C   UNL     1       1.002   9.951   5.587  1.00  0.00     0.025 C 
ATOM     35  C   UNL     1       1.213  12.101   4.435  1.00  0.00     0.002 C 
ATOM     36  C   UNL     1       1.978  11.102   5.315  1.00  0.00     0.002 C 
ENDBRANCH  30  32
ENDBRANCH  21  28
ENDBRANCH  17  19
ENDBRANCH  14  15
ENDBRANCH   4   7
ENDBRANCH   2   3
ENDBRANCH   1   2
BRANCH   1  37
ATOM     37  C   UNL     1       3.254   7.467   2.870  1.00  0.00     0.002 C 
BRANCH  37  38
ATOM     38  C   UNL     1       2.922   7.715   1.190  1.00  0.00     0.002 C 
BRANCH  38  39
ATOM     39  C   UNL     1       1.985   9.150  -0.093  1.00  0.00     0.021 C 
BRANCH  39  40
ATOM     40  C   UNL     1       1.672  10.907  -0.132  1.00  0.00     0.116 C 
BRANCH  40  41
ATOM     41  N   UNL     1       2.430  11.926   0.633  1.00  0.00    -0.352 N 
ATOM     42  C   UNL     1       2.369  13.288   0.631  1.00  0.00     0.251 C 
ATOM     43  H   UNL     1       3.097  11.552   1.254  1.00  0.00     0.163 HD
ATOM     44  O   UNL     1       3.221  13.954   1.206  1.00  0.00    -0.269 OA
BRANCH  42  45
ATOM     45  C   UNL     1       1.234  13.939  -0.003  1.00  0.00     0.039 A 
ATOM     46  C   UNL     1       1.457  14.896  -0.989  1.00  0.00     0.014 A 
ATOM     47  C   UNL     1      -0.049  13.596   0.426  1.00  0.00     0.014 A 
ATOM     48  C   UNL     1       0.359  15.468  -1.612  1.00  0.00     0.010 A 
ATOM     49  C   UNL     1      -1.139  14.117  -0.238  1.00  0.00     0.010 A 
ATOM     50  C   UNL     1      -0.936  15.047  -1.265  1.00  0.00    -0.014 A 
BRANCH  50  51
ATOM     51  C   UNL     1      -2.098  15.543  -2.016  1.00  0.00     0.031 A 
ATOM     52  C   UNL     1      -3.097  16.425  -1.342  1.00  0.00     0.074 A 
ATOM     53  C   UNL     1      -2.243  15.132  -3.287  1.00  0.00     0.049 A 
ATOM     54  N   UNL     1      -4.176  16.969  -1.836  1.00  0.00    -0.248 NA
ATOM     55  C   UNL     1      -2.872  16.714   0.084  1.00  0.00     0.031 C 
ATOM     56  C   UNL     1      -1.338  14.211  -3.983  1.00  0.00     0.029 A 
ATOM     57  N   UNL     1      -3.194  15.434  -4.221  1.00  0.00    -0.354 N 
ATOM     58  C   UNL     1      -4.755  17.664  -0.785  1.00  0.00     0.074 A 
ATOM     59  C   UNL     1      -3.952  17.416   0.390  1.00  0.00     0.031 C 
ATOM     60  C   UNL     1      -1.753  14.061  -5.249  1.00  0.00     0.029 A 
ATOM     61  C   UNL     1      -2.971  14.839  -5.438  1.00  0.00     0.049 A 
ATOM     62  H   UNL     1      -3.963  16.021  -4.040  1.00  0.00     0.167 HD
ATOM     63  C   UNL     1      -5.848  18.460  -0.820  1.00  0.00     0.037 A 
ATOM     64  C   UNL     1      -3.681  14.924  -6.576  1.00  0.00     0.037 A 
ATOM     65  C   UNL     1      -6.622  18.681  -2.012  1.00  0.00     0.049 A 
ATOM     66  C   UNL     1      -4.896  15.809  -6.581  1.00  0.00     0.074 A 
ATOM     67  C   UNL     1      -7.723  19.497  -2.190  1.00  0.00     0.029 A 
ATOM     68  N   UNL     1      -6.375  18.066  -3.234  1.00  0.00    -0.354 N 
ATOM     69  N   UNL     1      -5.394  16.536  -5.608  1.00  0.00    -0.248 NA
ATOM     70  C   UNL     1      -5.642  15.895  -7.840  1.00  0.00     0.031 C 
ATOM     71  C   UNL     1      -8.179  19.327  -3.502  1.00  0.00     0.029 A 
ATOM     72  C   UNL     1      -7.321  18.461  -4.164  1.00  0.00     0.049 A 
ATOM     73  H   UNL     1      -5.635  17.441  -3.412  1.00  0.00     0.167 HD
ATOM     74  C   UNL     1      -6.497  17.186  -6.142  1.00  0.00     0.074 A 
ATOM     75  C   UNL     1      -6.577  16.782  -7.533  1.00  0.00     0.031 C 
ATOM     76  C   UNL     1      -7.367  18.036  -5.542  1.00  0.00     0.037 A 
BRANCH  63  77
ATOM     77  C   UNL     1      -6.260  19.129   0.459  1.00  0.00     0.064 A 
ATOM     78  C   UNL     1      -5.464  20.114   1.068  1.00  0.00     0.173 A 
ATOM     79  C   UNL     1      -7.468  18.788   1.085  1.00  0.00     0.173 A 
ATOM     80  F   UNL     1      -4.290  20.467   0.523  1.00  0.00    -0.203 F 
ATOM     81  C   UNL     1      -5.845  20.703   2.271  1.00  0.00     0.198 A 
ATOM     82  C   UNL     1      -7.863  19.405   2.269  1.00  0.00     0.198 A 
ATOM     83  F   UNL     1      -8.266  17.852   0.550  1.00  0.00    -0.203 F 
ATOM     84  F   UNL     1      -5.037  21.593   2.865  1.00  0.00    -0.200 F 
ATOM     85  C   UNL     1      -7.047  20.354   2.867  1.00  0.00     0.200 A 
ATOM     86  F   UNL     1      -9.030  19.074   2.838  1.00  0.00    -0.200 F 
ATOM     87  F   UNL     1      -7.414  20.924   4.023  1.00  0.00    -0.200 F 
ENDBRANCH  63  77
BRANCH  64  88
ATOM     88  C   UNL     1      -3.240  14.186  -7.787  1.00  0.00     0.064 A 
ATOM     89  C   UNL     1      -2.780  14.868  -8.922  1.00  0.00     0.173 A 
ATOM     90  C   UNL     1      -3.254  12.783  -7.833  1.00  0.00     0.173 A 
ATOM     91  F   UNL     1      -2.751  16.209  -8.931  1.00  0.00    -0.203 F 
ATOM     92  C   UNL     1      -2.380  14.178 -10.065  1.00  0.00     0.198 A 
ATOM     93  C   UNL     1      -2.822  12.094  -8.964  1.00  0.00     0.198 A 
ATOM     94  F   UNL     1      -3.667  12.080  -6.769  1.00  0.00    -0.203 F 
ATOM     95  F   UNL     1      -1.990  14.858 -11.152  1.00  0.00    -0.200 F 
ATOM     96  C   UNL     1      -2.396  12.792 -10.083  1.00  0.00     0.200 A 
ATOM     97  F   UNL     1      -2.817  10.754  -8.968  1.00  0.00    -0.200 F 
ATOM     98  F   UNL     1      -2.005  12.129 -11.180  1.00  0.00    -0.200 F 
ENDBRANCH  64  88
BRANCH  76  99
ATOM     99  C   UNL     1      -8.458  18.605  -6.401  1.00  0.00     0.064 A 
ATOM    100  C   UNL     1      -9.513  17.811  -6.875  1.00  0.00     0.173 A 
ATOM    101  C   UNL     1      -8.466  19.971  -6.720  1.00  0.00     0.173 A 
ATOM    102  F   UNL     1      -9.542  16.497  -6.609  1.00  0.00    -0.203 F 
ATOM    103  C   UNL     1     -10.519  18.360  -7.665  1.00  0.00     0.198 A 
ATOM    104  C   UNL     1      -9.494  20.523  -7.476  1.00  0.00     0.198 A 
ATOM    105  F   UNL     1      -7.483  20.774  -6.284  1.00  0.00    -0.203 F 
ATOM    106  F   UNL     1     -11.485  17.572  -8.157  1.00  0.00    -0.200 F 
ATOM    107  C   UNL     1     -10.514  19.716  -7.956  1.00  0.00     0.200 A 
ATOM    108  F   UNL     1      -9.498  21.837  -7.739  1.00  0.00    -0.200 F 
ATOM    109  F   UNL     1     -11.489  20.244  -8.708  1.00  0.00    -0.200 F 
ENDBRANCH  76  99
ENDBRANCH  50  51
ENDBRANCH  42  45
ENDBRANCH  40  41
ENDBRANCH  39  40
ENDBRANCH  38  39
ENDBRANCH  37  38
ENDBRANCH   1  37
TORSDOF 17
