REMARK SMILES CC(C)[C@H](NC(=O)c1cc2cc(Cl)ccc2n1C)C(=O)N[C@@H](C(=O)NCCCCCCNC(=O)c1ccc(-c2c3nc(c(-c4c(F)c(F)c(F)c(F)c4F)c4ccc([nH]4)c(-c4c(F)c(F)c(F)c(F)c4F)c4nc(c(-c5c(F)c(F)c(F)c(F)c5F)c5ccc2[nH]5)C=C4)C=C3)cc1)c1ccccc1
REMARK SMILES IDX 27 1 26 2 25 3 23 4 24 5 22 7 21 8 19 9 20 10 4 12 2 13 1 14
REMARK SMILES IDX 3 15 5 16 6 17 7 19 8 20 9 21 17 22 10 23 16 24 18 25 11 26
REMARK SMILES IDX 15 27 12 28 14 29 13 30 98 31 99 32 103 33 100 34 102 35
REMARK SMILES IDX 101 36 28 37 29 38 30 39 31 40 32 41 33 42 34 44 35 45 36 46
REMARK SMILES IDX 97 47 37 48 96 49 38 50 39 51 40 52 90 53 41 54 95 55 89 56
REMARK SMILES IDX 91 57 42 58 94 59 88 60 87 61 43 63 75 64 55 65 74 66 56 67
REMARK SMILES IDX 59 68 73 69 92 70 57 71 58 72 72 74 93 75 60 76 44 77 45 78
REMARK SMILES IDX 53 79 46 80 47 81 51 82 54 83 48 84 49 85 52 86 50 87 76 88
REMARK SMILES IDX 77 89 85 90 78 91 79 92 83 93 86 94 80 95 81 96 84 97 82 98
REMARK SMILES IDX 61 99 62 100 70 101 63 102 64 103 68 104 71 105 65 106
REMARK SMILES IDX 66 107 69 108 67 109
REMARK H PARENT 25 6 21 11 5 18 32 43 91 62 59 73
REMARK Flexibility Score: inf
ROOT
ATOM      1  C   UNL     1       1.691  -5.183   1.753  1.00  0.00     0.021 C 
ENDROOT
BRANCH   1   2
ATOM      2  C   UNL     1       1.513  -4.189   0.615  1.00  0.00     0.116 C 
BRANCH   2   3
ATOM      3  N   UNL     1       1.759  -4.785  -0.679  1.00  0.00    -0.354 N 
ATOM      4  C   UNL     1       1.168  -4.604  -1.896  1.00  0.00     0.247 C 
ATOM      5  O   UNL     1       1.787  -5.086  -2.852  1.00  0.00    -0.272 OA
ATOM      6  H   UNL     1       2.490  -5.445  -0.683  1.00  0.00     0.163 HD
BRANCH   4   7
ATOM      7  C   UNL     1      -0.104  -3.708  -2.100  1.00  0.00     0.202 C 
BRANCH   7   8
ATOM      8  N   UNL     1      -1.105  -3.821  -1.024  1.00  0.00    -0.339 N 
ATOM      9  C   UNL     1      -1.812  -2.916  -0.289  1.00  0.00     0.243 C 
ATOM     10  O   UNL     1      -2.723  -3.365   0.415  1.00  0.00    -0.273 OA
ATOM     11  H   UNL     1      -1.308  -4.754  -0.783  1.00  0.00     0.164 HD
BRANCH   9  12
ATOM     12  C   UNL     1      -1.574  -1.382  -0.347  1.00  0.00     0.174 C 
BRANCH  12  13
ATOM     13  C   UNL     1      -2.402  -0.647  -1.439  1.00  0.00     0.015 C 
ATOM     14  C   UNL     1      -3.264  -1.548  -2.331  1.00  0.00     0.010 C 
ATOM     15  C   UNL     1      -3.394   0.335  -0.791  1.00  0.00     0.010 C 
ENDBRANCH  12  13
BRANCH  12  16
ATOM     16  N   UNL     1      -0.122  -1.141  -0.320  1.00  0.00    -0.339 N 
ATOM     17  C   UNL     1       0.656  -0.038  -0.128  1.00  0.00     0.268 C 
ATOM     18  H   UNL     1       0.404  -1.958  -0.476  1.00  0.00     0.164 HD
ATOM     19  O   UNL     1       1.839  -0.232   0.138  1.00  0.00    -0.268 OA
BRANCH  17  20
ATOM     20  C   UNL     1       0.097   1.268  -0.304  1.00  0.00     0.107 A 
ATOM     21  C   UNL     1       0.316   2.104  -1.384  1.00  0.00     0.042 A 
ATOM     22  N   UNL     1      -0.635   1.992   0.612  1.00  0.00    -0.340 N 
ATOM     23  C   UNL     1      -0.458   3.275  -1.206  1.00  0.00     0.002 A 
ATOM     24  C   UNL     1      -1.093   3.164   0.033  1.00  0.00     0.048 A 
ATOM     25  C   UNL     1      -0.894   1.585   1.977  1.00  0.00     0.150 C 
ATOM     26  C   UNL     1      -0.687   4.412  -2.002  1.00  0.00     0.030 A 
ATOM     27  C   UNL     1      -2.002   4.132   0.488  1.00  0.00     0.028 A 
ATOM     28  C   UNL     1      -1.592   5.377  -1.555  1.00  0.00     0.041 A 
ATOM     29  C   UNL     1      -2.251   5.235  -0.338  1.00  0.00     0.023 A 
ATOM     30  Cl  UNL     1      -1.910   6.754  -2.540  1.00  0.00    -0.084 Cl
ENDBRANCH  17  20
ENDBRANCH  12  16
ENDBRANCH   9  12
ENDBRANCH   7   8
BRANCH   7  31
ATOM     31  C   UNL     1      -0.774  -4.040  -3.433  1.00  0.00    -0.016 A 
ATOM     32  C   UNL     1      -1.398  -5.283  -3.643  1.00  0.00     0.006 A 
ATOM     33  C   UNL     1      -0.783  -3.100  -4.478  1.00  0.00     0.006 A 
ATOM     34  C   UNL     1      -2.041  -5.562  -4.850  1.00  0.00     0.000 A 
ATOM     35  C   UNL     1      -1.437  -3.379  -5.679  1.00  0.00     0.000 A 
ATOM     36  C   UNL     1      -2.069  -4.607  -5.863  1.00  0.00     0.000 A 
ENDBRANCH   7  31
ENDBRANCH   4   7
ENDBRANCH   2   3
ENDBRANCH   1   2
BRANCH   1  37
ATOM     37  C   UNL     1       3.139  -5.551   2.082  1.00  0.00     0.002 C 
BRANCH  37  38
ATOM     38  C   UNL     1       4.062  -4.396   2.481  1.00  0.00     0.002 C 
BRANCH  38  39
ATOM     39  C   UNL     1       3.549  -3.426   3.551  1.00  0.00     0.021 C 
BRANCH  39  40
ATOM     40  C   UNL     1       2.953  -4.050   4.814  1.00  0.00     0.116 C 
BRANCH  40  41
ATOM     41  N   UNL     1       3.745  -5.105   5.406  1.00  0.00    -0.352 N 
ATOM     42  C   UNL     1       4.870  -5.160   6.177  1.00  0.00     0.251 C 
ATOM     43  H   UNL     1       3.386  -6.000   5.204  1.00  0.00     0.163 HD
ATOM     44  O   UNL     1       5.234  -6.288   6.520  1.00  0.00    -0.269 OA
BRANCH  42  45
ATOM     45  C   UNL     1       5.682  -3.985   6.605  1.00  0.00     0.039 A 
ATOM     46  C   UNL     1       5.323  -2.645   6.462  1.00  0.00     0.014 A 
ATOM     47  C   UNL     1       6.915  -4.275   7.218  1.00  0.00     0.014 A 
ATOM     48  C   UNL     1       6.189  -1.622   6.863  1.00  0.00     0.010 A 
ATOM     49  C   UNL     1       7.771  -3.257   7.646  1.00  0.00     0.010 A 
ATOM     50  C   UNL     1       7.423  -1.921   7.442  1.00  0.00    -0.014 A 
BRANCH  50  51
ATOM     51  C   UNL     1       8.306  -0.807   7.811  1.00  0.00     0.031 A 
ATOM     52  C   UNL     1       7.902   0.118   8.916  1.00  0.00     0.074 A 
ATOM     53  C   UNL     1       9.557  -0.661   7.328  1.00  0.00     0.049 A 
ATOM     54  N   UNL     1       7.916   1.418   8.930  1.00  0.00    -0.248 NA
ATOM     55  C   UNL     1       7.498  -0.487  10.194  1.00  0.00     0.031 C 
ATOM     56  C   UNL     1      10.322  -1.613   6.524  1.00  0.00     0.029 A 
ATOM     57  N   UNL     1      10.453   0.345   7.577  1.00  0.00    -0.354 N 
ATOM     58  C   UNL     1       7.628   1.800  10.238  1.00  0.00     0.074 A 
ATOM     59  C   UNL     1       7.363   0.587  10.974  1.00  0.00     0.031 C 
ATOM     60  C   UNL     1      11.623  -1.250   6.543  1.00  0.00     0.029 A 
ATOM     61  C   UNL     1      11.751   0.021   7.242  1.00  0.00     0.049 A 
ATOM     62  H   UNL     1      10.195   1.215   7.959  1.00  0.00     0.167 HD
ATOM     63  C   UNL     1       7.711   3.079  10.694  1.00  0.00     0.037 A 
ATOM     64  C   UNL     1      12.871   0.699   7.572  1.00  0.00     0.037 A 
ATOM     65  C   UNL     1       7.818   4.064   9.662  1.00  0.00     0.049 A 
ATOM     66  C   UNL     1      12.530   2.102   7.910  1.00  0.00     0.074 A 
ATOM     67  C   UNL     1       6.985   4.547   8.675  1.00  0.00     0.029 A 
ATOM     68  N   UNL     1       9.051   4.615   9.427  1.00  0.00    -0.354 N 
ATOM     69  N   UNL     1      12.118   2.997   7.056  1.00  0.00    -0.248 NA
ATOM     70  C   UNL     1      12.481   2.515   9.309  1.00  0.00     0.031 C 
ATOM     71  C   UNL     1       7.837   5.095   7.673  1.00  0.00     0.029 A 
ATOM     72  C   UNL     1       9.149   4.849   8.077  1.00  0.00     0.049 A 
ATOM     73  H   UNL     1       9.740   4.807  10.103  1.00  0.00     0.167 HD
ATOM     74  C   UNL     1      11.425   3.921   7.817  1.00  0.00     0.074 A 
ATOM     75  C   UNL     1      11.847   3.683   9.185  1.00  0.00     0.031 C 
ATOM     76  C   UNL     1      10.342   4.573   7.310  1.00  0.00     0.037 A 
BRANCH  63  77
ATOM     77  C   UNL     1       7.869   3.449  12.137  1.00  0.00     0.064 A 
ATOM     78  C   UNL     1       7.347   4.656  12.637  1.00  0.00     0.173 A 
ATOM     79  C   UNL     1       8.721   2.731  12.998  1.00  0.00     0.173 A 
ATOM     80  F   UNL     1       6.580   5.438  11.863  1.00  0.00    -0.203 F 
ATOM     81  C   UNL     1       7.640   5.101  13.928  1.00  0.00     0.198 A 
ATOM     82  C   UNL     1       8.984   3.159  14.299  1.00  0.00     0.198 A 
ATOM     83  F   UNL     1       9.368   1.637  12.568  1.00  0.00    -0.203 F 
ATOM     84  F   UNL     1       7.163   6.280  14.352  1.00  0.00    -0.200 F 
ATOM     85  C   UNL     1       8.448   4.348  14.762  1.00  0.00     0.200 A 
ATOM     86  F   UNL     1       9.794   2.437  15.085  1.00  0.00    -0.200 F 
ATOM     87  F   UNL     1       8.738   4.780  15.996  1.00  0.00    -0.200 F 
ENDBRANCH  63  77
BRANCH  64  88
ATOM     88  C   UNL     1      14.230   0.146   7.759  1.00  0.00     0.064 A 
ATOM     89  C   UNL     1      15.373   0.946   7.620  1.00  0.00     0.173 A 
ATOM     90  C   UNL     1      14.427  -1.146   8.287  1.00  0.00     0.173 A 
ATOM     91  F   UNL     1      15.265   2.208   7.182  1.00  0.00    -0.203 F 
ATOM     92  C   UNL     1      16.640   0.478   7.981  1.00  0.00     0.198 A 
ATOM     93  C   UNL     1      15.693  -1.619   8.629  1.00  0.00     0.198 A 
ATOM     94  F   UNL     1      13.383  -1.944   8.556  1.00  0.00    -0.203 F 
ATOM     95  F   UNL     1      17.704   1.287   7.881  1.00  0.00    -0.200 F 
ATOM     96  C   UNL     1      16.799  -0.804   8.483  1.00  0.00     0.200 A 
ATOM     97  F   UNL     1      15.826  -2.848   9.147  1.00  0.00    -0.200 F 
ATOM     98  F   UNL     1      18.009  -1.239   8.860  1.00  0.00    -0.200 F 
ENDBRANCH  64  88
BRANCH  76  99
ATOM     99  C   UNL     1      10.238   4.660   5.820  1.00  0.00     0.064 A 
ATOM    100  C   UNL     1       9.980   3.546   5.005  1.00  0.00     0.173 A 
ATOM    101  C   UNL     1      10.289   5.920   5.210  1.00  0.00     0.173 A 
ATOM    102  F   UNL     1       9.818   2.329   5.540  1.00  0.00    -0.203 F 
ATOM    103  C   UNL     1       9.837   3.685   3.627  1.00  0.00     0.198 A 
ATOM    104  C   UNL     1      10.113   6.059   3.836  1.00  0.00     0.198 A 
ATOM    105  F   UNL     1      10.468   7.023   5.955  1.00  0.00    -0.203 F 
ATOM    106  F   UNL     1       9.607   2.607   2.863  1.00  0.00    -0.200 F 
ATOM    107  C   UNL     1       9.900   4.941   3.044  1.00  0.00     0.200 A 
ATOM    108  F   UNL     1      10.126   7.280   3.281  1.00  0.00    -0.200 F 
ATOM    109  F   UNL     1       9.728   5.079   1.722  1.00  0.00    -0.200 F 
ENDBRANCH  76  99
ENDBRANCH  50  51
ENDBRANCH  42  45
ENDBRANCH  40  41
ENDBRANCH  39  40
ENDBRANCH  38  39
ENDBRANCH  37  38
ENDBRANCH   1  37
TORSDOF 19
