REMARK SMILES O=C(NCCCCCCNC(=O)c1ccccc1NC(=O)c1ccc(N2C(=O)[C@H]3CC=CC[C@H]3C2=O)cc1)c1ccc(-c2c3nc(c(-c4c(F)c(F)c(F)c(F)c4F)c4ccc([nH]4)c(-c4c(F)c(F)c(F)c(F)c4F)c4nc(c(-c5c(F)c(F)c(F)c(F)c5F)c5ccc2[nH]5)C=C4)C=C3)cc1
REMARK SMILES IDX 7 1 6 2 5 3 4 4 3 5 1 6 2 7 39 9 40 10 101 11 41 12 100 13
REMARK SMILES IDX 42 14 43 15 44 16 94 17 45 18 99 19 93 20 95 21 46 22 98 23
REMARK SMILES IDX 92 24 91 25 47 27 79 28 59 29 78 30 60 31 63 32 77 33 96 34
REMARK SMILES IDX 61 35 62 36 76 38 97 39 64 40 48 41 49 42 57 43 50 44 51 45
REMARK SMILES IDX 55 46 58 47 52 48 53 49 56 50 54 51 80 52 81 53 89 54 82 55
REMARK SMILES IDX 83 56 87 57 90 58 84 59 85 60 88 61 86 62 65 63 66 64 74 65
REMARK SMILES IDX 67 66 68 67 72 68 75 69 69 70 70 71 73 72 71 73 8 74 9 75
REMARK SMILES IDX 10 76 11 77 12 79 13 80 14 81 18 82 15 83 17 84 16 85 19 86
REMARK SMILES IDX 20 87 21 89 22 90 23 91 38 92 24 93 37 94 25 95 26 96 27 97
REMARK SMILES IDX 35 98 28 99 29 100 34 101 36 102 30 103 33 104 31 105 32 106
REMARK H PARENT 3 8 95 26 63 37 10 78 19 88
REMARK Flexibility Score: inf
ROOT
ATOM      1  C   UNL     1       4.779  -3.220   2.975  1.00  0.00     0.002 C 
ENDROOT
BRANCH   1   2
ATOM      2  C   UNL     1       4.291  -1.834   3.405  1.00  0.00     0.002 C 
BRANCH   2   3
ATOM      3  C   UNL     1       4.764  -0.673   2.530  1.00  0.00     0.021 C 
BRANCH   3   4
ATOM      4  C   UNL     1       4.472  -0.834   1.043  1.00  0.00     0.116 C 
BRANCH   4   5
ATOM      5  N   UNL     1       3.048  -0.920   0.766  1.00  0.00    -0.352 N 
ATOM      6  O   UNL     1       1.048  -0.235  -0.024  1.00  0.00    -0.269 OA
ATOM      7  C   UNL     1       2.273  -0.132  -0.043  1.00  0.00     0.251 C 
ATOM      8  H   UNL     1       2.572  -1.648   1.227  1.00  0.00     0.163 HD
BRANCH   7   9
ATOM      9  C   UNL     1       2.911   0.860  -0.931  1.00  0.00     0.039 A 
ATOM     10  C   UNL     1       4.017   0.516  -1.715  1.00  0.00     0.014 A 
ATOM     11  C   UNL     1       2.377   2.149  -0.993  1.00  0.00     0.014 A 
ATOM     12  C   UNL     1       4.657   1.490  -2.475  1.00  0.00     0.010 A 
ATOM     13  C   UNL     1       2.976   3.105  -1.812  1.00  0.00     0.010 A 
ATOM     14  C   UNL     1       4.133   2.789  -2.543  1.00  0.00    -0.014 A 
BRANCH  14  15
ATOM     15  C   UNL     1       4.758   3.808  -3.421  1.00  0.00     0.031 A 
ATOM     16  C   UNL     1       5.371   5.046  -2.837  1.00  0.00     0.074 A 
ATOM     17  C   UNL     1       4.721   3.633  -4.754  1.00  0.00     0.049 A 
ATOM     18  N   UNL     1       5.852   6.099  -3.448  1.00  0.00    -0.248 NA
ATOM     19  C   UNL     1       5.439   5.116  -1.371  1.00  0.00     0.031 C 
ATOM     20  C   UNL     1       4.151   2.469  -5.433  1.00  0.00     0.029 A 
ATOM     21  N   UNL     1       5.148   4.441  -5.777  1.00  0.00    -0.354 N 
ATOM     22  C   UNL     1       6.256   6.967  -2.443  1.00  0.00     0.074 A 
ATOM     23  C   UNL     1       5.940   6.329  -1.183  1.00  0.00     0.031 C 
ATOM     24  C   UNL     1       4.262   2.637  -6.758  1.00  0.00     0.029 A 
ATOM     25  C   UNL     1       4.848   3.947  -7.021  1.00  0.00     0.049 A 
ATOM     26  H   UNL     1       5.623   5.291  -5.632  1.00  0.00     0.167 HD
ATOM     27  C   UNL     1       6.839   8.185  -2.567  1.00  0.00     0.037 A 
ATOM     28  C   UNL     1       4.985   4.504  -8.239  1.00  0.00     0.037 A 
ATOM     29  C   UNL     1       7.145   8.807  -3.831  1.00  0.00     0.049 A 
ATOM     30  C   UNL     1       5.587   5.875  -8.354  1.00  0.00     0.074 A 
ATOM     31  C   UNL     1       7.773  10.017  -4.067  1.00  0.00     0.029 A 
ATOM     32  N   UNL     1       6.827   8.273  -5.073  1.00  0.00    -0.354 N 
ATOM     33  N   UNL     1       6.003   6.674  -7.402  1.00  0.00    -0.248 NA
ATOM     34  C   UNL     1       5.740   6.421  -9.708  1.00  0.00     0.031 C 
ATOM     35  C   UNL     1       7.772  10.248  -5.447  1.00  0.00     0.029 A 
ATOM     36  C   UNL     1       7.215   9.146  -6.078  1.00  0.00     0.049 A 
ATOM     37  H   UNL     1       6.391   7.403  -5.219  1.00  0.00     0.167 HD
ATOM     38  C   UNL     1       6.497   7.803  -8.040  1.00  0.00     0.074 A 
ATOM     39  C   UNL     1       6.326   7.586  -9.462  1.00  0.00     0.031 C 
ATOM     40  C   UNL     1       7.050   8.913  -7.492  1.00  0.00     0.037 A 
BRANCH  27  41
ATOM     41  C   UNL     1       7.141   8.941  -1.303  1.00  0.00     0.064 A 
ATOM     42  C   UNL     1       8.113   8.505  -0.388  1.00  0.00     0.173 A 
ATOM     43  C   UNL     1       6.450  10.126  -1.005  1.00  0.00     0.173 A 
ATOM     44  F   UNL     1       8.801   7.377  -0.619  1.00  0.00    -0.203 F 
ATOM     45  C   UNL     1       8.344   9.199   0.798  1.00  0.00     0.198 A 
ATOM     46  C   UNL     1       6.711  10.837   0.164  1.00  0.00     0.198 A 
ATOM     47  F   UNL     1       5.520  10.598  -1.849  1.00  0.00    -0.203 F 
ATOM     48  F   UNL     1       9.228   8.725   1.687  1.00  0.00    -0.200 F 
ATOM     49  C   UNL     1       7.646  10.366   1.071  1.00  0.00     0.200 A 
ATOM     50  F   UNL     1       6.049  11.975   0.415  1.00  0.00    -0.200 F 
ATOM     51  F   UNL     1       7.869  11.030   2.213  1.00  0.00    -0.200 F 
ENDBRANCH  27  41
BRANCH  28  52
ATOM     52  C   UNL     1       4.526   3.749  -9.432  1.00  0.00     0.064 A 
ATOM     53  C   UNL     1       5.444   3.204 -10.339  1.00  0.00     0.173 A 
ATOM     54  C   UNL     1       3.162   3.506  -9.656  1.00  0.00     0.173 A 
ATOM     55  F   UNL     1       6.757   3.421 -10.174  1.00  0.00    -0.203 F 
ATOM     56  C   UNL     1       5.015   2.446 -11.426  1.00  0.00     0.198 A 
ATOM     57  C   UNL     1       2.736   2.724 -10.726  1.00  0.00     0.198 A 
ATOM     58  F   UNL     1       2.245   3.998  -8.810  1.00  0.00    -0.203 F 
ATOM     59  F   UNL     1       5.911   1.955 -12.293  1.00  0.00    -0.200 F 
ATOM     60  C   UNL     1       3.663   2.197 -11.613  1.00  0.00     0.200 A 
ATOM     61  F   UNL     1       1.431   2.469 -10.889  1.00  0.00    -0.200 F 
ATOM     62  F   UNL     1       3.253   1.450 -12.646  1.00  0.00    -0.200 F 
ENDBRANCH  28  52
BRANCH  40  63
ATOM     63  C   UNL     1       7.571   9.966  -8.428  1.00  0.00     0.064 A 
ATOM     64  C   UNL     1       6.714  10.806  -9.152  1.00  0.00     0.173 A 
ATOM     65  C   UNL     1       8.953  10.188  -8.532  1.00  0.00     0.173 A 
ATOM     66  F   UNL     1       5.386  10.624  -9.101  1.00  0.00    -0.203 F 
ATOM     67  C   UNL     1       7.223  11.826  -9.953  1.00  0.00     0.198 A 
ATOM     68  C   UNL     1       9.456  11.228  -9.308  1.00  0.00     0.198 A 
ATOM     69  F   UNL     1       9.816   9.414  -7.857  1.00  0.00    -0.203 F 
ATOM     70  F   UNL     1       6.388  12.599 -10.662  1.00  0.00    -0.200 F 
ATOM     71  C   UNL     1       8.591  12.044 -10.020  1.00  0.00     0.200 A 
ATOM     72  F   UNL     1      10.778  11.446  -9.358  1.00  0.00    -0.200 F 
ATOM     73  F   UNL     1       9.077  13.042 -10.772  1.00  0.00    -0.200 F 
ENDBRANCH  40  63
ENDBRANCH  14  15
ENDBRANCH   7   9
ENDBRANCH   4   5
ENDBRANCH   3   4
ENDBRANCH   2   3
ENDBRANCH   1   2
BRANCH   1  74
ATOM     74  C   UNL     1       6.298  -3.373   2.825  1.00  0.00     0.021 C 
BRANCH  74  75
ATOM     75  C   UNL     1       7.108  -2.972   4.054  1.00  0.00     0.116 C 
BRANCH  75  76
ATOM     76  N   UNL     1       6.748  -3.762   5.218  1.00  0.00    -0.352 N 
ATOM     77  C   UNL     1       7.546  -4.481   6.066  1.00  0.00     0.253 C 
ATOM     78  H   UNL     1       5.786  -3.783   5.429  1.00  0.00     0.163 HD
ATOM     79  O   UNL     1       7.035  -5.253   6.873  1.00  0.00    -0.269 OA
BRANCH  77  80
ATOM     80  C   UNL     1       9.017  -4.335   6.038  1.00  0.00     0.063 A 
ATOM     81  C   UNL     1       9.746  -5.528   5.905  1.00  0.00     0.016 A 
ATOM     82  C   UNL     1       9.674  -3.098   6.216  1.00  0.00     0.054 A 
ATOM     83  C   UNL     1      11.136  -5.508   5.952  1.00  0.00     0.001 A 
ATOM     84  C   UNL     1      11.065  -3.122   6.350  1.00  0.00     0.027 A 
ATOM     85  C   UNL     1      11.793  -4.309   6.196  1.00  0.00     0.002 A 
BRANCH  82  86
ATOM     86  N   UNL     1       8.908  -1.907   6.257  1.00  0.00    -0.321 N 
ATOM     87  C   UNL     1       9.201  -0.579   6.043  1.00  0.00     0.255 C 
ATOM     88  H   UNL     1       7.964  -2.062   6.488  1.00  0.00     0.170 HD
ATOM     89  O   UNL     1       8.307   0.263   6.103  1.00  0.00    -0.269 OA
BRANCH  87  90
ATOM     90  C   UNL     1      10.561  -0.124   5.725  1.00  0.00     0.040 A 
ATOM     91  C   UNL     1      11.192   0.698   6.655  1.00  0.00     0.016 A 
ATOM     92  C   UNL     1      11.237  -0.546   4.578  1.00  0.00     0.016 A 
ATOM     93  C   UNL     1      12.552   0.971   6.518  1.00  0.00     0.027 A 
ATOM     94  C   UNL     1      12.600  -0.254   4.441  1.00  0.00     0.027 A 
ATOM     95  C   UNL     1      13.290   0.453   5.443  1.00  0.00     0.052 A 
BRANCH  95  96
ATOM     96  N   UNL     1      14.709   0.550   5.422  1.00  0.00    -0.250 N 
ATOM     97  C   UNL     1      15.485   0.594   6.558  1.00  0.00     0.238 C 
ATOM     98  C   UNL     1      15.471   0.521   4.281  1.00  0.00     0.238 C 
ATOM     99  O   UNL     1      15.119   0.622   7.728  1.00  0.00    -0.274 OA
ATOM    100  C   UNL     1      16.945   0.548   6.174  1.00  0.00     0.096 C 
ATOM    101  C   UNL     1      16.931   0.435   4.650  1.00  0.00     0.096 C 
ATOM    102  O   UNL     1      15.090   0.584   3.118  1.00  0.00    -0.274 OA
ATOM    103  C   UNL     1      17.642  -0.598   6.916  1.00  0.00     0.041 C 
ATOM    104  C   UNL     1      17.517  -0.853   4.060  1.00  0.00     0.041 C 
ATOM    105  C   UNL     1      17.386  -1.931   6.277  1.00  0.00    -0.030 C 
ATOM    106  C   UNL     1      17.321  -2.048   4.945  1.00  0.00    -0.030 C 
ENDBRANCH  95  96
ENDBRANCH  87  90
ENDBRANCH  82  86
ENDBRANCH  77  80
ENDBRANCH  75  76
ENDBRANCH  74  75
ENDBRANCH   1  74
TORSDOF 16
