REMARK SMILES O=C(NCCCCCCNC(=O)[C@H]1CS[C@]2(c3ccccc3)CCC(=O)N12)c1ccc(-c2c3nc(c(-c4c(F)c(F)c(F)c(F)c4F)c4ccc([nH]4)c(-c4c(F)c(F)c(F)c(F)c4F)c4nc(c(-c5c(F)c(F)c(F)c(F)c5F)c5ccc2[nH]5)C=C4)C=C3)cc1
REMARK SMILES IDX 6 1 5 2 4 3 3 4 1 5 2 6 28 8 29 9 90 10 30 11 89 12 31 13
REMARK SMILES IDX 32 14 33 15 83 16 34 17 88 18 82 19 84 20 35 21 87 22 81 23
REMARK SMILES IDX 80 24 36 26 68 27 48 28 67 29 49 30 52 31 66 32 85 33 50 34
REMARK SMILES IDX 51 35 65 37 86 38 53 39 37 40 38 41 46 42 39 43 40 44 44 45
REMARK SMILES IDX 47 46 41 47 42 48 45 49 43 50 69 51 70 52 78 53 71 54 72 55
REMARK SMILES IDX 76 56 79 57 73 58 74 59 77 60 75 61 54 62 55 63 63 64 56 65
REMARK SMILES IDX 57 66 61 67 64 68 58 69 59 70 62 71 60 72 7 73 8 74 9 75
REMARK SMILES IDX 10 76 11 77 12 79 13 80 14 81 27 82 15 83 16 84 25 85 23 86
REMARK SMILES IDX 24 87 26 88 17 89 18 90 22 91 19 92 21 93 20 94
REMARK H PARENT 3 7 84 25 52 36 10 78
REMARK Flexibility Score: inf
ROOT
ATOM      1  C   UNL     1       8.042  11.407  -2.188  1.00  0.00     0.002 C 
ENDROOT
BRANCH   1   2
ATOM      2  C   UNL     1       7.042  12.365  -1.539  1.00  0.00     0.021 C 
BRANCH   2   3
ATOM      3  C   UNL     1       7.606  13.724  -1.148  1.00  0.00     0.116 C 
BRANCH   3   4
ATOM      4  N   UNL     1       7.965  14.531  -2.301  1.00  0.00    -0.352 N 
ATOM      5  O   UNL     1       7.849  16.285  -3.715  1.00  0.00    -0.269 OA
ATOM      6  C   UNL     1       7.575  15.809  -2.618  1.00  0.00     0.251 C 
ATOM      7  H   UNL     1       8.573  14.101  -2.946  1.00  0.00     0.163 HD
BRANCH   6   8
ATOM      8  C   UNL     1       6.806  16.612  -1.641  1.00  0.00     0.039 A 
ATOM      9  C   UNL     1       7.185  16.664  -0.296  1.00  0.00     0.014 A 
ATOM     10  C   UNL     1       5.711  17.357  -2.089  1.00  0.00     0.014 A 
ATOM     11  C   UNL     1       6.411  17.375   0.616  1.00  0.00     0.010 A 
ATOM     12  C   UNL     1       4.976  18.128  -1.185  1.00  0.00     0.010 A 
ATOM     13  C   UNL     1       5.313  18.133   0.177  1.00  0.00    -0.014 A 
BRANCH  13  14
ATOM     14  C   UNL     1       4.603  19.008   1.142  1.00  0.00     0.031 A 
ATOM     15  C   UNL     1       3.181  18.743   1.541  1.00  0.00     0.074 A 
ATOM     16  C   UNL     1       5.272  20.056   1.662  1.00  0.00     0.049 A 
ATOM     17  N   UNL     1       2.423  19.411   2.375  1.00  0.00    -0.248 NA
ATOM     18  C   UNL     1       2.517  17.586   0.923  1.00  0.00     0.031 C 
ATOM     19  C   UNL     1       6.649  20.424   1.324  1.00  0.00     0.029 A 
ATOM     20  N   UNL     1       4.894  20.998   2.584  1.00  0.00    -0.354 N 
ATOM     21  C   UNL     1       1.192  18.770   2.371  1.00  0.00     0.074 A 
ATOM     22  C   UNL     1       1.296  17.666   1.438  1.00  0.00     0.031 C 
ATOM     23  C   UNL     1       7.011  21.490   2.052  1.00  0.00     0.029 A 
ATOM     24  C   UNL     1       5.878  21.913   2.866  1.00  0.00     0.049 A 
ATOM     25  H   UNL     1       4.003  21.016   3.003  1.00  0.00     0.167 HD
ATOM     26  C   UNL     1       0.083  19.075   3.086  1.00  0.00     0.037 A 
ATOM     27  C   UNL     1       5.865  22.986   3.676  1.00  0.00     0.037 A 
ATOM     28  C   UNL     1      -0.004  20.161   4.030  1.00  0.00     0.049 A 
ATOM     29  C   UNL     1       4.617  23.300   4.449  1.00  0.00     0.074 A 
ATOM     30  C   UNL     1      -1.065  20.509   4.849  1.00  0.00     0.029 A 
ATOM     31  N   UNL     1       1.008  21.077   4.277  1.00  0.00    -0.354 N 
ATOM     32  N   UNL     1       3.479  22.652   4.476  1.00  0.00    -0.248 NA
ATOM     33  C   UNL     1       4.651  24.496   5.301  1.00  0.00     0.031 C 
ATOM     34  C   UNL     1      -0.711  21.661   5.559  1.00  0.00     0.029 A 
ATOM     35  C   UNL     1       0.585  22.007   5.214  1.00  0.00     0.049 A 
ATOM     36  H   UNL     1       1.894  21.069   3.849  1.00  0.00     0.167 HD
ATOM     37  C   UNL     1       2.663  23.354   5.350  1.00  0.00     0.074 A 
ATOM     38  C   UNL     1       3.447  24.463   5.854  1.00  0.00     0.031 C 
ATOM     39  C   UNL     1       1.377  23.107   5.698  1.00  0.00     0.037 A 
BRANCH  26  40
ATOM     40  C   UNL     1      -1.142  18.234   2.882  1.00  0.00     0.064 A 
ATOM     41  C   UNL     1      -1.246  16.945   3.422  1.00  0.00     0.173 A 
ATOM     42  C   UNL     1      -2.259  18.761   2.216  1.00  0.00     0.173 A 
ATOM     43  F   UNL     1      -0.203  16.394   4.062  1.00  0.00    -0.203 F 
ATOM     44  C   UNL     1      -2.423  16.210   3.297  1.00  0.00     0.198 A 
ATOM     45  C   UNL     1      -3.440  18.031   2.110  1.00  0.00     0.198 A 
ATOM     46  F   UNL     1      -2.212  19.993   1.687  1.00  0.00    -0.203 F 
ATOM     47  F   UNL     1      -2.495  14.971   3.804  1.00  0.00    -0.200 F 
ATOM     48  C   UNL     1      -3.521  16.757   2.649  1.00  0.00     0.200 A 
ATOM     49  F   UNL     1      -4.504  18.566   1.494  1.00  0.00    -0.200 F 
ATOM     50  F   UNL     1      -4.658  16.054   2.545  1.00  0.00    -0.200 F 
ENDBRANCH  26  40
BRANCH  27  51
ATOM     51  C   UNL     1       7.071  23.846   3.783  1.00  0.00     0.064 A 
ATOM     52  C   UNL     1       7.828  23.886   4.961  1.00  0.00     0.173 A 
ATOM     53  C   UNL     1       7.492  24.640   2.707  1.00  0.00     0.173 A 
ATOM     54  F   UNL     1       7.452  23.159   6.024  1.00  0.00    -0.203 F 
ATOM     55  C   UNL     1       8.952  24.703   5.064  1.00  0.00     0.198 A 
ATOM     56  C   UNL     1       8.632  25.434   2.801  1.00  0.00     0.198 A 
ATOM     57  F   UNL     1       6.803  24.633   1.556  1.00  0.00    -0.203 F 
ATOM     58  F   UNL     1       9.634  24.756   6.216  1.00  0.00    -0.200 F 
ATOM     59  C   UNL     1       9.357  25.471   3.983  1.00  0.00     0.200 A 
ATOM     60  F   UNL     1       9.028  26.162   1.748  1.00  0.00    -0.200 F 
ATOM     61  F   UNL     1      10.441  26.252   4.081  1.00  0.00    -0.200 F 
ENDBRANCH  27  51
BRANCH  39  62
ATOM     62  C   UNL     1       0.747  24.053   6.675  1.00  0.00     0.064 A 
ATOM     63  C   UNL     1       0.366  25.348   6.295  1.00  0.00     0.173 A 
ATOM     64  C   UNL     1       0.505  23.655   7.998  1.00  0.00     0.173 A 
ATOM     65  F   UNL     1       0.594  25.778   5.045  1.00  0.00    -0.203 F 
ATOM     66  C   UNL     1      -0.213  26.220   7.212  1.00  0.00     0.198 A 
ATOM     67  C   UNL     1      -0.097  24.521   8.905  1.00  0.00     0.198 A 
ATOM     68  F   UNL     1       0.850  22.425   8.408  1.00  0.00    -0.203 F 
ATOM     69  F   UNL     1      -0.527  27.468   6.840  1.00  0.00    -0.200 F 
ATOM     70  C   UNL     1      -0.449  25.804   8.514  1.00  0.00     0.200 A 
ATOM     71  F   UNL     1      -0.333  24.116  10.161  1.00  0.00    -0.200 F 
ATOM     72  F   UNL     1      -1.007  26.645   9.396  1.00  0.00    -0.200 F 
ENDBRANCH  39  62
ENDBRANCH  13  14
ENDBRANCH   6   8
ENDBRANCH   3   4
ENDBRANCH   2   3
ENDBRANCH   1   2
BRANCH   1  73
ATOM     73  C   UNL     1       9.312  11.119  -1.382  1.00  0.00     0.002 C 
BRANCH  73  74
ATOM     74  C   UNL     1       9.110  10.715   0.085  1.00  0.00     0.021 C 
BRANCH  74  75
ATOM     75  C   UNL     1       8.157   9.545   0.316  1.00  0.00     0.116 C 
BRANCH  75  76
ATOM     76  N   UNL     1       8.652   8.315  -0.263  1.00  0.00    -0.354 N 
ATOM     77  C   UNL     1       8.983   7.129   0.318  1.00  0.00     0.243 C 
ATOM     78  H   UNL     1       8.769   8.339  -1.240  1.00  0.00     0.163 HD
ATOM     79  O   UNL     1       9.277   6.214  -0.455  1.00  0.00    -0.273 OA
BRANCH  77  80
ATOM     80  C   UNL     1       9.025   6.964   1.854  1.00  0.00     0.186 C 
ATOM     81  C   UNL     1       8.601   5.552   2.291  1.00  0.00     0.107 C 
ATOM     82  N   UNL     1      10.326   7.278   2.476  1.00  0.00    -0.311 N 
ATOM     83  S   UNL     1       9.663   5.104   3.705  1.00  0.00    -0.126 SA
ATOM     84  C   UNL     1      11.037   6.194   3.157  1.00  0.00     0.115 C 
ATOM     85  C   UNL     1      10.359   8.464   3.220  1.00  0.00     0.224 C 
ATOM     86  C   UNL     1      11.708   6.911   4.348  1.00  0.00     0.055 C 
ATOM     87  C   UNL     1      10.912   8.170   4.582  1.00  0.00     0.104 C 
ATOM     88  O   UNL     1       9.827   9.524   2.925  1.00  0.00    -0.275 OA
BRANCH  84  89
ATOM     89  C   UNL     1      12.060   5.399   2.318  1.00  0.00    -0.012 A 
ATOM     90  C   UNL     1      11.749   4.859   1.060  1.00  0.00     0.007 A 
ATOM     91  C   UNL     1      13.356   5.106   2.800  1.00  0.00     0.007 A 
ATOM     92  C   UNL     1      12.671   4.120   0.307  1.00  0.00     0.000 A 
ATOM     93  C   UNL     1      14.290   4.381   2.047  1.00  0.00     0.000 A 
ATOM     94  C   UNL     1      13.948   3.891   0.795  1.00  0.00     0.000 A 
ENDBRANCH  84  89
ENDBRANCH  77  80
ENDBRANCH  75  76
ENDBRANCH  74  75
ENDBRANCH  73  74
ENDBRANCH   1  73
TORSDOF 14
