REMARK SMILES CCc1n[nH]c(C(=O)N[C@@]2(C(=O)NCCCCCCNC(=O)c3ccc(-c4c5nc(c(-c6c(F)c(F)c(F)c(F)c6F)c6ccc([nH]6)c(-c6c(F)c(F)c(F)c(F)c6F)c6nc(c(-c7c(F)c(F)c(F)c(F)c7F)c7ccc4[nH]7)C=C6)C=C5)cc3)CCCC[C@H]2C)n1
REMARK SMILES IDX 16 1 15 2 14 3 13 4 11 5 12 6 10 8 86 9 90 10 87 11 89 12
REMARK SMILES IDX 91 13 88 14 9 15 7 16 8 17 6 19 3 20 4 21 92 22 5 23 2 25
REMARK SMILES IDX 1 26 17 27 18 28 19 29 20 30 21 31 22 33 23 34 24 35 85 36
REMARK SMILES IDX 25 37 84 38 26 39 27 40 28 41 78 42 29 43 83 44 77 45 79 46
REMARK SMILES IDX 30 47 82 48 76 49 75 50 31 52 63 53 43 54 62 55 44 56 47 57
REMARK SMILES IDX 61 58 80 59 45 60 46 61 60 63 81 64 48 65 32 66 33 67 41 68
REMARK SMILES IDX 34 69 35 70 39 71 42 72 36 73 37 74 40 75 38 76 64 77 65 78
REMARK SMILES IDX 73 79 66 80 67 81 71 82 74 83 68 84 69 85 72 86 70 87 49 88
REMARK SMILES IDX 50 89 58 90 51 91 52 92 56 93 59 94 53 95 54 96 57 97 55 98
REMARK H PARENT 13 7 9 18 5 24 20 32 79 51 47 62
REMARK Flexibility Score: inf
ROOT
ATOM      1  C   UNL     1      -5.556   4.304  -3.184  1.00  0.00     0.002 C 
ENDROOT
BRANCH   1   2
ATOM      2  C   UNL     1      -5.013   3.933  -1.808  1.00  0.00     0.021 C 
BRANCH   2   3
ATOM      3  C   UNL     1      -3.496   3.895  -1.718  1.00  0.00     0.116 C 
BRANCH   3   4
ATOM      4  N   UNL     1      -2.871   5.203  -1.668  1.00  0.00    -0.354 N 
ATOM      5  C   UNL     1      -1.837   5.644  -0.881  1.00  0.00     0.246 C 
ATOM      6  O   UNL     1      -1.416   6.788  -1.089  1.00  0.00    -0.272 OA
ATOM      7  H   UNL     1      -3.243   5.871  -2.288  1.00  0.00     0.163 HD
BRANCH   5   8
ATOM      8  C   UNL     1      -1.250   4.763   0.295  1.00  0.00     0.122 C 
ATOM      9  C   UNL     1      -0.783   3.421  -0.313  1.00  0.00     0.039 C 
ATOM     10  C   UNL     1      -2.381   4.684   1.365  1.00  0.00     0.021 C 
ATOM     11  C   UNL     1      -1.375   2.132   0.275  1.00  0.00     0.003 C 
ATOM     12  C   UNL     1      -2.167   3.528   2.326  1.00  0.00     0.006 C 
ATOM     13  C   UNL     1      -2.623   6.001   2.120  1.00  0.00     0.011 C 
ATOM     14  C   UNL     1      -2.170   2.201   1.581  1.00  0.00     0.000 C 
BRANCH   8  15
ATOM     15  N   UNL     1      -0.090   5.563   0.811  1.00  0.00    -0.335 N 
ATOM     16  C   UNL     1       1.028   5.340   1.582  1.00  0.00     0.289 C 
ATOM     17  O   UNL     1       1.696   6.334   1.876  1.00  0.00    -0.266 OA
ATOM     18  H   UNL     1      -0.143   6.502   0.519  1.00  0.00     0.165 HD
BRANCH  16  19
ATOM     19  C   UNL     1       1.482   4.022   1.971  1.00  0.00     0.214 A 
ATOM     20  C   UNL     1       1.806   1.938   2.203  1.00  0.00     0.151 A 
ATOM     21  N   UNL     1       2.995   2.452   2.531  1.00  0.00    -0.158 NA
ATOM     22  N   UNL     1       0.847   2.872   1.916  1.00  0.00    -0.207 NA
ATOM     23  N   UNL     1       2.754   3.773   2.413  1.00  0.00    -0.255 N 
ATOM     24  H   UNL     1       3.413   4.475   2.620  1.00  0.00     0.192 HD
BRANCH  20  25
ATOM     25  C   UNL     1       1.540   0.482   2.056  1.00  0.00     0.076 C 
ATOM     26  C   UNL     1       1.851  -0.024   0.651  1.00  0.00     0.012 C 
ENDBRANCH  20  25
ENDBRANCH  16  19
ENDBRANCH   8  15
ENDBRANCH   5   8
ENDBRANCH   3   4
ENDBRANCH   2   3
ENDBRANCH   1   2
BRANCH   1  27
ATOM     27  C   UNL     1      -5.054   3.435  -4.343  1.00  0.00     0.002 C 
BRANCH  27  28
ATOM     28  C   UNL     1      -5.225   1.923  -4.168  1.00  0.00     0.021 C 
BRANCH  28  29
ATOM     29  C   UNL     1      -6.645   1.458  -3.863  1.00  0.00     0.116 C 
BRANCH  29  30
ATOM     30  N   UNL     1      -7.595   1.875  -4.878  1.00  0.00    -0.352 N 
ATOM     31  C   UNL     1      -8.521   1.141  -5.575  1.00  0.00     0.251 C 
ATOM     32  H   UNL     1      -7.571   2.834  -5.101  1.00  0.00     0.163 HD
ATOM     33  O   UNL     1      -9.120   1.651  -6.516  1.00  0.00    -0.269 OA
BRANCH  31  34
ATOM     34  C   UNL     1      -8.791  -0.266  -5.210  1.00  0.00     0.039 A 
ATOM     35  C   UNL     1      -8.971  -1.198  -6.236  1.00  0.00     0.014 A 
ATOM     36  C   UNL     1      -8.911  -0.664  -3.875  1.00  0.00     0.014 A 
ATOM     37  C   UNL     1      -9.234  -2.533  -5.924  1.00  0.00     0.010 A 
ATOM     38  C   UNL     1      -9.097  -2.010  -3.564  1.00  0.00     0.010 A 
ATOM     39  C   UNL     1      -9.278  -2.955  -4.585  1.00  0.00    -0.014 A 
BRANCH  39  40
ATOM     40  C   UNL     1      -9.545  -4.375  -4.243  1.00  0.00     0.031 A 
ATOM     41  C   UNL     1     -10.798  -4.751  -3.501  1.00  0.00     0.074 A 
ATOM     42  C   UNL     1      -8.645  -5.322  -4.570  1.00  0.00     0.049 A 
ATOM     43  N   UNL     1     -11.198  -5.929  -3.092  1.00  0.00    -0.248 NA
ATOM     44  C   UNL     1     -11.712  -3.653  -3.148  1.00  0.00     0.031 C 
ATOM     45  C   UNL     1      -7.372  -5.078  -5.250  1.00  0.00     0.029 A 
ATOM     46  N   UNL     1      -8.661  -6.679  -4.371  1.00  0.00    -0.354 N 
ATOM     47  C   UNL     1     -12.399  -5.711  -2.428  1.00  0.00     0.074 A 
ATOM     48  C   UNL     1     -12.632  -4.284  -2.433  1.00  0.00     0.031 C 
ATOM     49  C   UNL     1      -6.744  -6.249  -5.439  1.00  0.00     0.029 A 
ATOM     50  C   UNL     1      -7.551  -7.321  -4.863  1.00  0.00     0.049 A 
ATOM     51  H   UNL     1      -9.399  -7.149  -3.919  1.00  0.00     0.167 HD
ATOM     52  C   UNL     1     -13.245  -6.621  -1.888  1.00  0.00     0.037 A 
ATOM     53  C   UNL     1      -7.222  -8.627  -4.850  1.00  0.00     0.037 A 
ATOM     54  C   UNL     1     -13.020  -8.043  -1.904  1.00  0.00     0.049 A 
ATOM     55  C   UNL     1      -8.176  -9.617  -4.236  1.00  0.00     0.074 A 
ATOM     56  C   UNL     1     -13.838  -9.053  -1.429  1.00  0.00     0.029 A 
ATOM     57  N   UNL     1     -11.888  -8.657  -2.422  1.00  0.00    -0.354 N 
ATOM     58  N   UNL     1      -9.341  -9.407  -3.673  1.00  0.00    -0.248 NA
ATOM     59  C   UNL     1      -7.772 -11.030  -4.268  1.00  0.00     0.031 C 
ATOM     60  C   UNL     1     -13.180 -10.273  -1.613  1.00  0.00     0.029 A 
ATOM     61  C   UNL     1     -11.978 -10.030  -2.258  1.00  0.00     0.049 A 
ATOM     62  H   UNL     1     -11.133  -8.186  -2.843  1.00  0.00     0.167 HD
ATOM     63  C   UNL     1      -9.824 -10.659  -3.316  1.00  0.00     0.074 A 
ATOM     64  C   UNL     1      -8.831 -11.624  -3.739  1.00  0.00     0.031 C 
ATOM     65  C   UNL     1     -10.986 -10.980  -2.695  1.00  0.00     0.037 A 
BRANCH  52  66
ATOM     66  C   UNL     1     -14.495  -6.103  -1.235  1.00  0.00     0.064 A 
ATOM     67  C   UNL     1     -15.529  -5.516  -1.983  1.00  0.00     0.173 A 
ATOM     68  C   UNL     1     -14.676  -6.218   0.151  1.00  0.00     0.173 A 
ATOM     69  F   UNL     1     -15.403  -5.371  -3.310  1.00  0.00    -0.203 F 
ATOM     70  C   UNL     1     -16.678  -5.032  -1.363  1.00  0.00     0.198 A 
ATOM     71  C   UNL     1     -15.842  -5.765   0.764  1.00  0.00     0.198 A 
ATOM     72  F   UNL     1     -13.724  -6.777   0.914  1.00  0.00    -0.203 F 
ATOM     73  F   UNL     1     -17.624  -4.423  -2.091  1.00  0.00    -0.200 F 
ATOM     74  C   UNL     1     -16.837  -5.163   0.008  1.00  0.00     0.200 A 
ATOM     75  F   UNL     1     -16.000  -5.905   2.087  1.00  0.00    -0.200 F 
ATOM     76  F   UNL     1     -17.945  -4.702   0.603  1.00  0.00    -0.200 F 
ENDBRANCH  52  66
BRANCH  53  77
ATOM     77  C   UNL     1      -5.947  -9.079  -5.466  1.00  0.00     0.064 A 
ATOM     78  C   UNL     1      -5.947  -9.848  -6.639  1.00  0.00     0.173 A 
ATOM     79  C   UNL     1      -4.706  -8.759  -4.897  1.00  0.00     0.173 A 
ATOM     80  F   UNL     1      -7.109 -10.195  -7.211  1.00  0.00    -0.203 F 
ATOM     81  C   UNL     1      -4.757 -10.300  -7.204  1.00  0.00     0.198 A 
ATOM     82  C   UNL     1      -3.515  -9.187  -5.479  1.00  0.00     0.198 A 
ATOM     83  F   UNL     1      -4.650  -8.021  -3.779  1.00  0.00    -0.203 F 
ATOM     84  F   UNL     1      -4.789 -11.075  -8.296  1.00  0.00    -0.200 F 
ATOM     85  C   UNL     1      -3.541  -9.965  -6.627  1.00  0.00     0.200 A 
ATOM     86  F   UNL     1      -2.342  -8.847  -4.928  1.00  0.00    -0.200 F 
ATOM     87  F   UNL     1      -2.396 -10.398  -7.172  1.00  0.00    -0.200 F 
ENDBRANCH  53  77
BRANCH  65  88
ATOM     88  C   UNL     1     -11.269 -12.439  -2.475  1.00  0.00     0.064 A 
ATOM     89  C   UNL     1     -10.550 -13.201  -1.544  1.00  0.00     0.173 A 
ATOM     90  C   UNL     1     -12.300 -13.073  -3.186  1.00  0.00     0.173 A 
ATOM     91  F   UNL     1      -9.545 -12.647  -0.849  1.00  0.00    -0.203 F 
ATOM     92  C   UNL     1     -10.831 -14.552  -1.356  1.00  0.00     0.198 A 
ATOM     93  C   UNL     1     -12.601 -14.415  -2.970  1.00  0.00     0.198 A 
ATOM     94  F   UNL     1     -13.025 -12.387  -4.083  1.00  0.00    -0.203 F 
ATOM     95  F   UNL     1     -10.093 -15.274  -0.501  1.00  0.00    -0.200 F 
ATOM     96  C   UNL     1     -11.860 -15.155  -2.063  1.00  0.00     0.200 A 
ATOM     97  F   UNL     1     -13.607 -14.991  -3.643  1.00  0.00    -0.200 F 
ATOM     98  F   UNL     1     -12.133 -16.454  -1.875  1.00  0.00    -0.200 F 
ENDBRANCH  65  88
ENDBRANCH  39  40
ENDBRANCH  31  34
ENDBRANCH  29  30
ENDBRANCH  28  29
ENDBRANCH  27  28
ENDBRANCH   1  27
TORSDOF 16
