REMARK SMILES Cc1ccc(-n2cnnn2)cc1OCC(=O)NCCCCCCNC(=O)c1ccc(-c2c3nc(c(-c4c(F)c(F)c(F)c(F)c4F)c4ccc([nH]4)c(-c4c(F)c(F)c(F)c(F)c4F)c4nc(c(-c5c(F)c(F)c(F)c(F)c5F)c5ccc2[nH]5)C=C4)C=C3)cc1
REMARK SMILES IDX 20 1 19 2 18 3 17 4 15 5 16 6 14 8 13 9 12 10 1 11 2 12 3 13
REMARK SMILES IDX 4 14 11 15 5 16 6 17 7 18 10 19 8 20 9 21 21 22 22 23 23 24
REMARK SMILES IDX 24 25 25 26 26 28 27 29 28 30 89 31 29 32 88 33 30 34 31 35
REMARK SMILES IDX 32 36 82 37 33 38 87 39 81 40 83 41 34 42 86 43 80 44 79 45
REMARK SMILES IDX 35 47 67 48 47 49 66 50 48 51 51 52 65 53 84 54 49 55 50 56
REMARK SMILES IDX 64 58 85 59 52 60 36 61 37 62 45 63 38 64 39 65 43 66 46 67
REMARK SMILES IDX 40 68 41 69 44 70 42 71 68 72 69 73 77 74 70 75 71 76 75 77
REMARK SMILES IDX 78 78 72 79 73 80 76 81 74 82 53 83 54 84 62 85 55 86 56 87
REMARK SMILES IDX 60 88 63 89 57 90 58 91 61 92 59 93
REMARK H PARENT 17 7 24 27 83 46 51 57
REMARK Flexibility Score: inf
ROOT
ATOM      1  C   UNL     1       1.039   2.578   4.945  1.00  0.00     0.002 C 
ENDROOT
BRANCH   1   2
ATOM      2  C   UNL     1       0.528   3.034   3.571  1.00  0.00     0.021 C 
BRANCH   2   3
ATOM      3  C   UNL     1       1.577   3.459   2.545  1.00  0.00     0.116 C 
BRANCH   3   4
ATOM      4  N   UNL     1       2.588   2.454   2.312  1.00  0.00    -0.353 N 
ATOM      5  C   UNL     1       3.107   2.040   1.121  1.00  0.00     0.257 C 
ATOM      6  O   UNL     1       4.161   1.400   1.139  1.00  0.00    -0.271 OA
ATOM      7  H   UNL     1       2.949   2.013   3.115  1.00  0.00     0.163 HD
BRANCH   5   8
ATOM      8  C   UNL     1       2.428   2.426  -0.200  1.00  0.00     0.329 C 
BRANCH   8   9
ATOM      9  O   UNL     1       1.057   2.175  -0.422  1.00  0.00    -0.483 OA
BRANCH   9  10
ATOM     10  C   UNL     1       0.481   0.946  -0.287  1.00  0.00     0.125 A 
ATOM     11  C   UNL     1       2.506  -0.673  -0.400  1.00  0.00     0.048 C 
ATOM     12  C   UNL     1       1.057  -0.328  -0.210  1.00  0.00    -0.009 A 
ATOM     13  C   UNL     1       0.216  -1.430   0.065  1.00  0.00     0.009 A 
ATOM     14  C   UNL     1      -1.169  -1.300   0.155  1.00  0.00     0.029 A 
ATOM     15  C   UNL     1      -0.926   1.060  -0.257  1.00  0.00     0.075 A 
ATOM     16  C   UNL     1      -1.751  -0.055  -0.059  1.00  0.00     0.072 A 
BRANCH  16  17
ATOM     17  N   UNL     1      -3.159   0.062  -0.086  1.00  0.00    -0.200 N 
ATOM     18  C   UNL     1      -3.938   1.110  -0.508  1.00  0.00     0.252 A 
ATOM     19  N   UNL     1      -3.985  -0.936   0.303  1.00  0.00    -0.040 NA
ATOM     20  N   UNL     1      -5.205   0.803  -0.351  1.00  0.00    -0.117 NA
ATOM     21  N   UNL     1      -5.217  -0.468   0.160  1.00  0.00    -0.024 NA
ENDBRANCH  16  17
ENDBRANCH   9  10
ENDBRANCH   8   9
ENDBRANCH   5   8
ENDBRANCH   3   4
ENDBRANCH   2   3
ENDBRANCH   1   2
BRANCH   1  22
ATOM     22  C   UNL     1       2.060   3.466   5.673  1.00  0.00     0.002 C 
BRANCH  22  23
ATOM     23  C   UNL     1       1.764   4.964   5.759  1.00  0.00     0.021 C 
BRANCH  23  24
ATOM     24  C   UNL     1       0.473   5.323   6.483  1.00  0.00     0.116 C 
BRANCH  24  25
ATOM     25  N   UNL     1       0.661   6.021   7.748  1.00  0.00    -0.352 N 
ATOM     26  C   UNL     1      -0.290   6.428   8.677  1.00  0.00     0.251 C 
ATOM     27  H   UNL     1       1.594   6.235   7.978  1.00  0.00     0.163 HD
ATOM     28  O   UNL     1       0.036   7.009   9.686  1.00  0.00    -0.269 OA
BRANCH  26  29
ATOM     29  C   UNL     1      -1.706   6.021   8.469  1.00  0.00     0.039 A 
ATOM     30  C   UNL     1      -2.371   5.404   9.534  1.00  0.00     0.014 A 
ATOM     31  C   UNL     1      -2.284   6.054   7.204  1.00  0.00     0.014 A 
ATOM     32  C   UNL     1      -3.481   4.605   9.270  1.00  0.00     0.010 A 
ATOM     33  C   UNL     1      -3.320   5.187   6.921  1.00  0.00     0.010 A 
ATOM     34  C   UNL     1      -3.872   4.411   7.944  1.00  0.00    -0.014 A 
BRANCH  34  35
ATOM     35  C   UNL     1      -4.744   3.320   7.530  1.00  0.00     0.031 A 
ATOM     36  C   UNL     1      -6.148   3.572   7.153  1.00  0.00     0.074 A 
ATOM     37  C   UNL     1      -4.234   2.072   7.433  1.00  0.00     0.049 A 
ATOM     38  N   UNL     1      -7.095   2.706   7.290  1.00  0.00    -0.248 NA
ATOM     39  C   UNL     1      -6.603   4.845   6.603  1.00  0.00     0.031 C 
ATOM     40  C   UNL     1      -4.872   0.897   6.846  1.00  0.00     0.029 A 
ATOM     41  N   UNL     1      -3.072   1.569   8.046  1.00  0.00    -0.354 N 
ATOM     42  C   UNL     1      -8.194   3.186   6.618  1.00  0.00     0.074 A 
ATOM     43  C   UNL     1      -7.860   4.546   6.259  1.00  0.00     0.031 C 
ATOM     44  C   UNL     1      -4.305  -0.204   7.365  1.00  0.00     0.029 A 
ATOM     45  C   UNL     1      -3.374   0.232   8.391  1.00  0.00     0.049 A 
ATOM     46  H   UNL     1      -2.226   2.048   8.201  1.00  0.00     0.167 HD
ATOM     47  C   UNL     1      -9.222   2.345   6.311  1.00  0.00     0.037 A 
ATOM     48  C   UNL     1      -3.388  -0.177   9.692  1.00  0.00     0.037 A 
ATOM     49  C   UNL     1      -8.985   0.997   6.808  1.00  0.00     0.049 A 
ATOM     50  C   UNL     1      -4.728  -0.701  10.154  1.00  0.00     0.074 A 
ATOM     51  C   UNL     1      -8.468  -0.140   6.208  1.00  0.00     0.029 A 
ATOM     52  N   UNL     1      -8.957   0.765   8.179  1.00  0.00    -0.354 N 
ATOM     53  N   UNL     1      -5.847  -0.486   9.520  1.00  0.00    -0.248 NA
ATOM     54  C   UNL     1      -4.920  -1.467  11.382  1.00  0.00     0.031 C 
ATOM     55  C   UNL     1      -8.064  -1.033   7.229  1.00  0.00     0.029 A 
ATOM     56  C   UNL     1      -8.359  -0.451   8.449  1.00  0.00     0.049 A 
ATOM     57  H   UNL     1      -9.312   1.381   8.860  1.00  0.00     0.167 HD
ATOM     58  C   UNL     1      -6.885  -1.031  10.229  1.00  0.00     0.074 A 
ATOM     59  C   UNL     1      -6.253  -1.652  11.377  1.00  0.00     0.031 C 
ATOM     60  C   UNL     1      -8.181  -0.913   9.816  1.00  0.00     0.037 A 
BRANCH  47  61
ATOM     61  C   UNL     1     -10.273   2.713   5.297  1.00  0.00     0.064 A 
ATOM     62  C   UNL     1     -10.717   1.790   4.329  1.00  0.00     0.173 A 
ATOM     63  C   UNL     1     -10.834   3.999   5.204  1.00  0.00     0.173 A 
ATOM     64  F   UNL     1     -10.326   0.510   4.350  1.00  0.00    -0.203 F 
ATOM     65  C   UNL     1     -11.568   2.157   3.284  1.00  0.00     0.198 A 
ATOM     66  C   UNL     1     -11.645   4.380   4.130  1.00  0.00     0.198 A 
ATOM     67  F   UNL     1     -10.614   4.914   6.160  1.00  0.00    -0.203 F 
ATOM     68  F   UNL     1     -11.947   1.240   2.381  1.00  0.00    -0.200 F 
ATOM     69  C   UNL     1     -12.002   3.461   3.163  1.00  0.00     0.200 A 
ATOM     70  F   UNL     1     -12.065   5.650   4.031  1.00  0.00    -0.200 F 
ATOM     71  F   UNL     1     -12.771   3.827   2.128  1.00  0.00    -0.200 F 
ENDBRANCH  47  61
BRANCH  48  72
ATOM     72  C   UNL     1      -2.403   0.541  10.541  1.00  0.00     0.064 A 
ATOM     73  C   UNL     1      -1.035   0.398  10.235  1.00  0.00     0.173 A 
ATOM     74  C   UNL     1      -2.771   1.612  11.363  1.00  0.00     0.173 A 
ATOM     75  F   UNL     1      -0.627  -0.613   9.451  1.00  0.00    -0.203 F 
ATOM     76  C   UNL     1      -0.098   1.350  10.630  1.00  0.00     0.198 A 
ATOM     77  C   UNL     1      -1.825   2.555  11.773  1.00  0.00     0.198 A 
ATOM     78  F   UNL     1      -4.059   1.814  11.678  1.00  0.00    -0.203 F 
ATOM     79  F   UNL     1       1.175   1.244  10.223  1.00  0.00    -0.200 F 
ATOM     80  C   UNL     1      -0.499   2.443  11.376  1.00  0.00     0.200 A 
ATOM     81  F   UNL     1      -2.216   3.625  12.480  1.00  0.00    -0.200 F 
ATOM     82  F   UNL     1       0.381   3.407  11.681  1.00  0.00    -0.200 F 
ENDBRANCH  48  72
BRANCH  60  83
ATOM     83  C   UNL     1      -9.399  -1.300  10.612  1.00  0.00     0.064 A 
ATOM     84  C   UNL     1      -9.477  -1.206  12.010  1.00  0.00     0.173 A 
ATOM     85  C   UNL     1     -10.602  -1.644   9.949  1.00  0.00     0.173 A 
ATOM     86  F   UNL     1      -8.434  -0.786  12.737  1.00  0.00    -0.203 F 
ATOM     87  C   UNL     1     -10.659  -1.487  12.700  1.00  0.00     0.198 A 
ATOM     88  C   UNL     1     -11.792  -1.870  10.637  1.00  0.00     0.198 A 
ATOM     89  F   UNL     1     -10.660  -1.745   8.613  1.00  0.00    -0.203 F 
ATOM     90  F   UNL     1     -10.677  -1.419  14.039  1.00  0.00    -0.200 F 
ATOM     91  C   UNL     1     -11.818  -1.806  12.015  1.00  0.00     0.200 A 
ATOM     92  F   UNL     1     -12.917  -2.129   9.955  1.00  0.00    -0.200 F 
ATOM     93  F   UNL     1     -12.959  -2.030  12.679  1.00  0.00    -0.200 F 
ENDBRANCH  60  83
ENDBRANCH  34  35
ENDBRANCH  26  29
ENDBRANCH  24  25
ENDBRANCH  23  24
ENDBRANCH  22  23
ENDBRANCH   1  22
TORSDOF 16
