REMARK SMILES CC(C)(C)[C@@H]1CC(C(=O)NCCCCCCNC(=O)c2ccc(-c3c4nc(c(-c5c(F)c(F)c(F)c(F)c5F)c5ccc([nH]5)c(-c5c(F)c(F)c(F)c(F)c5F)c5nc(c(-c6c(F)c(F)c(F)c(F)c6F)c6ccc3[nH]6)C=C5)C=C4)cc2)C[C@@H](C(C)(C)C)C1
REMARK SMILES IDX 14 1 13 2 12 3 11 4 10 5 8 6 9 7 7 9 5 10 6 11 89 12 84 13
REMARK SMILES IDX 83 14 2 15 1 16 3 17 4 18 85 19 86 20 87 21 88 22 15 23
REMARK SMILES IDX 16 24 17 25 18 26 19 28 20 29 21 30 82 31 22 32 81 33 23 34
REMARK SMILES IDX 24 35 25 36 75 37 26 38 80 39 74 40 76 41 27 42 79 43 73 44
REMARK SMILES IDX 72 45 28 47 60 48 40 49 59 50 41 51 44 52 58 53 77 54 42 55
REMARK SMILES IDX 43 56 57 58 78 59 45 60 29 61 30 62 38 63 31 64 32 65 36 66
REMARK SMILES IDX 39 67 33 68 34 69 37 70 35 71 61 72 62 73 70 74 63 75 64 76
REMARK SMILES IDX 68 77 71 78 65 79 66 80 69 81 67 82 46 83 47 84 55 85 48 86
REMARK SMILES IDX 49 87 53 88 56 89 50 90 51 91 54 92 52 93
REMARK H PARENT 10 8 17 27 76 46 44 57
REMARK Flexibility Score: inf
ROOT
ATOM      1  C   UNL     1       6.034   3.346   2.333  1.00  0.00     0.002 C 
ENDROOT
BRANCH   1   2
ATOM      2  C   UNL     1       5.917   2.034   1.552  1.00  0.00     0.002 C 
BRANCH   2   3
ATOM      3  C   UNL     1       4.522   1.748   0.990  1.00  0.00     0.021 C 
BRANCH   3   4
ATOM      4  C   UNL     1       3.978   2.869   0.109  1.00  0.00     0.116 C 
BRANCH   4   5
ATOM      5  N   UNL     1       4.740   2.972  -1.121  1.00  0.00    -0.356 N 
ATOM      6  C   UNL     1       4.387   2.732  -2.412  1.00  0.00     0.223 C 
ATOM      7  O   UNL     1       5.269   2.799  -3.271  1.00  0.00    -0.275 OA
ATOM      8  H   UNL     1       5.673   3.264  -1.000  1.00  0.00     0.163 HD
BRANCH   6   9
ATOM      9  C   UNL     1       2.940   2.446  -2.802  1.00  0.00     0.079 C 
ATOM     10  C   UNL     1       0.886   0.937  -2.235  1.00  0.00    -0.005 C 
ATOM     11  C   UNL     1       2.418   1.128  -2.214  1.00  0.00     0.017 C 
ATOM     12  C   UNL     1       0.114   2.255  -1.986  1.00  0.00     0.008 C 
ATOM     13  C   UNL     1       0.598   3.483  -2.793  1.00  0.00    -0.005 C 
ATOM     14  C   UNL     1       2.089   3.679  -2.513  1.00  0.00     0.017 C 
BRANCH  10  15
ATOM     15  C   UNL     1       0.394  -0.268  -1.334  1.00  0.00    -0.035 C 
ATOM     16  C   UNL     1       0.834  -0.154   0.140  1.00  0.00     0.011 C 
ATOM     17  C   UNL     1       0.953  -1.592  -1.901  1.00  0.00     0.011 C 
ATOM     18  C   UNL     1      -1.147  -0.374  -1.355  1.00  0.00     0.011 C 
ENDBRANCH  10  15
BRANCH  13  19
ATOM     19  C   UNL     1       0.143   3.576  -4.305  1.00  0.00    -0.035 C 
ATOM     20  C   UNL     1       0.968   4.627  -5.079  1.00  0.00     0.011 C 
ATOM     21  C   UNL     1       0.212   2.263  -5.100  1.00  0.00     0.011 C 
ATOM     22  C   UNL     1      -1.333   4.042  -4.340  1.00  0.00     0.011 C 
ENDBRANCH  13  19
ENDBRANCH   6   9
ENDBRANCH   4   5
ENDBRANCH   3   4
ENDBRANCH   2   3
ENDBRANCH   1   2
BRANCH   1  23
ATOM     23  C   UNL     1       5.007   3.517   3.454  1.00  0.00     0.021 C 
BRANCH  23  24
ATOM     24  C   UNL     1       5.010   2.391   4.480  1.00  0.00     0.116 C 
BRANCH  24  25
ATOM     25  N   UNL     1       6.288   2.282   5.162  1.00  0.00    -0.352 N 
ATOM     26  C   UNL     1       6.553   2.300   6.506  1.00  0.00     0.251 C 
ATOM     27  H   UNL     1       7.074   2.182   4.577  1.00  0.00     0.163 HD
ATOM     28  O   UNL     1       7.708   2.415   6.912  1.00  0.00    -0.269 OA
BRANCH  26  29
ATOM     29  C   UNL     1       5.439   2.197   7.468  1.00  0.00     0.039 A 
ATOM     30  C   UNL     1       5.414   3.056   8.568  1.00  0.00     0.014 A 
ATOM     31  C   UNL     1       4.421   1.257   7.280  1.00  0.00     0.014 A 
ATOM     32  C   UNL     1       4.337   3.008   9.453  1.00  0.00     0.010 A 
ATOM     33  C   UNL     1       3.311   1.266   8.116  1.00  0.00     0.010 A 
ATOM     34  C   UNL     1       3.262   2.135   9.216  1.00  0.00    -0.014 A 
BRANCH  34  35
ATOM     35  C   UNL     1       2.081   2.111  10.114  1.00  0.00     0.031 A 
ATOM     36  C   UNL     1       1.758   0.872  10.901  1.00  0.00     0.074 A 
ATOM     37  C   UNL     1       1.272   3.185  10.178  1.00  0.00     0.049 A 
ATOM     38  N   UNL     1       0.748   0.637  11.700  1.00  0.00    -0.248 NA
ATOM     39  C   UNL     1       2.678  -0.266  10.748  1.00  0.00     0.031 C 
ATOM     40  C   UNL     1       1.460   4.430   9.432  1.00  0.00     0.029 A 
ATOM     41  N   UNL     1       0.126   3.400  10.901  1.00  0.00    -0.354 N 
ATOM     42  C   UNL     1       0.906  -0.672  12.134  1.00  0.00     0.074 A 
ATOM     43  C   UNL     1       2.071  -1.203  11.460  1.00  0.00     0.031 C 
ATOM     44  C   UNL     1       0.484   5.291   9.762  1.00  0.00     0.029 A 
ATOM     45  C   UNL     1      -0.421   4.645  10.707  1.00  0.00     0.049 A 
ATOM     46  H   UNL     1      -0.267   2.726  11.502  1.00  0.00     0.167 HD
ATOM     47  C   UNL     1       0.164  -1.361  13.034  1.00  0.00     0.037 A 
ATOM     48  C   UNL     1      -1.531   5.198  11.231  1.00  0.00     0.037 A 
ATOM     49  C   UNL     1      -0.988  -0.822  13.710  1.00  0.00     0.049 A 
ATOM     50  C   UNL     1      -2.361   4.398  12.199  1.00  0.00     0.074 A 
ATOM     51  C   UNL     1      -1.779  -1.417  14.676  1.00  0.00     0.029 A 
ATOM     52  N   UNL     1      -1.518   0.440  13.480  1.00  0.00    -0.354 N 
ATOM     53  N   UNL     1      -2.161   3.187  12.659  1.00  0.00    -0.248 NA
ATOM     54  C   UNL     1      -3.570   5.048  12.723  1.00  0.00     0.031 C 
ATOM     55  C   UNL     1      -2.823  -0.539  14.988  1.00  0.00     0.029 A 
ATOM     56  C   UNL     1      -2.645   0.630  14.264  1.00  0.00     0.049 A 
ATOM     57  H   UNL     1      -1.148   1.103  12.854  1.00  0.00     0.167 HD
ATOM     58  C   UNL     1      -3.196   2.942  13.552  1.00  0.00     0.074 A 
ATOM     59  C   UNL     1      -4.014   4.137  13.578  1.00  0.00     0.031 C 
ATOM     60  C   UNL     1      -3.445   1.829  14.286  1.00  0.00     0.037 A 
BRANCH  47  61
ATOM     61  C   UNL     1       0.574  -2.777  13.330  1.00  0.00     0.064 A 
ATOM     62  C   UNL     1       1.776  -3.075  13.992  1.00  0.00     0.173 A 
ATOM     63  C   UNL     1      -0.251  -3.850  12.960  1.00  0.00     0.173 A 
ATOM     64  F   UNL     1       2.608  -2.089  14.360  1.00  0.00    -0.203 F 
ATOM     65  C   UNL     1       2.156  -4.394  14.232  1.00  0.00     0.198 A 
ATOM     66  C   UNL     1       0.114  -5.165  13.235  1.00  0.00     0.198 A 
ATOM     67  F   UNL     1      -1.415  -3.624  12.332  1.00  0.00    -0.203 F 
ATOM     68  F   UNL     1       3.339  -4.654  14.805  1.00  0.00    -0.200 F 
ATOM     69  C   UNL     1       1.322  -5.437  13.859  1.00  0.00     0.200 A 
ATOM     70  F   UNL     1      -0.700  -6.172  12.888  1.00  0.00    -0.200 F 
ATOM     71  F   UNL     1       1.688  -6.705  14.093  1.00  0.00    -0.200 F 
ENDBRANCH  47  61
BRANCH  48  72
ATOM     72  C   UNL     1      -1.905   6.593  10.878  1.00  0.00     0.064 A 
ATOM     73  C   UNL     1      -1.847   7.615  11.836  1.00  0.00     0.173 A 
ATOM     74  C   UNL     1      -2.333   6.935   9.587  1.00  0.00     0.173 A 
ATOM     75  F   UNL     1      -1.462   7.335  13.090  1.00  0.00    -0.203 F 
ATOM     76  C   UNL     1      -2.225   8.919  11.524  1.00  0.00     0.198 A 
ATOM     77  C   UNL     1      -2.681   8.246   9.267  1.00  0.00     0.198 A 
ATOM     78  F   UNL     1      -2.402   5.997   8.631  1.00  0.00    -0.203 F 
ATOM     79  F   UNL     1      -2.207   9.864  12.473  1.00  0.00    -0.200 F 
ATOM     80  C   UNL     1      -2.636   9.235  10.238  1.00  0.00     0.200 A 
ATOM     81  F   UNL     1      -3.062   8.550   8.019  1.00  0.00    -0.200 F 
ATOM     82  F   UNL     1      -2.996  10.489   9.937  1.00  0.00    -0.200 F 
ENDBRANCH  48  72
BRANCH  60  83
ATOM     83  C   UNL     1      -4.626   1.866  15.214  1.00  0.00     0.064 A 
ATOM     84  C   UNL     1      -5.945   1.865  14.735  1.00  0.00     0.173 A 
ATOM     85  C   UNL     1      -4.434   1.868  16.604  1.00  0.00     0.173 A 
ATOM     86  F   UNL     1      -6.184   1.879  13.415  1.00  0.00    -0.203 F 
ATOM     87  C   UNL     1      -7.025   1.894  15.613  1.00  0.00     0.198 A 
ATOM     88  C   UNL     1      -5.516   1.861  17.479  1.00  0.00     0.198 A 
ATOM     89  F   UNL     1      -3.193   1.863  17.116  1.00  0.00    -0.203 F 
ATOM     90  F   UNL     1      -8.275   1.948  15.133  1.00  0.00    -0.200 F 
ATOM     91  C   UNL     1      -6.810   1.883  16.983  1.00  0.00     0.200 A 
ATOM     92  F   UNL     1      -5.306   1.833  18.802  1.00  0.00    -0.200 F 
ATOM     93  F   UNL     1      -7.852   1.902  17.827  1.00  0.00    -0.200 F 
ENDBRANCH  60  83
ENDBRANCH  34  35
ENDBRANCH  26  29
ENDBRANCH  24  25
ENDBRANCH  23  24
ENDBRANCH   1  23
TORSDOF 15
