REMARK SMILES COc1cccc([C@H]2C=C(C(=O)NCCCCCCNC(=O)c3ccc(-c4c5nc(c(-c6c(F)c(F)c(F)c(F)c6F)c6ccc([nH]6)c(-c6c(F)c(F)c(F)c(F)c6F)c6nc(c(-c7c(F)c(F)c(F)c(F)c7F)c7ccc4[nH]7)C=C6)C=C5)cc3)Nc3nnnn32)c1OC
REMARK SMILES IDX 16 1 15 2 14 3 13 4 11 5 12 6 10 8 8 9 9 10 91 11 87 12
REMARK SMILES IDX 90 13 86 14 88 15 89 16 7 18 3 19 4 20 92 21 5 22 6 23 2 24
REMARK SMILES IDX 1 25 93 26 94 27 17 28 18 29 19 30 20 31 21 32 22 34 23 35
REMARK SMILES IDX 24 36 85 37 25 38 84 39 26 40 27 41 28 42 78 43 29 44 83 45
REMARK SMILES IDX 77 46 79 47 30 48 82 49 76 50 75 51 31 53 63 54 43 55 62 56
REMARK SMILES IDX 44 57 47 58 61 59 80 60 45 61 46 62 60 64 81 65 48 66 32 67
REMARK SMILES IDX 33 68 41 69 34 70 35 71 39 72 42 73 36 74 37 75 40 76 38 77
REMARK SMILES IDX 64 78 65 79 73 80 66 81 67 82 71 83 74 84 68 85 69 86 72 87
REMARK SMILES IDX 70 88 49 89 50 90 58 91 51 92 52 93 56 94 59 95 53 96 54 97
REMARK SMILES IDX 57 98 55 99
REMARK H PARENT 13 7 86 17 20 33 79 52 47 63
REMARK Flexibility Score: inf
ROOT
ATOM      1  C   UNL     1       7.342  -0.536   7.120  1.00  0.00     0.002 C 
ENDROOT
BRANCH   1   2
ATOM      2  C   UNL     1       6.733  -1.727   6.384  1.00  0.00     0.021 C 
BRANCH   2   3
ATOM      3  C   UNL     1       5.970  -1.414   5.105  1.00  0.00     0.116 C 
BRANCH   3   4
ATOM      4  N   UNL     1       6.785  -0.862   4.043  1.00  0.00    -0.351 N 
ATOM      5  C   UNL     1       6.787  -1.101   2.700  1.00  0.00     0.267 C 
ATOM      6  O   UNL     1       7.628  -0.535   1.998  1.00  0.00    -0.268 OA
ATOM      7  H   UNL     1       7.451  -0.201   4.341  1.00  0.00     0.163 HD
BRANCH   5   8
ATOM      8  C   UNL     1       5.861  -2.104   2.057  1.00  0.00     0.105 C 
ATOM      9  C   UNL     1       3.847  -3.572   1.912  1.00  0.00     0.172 C 
ATOM     10  C   UNL     1       4.637  -2.421   2.526  1.00  0.00     0.037 C 
ATOM     11  N   UNL     1       4.230  -3.703   0.511  1.00  0.00    -0.200 N 
ATOM     12  C   UNL     1       5.435  -3.283   0.012  1.00  0.00     0.248 A 
ATOM     13  N   UNL     1       3.424  -4.108  -0.484  1.00  0.00    -0.043 NA
ATOM     14  N   UNL     1       6.281  -2.627   0.834  1.00  0.00    -0.319 N 
ATOM     15  N   UNL     1       5.458  -3.568  -1.268  1.00  0.00    -0.090 NA
ATOM     16  N   UNL     1       4.204  -4.081  -1.562  1.00  0.00    -0.022 NA
ATOM     17  H   UNL     1       7.221  -2.514   0.562  1.00  0.00     0.170 HD
BRANCH   9  18
ATOM     18  C   UNL     1       3.996  -4.856   2.772  1.00  0.00     0.027 A 
ATOM     19  C   UNL     1       4.325  -7.260   3.097  1.00  0.00     0.161 A 
ATOM     20  C   UNL     1       3.990  -7.138   4.448  1.00  0.00     0.050 A 
ATOM     21  C   UNL     1       4.389  -6.123   2.269  1.00  0.00     0.166 A 
ATOM     22  C   UNL     1       3.688  -5.889   4.979  1.00  0.00     0.004 A 
ATOM     23  C   UNL     1       3.652  -4.771   4.144  1.00  0.00     0.010 A 
BRANCH  19  24
ATOM     24  O   UNL     1       4.403  -8.527   2.582  1.00  0.00    -0.493 OA
ATOM     25  C   UNL     1       5.667  -9.147   2.793  1.00  0.00     0.278 C 
ENDBRANCH  19  24
BRANCH  21  26
ATOM     26  O   UNL     1       4.900  -6.109   1.007  1.00  0.00    -0.492 OA
ATOM     27  C   UNL     1       4.926  -7.272   0.201  1.00  0.00     0.278 C 
ENDBRANCH  21  26
ENDBRANCH   9  18
ENDBRANCH   5   8
ENDBRANCH   3   4
ENDBRANCH   2   3
ENDBRANCH   1   2
BRANCH   1  28
ATOM     28  C   UNL     1       6.395   0.622   7.439  1.00  0.00     0.002 C 
BRANCH  28  29
ATOM     29  C   UNL     1       5.086   0.257   8.142  1.00  0.00     0.021 C 
BRANCH  29  30
ATOM     30  C   UNL     1       5.224  -0.572   9.413  1.00  0.00     0.116 C 
BRANCH  30  31
ATOM     31  N   UNL     1       5.997   0.098  10.443  1.00  0.00    -0.352 N 
ATOM     32  C   UNL     1       5.684   0.325  11.758  1.00  0.00     0.251 C 
ATOM     33  H   UNL     1       6.874   0.440  10.155  1.00  0.00     0.163 HD
ATOM     34  O   UNL     1       6.407   1.045  12.448  1.00  0.00    -0.269 OA
BRANCH  32  35
ATOM     35  C   UNL     1       4.468  -0.270  12.350  1.00  0.00     0.039 A 
ATOM     36  C   UNL     1       3.661   0.523  13.171  1.00  0.00     0.014 A 
ATOM     37  C   UNL     1       4.127  -1.605  12.114  1.00  0.00     0.014 A 
ATOM     38  C   UNL     1       2.487  -0.005  13.711  1.00  0.00     0.010 A 
ATOM     39  C   UNL     1       2.917  -2.107  12.588  1.00  0.00     0.010 A 
ATOM     40  C   UNL     1       2.090  -1.316  13.399  1.00  0.00    -0.014 A 
BRANCH  40  41
ATOM     41  C   UNL     1       0.822  -1.881  13.928  1.00  0.00     0.031 A 
ATOM     42  C   UNL     1       0.852  -3.049  14.873  1.00  0.00     0.074 A 
ATOM     43  C   UNL     1      -0.357  -1.376  13.518  1.00  0.00     0.049 A 
ATOM     44  N   UNL     1      -0.144  -3.715  15.403  1.00  0.00    -0.248 NA
ATOM     45  C   UNL     1       2.180  -3.555  15.251  1.00  0.00     0.031 C 
ATOM     46  C   UNL     1      -0.520  -0.266  12.578  1.00  0.00     0.029 A 
ATOM     47  N   UNL     1      -1.643  -1.733  13.837  1.00  0.00    -0.354 N 
ATOM     48  C   UNL     1       0.437  -4.718  16.168  1.00  0.00     0.074 A 
ATOM     49  C   UNL     1       1.868  -4.617  15.978  1.00  0.00     0.031 C 
ATOM     50  C   UNL     1      -1.829  -0.009  12.425  1.00  0.00     0.029 A 
ATOM     51  C   UNL     1      -2.598  -0.961  13.222  1.00  0.00     0.049 A 
ATOM     52  H   UNL     1      -1.861  -2.473  14.450  1.00  0.00     0.167 HD
ATOM     53  C   UNL     1      -0.164  -5.623  16.977  1.00  0.00     0.037 A 
ATOM     54  C   UNL     1      -3.941  -1.016  13.294  1.00  0.00     0.037 A 
ATOM     55  C   UNL     1      -1.588  -5.713  17.171  1.00  0.00     0.049 A 
ATOM     56  C   UNL     1      -4.588  -2.054  14.170  1.00  0.00     0.074 A 
ATOM     57  C   UNL     1      -2.296  -6.568  17.997  1.00  0.00     0.029 A 
ATOM     58  N   UNL     1      -2.524  -4.920  16.522  1.00  0.00    -0.354 N 
ATOM     59  N   UNL     1      -4.028  -2.961  14.934  1.00  0.00    -0.248 NA
ATOM     60  C   UNL     1      -6.057  -2.072  14.195  1.00  0.00     0.031 C 
ATOM     61  C   UNL     1      -3.662  -6.326  17.810  1.00  0.00     0.029 A 
ATOM     62  C   UNL     1      -3.804  -5.281  16.912  1.00  0.00     0.049 A 
ATOM     63  H   UNL     1      -2.310  -4.205  15.880  1.00  0.00     0.167 HD
ATOM     64  C   UNL     1      -5.071  -3.631  15.558  1.00  0.00     0.074 A 
ATOM     65  C   UNL     1      -6.298  -3.021  15.090  1.00  0.00     0.031 C 
ATOM     66  C   UNL     1      -5.017  -4.658  16.443  1.00  0.00     0.037 A 
BRANCH  53  67
ATOM     67  C   UNL     1       0.727  -6.589  17.708  1.00  0.00     0.064 A 
ATOM     68  C   UNL     1       1.606  -6.162  18.717  1.00  0.00     0.173 A 
ATOM     69  C   UNL     1       0.704  -7.957  17.398  1.00  0.00     0.173 A 
ATOM     70  F   UNL     1       1.677  -4.864  19.046  1.00  0.00    -0.203 F 
ATOM     71  C   UNL     1       2.461  -7.060  19.351  1.00  0.00     0.198 A 
ATOM     72  C   UNL     1       1.535  -8.857  18.060  1.00  0.00     0.198 A 
ATOM     73  F   UNL     1      -0.120  -8.422  16.448  1.00  0.00    -0.203 F 
ATOM     74  F   UNL     1       3.342  -6.615  20.259  1.00  0.00    -0.200 F 
ATOM     75  C   UNL     1       2.422  -8.406  19.026  1.00  0.00     0.200 A 
ATOM     76  F   UNL     1       1.486 -10.161  17.754  1.00  0.00    -0.200 F 
ATOM     77  F   UNL     1       3.248  -9.268  19.634  1.00  0.00    -0.200 F 
ENDBRANCH  53  67
BRANCH  54  78
ATOM     78  C   UNL     1      -4.764  -0.026  12.551  1.00  0.00     0.064 A 
ATOM     79  C   UNL     1      -5.481   0.965  13.236  1.00  0.00     0.173 A 
ATOM     80  C   UNL     1      -4.848  -0.042  11.152  1.00  0.00     0.173 A 
ATOM     81  F   UNL     1      -5.448   1.008  14.576  1.00  0.00    -0.203 F 
ATOM     82  C   UNL     1      -6.263   1.892  12.552  1.00  0.00     0.198 A 
ATOM     83  C   UNL     1      -5.608   0.903  10.466  1.00  0.00     0.198 A 
ATOM     84  F   UNL     1      -4.176  -0.966  10.448  1.00  0.00    -0.203 F 
ATOM     85  F   UNL     1      -6.970   2.803  13.234  1.00  0.00    -0.200 F 
ATOM     86  C   UNL     1      -6.320   1.865  11.166  1.00  0.00     0.200 A 
ATOM     87  F   UNL     1      -5.648   0.884   9.127  1.00  0.00    -0.200 F 
ATOM     88  F   UNL     1      -7.066   2.762  10.507  1.00  0.00    -0.200 F 
ENDBRANCH  54  78
BRANCH  66  89
ATOM     89  C   UNL     1      -6.320  -5.156  17.000  1.00  0.00     0.064 A 
ATOM     90  C   UNL     1      -7.234  -5.876  16.216  1.00  0.00     0.173 A 
ATOM     91  C   UNL     1      -6.643  -4.938  18.349  1.00  0.00     0.173 A 
ATOM     92  F   UNL     1      -6.981  -6.099  14.917  1.00  0.00    -0.203 F 
ATOM     93  C   UNL     1      -8.434  -6.333  16.754  1.00  0.00     0.198 A 
ATOM     94  C   UNL     1      -7.828  -5.425  18.891  1.00  0.00     0.198 A 
ATOM     95  F   UNL     1      -5.801  -4.260  19.144  1.00  0.00    -0.203 F 
ATOM     96  F   UNL     1      -9.316  -6.973  15.973  1.00  0.00    -0.200 F 
ATOM     97  C   UNL     1      -8.727  -6.114  18.092  1.00  0.00     0.200 A 
ATOM     98  F   UNL     1      -8.102  -5.225  20.188  1.00  0.00    -0.200 F 
ATOM     99  F   UNL     1      -9.880  -6.561  18.609  1.00  0.00    -0.200 F 
ENDBRANCH  66  89
ENDBRANCH  40  41
ENDBRANCH  32  35
ENDBRANCH  30  31
ENDBRANCH  29  30
ENDBRANCH  28  29
ENDBRANCH   1  28
TORSDOF 16
