REMARK SMILES CCc1ccc(CNc2ccc(Cl)c(C(=O)NCCCCCCNC(=O)c3ccc(-c4c5nc(c(-c6c(F)c(F)c(F)c(F)c6F)c6ccc([nH]6)c(-c6c(F)c(F)c(F)c(F)c6F)c6nc(c(-c7c(F)c(F)c(F)c(F)c7F)c7ccc4[nH]7)C=C6)C=C5)cc3)c2)cc1
REMARK SMILES IDX 19 1 18 2 17 3 15 4 16 5 14 7 9 8 10 9 90 10 11 11 12 12
REMARK SMILES IDX 13 13 8 14 7 16 6 17 3 18 4 19 92 20 5 21 91 22 2 23 1 24
REMARK SMILES IDX 20 25 21 26 22 27 23 28 24 29 25 30 26 32 27 33 28 34 89 35
REMARK SMILES IDX 29 36 88 37 30 38 31 39 32 40 82 41 33 42 87 43 81 44 83 45
REMARK SMILES IDX 34 46 86 47 80 48 79 49 35 51 67 52 47 53 66 54 48 55 51 56
REMARK SMILES IDX 65 57 84 58 49 59 50 60 64 62 85 63 52 64 36 65 37 66 45 67
REMARK SMILES IDX 38 68 39 69 43 70 46 71 40 72 41 73 44 74 42 75 68 76 69 77
REMARK SMILES IDX 77 78 70 79 71 80 75 81 78 82 72 83 73 84 76 85 74 86 53 87
REMARK SMILES IDX 54 88 62 89 55 90 56 91 60 92 63 93 57 94 58 95 61 96 59 97
REMARK H PARENT 17 6 8 15 24 31 83 50 51 61
REMARK Flexibility Score: inf
ROOT
ATOM      1  C   UNL     1       4.018  -8.860   6.297  1.00  0.00     0.021 C 
ENDROOT
BRANCH   1   2
ATOM      2  C   UNL     1       3.596  -8.848   4.834  1.00  0.00     0.116 C 
BRANCH   2   3
ATOM      3  N   UNL     1       3.536 -10.158   4.204  1.00  0.00    -0.352 N 
ATOM      4  C   UNL     1       2.646 -10.710   3.300  1.00  0.00     0.252 C 
ATOM      5  O   UNL     1       2.912 -11.821   2.851  1.00  0.00    -0.269 OA
ATOM      6  H   UNL     1       4.265 -10.764   4.470  1.00  0.00     0.163 HD
BRANCH   4   7
ATOM      7  C   UNL     1       1.400  -9.999   2.886  1.00  0.00     0.060 A 
ATOM      8  C   UNL     1       0.269  -7.842   2.655  1.00  0.00     0.035 A 
ATOM      9  C   UNL     1      -0.931  -8.523   2.445  1.00  0.00     0.027 A 
ATOM     10  C   UNL     1       1.431  -8.606   2.742  1.00  0.00     0.041 A 
ATOM     11  C   UNL     1      -0.968  -9.918   2.402  1.00  0.00     0.023 A 
ATOM     12  C   UNL     1       0.189 -10.663   2.659  1.00  0.00     0.053 A 
ATOM     13  Cl  UNL     1      -0.002 -12.378   2.704  1.00  0.00    -0.083 Cl
BRANCH   8  14
ATOM     14  N   UNL     1       0.256  -6.474   2.770  1.00  0.00    -0.381 N 
ATOM     15  H   UNL     1      -0.625  -6.037   2.721  1.00  0.00     0.160 HD
BRANCH  14  16
ATOM     16  C   UNL     1       1.403  -5.603   2.957  1.00  0.00     0.148 C 
BRANCH  16  17
ATOM     17  C   UNL     1       1.242  -4.414   2.048  1.00  0.00    -0.029 A 
ATOM     18  C   UNL     1       0.833  -2.220   0.327  1.00  0.00    -0.048 A 
ATOM     19  C   UNL     1       0.698  -3.532  -0.145  1.00  0.00     0.004 A 
ATOM     20  C   UNL     1       1.207  -2.022   1.664  1.00  0.00     0.004 A 
ATOM     21  C   UNL     1       0.916  -4.614   0.699  1.00  0.00     0.006 A 
ATOM     22  C   UNL     1       1.415  -3.110   2.518  1.00  0.00     0.006 A 
BRANCH  18  23
ATOM     23  C   UNL     1       0.501  -1.096  -0.625  1.00  0.00     0.032 C 
ATOM     24  C   UNL     1       0.967   0.294  -0.222  1.00  0.00     0.009 C 
ENDBRANCH  18  23
ENDBRANCH  16  17
ENDBRANCH  14  16
ENDBRANCH   8  14
ENDBRANCH   4   7
ENDBRANCH   2   3
ENDBRANCH   1   2
BRANCH   1  25
ATOM     25  C   UNL     1       5.421  -9.383   6.597  1.00  0.00     0.002 C 
BRANCH  25  26
ATOM     26  C   UNL     1       6.574  -8.708   5.849  1.00  0.00     0.002 C 
BRANCH  26  27
ATOM     27  C   UNL     1       6.637  -7.182   5.937  1.00  0.00     0.021 C 
BRANCH  27  28
ATOM     28  C   UNL     1       6.635  -6.602   7.348  1.00  0.00     0.116 C 
BRANCH  28  29
ATOM     29  N   UNL     1       7.778  -7.030   8.135  1.00  0.00    -0.352 N 
ATOM     30  C   UNL     1       8.696  -6.277   8.827  1.00  0.00     0.251 C 
ATOM     31  H   UNL     1       7.915  -8.004   8.180  1.00  0.00     0.163 HD
ATOM     32  O   UNL     1       9.691  -6.805   9.308  1.00  0.00    -0.269 OA
BRANCH  30  33
ATOM     33  C   UNL     1       8.496  -4.818   8.972  1.00  0.00     0.039 A 
ATOM     34  C   UNL     1       9.583  -3.966   8.760  1.00  0.00     0.014 A 
ATOM     35  C   UNL     1       7.250  -4.291   9.319  1.00  0.00     0.014 A 
ATOM     36  C   UNL     1       9.403  -2.583   8.832  1.00  0.00     0.010 A 
ATOM     37  C   UNL     1       7.054  -2.913   9.313  1.00  0.00     0.010 A 
ATOM     38  C   UNL     1       8.129  -2.043   9.071  1.00  0.00    -0.014 A 
BRANCH  38  39
ATOM     39  C   UNL     1       7.902  -0.575   9.067  1.00  0.00     0.031 A 
ATOM     40  C   UNL     1       7.439   0.124  10.315  1.00  0.00     0.074 A 
ATOM     41  C   UNL     1       8.053   0.119   7.922  1.00  0.00     0.049 A 
ATOM     42  N   UNL     1       7.125   1.383  10.492  1.00  0.00    -0.248 NA
ATOM     43  C   UNL     1       7.282  -0.707  11.519  1.00  0.00     0.031 C 
ATOM     44  C   UNL     1       8.454  -0.451   6.635  1.00  0.00     0.029 A 
ATOM     45  N   UNL     1       7.876   1.454   7.652  1.00  0.00    -0.354 N 
ATOM     46  C   UNL     1       6.725   1.491  11.818  1.00  0.00     0.074 A 
ATOM     47  C   UNL     1       6.778   0.161  12.384  1.00  0.00     0.031 C 
ATOM     48  C   UNL     1       8.518   0.529   5.720  1.00  0.00     0.029 A 
ATOM     49  C   UNL     1       8.119   1.788   6.342  1.00  0.00     0.049 A 
ATOM     50  H   UNL     1       7.601   2.110   8.333  1.00  0.00     0.167 HD
ATOM     51  C   UNL     1       6.370   2.602  12.507  1.00  0.00     0.037 A 
ATOM     52  C   UNL     1       8.021   2.974   5.710  1.00  0.00     0.037 A 
ATOM     53  C   UNL     1       6.335   3.926  11.942  1.00  0.00     0.049 A 
ATOM     54  C   UNL     1       7.602   4.190   6.493  1.00  0.00     0.074 A 
ATOM     55  C   UNL     1       6.041   5.124  12.570  1.00  0.00     0.029 A 
ATOM     56  N   UNL     1       6.598   4.226  10.613  1.00  0.00    -0.354 N 
ATOM     57  N   UNL     1       7.293   4.291   7.763  1.00  0.00    -0.248 NA
ATOM     58  C   UNL     1       7.525   5.458   5.755  1.00  0.00     0.031 C 
ATOM     59  C   UNL     1       6.067   6.139  11.609  1.00  0.00     0.029 A 
ATOM     60  C   UNL     1       6.444   5.586  10.396  1.00  0.00     0.049 A 
ATOM     61  H   UNL     1       6.855   3.569   9.926  1.00  0.00     0.167 HD
ATOM     62  C   UNL     1       7.021   5.634   7.984  1.00  0.00     0.074 A 
ATOM     63  C   UNL     1       7.211   6.312   6.719  1.00  0.00     0.031 C 
ATOM     64  C   UNL     1       6.649   6.250   9.133  1.00  0.00     0.037 A 
BRANCH  51  65
ATOM     65  C   UNL     1       5.985   2.434  13.950  1.00  0.00     0.064 A 
ATOM     66  C   UNL     1       6.926   2.072  14.927  1.00  0.00     0.173 A 
ATOM     67  C   UNL     1       4.668   2.676  14.369  1.00  0.00     0.173 A 
ATOM     68  F   UNL     1       8.197   1.820  14.581  1.00  0.00    -0.203 F 
ATOM     69  C   UNL     1       6.554   1.927  16.262  1.00  0.00     0.198 A 
ATOM     70  C   UNL     1       4.308   2.564  15.709  1.00  0.00     0.198 A 
ATOM     71  F   UNL     1       3.729   3.032  13.479  1.00  0.00    -0.203 F 
ATOM     72  F   UNL     1       7.458   1.527  17.167  1.00  0.00    -0.200 F 
ATOM     73  C   UNL     1       5.249   2.181  16.653  1.00  0.00     0.200 A 
ATOM     74  F   UNL     1       3.049   2.826  16.088  1.00  0.00    -0.200 F 
ATOM     75  F   UNL     1       4.895   2.049  17.939  1.00  0.00    -0.200 F 
ENDBRANCH  51  65
BRANCH  52  76
ATOM     76  C   UNL     1       8.344   3.074   4.261  1.00  0.00     0.064 A 
ATOM     77  C   UNL     1       9.468   3.786   3.820  1.00  0.00     0.173 A 
ATOM     78  C   UNL     1       7.533   2.470   3.289  1.00  0.00     0.173 A 
ATOM     79  F   UNL     1      10.264   4.399   4.709  1.00  0.00    -0.203 F 
ATOM     80  C   UNL     1       9.756   3.910   2.462  1.00  0.00     0.198 A 
ATOM     81  C   UNL     1       7.840   2.567   1.933  1.00  0.00     0.198 A 
ATOM     82  F   UNL     1       6.449   1.772   3.657  1.00  0.00    -0.203 F 
ATOM     83  F   UNL     1      10.807   4.641   2.067  1.00  0.00    -0.200 F 
ATOM     84  C   UNL     1       8.945   3.296   1.520  1.00  0.00     0.200 A 
ATOM     85  F   UNL     1       7.063   1.958   1.028  1.00  0.00    -0.200 F 
ATOM     86  F   UNL     1       9.223   3.413   0.215  1.00  0.00    -0.200 F 
ENDBRANCH  52  76
BRANCH  64  87
ATOM     87  C   UNL     1       6.468   7.741   9.094  1.00  0.00     0.064 A 
ATOM     88  C   UNL     1       5.392   8.340   8.423  1.00  0.00     0.173 A 
ATOM     89  C   UNL     1       7.360   8.579   9.782  1.00  0.00     0.173 A 
ATOM     90  F   UNL     1       4.519   7.586   7.738  1.00  0.00    -0.203 F 
ATOM     91  C   UNL     1       5.229   9.723   8.422  1.00  0.00     0.198 A 
ATOM     92  C   UNL     1       7.175   9.958   9.808  1.00  0.00     0.198 A 
ATOM     93  F   UNL     1       8.402   8.057  10.446  1.00  0.00    -0.203 F 
ATOM     94  F   UNL     1       4.221  10.276   7.733  1.00  0.00    -0.200 F 
ATOM     95  C   UNL     1       6.115  10.530   9.121  1.00  0.00     0.200 A 
ATOM     96  F   UNL     1       8.021  10.733  10.499  1.00  0.00    -0.200 F 
ATOM     97  F   UNL     1       5.949  11.859   9.130  1.00  0.00    -0.200 F 
ENDBRANCH  64  87
ENDBRANCH  38  39
ENDBRANCH  30  33
ENDBRANCH  28  29
ENDBRANCH  27  28
ENDBRANCH  26  27
ENDBRANCH  25  26
ENDBRANCH   1  25
TORSDOF 17
