REMARK SMILES Cc1ccc(F)cc1NS(=O)(=O)c1ccc(C(=O)NCCCCCCNC(=O)c2ccc(-c3c4nc(c(-c5c(F)c(F)c(F)c(F)c5F)c5ccc([nH]5)c(-c5c(F)c(F)c(F)c(F)c5F)c5nc(c(-c6c(F)c(F)c(F)c(F)c6F)c6ccc3[nH]6)C=C5)C=C4)cc2)cc1
REMARK SMILES IDX 22 1 21 2 20 3 19 4 17 5 18 6 16 8 13 9 14 10 93 11 15 12
REMARK SMILES IDX 92 13 10 14 11 15 12 16 9 17 8 19 1 20 2 21 3 22 4 23 7 24
REMARK SMILES IDX 5 25 6 26 23 27 24 28 25 29 26 30 27 31 28 33 29 34 30 35
REMARK SMILES IDX 91 36 31 37 90 38 32 39 33 40 34 41 84 42 35 43 89 44 83 45
REMARK SMILES IDX 85 46 36 47 88 48 82 49 81 50 37 52 69 53 49 54 68 55 50 56
REMARK SMILES IDX 53 57 67 58 86 59 51 60 52 61 66 63 87 64 54 65 38 66 39 67
REMARK SMILES IDX 47 68 40 69 41 70 45 71 48 72 42 73 43 74 46 75 44 76 70 77
REMARK SMILES IDX 71 78 79 79 72 80 73 81 77 82 80 83 74 84 75 85 78 86 76 87
REMARK SMILES IDX 55 88 56 89 64 90 57 91 58 92 62 93 65 94 59 95 60 96 63 97
REMARK SMILES IDX 61 98
REMARK H PARENT 19 7 9 18 26 32 85 51 53 62
REMARK Flexibility Score: inf
ROOT
ATOM      1  C   UNL     1      -7.999  -5.852   1.113  1.00  0.00     0.002 C 
ENDROOT
BRANCH   1   2
ATOM      2  C   UNL     1      -6.467  -5.927   1.093  1.00  0.00     0.021 C 
BRANCH   2   3
ATOM      3  C   UNL     1      -5.855  -5.204  -0.104  1.00  0.00     0.116 C 
BRANCH   3   4
ATOM      4  N   UNL     1      -6.002  -3.776   0.067  1.00  0.00    -0.352 N 
ATOM      5  C   UNL     1      -5.048  -2.806   0.158  1.00  0.00     0.251 C 
ATOM      6  O   UNL     1      -5.379  -1.631   0.280  1.00  0.00    -0.269 OA
ATOM      7  H   UNL     1      -6.931  -3.455   0.127  1.00  0.00     0.163 HD
BRANCH   5   8
ATOM      8  C   UNL     1      -3.619  -3.154   0.035  1.00  0.00     0.039 A 
ATOM      9  C   UNL     1      -0.884  -3.584  -0.179  1.00  0.00     0.087 A 
ATOM     10  C   UNL     1      -1.509  -2.670  -1.035  1.00  0.00     0.023 A 
ATOM     11  C   UNL     1      -1.635  -4.362   0.711  1.00  0.00     0.023 A 
ATOM     12  C   UNL     1      -2.872  -2.427  -0.897  1.00  0.00     0.015 A 
ATOM     13  C   UNL     1      -3.006  -4.131   0.832  1.00  0.00     0.015 A 
BRANCH   9  14
ATOM     14  S   UNL     1       0.882  -3.724  -0.213  1.00  0.00     0.261 S 
ATOM     15  O   UNL     1       1.298  -3.623  -1.593  1.00  0.00    -0.201 OA
ATOM     16  O   UNL     1       1.245  -4.891   0.571  1.00  0.00    -0.201 OA
BRANCH  14  17
ATOM     17  N   UNL     1       1.558  -2.382   0.614  1.00  0.00    -0.279 N 
ATOM     18  H   UNL     1       2.340  -2.522   1.196  1.00  0.00     0.180 HD
BRANCH  17  19
ATOM     19  C   UNL     1       1.011  -1.050   0.480  1.00  0.00     0.055 A 
ATOM     20  C   UNL     1       3.251  -0.001  -0.272  1.00  0.00     0.046 C 
ATOM     21  C   UNL     1       1.770   0.037  -0.004  1.00  0.00    -0.027 A 
ATOM     22  C   UNL     1       1.155   1.305  -0.127  1.00  0.00     0.008 A 
ATOM     23  C   UNL     1      -0.165   1.506   0.262  1.00  0.00     0.039 A 
ATOM     24  C   UNL     1      -0.263  -0.790   0.993  1.00  0.00     0.066 A 
ATOM     25  C   UNL     1      -0.853   0.460   0.845  1.00  0.00     0.125 A 
ATOM     26  F   UNL     1      -2.104   0.653   1.282  1.00  0.00    -0.207 F 
ENDBRANCH  17  19
ENDBRANCH  14  17
ENDBRANCH   9  14
ENDBRANCH   5   8
ENDBRANCH   3   4
ENDBRANCH   2   3
ENDBRANCH   1   2
BRANCH   1  27
ATOM     27  C   UNL     1      -8.677  -6.263  -0.205  1.00  0.00     0.002 C 
BRANCH  27  28
ATOM     28  C   UNL     1      -8.167  -7.573  -0.826  1.00  0.00     0.021 C 
BRANCH  28  29
ATOM     29  C   UNL     1      -8.545  -8.771   0.012  1.00  0.00     0.116 C 
BRANCH  29  30
ATOM     30  N   UNL     1      -9.976  -9.040  -0.092  1.00  0.00    -0.352 N 
ATOM     31  C   UNL     1     -10.644 -10.180   0.285  1.00  0.00     0.251 C 
ATOM     32  H   UNL     1     -10.527  -8.320  -0.477  1.00  0.00     0.163 HD
ATOM     33  O   UNL     1     -11.730 -10.474  -0.193  1.00  0.00    -0.269 OA
BRANCH  31  34
ATOM     34  C   UNL     1     -10.027 -11.019   1.319  1.00  0.00     0.039 A 
ATOM     35  C   UNL     1     -10.172 -12.411   1.331  1.00  0.00     0.014 A 
ATOM     36  C   UNL     1      -9.331 -10.359   2.327  1.00  0.00     0.014 A 
ATOM     37  C   UNL     1      -9.607 -13.137   2.375  1.00  0.00     0.010 A 
ATOM     38  C   UNL     1      -8.603 -11.076   3.219  1.00  0.00     0.010 A 
ATOM     39  C   UNL     1      -8.839 -12.445   3.312  1.00  0.00    -0.014 A 
BRANCH  39  40
ATOM     40  C   UNL     1      -8.299 -13.004   4.530  1.00  0.00     0.031 A 
ATOM     41  C   UNL     1      -7.182 -13.937   4.475  1.00  0.00     0.074 A 
ATOM     42  C   UNL     1      -8.742 -12.421   5.667  1.00  0.00     0.049 A 
ATOM     43  N   UNL     1      -6.913 -14.774   5.408  1.00  0.00    -0.248 NA
ATOM     44  C   UNL     1      -6.267 -14.008   3.344  1.00  0.00     0.031 C 
ATOM     45  C   UNL     1      -8.206 -12.450   7.014  1.00  0.00     0.029 A 
ATOM     46  N   UNL     1      -9.931 -11.681   5.795  1.00  0.00    -0.354 N 
ATOM     47  C   UNL     1      -5.627 -15.208   5.190  1.00  0.00     0.074 A 
ATOM     48  C   UNL     1      -5.334 -14.839   3.823  1.00  0.00     0.031 C 
ATOM     49  C   UNL     1      -9.181 -12.068   7.864  1.00  0.00     0.029 A 
ATOM     50  C   UNL     1     -10.408 -11.936   7.091  1.00  0.00     0.049 A 
ATOM     51  H   UNL     1     -10.346 -11.103   5.114  1.00  0.00     0.167 HD
ATOM     52  C   UNL     1      -4.905 -15.640   6.265  1.00  0.00     0.037 A 
ATOM     53  C   UNL     1     -11.527 -12.716   7.199  1.00  0.00     0.037 A 
ATOM     54  C   UNL     1      -5.708 -15.526   7.492  1.00  0.00     0.049 A 
ATOM     55  C   UNL     1     -11.229 -14.083   7.780  1.00  0.00     0.074 A 
ATOM     56  C   UNL     1      -5.750 -14.615   8.536  1.00  0.00     0.029 A 
ATOM     57  N   UNL     1      -6.895 -16.232   7.573  1.00  0.00    -0.354 N 
ATOM     58  N   UNL     1     -10.025 -14.527   8.023  1.00  0.00    -0.248 NA
ATOM     59  C   UNL     1     -12.251 -15.075   8.090  1.00  0.00     0.031 C 
ATOM     60  C   UNL     1      -6.976 -14.802   9.247  1.00  0.00     0.029 A 
ATOM     61  C   UNL     1      -7.672 -15.832   8.641  1.00  0.00     0.049 A 
ATOM     62  H   UNL     1      -7.156 -16.941   6.941  1.00  0.00     0.167 HD
ATOM     63  C   UNL     1     -10.078 -15.804   8.505  1.00  0.00     0.074 A 
ATOM     64  C   UNL     1     -11.500 -16.113   8.502  1.00  0.00     0.031 C 
ATOM     65  C   UNL     1      -8.950 -16.500   8.850  1.00  0.00     0.037 A 
BRANCH  52  66
ATOM     66  C   UNL     1      -3.413 -15.891   6.266  1.00  0.00     0.064 A 
ATOM     67  C   UNL     1      -2.677 -15.826   7.470  1.00  0.00     0.173 A 
ATOM     68  C   UNL     1      -2.642 -16.198   5.128  1.00  0.00     0.173 A 
ATOM     69  F   UNL     1      -3.279 -15.648   8.652  1.00  0.00    -0.203 F 
ATOM     70  C   UNL     1      -1.286 -15.951   7.513  1.00  0.00     0.198 A 
ATOM     71  C   UNL     1      -1.244 -16.278   5.163  1.00  0.00     0.198 A 
ATOM     72  F   UNL     1      -3.211 -16.496   3.955  1.00  0.00    -0.203 F 
ATOM     73  F   UNL     1      -0.650 -15.875   8.691  1.00  0.00    -0.200 F 
ATOM     74  C   UNL     1      -0.565 -16.148   6.356  1.00  0.00     0.200 A 
ATOM     75  F   UNL     1      -0.562 -16.497   4.029  1.00  0.00    -0.200 F 
ATOM     76  F   UNL     1       0.770 -16.242   6.394  1.00  0.00    -0.200 F 
ENDBRANCH  52  66
BRANCH  53  77
ATOM     77  C   UNL     1     -12.508 -12.396   6.104  1.00  0.00     0.064 A 
ATOM     78  C   UNL     1     -12.988 -11.068   6.045  1.00  0.00     0.173 A 
ATOM     79  C   UNL     1     -12.562 -13.145   4.919  1.00  0.00     0.173 A 
ATOM     80  F   UNL     1     -12.974 -10.303   7.150  1.00  0.00    -0.203 F 
ATOM     81  C   UNL     1     -13.322 -10.466   4.833  1.00  0.00     0.198 A 
ATOM     82  C   UNL     1     -12.937 -12.546   3.710  1.00  0.00     0.198 A 
ATOM     83  F   UNL     1     -12.137 -14.416   4.901  1.00  0.00    -0.203 F 
ATOM     84  F   UNL     1     -13.608  -9.156   4.792  1.00  0.00    -0.200 F 
ATOM     85  C   UNL     1     -13.262 -11.197   3.660  1.00  0.00     0.200 A 
ATOM     86  F   UNL     1     -12.903 -13.259   2.575  1.00  0.00    -0.200 F 
ATOM     87  F   UNL     1     -13.479 -10.591   2.485  1.00  0.00    -0.200 F 
ENDBRANCH  53  77
BRANCH  65  88
ATOM     88  C   UNL     1      -8.945 -17.912   9.384  1.00  0.00     0.064 A 
ATOM     89  C   UNL     1      -9.935 -18.403  10.246  1.00  0.00     0.173 A 
ATOM     90  C   UNL     1      -7.883 -18.810   9.111  1.00  0.00     0.173 A 
ATOM     91  F   UNL     1     -10.903 -17.602  10.714  1.00  0.00    -0.203 F 
ATOM     92  C   UNL     1      -9.936 -19.729  10.686  1.00  0.00     0.198 A 
ATOM     93  C   UNL     1      -7.855 -20.112   9.598  1.00  0.00     0.198 A 
ATOM     94  F   UNL     1      -6.834 -18.476   8.350  1.00  0.00    -0.203 F 
ATOM     95  F   UNL     1     -10.950 -20.175  11.439  1.00  0.00    -0.200 F 
ATOM     96  C   UNL     1      -8.900 -20.584  10.357  1.00  0.00     0.200 A 
ATOM     97  F   UNL     1      -6.812 -20.904   9.309  1.00  0.00    -0.200 F 
ATOM     98  F   UNL     1      -8.903 -21.855  10.778  1.00  0.00    -0.200 F 
ENDBRANCH  65  88
ENDBRANCH  39  40
ENDBRANCH  31  34
ENDBRANCH  29  30
ENDBRANCH  28  29
ENDBRANCH  27  28
ENDBRANCH   1  27
TORSDOF 16
