REMARK SMILES C[C@H]1[C@H](C(=O)NCCCCCCNC(=O)c2ccc(-c3c4nc(c(-c5c(F)c(F)c(F)c(F)c5F)c5ccc([nH]5)c(-c5c(F)c(F)c(F)c(F)c5F)c5nc(c(-c6c(F)c(F)c(F)c(F)c6F)c6ccc3[nH]6)C=C5)C=C4)cc2)CCN1C(=O)c1ccc2ccccc2c1
REMARK SMILES IDX 9 1 8 2 7 3 6 4 4 5 5 6 3 8 1 9 2 10 81 11 79 12 80 13 82 14
REMARK SMILES IDX 83 15 84 16 85 17 93 18 86 19 92 20 87 21 91 22 88 23 90 24
REMARK SMILES IDX 89 25 10 26 11 27 12 28 13 29 14 30 15 32 16 33 17 34 78 35
REMARK SMILES IDX 18 36 77 37 19 38 20 39 21 40 71 41 22 42 76 43 70 44 72 45
REMARK SMILES IDX 23 46 75 47 69 48 68 49 24 51 56 52 36 53 55 54 37 55 40 56
REMARK SMILES IDX 54 57 73 58 38 59 39 60 53 62 74 63 41 64 25 65 26 66 34 67
REMARK SMILES IDX 27 68 28 69 32 70 35 71 29 72 30 73 33 74 31 75 57 76 58 77
REMARK SMILES IDX 66 78 59 79 60 80 64 81 67 82 61 83 62 84 65 85 63 86 42 87
REMARK SMILES IDX 43 88 51 89 44 90 45 91 49 92 52 93 46 94 47 95 50 96 48 97
REMARK H PARENT 6 7 13 31 72 50 40 61
REMARK Flexibility Score: inf
ROOT
ATOM      1  C   UNL     1      -0.187   1.117   5.359  1.00  0.00     0.002 C 
ENDROOT
BRANCH   1   2
ATOM      2  C   UNL     1      -0.020   0.283   4.087  1.00  0.00     0.021 C 
BRANCH   2   3
ATOM      3  C   UNL     1      -0.943   0.708   2.950  1.00  0.00     0.116 C 
BRANCH   3   4
ATOM      4  N   UNL     1      -0.504   1.957   2.361  1.00  0.00    -0.356 N 
ATOM      5  C   UNL     1      -0.035   2.236   1.117  1.00  0.00     0.225 C 
ATOM      6  O   UNL     1       0.347   3.389   0.898  1.00  0.00    -0.275 OA
ATOM      7  H   UNL     1      -0.553   2.734   2.964  1.00  0.00     0.163 HD
BRANCH   5   8
ATOM      8  C   UNL     1       0.012   1.194   0.012  1.00  0.00     0.102 C 
ATOM      9  C   UNL     1       2.111  -0.014  -0.670  1.00  0.00     0.032 C 
ATOM     10  C   UNL     1       0.948   0.010   0.323  1.00  0.00     0.094 C 
ATOM     11  N   UNL     1       0.091  -1.176   0.226  1.00  0.00    -0.335 N 
ATOM     12  C   UNL     1      -1.365   0.612  -0.318  1.00  0.00     0.037 C 
ATOM     13  C   UNL     1      -1.149  -0.882  -0.463  1.00  0.00     0.121 C 
BRANCH  11  14
ATOM     14  C   UNL     1       0.296  -2.435   0.764  1.00  0.00     0.254 C 
ATOM     15  O   UNL     1      -0.583  -3.287   0.856  1.00  0.00    -0.269 OA
BRANCH  14  16
ATOM     16  C   UNL     1       1.655  -2.816   1.179  1.00  0.00     0.040 A 
ATOM     17  C   UNL     1       2.472  -3.412   0.216  1.00  0.00     0.014 A 
ATOM     18  C   UNL     1       2.080  -2.698   2.503  1.00  0.00     0.022 A 
ATOM     19  C   UNL     1       3.757  -3.822   0.560  1.00  0.00     0.009 A 
ATOM     20  C   UNL     1       3.361  -3.151   2.870  1.00  0.00    -0.018 A 
ATOM     21  C   UNL     1       4.216  -3.694   1.878  1.00  0.00    -0.018 A 
ATOM     22  C   UNL     1       3.812  -3.105   4.201  1.00  0.00     0.009 A 
ATOM     23  C   UNL     1       5.502  -4.127   2.232  1.00  0.00     0.009 A 
ATOM     24  C   UNL     1       5.081  -3.580   4.543  1.00  0.00     0.001 A 
ATOM     25  C   UNL     1       5.930  -4.077   3.558  1.00  0.00     0.001 A 
ENDBRANCH  14  16
ENDBRANCH  11  14
ENDBRANCH   5   8
ENDBRANCH   3   4
ENDBRANCH   2   3
ENDBRANCH   1   2
BRANCH   1  26
ATOM     26  C   UNL     1      -1.600   1.102   5.953  1.00  0.00     0.002 C 
BRANCH  26  27
ATOM     27  C   UNL     1      -2.181  -0.293   6.200  1.00  0.00     0.021 C 
BRANCH  27  28
ATOM     28  C   UNL     1      -1.331  -1.178   7.105  1.00  0.00     0.116 C 
BRANCH  28  29
ATOM     29  N   UNL     1      -1.172  -0.603   8.430  1.00  0.00    -0.352 N 
ATOM     30  C   UNL     1      -1.503  -1.128   9.654  1.00  0.00     0.251 C 
ATOM     31  H   UNL     1      -0.768   0.295   8.454  1.00  0.00     0.163 HD
ATOM     32  O   UNL     1      -1.504  -0.417  10.652  1.00  0.00    -0.269 OA
BRANCH  30  33
ATOM     33  C   UNL     1      -1.873  -2.554   9.762  1.00  0.00     0.039 A 
ATOM     34  C   UNL     1      -2.973  -2.907  10.547  1.00  0.00     0.014 A 
ATOM     35  C   UNL     1      -1.133  -3.539   9.102  1.00  0.00     0.014 A 
ATOM     36  C   UNL     1      -3.365  -4.245  10.622  1.00  0.00     0.010 A 
ATOM     37  C   UNL     1      -1.571  -4.859   9.114  1.00  0.00     0.010 A 
ATOM     38  C   UNL     1      -2.688  -5.226   9.879  1.00  0.00    -0.014 A 
BRANCH  38  39
ATOM     39  C   UNL     1      -3.139  -6.641   9.890  1.00  0.00     0.031 A 
ATOM     40  C   UNL     1      -2.245  -7.717  10.440  1.00  0.00     0.074 A 
ATOM     41  C   UNL     1      -4.332  -6.962   9.354  1.00  0.00     0.049 A 
ATOM     42  N   UNL     1      -2.440  -9.011  10.491  1.00  0.00    -0.248 NA
ATOM     43  C   UNL     1      -0.947  -7.285  10.983  1.00  0.00     0.031 C 
ATOM     44  C   UNL     1      -5.268  -6.013   8.749  1.00  0.00     0.029 A 
ATOM     45  N   UNL     1      -4.958  -8.176   9.223  1.00  0.00    -0.354 N 
ATOM     46  C   UNL     1      -1.291  -9.544  11.059  1.00  0.00     0.074 A 
ATOM     47  C   UNL     1      -0.379  -8.444  11.282  1.00  0.00     0.031 C 
ATOM     48  C   UNL     1      -6.360  -6.676   8.337  1.00  0.00     0.029 A 
ATOM     49  C   UNL     1      -6.183  -8.099   8.606  1.00  0.00     0.049 A 
ATOM     50  H   UNL     1      -4.567  -9.021   9.541  1.00  0.00     0.167 HD
ATOM     51  C   UNL     1      -1.031 -10.832  11.389  1.00  0.00     0.037 A 
ATOM     52  C   UNL     1      -7.059  -9.070   8.284  1.00  0.00     0.037 A 
ATOM     53  C   UNL     1      -1.948 -11.922  11.176  1.00  0.00     0.049 A 
ATOM     54  C   UNL     1      -6.733 -10.497   8.635  1.00  0.00     0.074 A 
ATOM     55  C   UNL     1      -1.803 -13.253  11.525  1.00  0.00     0.029 A 
ATOM     56  N   UNL     1      -3.180 -11.806  10.547  1.00  0.00    -0.354 N 
ATOM     57  N   UNL     1      -5.677 -10.980   9.243  1.00  0.00    -0.248 NA
ATOM     58  C   UNL     1      -7.726 -11.513   8.260  1.00  0.00     0.031 C 
ATOM     59  C   UNL     1      -2.918 -13.953  11.054  1.00  0.00     0.029 A 
ATOM     60  C   UNL     1      -3.790 -13.048  10.470  1.00  0.00     0.049 A 
ATOM     61  H   UNL     1      -3.564 -10.966  10.206  1.00  0.00     0.167 HD
ATOM     62  C   UNL     1      -5.889 -12.349   9.348  1.00  0.00     0.074 A 
ATOM     63  C   UNL     1      -7.185 -12.615   8.759  1.00  0.00     0.031 C 
ATOM     64  C   UNL     1      -5.083 -13.299   9.883  1.00  0.00     0.037 A 
BRANCH  51  65
ATOM     65  C   UNL     1       0.302 -11.134  12.014  1.00  0.00     0.064 A 
ATOM     66  C   UNL     1       0.634 -10.683  13.301  1.00  0.00     0.173 A 
ATOM     67  C   UNL     1       1.249 -11.912  11.331  1.00  0.00     0.173 A 
ATOM     68  F   UNL     1      -0.230  -9.927  13.995  1.00  0.00    -0.203 F 
ATOM     69  C   UNL     1       1.874 -10.969  13.865  1.00  0.00     0.198 A 
ATOM     70  C   UNL     1       2.475 -12.227  11.912  1.00  0.00     0.198 A 
ATOM     71  F   UNL     1       0.983 -12.377  10.100  1.00  0.00    -0.203 F 
ATOM     72  F   UNL     1       2.189 -10.479  15.072  1.00  0.00    -0.200 F 
ATOM     73  C   UNL     1       2.790 -11.747  13.174  1.00  0.00     0.200 A 
ATOM     74  F   UNL     1       3.353 -12.992  11.249  1.00  0.00    -0.200 F 
ATOM     75  F   UNL     1       3.981 -12.028  13.721  1.00  0.00    -0.200 F 
ENDBRANCH  51  65
BRANCH  52  76
ATOM     76  C   UNL     1      -8.337  -8.724   7.608  1.00  0.00     0.064 A 
ATOM     77  C   UNL     1      -9.566  -8.878   8.266  1.00  0.00     0.173 A 
ATOM     78  C   UNL     1      -8.361  -8.240   6.291  1.00  0.00     0.173 A 
ATOM     79  F   UNL     1      -9.598  -9.356   9.519  1.00  0.00    -0.203 F 
ATOM     80  C   UNL     1     -10.768  -8.586   7.626  1.00  0.00     0.198 A 
ATOM     81  C   UNL     1      -9.562  -7.917   5.664  1.00  0.00     0.198 A 
ATOM     82  F   UNL     1      -7.214  -8.069   5.618  1.00  0.00    -0.203 F 
ATOM     83  F   UNL     1     -11.930  -8.792   8.262  1.00  0.00    -0.200 F 
ATOM     84  C   UNL     1     -10.765  -8.099   6.328  1.00  0.00     0.200 A 
ATOM     85  F   UNL     1      -9.553  -7.431   4.415  1.00  0.00    -0.200 F 
ATOM     86  F   UNL     1     -11.922  -7.814   5.714  1.00  0.00    -0.200 F 
ENDBRANCH  52  76
BRANCH  64  87
ATOM     87  C   UNL     1      -5.593 -14.712   9.890  1.00  0.00     0.064 A 
ATOM     88  C   UNL     1      -5.718 -15.459   8.709  1.00  0.00     0.173 A 
ATOM     89  C   UNL     1      -5.926 -15.340  11.101  1.00  0.00     0.173 A 
ATOM     90  F   UNL     1      -5.428 -14.901   7.524  1.00  0.00    -0.203 F 
ATOM     91  C   UNL     1      -6.185 -16.770   8.737  1.00  0.00     0.198 A 
ATOM     92  C   UNL     1      -6.357 -16.663  11.128  1.00  0.00     0.198 A 
ATOM     93  F   UNL     1      -5.818 -14.675  12.260  1.00  0.00    -0.203 F 
ATOM     94  F   UNL     1      -6.348 -17.445   7.590  1.00  0.00    -0.200 F 
ATOM     95  C   UNL     1      -6.495 -17.374   9.946  1.00  0.00     0.200 A 
ATOM     96  F   UNL     1      -6.640 -17.250  12.299  1.00  0.00    -0.200 F 
ATOM     97  F   UNL     1      -6.935 -18.640   9.971  1.00  0.00    -0.200 F 
ENDBRANCH  64  87
ENDBRANCH  38  39
ENDBRANCH  30  33
ENDBRANCH  28  29
ENDBRANCH  27  28
ENDBRANCH  26  27
ENDBRANCH   1  26
TORSDOF 15
