REMARK SMILES O=C(COc1ccccc1/C=C1/SC(=S)N(c2ccc(F)c(Cl)c2)C1=O)NCCCCCCNC(=O)c1ccc(-c2c3nc(c(-c4c(F)c(F)c(F)c(F)c4F)c4ccc([nH]4)c(-c4c(F)c(F)c(F)c(F)c4F)c4nc(c(-c5c(F)c(F)c(F)c(F)c5F)c5ccc2[nH]5)C=C4)C=C3)cc1
REMARK SMILES IDX 29 1 28 2 27 3 1 4 2 5 3 7 4 8 5 9 6 10 10 11 7 12 9 13 8 14
REMARK SMILES IDX 11 15 12 16 13 17 25 18 14 19 16 20 26 21 15 22 17 23 18 24
REMARK SMILES IDX 24 25 19 26 22 27 20 28 23 29 21 30 30 31 31 32 32 33 33 34
REMARK SMILES IDX 34 35 35 36 36 38 37 39 38 40 99 41 39 42 98 43 40 44 41 45
REMARK SMILES IDX 42 46 92 47 43 48 97 49 91 50 93 51 44 52 96 53 90 54 89 55
REMARK SMILES IDX 45 57 77 58 57 59 76 60 58 61 61 62 75 63 94 64 59 65 60 66
REMARK SMILES IDX 74 68 95 69 62 70 46 71 47 72 55 73 48 74 49 75 53 76 56 77
REMARK SMILES IDX 50 78 51 79 54 80 52 81 78 82 79 83 87 84 80 85 81 86 85 87
REMARK SMILES IDX 88 88 82 89 83 90 86 91 84 92 63 93 64 94 72 95 65 96 66 97
REMARK SMILES IDX 70 98 73 99 67 100 68 101 71 102 69 103
REMARK H PARENT 27 6 34 37 93 56 61 67
REMARK Flexibility Score: inf
ROOT
ATOM      1  C   UNL     1       1.378   1.963   3.132  1.00  0.00     0.021 C 
ENDROOT
BRANCH   1   2
ATOM      2  C   UNL     1       0.948   1.416   1.754  1.00  0.00     0.116 C 
BRANCH   2   3
ATOM      3  N   UNL     1       1.653   0.248   1.221  1.00  0.00    -0.353 N 
ATOM      4  O   UNL     1       0.219  -0.014  -0.551  1.00  0.00    -0.271 OA
ATOM      5  C   UNL     1       1.283  -0.309  -0.006  1.00  0.00     0.257 C 
ATOM      6  H   UNL     1       2.395  -0.148   1.732  1.00  0.00     0.163 HD
BRANCH   5   7
ATOM      7  C   UNL     1       2.307  -1.271  -0.701  1.00  0.00     0.329 C 
BRANCH   7   8
ATOM      8  O   UNL     1       3.399  -0.799  -1.504  1.00  0.00    -0.483 OA
BRANCH   8   9
ATOM      9  C   UNL     1       3.049  -0.164  -2.675  1.00  0.00     0.127 A 
ATOM     10  C   UNL     1       3.176  -0.853  -3.878  1.00  0.00     0.047 A 
ATOM     11  C   UNL     1       2.770   1.219  -2.702  1.00  0.00     0.018 A 
ATOM     12  C   UNL     1       2.864  -0.209  -5.081  1.00  0.00     0.004 A 
ATOM     13  C   UNL     1       2.361   1.831  -3.886  1.00  0.00     0.012 A 
ATOM     14  C   UNL     1       2.403   1.110  -5.079  1.00  0.00     0.001 A 
BRANCH  11  15
ATOM     15  C   UNL     1       2.927   1.997  -1.466  1.00  0.00     0.033 C 
ATOM     16  C   UNL     1       4.139   2.007  -0.886  1.00  0.00     0.081 C 
ATOM     17  S   UNL     1       4.375   1.298   0.658  1.00  0.00    -0.054 SA
ATOM     18  C   UNL     1       5.472   2.306  -1.478  1.00  0.00     0.270 C 
ATOM     19  C   UNL     1       6.049   1.700   0.746  1.00  0.00     0.152 C 
ATOM     20  N   UNL     1       6.465   2.159  -0.497  1.00  0.00    -0.261 N 
ATOM     21  O   UNL     1       5.614   2.713  -2.627  1.00  0.00    -0.268 OA
ATOM     22  S   UNL     1       6.811   1.614   2.236  1.00  0.00    -0.051 S 
BRANCH  20  23
ATOM     23  C   UNL     1       7.794   2.616  -0.711  1.00  0.00     0.052 A 
ATOM     24  C   UNL     1       8.024   3.859  -1.316  1.00  0.00     0.030 A 
ATOM     25  C   UNL     1       8.877   1.907  -0.173  1.00  0.00     0.050 A 
ATOM     26  C   UNL     1       9.297   4.431  -1.266  1.00  0.00     0.043 A 
ATOM     27  C   UNL     1      10.137   2.490  -0.099  1.00  0.00     0.078 A 
ATOM     28  C   UNL     1      10.337   3.757  -0.630  1.00  0.00     0.141 A 
ATOM     29  Cl  UNL     1      11.400   1.649   0.711  1.00  0.00    -0.081 Cl
ATOM     30  F   UNL     1      11.529   4.359  -0.529  1.00  0.00    -0.205 F 
ENDBRANCH  20  23
ENDBRANCH  11  15
ENDBRANCH   8   9
ENDBRANCH   7   8
ENDBRANCH   5   7
ENDBRANCH   2   3
ENDBRANCH   1   2
BRANCH   1  31
ATOM     31  C   UNL     1       2.797   2.525   3.348  1.00  0.00     0.002 C 
BRANCH  31  32
ATOM     32  C   UNL     1       3.258   3.696   2.460  1.00  0.00     0.002 C 
BRANCH  32  33
ATOM     33  C   UNL     1       3.009   5.114   2.955  1.00  0.00     0.021 C 
BRANCH  33  34
ATOM     34  C   UNL     1       3.656   5.485   4.284  1.00  0.00     0.116 C 
BRANCH  34  35
ATOM     35  N   UNL     1       5.113   5.559   4.294  1.00  0.00    -0.352 N 
ATOM     36  C   UNL     1       5.911   6.442   5.003  1.00  0.00     0.251 C 
ATOM     37  H   UNL     1       5.585   4.904   3.731  1.00  0.00     0.163 HD
ATOM     38  O   UNL     1       7.132   6.416   4.896  1.00  0.00    -0.269 OA
BRANCH  36  39
ATOM     39  C   UNL     1       5.265   7.478   5.846  1.00  0.00     0.039 A 
ATOM     40  C   UNL     1       5.649   8.813   5.702  1.00  0.00     0.014 A 
ATOM     41  C   UNL     1       4.197   7.146   6.682  1.00  0.00     0.014 A 
ATOM     42  C   UNL     1       4.876   9.819   6.290  1.00  0.00     0.010 A 
ATOM     43  C   UNL     1       3.362   8.149   7.160  1.00  0.00     0.010 A 
ATOM     44  C   UNL     1       3.683   9.499   6.961  1.00  0.00    -0.014 A 
BRANCH  44  45
ATOM     45  C   UNL     1       2.746  10.559   7.424  1.00  0.00     0.031 A 
ATOM     46  C   UNL     1       2.372  10.668   8.877  1.00  0.00     0.074 A 
ATOM     47  C   UNL     1       2.170  11.380   6.522  1.00  0.00     0.049 A 
ATOM     48  N   UNL     1       1.559  11.513   9.463  1.00  0.00    -0.248 NA
ATOM     49  C   UNL     1       2.957   9.674   9.790  1.00  0.00     0.031 C 
ATOM     50  C   UNL     1       2.380  11.329   5.074  1.00  0.00     0.029 A 
ATOM     51  N   UNL     1       1.289  12.422   6.689  1.00  0.00    -0.354 N 
ATOM     52  C   UNL     1       1.529  11.142  10.801  1.00  0.00     0.074 A 
ATOM     53  C   UNL     1       2.341   9.953  10.928  1.00  0.00     0.031 C 
ATOM     54  C   UNL     1       1.695  12.325   4.492  1.00  0.00     0.029 A 
ATOM     55  C   UNL     1       0.962  13.061   5.517  1.00  0.00     0.049 A 
ATOM     56  H   UNL     1       0.927  12.686   7.565  1.00  0.00     0.167 HD
ATOM     57  C   UNL     1       0.908  11.755  11.838  1.00  0.00     0.037 A 
ATOM     58  C   UNL     1       0.166  14.124   5.293  1.00  0.00     0.037 A 
ATOM     59  C   UNL     1       0.117  12.950  11.712  1.00  0.00     0.049 A 
ATOM     60  C   UNL     1      -0.513  14.789   6.460  1.00  0.00     0.074 A 
ATOM     61  C   UNL     1      -0.488  13.695  12.709  1.00  0.00     0.029 A 
ATOM     62  N   UNL     1      -0.189  13.572  10.509  1.00  0.00    -0.354 N 
ATOM     63  N   UNL     1      -0.451  14.491   7.735  1.00  0.00    -0.248 NA
ATOM     64  C   UNL     1      -1.367  15.945   6.155  1.00  0.00     0.031 C 
ATOM     65  C   UNL     1      -1.213  14.727  12.105  1.00  0.00     0.029 A 
ATOM     66  C   UNL     1      -1.006  14.668  10.736  1.00  0.00     0.049 A 
ATOM     67  H   UNL     1       0.127  13.277   9.624  1.00  0.00     0.167 HD
ATOM     68  C   UNL     1      -1.235  15.433   8.387  1.00  0.00     0.074 A 
ATOM     69  C   UNL     1      -1.743  16.328   7.367  1.00  0.00     0.031 C 
ATOM     70  C   UNL     1      -1.512  15.546   9.710  1.00  0.00     0.037 A 
BRANCH  57  71
ATOM     71  C   UNL     1       1.061  11.134  13.200  1.00  0.00     0.064 A 
ATOM     72  C   UNL     1       2.300  11.094  13.860  1.00  0.00     0.173 A 
ATOM     73  C   UNL     1      -0.047  10.580  13.858  1.00  0.00     0.173 A 
ATOM     74  F   UNL     1       3.396  11.600  13.274  1.00  0.00    -0.203 F 
ATOM     75  C   UNL     1       2.432  10.482  15.104  1.00  0.00     0.198 A 
ATOM     76  C   UNL     1       0.081  10.003  15.120  1.00  0.00     0.198 A 
ATOM     77  F   UNL     1      -1.257  10.596  13.279  1.00  0.00    -0.203 F 
ATOM     78  F   UNL     1       3.639  10.394  15.681  1.00  0.00    -0.200 F 
ATOM     79  C   UNL     1       1.322   9.943  15.736  1.00  0.00     0.200 A 
ATOM     80  F   UNL     1      -0.996   9.497  15.735  1.00  0.00    -0.200 F 
ATOM     81  F   UNL     1       1.449   9.355  16.933  1.00  0.00    -0.200 F 
ENDBRANCH  57  71
BRANCH  58  82
ATOM     82  C   UNL     1       0.004  14.656   3.913  1.00  0.00     0.064 A 
ATOM     83  C   UNL     1       0.536  15.905   3.557  1.00  0.00     0.173 A 
ATOM     84  C   UNL     1      -0.678  13.934   2.923  1.00  0.00     0.173 A 
ATOM     85  F   UNL     1       1.178  16.644   4.473  1.00  0.00    -0.203 F 
ATOM     86  C   UNL     1       0.377  16.417   2.271  1.00  0.00     0.198 A 
ATOM     87  C   UNL     1      -0.810  14.434   1.628  1.00  0.00     0.198 A 
ATOM     88  F   UNL     1      -1.203  12.733   3.208  1.00  0.00    -0.203 F 
ATOM     89  F   UNL     1       0.856  17.632   1.972  1.00  0.00    -0.200 F 
ATOM     90  C   UNL     1      -0.290  15.678   1.306  1.00  0.00     0.200 A 
ATOM     91  F   UNL     1      -1.440  13.710   0.694  1.00  0.00    -0.200 F 
ATOM     92  F   UNL     1      -0.435  16.168   0.067  1.00  0.00    -0.200 F 
ENDBRANCH  58  82
BRANCH  70  93
ATOM     93  C   UNL     1      -2.387  16.694  10.132  1.00  0.00     0.064 A 
ATOM     94  C   UNL     1      -3.750  16.743   9.802  1.00  0.00     0.173 A 
ATOM     95  C   UNL     1      -1.860  17.747  10.895  1.00  0.00     0.173 A 
ATOM     96  F   UNL     1      -4.302  15.769   9.063  1.00  0.00    -0.203 F 
ATOM     97  C   UNL     1      -4.542  17.822  10.187  1.00  0.00     0.198 A 
ATOM     98  C   UNL     1      -2.663  18.805  11.310  1.00  0.00     0.198 A 
ATOM     99  F   UNL     1      -0.565  17.747  11.246  1.00  0.00    -0.203 F 
ATOM    100  F   UNL     1      -5.826  17.878   9.805  1.00  0.00    -0.200 F 
ATOM    101  C   UNL     1      -4.000  18.848  10.946  1.00  0.00     0.200 A 
ATOM    102  F   UNL     1      -2.142  19.787  12.059  1.00  0.00    -0.200 F 
ATOM    103  F   UNL     1      -4.765  19.884  11.319  1.00  0.00    -0.200 F 
ENDBRANCH  70  93
ENDBRANCH  44  45
ENDBRANCH  36  39
ENDBRANCH  34  35
ENDBRANCH  33  34
ENDBRANCH  32  33
ENDBRANCH  31  32
ENDBRANCH   1  31
TORSDOF 17
