REMARK SMILES Cc1cc(C[N@@H+]2C[C@H](C)[C@H](C(=O)NCCCCCCNC(=O)c3ccc(-c4c5nc(c(-c6c(F)c(F)c(F)c(F)c6F)c6ccc([nH]6)c(-c6c(F)c(F)c(F)c(F)c6F)c6nc(c(-c7c(F)c(F)c(F)c(F)c7F)c7ccc4[nH]7)C=C6)C=C5)cc3)C2)ccc1Br
REMARK SMILES IDX 16 1 15 2 14 3 13 4 11 5 12 6 10 8 6 9 7 10 86 11 8 13 9 14
REMARK SMILES IDX 5 15 4 16 1 17 2 18 3 19 89 20 88 21 90 22 87 23 17 24 18 25
REMARK SMILES IDX 19 26 20 27 21 28 22 30 23 31 24 32 85 33 25 34 84 35 26 36
REMARK SMILES IDX 27 37 28 38 78 39 29 40 83 41 77 42 79 43 30 44 82 45 76 46
REMARK SMILES IDX 75 47 31 49 63 50 43 51 62 52 44 53 47 54 61 55 80 56 45 57
REMARK SMILES IDX 46 58 60 60 81 61 48 62 32 63 33 64 41 65 34 66 35 67 39 68
REMARK SMILES IDX 42 69 36 70 37 71 40 72 38 73 64 74 65 75 73 76 66 77 67 78
REMARK SMILES IDX 71 79 74 80 68 81 69 82 72 83 70 84 49 85 50 86 58 87 51 88
REMARK SMILES IDX 52 89 56 90 59 91 53 92 54 93 57 94 55 95
REMARK H PARENT 13 7 6 12 20 29 79 48 47 59
REMARK Flexibility Score: inf
ROOT
ATOM      1  C   UNL     1      -1.006  -0.240  -3.780  1.00  0.00     0.002 C 
ENDROOT
BRANCH   1   2
ATOM      2  C   UNL     1       0.045   0.405  -2.871  1.00  0.00     0.021 C 
BRANCH   2   3
ATOM      3  C   UNL     1       1.458  -0.165  -2.997  1.00  0.00     0.116 C 
BRANCH   3   4
ATOM      4  N   UNL     1       2.113   0.265  -4.217  1.00  0.00    -0.356 N 
ATOM      5  C   UNL     1       3.281   0.914  -4.449  1.00  0.00     0.229 C 
ATOM      6  O   UNL     1       3.527   1.181  -5.632  1.00  0.00    -0.275 OA
ATOM      7  H   UNL     1       1.613   0.044  -5.035  1.00  0.00     0.163 HD
BRANCH   5   8
ATOM      8  C   UNL     1       4.264   1.351  -3.371  1.00  0.00     0.142 C 
ATOM      9  N   UNL     1       5.075   1.086  -1.159  1.00  0.00    -0.330 N 
ATOM     10  C   UNL     1       4.843   2.509  -1.357  1.00  0.00     0.266 C 
ATOM     11  C   UNL     1       4.683   0.318  -2.333  1.00  0.00     0.276 C 
ATOM     12  H   UNL     1       6.089   0.991  -1.093  1.00  0.00     0.348 HD
ATOM     13  C   UNL     1       3.972   2.648  -2.607  1.00  0.00     0.059 C 
ATOM     14  C   UNL     1       2.522   2.944  -2.255  1.00  0.00     0.015 C 
BRANCH   9  15
ATOM     15  C   UNL     1       4.831   0.512   0.155  1.00  0.00     0.299 C 
BRANCH  15  16
ATOM     16  C   UNL     1       3.382   0.330   0.564  1.00  0.00     0.007 A 
ATOM     17  C   UNL     1       0.910  -2.550   0.844  1.00  0.00     0.045 C 
ATOM     18  C   UNL     1       1.439  -1.143   0.902  1.00  0.00    -0.036 A 
ATOM     19  C   UNL     1       2.774  -0.936   0.497  1.00  0.00     0.014 A 
ATOM     20  C   UNL     1       0.712  -0.045   1.379  1.00  0.00     0.020 A 
ATOM     21  C   UNL     1       1.304   1.219   1.447  1.00  0.00     0.016 A 
ATOM     22  Br  UNL     1      -1.083  -0.174   1.980  1.00  0.00    -0.051 Br
ATOM     23  C   UNL     1       2.631   1.400   1.058  1.00  0.00     0.011 A 
ENDBRANCH  15  16
ENDBRANCH   9  15
ENDBRANCH   5   8
ENDBRANCH   3   4
ENDBRANCH   2   3
ENDBRANCH   1   2
BRANCH   1  24
ATOM     24  C   UNL     1      -1.265  -1.734  -3.555  1.00  0.00     0.002 C 
BRANCH  24  25
ATOM     25  C   UNL     1      -1.512  -2.160  -2.107  1.00  0.00     0.021 C 
BRANCH  25  26
ATOM     26  C   UNL     1      -2.688  -1.484  -1.406  1.00  0.00     0.116 C 
BRANCH  26  27
ATOM     27  N   UNL     1      -3.972  -1.908  -1.933  1.00  0.00    -0.352 N 
ATOM     28  C   UNL     1      -5.052  -2.460  -1.288  1.00  0.00     0.251 C 
ATOM     29  H   UNL     1      -4.087  -1.781  -2.903  1.00  0.00     0.163 HD
ATOM     30  O   UNL     1      -5.989  -2.902  -1.947  1.00  0.00    -0.269 OA
BRANCH  28  31
ATOM     31  C   UNL     1      -5.101  -2.551   0.193  1.00  0.00     0.039 A 
ATOM     32  C   UNL     1      -5.619  -3.716   0.770  1.00  0.00     0.014 A 
ATOM     33  C   UNL     1      -4.707  -1.493   1.016  1.00  0.00     0.014 A 
ATOM     34  C   UNL     1      -5.697  -3.837   2.162  1.00  0.00     0.010 A 
ATOM     35  C   UNL     1      -4.727  -1.638   2.406  1.00  0.00     0.010 A 
ATOM     36  C   UNL     1      -5.231  -2.808   2.995  1.00  0.00    -0.014 A 
BRANCH  36  37
ATOM     37  C   UNL     1      -5.287  -2.943   4.476  1.00  0.00     0.031 A 
ATOM     38  C   UNL     1      -6.180  -2.049   5.294  1.00  0.00     0.074 A 
ATOM     39  C   UNL     1      -4.510  -3.853   5.096  1.00  0.00     0.049 A 
ATOM     40  N   UNL     1      -6.353  -2.014   6.593  1.00  0.00    -0.248 NA
ATOM     41  C   UNL     1      -6.968  -1.049   4.559  1.00  0.00     0.031 C 
ATOM     42  C   UNL     1      -3.565  -4.750   4.432  1.00  0.00     0.029 A 
ATOM     43  N   UNL     1      -4.390  -4.171   6.428  1.00  0.00    -0.354 N 
ATOM     44  C   UNL     1      -7.256  -0.985   6.828  1.00  0.00     0.074 A 
ATOM     45  C   UNL     1      -7.559  -0.389   5.545  1.00  0.00     0.031 C 
ATOM     46  C   UNL     1      -2.980  -5.533   5.353  1.00  0.00     0.029 A 
ATOM     47  C   UNL     1      -3.486  -5.175   6.675  1.00  0.00     0.049 A 
ATOM     48  H   UNL     1      -4.903  -3.721   7.137  1.00  0.00     0.167 HD
ATOM     49  C   UNL     1      -7.802  -0.587   8.003  1.00  0.00     0.037 A 
ATOM     50  C   UNL     1      -3.109  -5.745   7.836  1.00  0.00     0.037 A 
ATOM     51  C   UNL     1      -7.528  -1.195   9.279  1.00  0.00     0.049 A 
ATOM     52  C   UNL     1      -3.738  -5.292   9.126  1.00  0.00     0.074 A 
ATOM     53  C   UNL     1      -8.083  -0.901  10.513  1.00  0.00     0.029 A 
ATOM     54  N   UNL     1      -6.619  -2.221   9.485  1.00  0.00    -0.354 N 
ATOM     55  N   UNL     1      -4.645  -4.367   9.324  1.00  0.00    -0.248 NA
ATOM     56  C   UNL     1      -3.295  -5.970  10.353  1.00  0.00     0.031 C 
ATOM     57  C   UNL     1      -7.481  -1.722  11.472  1.00  0.00     0.029 A 
ATOM     58  C   UNL     1      -6.583  -2.558  10.830  1.00  0.00     0.049 A 
ATOM     59  H   UNL     1      -6.079  -2.648   8.781  1.00  0.00     0.167 HD
ATOM     60  C   UNL     1      -4.900  -4.370  10.689  1.00  0.00     0.074 A 
ATOM     61  C   UNL     1      -4.064  -5.399  11.270  1.00  0.00     0.031 C 
ATOM     62  C   UNL     1      -5.752  -3.589  11.396  1.00  0.00     0.037 A 
BRANCH  49  63
ATOM     63  C   UNL     1      -8.765   0.564   7.965  1.00  0.00     0.064 A 
ATOM     64  C   UNL     1     -10.048   0.430   7.414  1.00  0.00     0.173 A 
ATOM     65  C   UNL     1      -8.417   1.803   8.524  1.00  0.00     0.173 A 
ATOM     66  F   UNL     1     -10.426  -0.732   6.859  1.00  0.00    -0.203 F 
ATOM     67  C   UNL     1     -10.938   1.501   7.399  1.00  0.00     0.198 A 
ATOM     68  C   UNL     1      -9.319   2.864   8.532  1.00  0.00     0.198 A 
ATOM     69  F   UNL     1      -7.205   1.982   9.070  1.00  0.00    -0.203 F 
ATOM     70  F   UNL     1     -12.142   1.362   6.828  1.00  0.00    -0.200 F 
ATOM     71  C   UNL     1     -10.575   2.715   7.964  1.00  0.00     0.200 A 
ATOM     72  F   UNL     1      -8.972   4.032   9.090  1.00  0.00    -0.200 F 
ATOM     73  F   UNL     1     -11.435   3.743   7.956  1.00  0.00    -0.200 F 
ENDBRANCH  49  63
BRANCH  50  74
ATOM     74  C   UNL     1      -2.100  -6.837   7.830  1.00  0.00     0.064 A 
ATOM     75  C   UNL     1      -2.469  -8.159   8.115  1.00  0.00     0.173 A 
ATOM     76  C   UNL     1      -0.751  -6.580   7.548  1.00  0.00     0.173 A 
ATOM     77  F   UNL     1      -3.744  -8.448   8.414  1.00  0.00    -0.203 F 
ATOM     78  C   UNL     1      -1.523  -9.181   8.137  1.00  0.00     0.198 A 
ATOM     79  C   UNL     1       0.190  -7.608   7.544  1.00  0.00     0.198 A 
ATOM     80  F   UNL     1      -0.348  -5.333   7.266  1.00  0.00    -0.203 F 
ATOM     81  F   UNL     1      -1.895 -10.428   8.455  1.00  0.00    -0.200 F 
ATOM     82  C   UNL     1      -0.195  -8.906   7.846  1.00  0.00     0.200 A 
ATOM     83  F   UNL     1       1.470  -7.341   7.250  1.00  0.00    -0.200 F 
ATOM     84  F   UNL     1       0.714  -9.890   7.863  1.00  0.00    -0.200 F 
ENDBRANCH  50  74
BRANCH  62  85
ATOM     85  C   UNL     1      -5.847  -3.835  12.874  1.00  0.00     0.064 A 
ATOM     86  C   UNL     1      -4.816  -3.465  13.749  1.00  0.00     0.173 A 
ATOM     87  C   UNL     1      -6.999  -4.419  13.424  1.00  0.00     0.173 A 
ATOM     88  F   UNL     1      -3.688  -2.918  13.270  1.00  0.00    -0.203 F 
ATOM     89  C   UNL     1      -4.924  -3.692  15.119  1.00  0.00     0.198 A 
ATOM     90  C   UNL     1      -7.114  -4.619  14.797  1.00  0.00     0.198 A 
ATOM     91  F   UNL     1      -8.016  -4.786  12.631  1.00  0.00    -0.203 F 
ATOM     92  F   UNL     1      -3.907  -3.372  15.931  1.00  0.00    -0.200 F 
ATOM     93  C   UNL     1      -6.074  -4.263  15.642  1.00  0.00     0.200 A 
ATOM     94  F   UNL     1      -8.232  -5.161  15.302  1.00  0.00    -0.200 F 
ATOM     95  F   UNL     1      -6.178  -4.477  16.961  1.00  0.00    -0.200 F 
ENDBRANCH  62  85
ENDBRANCH  36  37
ENDBRANCH  28  31
ENDBRANCH  26  27
ENDBRANCH  25  26
ENDBRANCH  24  25
ENDBRANCH   1  24
TORSDOF 15
