REMARK SMILES C#CCN(CC(=O)NCCCCCCNC(=O)c1ccc(-c2c3nc(c(-c4c(F)c(F)c(F)c(F)c4F)c4ccc([nH]4)c(-c4c(F)c(F)c(F)c(F)c4F)c4nc(c(-c5c(F)c(F)c(F)c(F)c5F)c5ccc2[nH]5)C=C4)C=C3)cc1)S(=O)(=O)c1c(C)cc(C)cc1C
REMARK SMILES IDX 11 1 10 2 9 3 8 4 6 5 7 6 5 8 4 9 3 10 2 11 1 12 81 13 82 14
REMARK SMILES IDX 83 15 84 16 85 17 91 18 86 19 87 20 90 21 92 22 88 23 89 24
REMARK SMILES IDX 12 25 13 26 14 27 15 28 16 29 17 31 18 32 19 33 80 34 20 35
REMARK SMILES IDX 79 36 21 37 22 38 23 39 73 40 24 41 78 42 72 43 74 44 25 45
REMARK SMILES IDX 77 46 71 47 70 48 26 50 58 51 38 52 57 53 39 54 42 55 56 56
REMARK SMILES IDX 75 57 40 58 41 59 55 61 76 62 43 63 27 64 28 65 36 66 29 67
REMARK SMILES IDX 30 68 34 69 37 70 31 71 32 72 35 73 33 74 59 75 60 76 68 77
REMARK SMILES IDX 61 78 62 79 66 80 69 81 63 82 64 83 67 84 65 85 44 86 45 87
REMARK SMILES IDX 53 88 46 89 47 90 51 91 54 92 48 93 49 94 52 95 50 96
REMARK H PARENT 8 7 15 30 74 49 42 60
REMARK Flexibility Score: inf
ROOT
ATOM      1  C   UNL     1      -3.220   1.337   4.598  1.00  0.00     0.002 C 
ENDROOT
BRANCH   1   2
ATOM      2  C   UNL     1      -2.938   0.922   3.156  1.00  0.00     0.021 C 
BRANCH   2   3
ATOM      3  C   UNL     1      -4.174   0.528   2.334  1.00  0.00     0.116 C 
BRANCH   3   4
ATOM      4  N   UNL     1      -4.602   1.626   1.480  1.00  0.00    -0.355 N 
ATOM      5  C   UNL     1      -4.489   1.843   0.135  1.00  0.00     0.235 C 
ATOM      6  O   UNL     1      -4.961   2.893  -0.311  1.00  0.00    -0.274 OA
ATOM      7  H   UNL     1      -5.060   2.351   1.964  1.00  0.00     0.163 HD
BRANCH   5   8
ATOM      8  C   UNL     1      -3.898   0.806  -0.808  1.00  0.00     0.203 C 
BRANCH   8   9
ATOM      9  N   UNL     1      -2.421   0.744  -1.069  1.00  0.00    -0.177 NA
BRANCH   9  10
ATOM     10  C   UNL     1      -1.753   0.039   0.059  1.00  0.00     0.192 C 
BRANCH  10  11
ATOM     11  C   UNL     1      -0.233   0.039   0.059  1.00  0.00    -0.090 C 
ATOM     12  C   UNL     1       1.071   0.039   0.059  1.00  0.00     0.005 C 
ENDBRANCH  10  11
ENDBRANCH   9  10
BRANCH   9  13
ATOM     13  S   UNL     1      -1.662   2.208  -1.541  1.00  0.00     0.244 S 
ATOM     14  O   UNL     1      -1.970   3.150  -0.484  1.00  0.00    -0.207 OA
ATOM     15  O   UNL     1      -0.286   1.935  -1.897  1.00  0.00    -0.207 OA
BRANCH  13  16
ATOM     16  C   UNL     1      -2.358   2.798  -3.087  1.00  0.00     0.088 A 
ATOM     17  C   UNL     1      -2.241   4.184  -3.374  1.00  0.00    -0.031 A 
ATOM     18  C   UNL     1      -2.824   1.919  -4.093  1.00  0.00    -0.031 A 
ATOM     19  C   UNL     1      -1.540   5.179  -2.482  1.00  0.00     0.046 C 
ATOM     20  C   UNL     1      -2.749   4.685  -4.586  1.00  0.00     0.008 A 
ATOM     21  C   UNL     1      -3.334   2.466  -5.291  1.00  0.00     0.008 A 
ATOM     22  C   UNL     1      -2.760   0.417  -4.026  1.00  0.00     0.046 C 
ATOM     23  C   UNL     1      -3.311   3.840  -5.541  1.00  0.00    -0.051 A 
ATOM     24  C   UNL     1      -3.783   4.405  -6.848  1.00  0.00     0.044 C 
ENDBRANCH  13  16
ENDBRANCH   9  13
ENDBRANCH   8   9
ENDBRANCH   5   8
ENDBRANCH   3   4
ENDBRANCH   2   3
ENDBRANCH   1   2
BRANCH   1  25
ATOM     25  C   UNL     1      -3.593   0.189   5.542  1.00  0.00     0.002 C 
BRANCH  25  26
ATOM     26  C   UNL     1      -2.609  -0.986   5.601  1.00  0.00     0.021 C 
BRANCH  26  27
ATOM     27  C   UNL     1      -1.143  -0.619   5.835  1.00  0.00     0.116 C 
BRANCH  27  28
ATOM     28  N   UNL     1      -0.946   0.104   7.080  1.00  0.00    -0.352 N 
ATOM     29  C   UNL     1      -0.292  -0.269   8.226  1.00  0.00     0.251 C 
ATOM     30  H   UNL     1      -1.345   1.004   7.104  1.00  0.00     0.163 HD
ATOM     31  O   UNL     1      -0.402   0.408   9.244  1.00  0.00    -0.269 OA
BRANCH  29  32
ATOM     32  C   UNL     1       0.538  -1.492   8.254  1.00  0.00     0.039 A 
ATOM     33  C   UNL     1       0.408  -2.365   9.338  1.00  0.00     0.014 A 
ATOM     34  C   UNL     1       1.479  -1.750   7.253  1.00  0.00     0.014 A 
ATOM     35  C   UNL     1       1.185  -3.524   9.395  1.00  0.00     0.010 A 
ATOM     36  C   UNL     1       2.217  -2.933   7.284  1.00  0.00     0.010 A 
ATOM     37  C   UNL     1       2.081  -3.827   8.357  1.00  0.00    -0.014 A 
BRANCH  37  38
ATOM     38  C   UNL     1       2.894  -5.067   8.387  1.00  0.00     0.031 A 
ATOM     39  C   UNL     1       4.384  -4.988   8.562  1.00  0.00     0.074 A 
ATOM     40  C   UNL     1       2.299  -6.260   8.197  1.00  0.00     0.049 A 
ATOM     41  N   UNL     1       5.274  -5.948   8.540  1.00  0.00    -0.248 NA
ATOM     42  C   UNL     1       4.953  -3.647   8.765  1.00  0.00     0.031 C 
ATOM     43  C   UNL     1       0.867  -6.463   7.977  1.00  0.00     0.029 A 
ATOM     44  N   UNL     1       2.828  -7.525   8.145  1.00  0.00    -0.354 N 
ATOM     45  C   UNL     1       6.504  -5.327   8.705  1.00  0.00     0.074 A 
ATOM     46  C   UNL     1       6.252  -3.905   8.791  1.00  0.00     0.031 C 
ATOM     47  C   UNL     1       0.629  -7.776   7.824  1.00  0.00     0.029 A 
ATOM     48  C   UNL     1       1.893  -8.502   7.908  1.00  0.00     0.049 A 
ATOM     49  H   UNL     1       3.786  -7.714   8.265  1.00  0.00     0.167 HD
ATOM     50  C   UNL     1       7.731  -5.894   8.794  1.00  0.00     0.037 A 
ATOM     51  C   UNL     1       2.041  -9.833   7.770  1.00  0.00     0.037 A 
ATOM     52  C   UNL     1       7.976  -7.311   8.745  1.00  0.00     0.049 A 
ATOM     53  C   UNL     1       3.411 -10.440   7.896  1.00  0.00     0.074 A 
ATOM     54  C   UNL     1       9.176  -7.986   8.889  1.00  0.00     0.029 A 
ATOM     55  N   UNL     1       6.998  -8.273   8.539  1.00  0.00    -0.354 N 
ATOM     56  N   UNL     1       4.560  -9.848   8.108  1.00  0.00    -0.248 NA
ATOM     57  C   UNL     1       3.502 -11.902   7.770  1.00  0.00     0.031 C 
ATOM     58  C   UNL     1       8.928  -9.356   8.740  1.00  0.00     0.029 A 
ATOM     59  C   UNL     1       7.569  -9.535   8.539  1.00  0.00     0.049 A 
ATOM     60  H   UNL     1       6.040  -8.086   8.411  1.00  0.00     0.167 HD
ATOM     61  C   UNL     1       5.506 -10.861   8.166  1.00  0.00     0.074 A 
ATOM     62  C   UNL     1       4.796 -12.108   7.976  1.00  0.00     0.031 C 
ATOM     63  C   UNL     1       6.844 -10.766   8.358  1.00  0.00     0.037 A 
BRANCH  50  64
ATOM     64  C   UNL     1       8.906  -4.977   8.959  1.00  0.00     0.064 A 
ATOM     65  C   UNL     1       9.150  -4.308  10.167  1.00  0.00     0.173 A 
ATOM     66  C   UNL     1       9.816  -4.790   7.908  1.00  0.00     0.173 A 
ATOM     67  F   UNL     1       8.302  -4.445  11.197  1.00  0.00    -0.203 F 
ATOM     68  C   UNL     1      10.249  -3.465  10.309  1.00  0.00     0.198 A 
ATOM     69  C   UNL     1      10.928  -3.966   8.062  1.00  0.00     0.198 A 
ATOM     70  F   UNL     1       9.630  -5.412   6.734  1.00  0.00    -0.203 F 
ATOM     71  F   UNL     1      10.439  -2.802  11.459  1.00  0.00    -0.200 F 
ATOM     72  C   UNL     1      11.139  -3.299   9.259  1.00  0.00     0.200 A 
ATOM     73  F   UNL     1      11.793  -3.814   7.049  1.00  0.00    -0.200 F 
ATOM     74  F   UNL     1      12.199  -2.490   9.399  1.00  0.00    -0.200 F 
ENDBRANCH  50  64
BRANCH  51  75
ATOM     75  C   UNL     1       0.850 -10.686   7.527  1.00  0.00     0.064 A 
ATOM     76  C   UNL     1       0.346 -11.517   8.536  1.00  0.00     0.173 A 
ATOM     77  C   UNL     1       0.190 -10.682   6.290  1.00  0.00     0.173 A 
ATOM     78  F   UNL     1       0.959 -11.568   9.728  1.00  0.00    -0.203 F 
ATOM     79  C   UNL     1      -0.767 -12.324   8.313  1.00  0.00     0.198 A 
ATOM     80  C   UNL     1      -0.937 -11.473   6.075  1.00  0.00     0.198 A 
ATOM     81  F   UNL     1       0.632  -9.899   5.295  1.00  0.00    -0.203 F 
ATOM     82  F   UNL     1      -1.208 -13.136   9.283  1.00  0.00    -0.200 F 
ATOM     83  C   UNL     1      -1.411 -12.297   7.085  1.00  0.00     0.200 A 
ATOM     84  F   UNL     1      -1.563 -11.435   4.892  1.00  0.00    -0.200 F 
ATOM     85  F   UNL     1      -2.485 -13.070   6.872  1.00  0.00    -0.200 F 
ENDBRANCH  51  75
BRANCH  63  86
ATOM     86  C   UNL     1       7.622 -12.046   8.404  1.00  0.00     0.064 A 
ATOM     87  C   UNL     1       7.908 -12.771   7.238  1.00  0.00     0.173 A 
ATOM     88  C   UNL     1       8.122 -12.529   9.622  1.00  0.00     0.173 A 
ATOM     89  F   UNL     1       7.436 -12.355   6.053  1.00  0.00    -0.203 F 
ATOM     90  C   UNL     1       8.652 -13.946   7.293  1.00  0.00     0.198 A 
ATOM     91  C   UNL     1       8.885 -13.692   9.670  1.00  0.00     0.198 A 
ATOM     92  F   UNL     1       7.878 -11.868  10.763  1.00  0.00    -0.203 F 
ATOM     93  F   UNL     1       8.882 -14.644   6.172  1.00  0.00    -0.200 F 
ATOM     94  C   UNL     1       9.145 -14.402   8.507  1.00  0.00     0.200 A 
ATOM     95  F   UNL     1       9.367 -14.128  10.842  1.00  0.00    -0.200 F 
ATOM     96  F   UNL     1       9.866 -15.530   8.557  1.00  0.00    -0.200 F 
ENDBRANCH  63  86
ENDBRANCH  37  38
ENDBRANCH  29  32
ENDBRANCH  27  28
ENDBRANCH  26  27
ENDBRANCH  25  26
ENDBRANCH   1  25
TORSDOF 18
