REMARK SMILES COc1cc2ccccc2cc1C(=O)Nc1cc(C(=O)NCCCCCCNC(=O)c2ccc(-c3c4nc(c(-c5c(F)c(F)c(F)c(F)c5F)c5ccc([nH]5)c(-c5c(F)c(F)c(F)c(F)c5F)c5nc(c(-c6c(F)c(F)c(F)c(F)c6F)c6ccc3[nH]6)C=C5)C=C4)cc2)ccc1C
REMARK SMILES IDX 24 1 23 2 22 3 21 4 19 5 20 6 18 8 16 9 17 10 96 11 95 12
REMARK SMILES IDX 97 13 94 14 15 15 13 16 14 17 12 19 3 20 4 21 5 22 11 23
REMARK SMILES IDX 6 24 10 25 7 26 9 27 8 28 2 29 1 30 25 31 26 32 27 33 28 34
REMARK SMILES IDX 29 35 30 37 31 38 32 39 93 40 33 41 92 42 34 43 35 44 36 45
REMARK SMILES IDX 86 46 37 47 91 48 85 49 87 50 38 51 90 52 84 53 83 54 39 56
REMARK SMILES IDX 71 57 51 58 70 59 52 60 55 61 69 62 88 63 53 64 54 65 68 67
REMARK SMILES IDX 89 68 56 69 40 70 41 71 49 72 42 73 43 74 47 75 50 76 44 77
REMARK SMILES IDX 45 78 48 79 46 80 72 81 73 82 81 83 74 84 75 85 79 86 82 87
REMARK SMILES IDX 76 88 77 89 80 90 78 91 57 92 58 93 66 94 59 95 60 96 64 97
REMARK SMILES IDX 67 98 61 99 62 100 65 101 63 102
REMARK H PARENT 21 7 15 18 28 36 87 55 55 66
REMARK Flexibility Score: inf
ROOT
ATOM      1  C   UNL     1       0.932  -6.793   0.387  1.00  0.00     0.002 C 
ENDROOT
BRANCH   1   2
ATOM      2  C   UNL     1       1.281  -5.302   0.503  1.00  0.00     0.021 C 
BRANCH   2   3
ATOM      3  C   UNL     1       0.247  -4.379  -0.144  1.00  0.00     0.116 C 
BRANCH   3   4
ATOM      4  N   UNL     1      -0.798  -4.027   0.792  1.00  0.00    -0.352 N 
ATOM      5  C   UNL     1      -1.049  -2.932   1.580  1.00  0.00     0.251 C 
ATOM      6  O   UNL     1      -2.069  -2.985   2.273  1.00  0.00    -0.269 OA
ATOM      7  H   UNL     1      -1.483  -4.729   0.884  1.00  0.00     0.163 HD
BRANCH   5   8
ATOM      8  C   UNL     1      -0.224  -1.685   1.616  1.00  0.00     0.041 A 
ATOM      9  C   UNL     1       1.647  -0.275   0.960  1.00  0.00     0.045 A 
ATOM     10  C   UNL     1       1.054  -1.541   1.080  1.00  0.00     0.040 A 
ATOM     11  C   UNL     1       1.089   0.836   1.614  1.00  0.00    -0.027 A 
ATOM     12  C   UNL     1      -0.162   0.679   2.224  1.00  0.00     0.006 A 
ATOM     13  C   UNL     1       1.665   2.224   1.548  1.00  0.00     0.046 C 
ATOM     14  C   UNL     1      -0.822  -0.553   2.193  1.00  0.00     0.014 A 
BRANCH   9  15
ATOM     15  N   UNL     1       2.756  -0.096   0.119  1.00  0.00    -0.322 N 
ATOM     16  C   UNL     1       3.034  -0.618  -1.130  1.00  0.00     0.259 C 
ATOM     17  O   UNL     1       4.171  -0.438  -1.576  1.00  0.00    -0.269 OA
ATOM     18  H   UNL     1       3.452   0.501   0.478  1.00  0.00     0.170 HD
BRANCH  16  19
ATOM     19  C   UNL     1       2.045  -1.322  -2.011  1.00  0.00     0.082 A 
ATOM     20  C   UNL     1       0.661  -1.107  -2.059  1.00  0.00     0.132 A 
ATOM     21  C   UNL     1      -0.163  -1.915  -2.856  1.00  0.00     0.056 A 
ATOM     22  C   UNL     1       0.381  -2.856  -3.736  1.00  0.00    -0.015 A 
ATOM     23  C   UNL     1       2.591  -2.234  -2.938  1.00  0.00     0.026 A 
ATOM     24  C   UNL     1      -0.437  -3.648  -4.557  1.00  0.00     0.009 A 
ATOM     25  C   UNL     1       1.783  -2.981  -3.818  1.00  0.00    -0.017 A 
ATOM     26  C   UNL     1       0.124  -4.517  -5.492  1.00  0.00     0.001 A 
ATOM     27  C   UNL     1       2.332  -3.848  -4.778  1.00  0.00     0.009 A 
ATOM     28  C   UNL     1       1.507  -4.601  -5.616  1.00  0.00     0.001 A 
BRANCH  20  29
ATOM     29  O   UNL     1      -0.007  -0.171  -1.321  1.00  0.00    -0.496 OA
ATOM     30  C   UNL     1       0.123   1.129  -1.887  1.00  0.00     0.278 C 
ENDBRANCH  20  29
ENDBRANCH  16  19
ENDBRANCH   9  15
ENDBRANCH   5   8
ENDBRANCH   3   4
ENDBRANCH   2   3
ENDBRANCH   1   2
BRANCH   1  31
ATOM     31  C   UNL     1       0.729  -7.331  -1.043  1.00  0.00     0.002 C 
BRANCH  31  32
ATOM     32  C   UNL     1       1.782  -6.911  -2.073  1.00  0.00     0.021 C 
BRANCH  32  33
ATOM     33  C   UNL     1       3.149  -7.541  -1.844  1.00  0.00     0.116 C 
BRANCH  33  34
ATOM     34  N   UNL     1       3.361  -8.775  -2.591  1.00  0.00    -0.352 N 
ATOM     35  C   UNL     1       4.399  -9.692  -2.521  1.00  0.00     0.251 C 
ATOM     36  H   UNL     1       2.659  -8.990  -3.246  1.00  0.00     0.163 HD
ATOM     37  O   UNL     1       4.438 -10.635  -3.284  1.00  0.00    -0.269 OA
BRANCH  35  38
ATOM     38  C   UNL     1       5.383  -9.589  -1.413  1.00  0.00     0.039 A 
ATOM     39  C   UNL     1       5.674 -10.758  -0.696  1.00  0.00     0.014 A 
ATOM     40  C   UNL     1       5.834  -8.355  -0.958  1.00  0.00     0.014 A 
ATOM     41  C   UNL     1       6.178 -10.657   0.597  1.00  0.00     0.010 A 
ATOM     42  C   UNL     1       6.239  -8.244   0.355  1.00  0.00     0.010 A 
ATOM     43  C   UNL     1       6.330  -9.390   1.153  1.00  0.00    -0.014 A 
BRANCH  43  44
ATOM     44  C   UNL     1       6.450  -9.150   2.583  1.00  0.00     0.031 A 
ATOM     45  C   UNL     1       7.739  -8.732   3.164  1.00  0.00     0.074 A 
ATOM     46  C   UNL     1       5.320  -9.151   3.328  1.00  0.00     0.049 A 
ATOM     47  N   UNL     1       7.978  -8.695   4.431  1.00  0.00    -0.248 NA
ATOM     48  C   UNL     1       8.904  -8.383   2.353  1.00  0.00     0.031 C 
ATOM     49  C   UNL     1       5.119  -8.562   4.650  1.00  0.00     0.029 A 
ATOM     50  N   UNL     1       4.148  -9.896   3.099  1.00  0.00    -0.354 N 
ATOM     51  C   UNL     1       9.155  -8.010   4.601  1.00  0.00     0.074 A 
ATOM     52  C   UNL     1       9.764  -7.987   3.298  1.00  0.00     0.031 C 
ATOM     53  C   UNL     1       4.077  -9.168   5.242  1.00  0.00     0.029 A 
ATOM     54  C   UNL     1       3.699 -10.279   4.387  1.00  0.00     0.049 A 
ATOM     55  H   UNL     1       3.730 -10.104   2.233  1.00  0.00     0.167 HD
ATOM     56  C   UNL     1       9.376  -7.393   5.794  1.00  0.00     0.037 A 
ATOM     57  C   UNL     1       3.697 -11.587   4.779  1.00  0.00     0.037 A 
ATOM     58  C   UNL     1       8.473  -7.914   6.822  1.00  0.00     0.049 A 
ATOM     59  C   UNL     1       4.525 -11.860   6.014  1.00  0.00     0.074 A 
ATOM     60  C   UNL     1       7.380  -7.392   7.490  1.00  0.00     0.029 A 
ATOM     61  N   UNL     1       8.493  -9.280   7.104  1.00  0.00    -0.354 N 
ATOM     62  N   UNL     1       5.480 -11.078   6.436  1.00  0.00    -0.248 NA
ATOM     63  C   UNL     1       4.366 -13.049   6.846  1.00  0.00     0.031 C 
ATOM     64  C   UNL     1       6.673  -8.479   8.075  1.00  0.00     0.029 A 
ATOM     65  C   UNL     1       7.367  -9.648   7.811  1.00  0.00     0.049 A 
ATOM     66  H   UNL     1       9.212  -9.896   6.836  1.00  0.00     0.167 HD
ATOM     67  C   UNL     1       6.069 -11.632   7.540  1.00  0.00     0.074 A 
ATOM     68  C   UNL     1       5.326 -12.858   7.769  1.00  0.00     0.031 C 
ATOM     69  C   UNL     1       7.131 -11.042   8.164  1.00  0.00     0.037 A 
BRANCH  56  70
ATOM     70  C   UNL     1      10.245  -6.164   5.989  1.00  0.00     0.064 A 
ATOM     71  C   UNL     1      10.416  -5.617   7.280  1.00  0.00     0.173 A 
ATOM     72  C   UNL     1      10.807  -5.389   4.949  1.00  0.00     0.173 A 
ATOM     73  F   UNL     1       9.929  -6.237   8.365  1.00  0.00    -0.203 F 
ATOM     74  C   UNL     1      11.070  -4.398   7.503  1.00  0.00     0.198 A 
ATOM     75  C   UNL     1      11.507  -4.201   5.178  1.00  0.00     0.198 A 
ATOM     76  F   UNL     1      10.654  -5.699   3.658  1.00  0.00    -0.203 F 
ATOM     77  F   UNL     1      11.142  -3.897   8.744  1.00  0.00    -0.200 F 
ATOM     78  C   UNL     1      11.625  -3.695   6.452  1.00  0.00     0.200 A 
ATOM     79  F   UNL     1      12.034  -3.533   4.140  1.00  0.00    -0.200 F 
ATOM     80  F   UNL     1      12.249  -2.528   6.662  1.00  0.00    -0.200 F 
ENDBRANCH  56  70
BRANCH  57  81
ATOM     81  C   UNL     1       3.522 -12.536   3.647  1.00  0.00     0.064 A 
ATOM     82  C   UNL     1       2.330 -12.472   2.899  1.00  0.00     0.173 A 
ATOM     83  C   UNL     1       4.615 -13.191   3.068  1.00  0.00     0.173 A 
ATOM     84  F   UNL     1       1.251 -11.857   3.411  1.00  0.00    -0.203 F 
ATOM     85  C   UNL     1       2.276 -12.924   1.583  1.00  0.00     0.198 A 
ATOM     86  C   UNL     1       4.551 -13.660   1.754  1.00  0.00     0.198 A 
ATOM     87  F   UNL     1       5.782 -13.275   3.723  1.00  0.00    -0.203 F 
ATOM     88  F   UNL     1       1.164 -12.736   0.857  1.00  0.00    -0.200 F 
ATOM     89  C   UNL     1       3.397 -13.491   1.002  1.00  0.00     0.200 A 
ATOM     90  F   UNL     1       5.643 -14.184   1.180  1.00  0.00    -0.200 F 
ATOM     91  F   UNL     1       3.382 -13.834  -0.294  1.00  0.00    -0.200 F 
ENDBRANCH  57  81
BRANCH  69  92
ATOM     92  C   UNL     1       7.994 -11.694   9.216  1.00  0.00     0.064 A 
ATOM     93  C   UNL     1       8.236 -13.078   9.283  1.00  0.00     0.173 A 
ATOM     94  C   UNL     1       8.735 -10.902  10.124  1.00  0.00     0.173 A 
ATOM     95  F   UNL     1       7.696 -13.924   8.396  1.00  0.00    -0.203 F 
ATOM     96  C   UNL     1       9.095 -13.633  10.236  1.00  0.00     0.198 A 
ATOM     97  C   UNL     1       9.635 -11.454  11.035  1.00  0.00     0.198 A 
ATOM     98  F   UNL     1       8.626  -9.565  10.135  1.00  0.00    -0.203 F 
ATOM     99  F   UNL     1       9.257 -14.963  10.289  1.00  0.00    -0.200 F 
ATOM    100  C   UNL     1       9.801 -12.822  11.105  1.00  0.00     0.200 A 
ATOM    101  F   UNL     1      10.353 -10.651  11.833  1.00  0.00    -0.200 F 
ATOM    102  F   UNL     1      10.654 -13.355  11.989  1.00  0.00    -0.200 F 
ENDBRANCH  69  92
ENDBRANCH  43  44
ENDBRANCH  35  38
ENDBRANCH  33  34
ENDBRANCH  32  33
ENDBRANCH  31  32
ENDBRANCH   1  31
TORSDOF 16
