REMARK SMILES Cc1c[nH]c(C[N@@H+](C)[C@@H](C(=O)NCCCCCCNC(=O)c2ccc(-c3c4nc(c(-c5c(F)c(F)c(F)c(F)c5F)c5ccc([nH]5)c(-c5c(F)c(F)c(F)c(F)c5F)c5nc(c(-c6c(F)c(F)c(F)c(F)c6F)c6ccc3[nH]6)C=C5)C=C4)cc2)c2ccc(NC(=O)N3CCCC3)cc2)n1
REMARK SMILES IDX 15 1 14 2 13 3 12 4 10 5 11 6 9 8 7 9 8 10 6 12 5 13 1 14
REMARK SMILES IDX 2 15 3 16 99 17 4 18 85 20 86 21 98 22 87 23 97 24 88 25
REMARK SMILES IDX 89 26 90 27 91 29 92 30 93 31 96 32 94 33 95 34 16 35 17 36
REMARK SMILES IDX 18 37 19 38 20 39 21 41 22 42 23 43 84 44 24 45 83 46 25 47
REMARK SMILES IDX 26 48 27 49 77 50 28 51 82 52 76 53 78 54 29 55 81 56 75 57
REMARK SMILES IDX 74 58 30 60 62 61 42 62 61 63 43 64 46 65 60 66 79 67 44 68
REMARK SMILES IDX 45 69 59 71 80 72 47 73 31 74 32 75 40 76 33 77 34 78 38 79
REMARK SMILES IDX 41 80 35 81 36 82 39 83 37 84 63 85 64 86 72 87 65 88 66 89
REMARK SMILES IDX 70 90 73 91 67 92 68 93 71 94 69 95 48 96 49 97 57 98 50 99
REMARK SMILES IDX 51 100 55 101 58 102 52 103 53 104 56 105 54 106
REMARK H PARENT 12 7 7 11 4 19 89 28 19 40 78 59 46 70
REMARK Flexibility Score: inf
ROOT
ATOM      1  C   UNL     1      -7.516   2.832   1.480  1.00  0.00     0.002 C 
ENDROOT
BRANCH   1   2
ATOM      2  C   UNL     1      -6.078   3.366   1.482  1.00  0.00     0.021 C 
BRANCH   2   3
ATOM      3  C   UNL     1      -5.272   2.958   2.718  1.00  0.00     0.116 C 
BRANCH   3   4
ATOM      4  N   UNL     1      -4.914   1.561   2.609  1.00  0.00    -0.351 N 
ATOM      5  C   UNL     1      -3.749   1.034   2.125  1.00  0.00     0.283 C 
ATOM      6  O   UNL     1      -3.821  -0.095   1.622  1.00  0.00    -0.268 OA
ATOM      7  H   UNL     1      -5.588   0.914   2.919  1.00  0.00     0.163 HD
BRANCH   5   8
ATOM      8  C   UNL     1      -2.404   1.824   2.269  1.00  0.00     0.305 C 
BRANCH   8   9
ATOM      9  N   UNL     1      -2.025   2.503   0.998  1.00  0.00    -0.317 N 
ATOM     10  C   UNL     1      -2.510   3.860   0.844  1.00  0.00     0.334 C 
ATOM     11  H   UNL     1      -1.019   2.571   1.151  1.00  0.00     0.349 HD
BRANCH   9  12
ATOM     12  C   UNL     1      -2.139   1.731  -0.249  1.00  0.00     0.339 C 
BRANCH  12  13
ATOM     13  C   UNL     1      -0.985   0.808  -0.481  1.00  0.00     0.161 A 
ATOM     14  C   UNL     1       2.453  -0.050  -0.729  1.00  0.00     0.068 C 
ATOM     15  C   UNL     1       0.975  -0.042  -0.733  1.00  0.00     0.056 A 
ATOM     16  C   UNL     1       0.096  -1.099  -0.793  1.00  0.00     0.107 A 
ATOM     17  N   UNL     1       0.286   1.140  -0.615  1.00  0.00    -0.233 NA
ATOM     18  N   UNL     1      -1.141  -0.551  -0.595  1.00  0.00    -0.344 N 
ATOM     19  H   UNL     1      -1.992  -1.043  -0.542  1.00  0.00     0.167 HD
ENDBRANCH  12  13
ENDBRANCH   9  12
ENDBRANCH   8   9
BRANCH   8  20
ATOM     20  C   UNL     1      -1.276   0.926   2.807  1.00  0.00     0.019 A 
ATOM     21  C   UNL     1      -1.539  -0.251   3.520  1.00  0.00     0.012 A 
ATOM     22  C   UNL     1       0.070   1.250   2.575  1.00  0.00     0.012 A 
ATOM     23  C   UNL     1      -0.531  -1.193   3.723  1.00  0.00     0.027 A 
ATOM     24  C   UNL     1       1.074   0.296   2.762  1.00  0.00     0.027 A 
ATOM     25  C   UNL     1       0.739  -0.982   3.198  1.00  0.00     0.042 A 
BRANCH  25  26
ATOM     26  N   UNL     1       1.690  -2.006   3.049  1.00  0.00    -0.308 N 
ATOM     27  C   UNL     1       1.554  -3.361   3.098  1.00  0.00     0.321 C 
ATOM     28  H   UNL     1       2.608  -1.692   2.881  1.00  0.00     0.171 HD
ATOM     29  O   UNL     1       2.543  -4.040   3.382  1.00  0.00    -0.248 OA
ATOM     30  N   UNL     1       0.347  -3.941   2.824  1.00  0.00    -0.325 N 
ATOM     31  C   UNL     1      -0.582  -3.594   1.765  1.00  0.00     0.121 C 
ATOM     32  C   UNL     1       0.017  -5.250   3.338  1.00  0.00     0.121 C 
ATOM     33  C   UNL     1      -1.890  -4.190   2.248  1.00  0.00     0.023 C 
ATOM     34  C   UNL     1      -1.463  -5.447   3.009  1.00  0.00     0.023 C 
ENDBRANCH  25  26
ENDBRANCH   8  20
ENDBRANCH   5   8
ENDBRANCH   3   4
ENDBRANCH   2   3
ENDBRANCH   1   2
BRANCH   1  35
ATOM     35  C   UNL     1      -8.397   3.363   2.614  1.00  0.00     0.002 C 
BRANCH  35  36
ATOM     36  C   UNL     1      -8.442   4.888   2.730  1.00  0.00     0.021 C 
BRANCH  36  37
ATOM     37  C   UNL     1      -8.871   5.606   1.454  1.00  0.00     0.116 C 
BRANCH  37  38
ATOM     38  N   UNL     1     -10.228   5.257   1.066  1.00  0.00    -0.352 N 
ATOM     39  C   UNL     1     -11.324   6.068   0.919  1.00  0.00     0.251 C 
ATOM     40  H   UNL     1     -10.382   4.302   0.883  1.00  0.00     0.163 HD
ATOM     41  O   UNL     1     -12.444   5.584   0.802  1.00  0.00    -0.269 OA
BRANCH  39  42
ATOM     42  C   UNL     1     -11.150   7.535   0.917  1.00  0.00     0.039 A 
ATOM     43  C   UNL     1     -12.015   8.320   1.683  1.00  0.00     0.014 A 
ATOM     44  C   UNL     1     -10.143   8.133   0.153  1.00  0.00     0.014 A 
ATOM     45  C   UNL     1     -11.834   9.703   1.727  1.00  0.00     0.010 A 
ATOM     46  C   UNL     1      -9.920   9.503   0.254  1.00  0.00     0.010 A 
ATOM     47  C   UNL     1     -10.767  10.302   1.037  1.00  0.00    -0.014 A 
BRANCH  47  48
ATOM     48  C   UNL     1     -10.526  11.764   1.119  1.00  0.00     0.031 A 
ATOM     49  C   UNL     1     -10.660  12.621  -0.108  1.00  0.00     0.074 A 
ATOM     50  C   UNL     1     -10.129  12.308   2.286  1.00  0.00     0.049 A 
ATOM     51  N   UNL     1     -10.432  13.902  -0.252  1.00  0.00    -0.248 NA
ATOM     52  C   UNL     1     -11.080  11.944  -1.345  1.00  0.00     0.031 C 
ATOM     53  C   UNL     1      -9.919  11.572   3.533  1.00  0.00     0.029 A 
ATOM     54  N   UNL     1      -9.821  13.606   2.610  1.00  0.00    -0.354 N 
ATOM     55  C   UNL     1     -10.669  14.179  -1.592  1.00  0.00     0.074 A 
ATOM     56  C   UNL     1     -11.005  12.925  -2.231  1.00  0.00     0.031 C 
ATOM     57  C   UNL     1      -9.537  12.431   4.492  1.00  0.00     0.029 A 
ATOM     58  C   UNL     1      -9.440  13.771   3.919  1.00  0.00     0.049 A 
ATOM     59  H   UNL     1      -9.869  14.348   1.965  1.00  0.00     0.167 HD
ATOM     60  C   UNL     1     -10.635  15.376  -2.226  1.00  0.00     0.037 A 
ATOM     61  C   UNL     1      -9.048  14.877   4.579  1.00  0.00     0.037 A 
ATOM     62  C   UNL     1     -10.325  16.624  -1.580  1.00  0.00     0.049 A 
ATOM     63  C   UNL     1      -9.008  16.192   3.848  1.00  0.00     0.074 A 
ATOM     64  C   UNL     1     -10.326  17.898  -2.119  1.00  0.00     0.029 A 
ATOM     65  N   UNL     1      -9.955  16.754  -0.249  1.00  0.00    -0.354 N 
ATOM     66  N   UNL     1      -9.306  16.453   2.599  1.00  0.00    -0.248 NA
ATOM     67  C   UNL     1      -8.581  17.366   4.621  1.00  0.00     0.031 C 
ATOM     68  C   UNL     1      -9.910  18.793  -1.129  1.00  0.00     0.029 A 
ATOM     69  C   UNL     1      -9.699  18.084   0.043  1.00  0.00     0.049 A 
ATOM     70  H   UNL     1      -9.884  16.010   0.393  1.00  0.00     0.167 HD
ATOM     71  C   UNL     1      -9.128  17.821   2.442  1.00  0.00     0.074 A 
ATOM     72  C   UNL     1      -8.713  18.338   3.730  1.00  0.00     0.031 C 
ATOM     73  C   UNL     1      -9.292  18.581   1.332  1.00  0.00     0.037 A 
BRANCH  60  74
ATOM     74  C   UNL     1     -10.945  15.394  -3.695  1.00  0.00     0.064 A 
ATOM     75  C   UNL     1     -12.241  15.151  -4.176  1.00  0.00     0.173 A 
ATOM     76  C   UNL     1      -9.945  15.699  -4.630  1.00  0.00     0.173 A 
ATOM     77  F   UNL     1     -13.230  14.844  -3.324  1.00  0.00    -0.203 F 
ATOM     78  C   UNL     1     -12.517  15.184  -5.540  1.00  0.00     0.198 A 
ATOM     79  C   UNL     1     -10.232  15.762  -5.992  1.00  0.00     0.198 A 
ATOM     80  F   UNL     1      -8.690  15.945  -4.224  1.00  0.00    -0.203 F 
ATOM     81  F   UNL     1     -13.751  14.901  -5.979  1.00  0.00    -0.200 F 
ATOM     82  C   UNL     1     -11.515  15.497  -6.446  1.00  0.00     0.200 A 
ATOM     83  F   UNL     1      -9.265  16.077  -6.865  1.00  0.00    -0.200 F 
ATOM     84  F   UNL     1     -11.784  15.537  -7.758  1.00  0.00    -0.200 F 
ENDBRANCH  60  74
BRANCH  61  85
ATOM     85  C   UNL     1      -8.680  14.794   6.017  1.00  0.00     0.064 A 
ATOM     86  C   UNL     1      -9.485  15.385   7.001  1.00  0.00     0.173 A 
ATOM     87  C   UNL     1      -7.517  14.132   6.437  1.00  0.00     0.173 A 
ATOM     88  F   UNL     1     -10.597  16.047   6.647  1.00  0.00    -0.203 F 
ATOM     89  C   UNL     1      -9.129  15.338   8.347  1.00  0.00     0.198 A 
ATOM     90  C   UNL     1      -7.177  14.059   7.786  1.00  0.00     0.198 A 
ATOM     91  F   UNL     1      -6.716  13.544   5.536  1.00  0.00    -0.203 F 
ATOM     92  F   UNL     1      -9.891  15.953   9.261  1.00  0.00    -0.200 F 
ATOM     93  C   UNL     1      -7.978  14.670   8.739  1.00  0.00     0.200 A 
ATOM     94  F   UNL     1      -6.073  13.400   8.162  1.00  0.00    -0.200 F 
ATOM     95  F   UNL     1      -7.638  14.622  10.034  1.00  0.00    -0.200 F 
ENDBRANCH  61  85
BRANCH  73  96
ATOM     96  C   UNL     1      -9.049  20.057   1.466  1.00  0.00     0.064 A 
ATOM     97  C   UNL     1      -7.756  20.578   1.620  1.00  0.00     0.173 A 
ATOM     98  C   UNL     1     -10.119  20.962   1.397  1.00  0.00     0.173 A 
ATOM     99  F   UNL     1      -6.702  19.752   1.708  1.00  0.00    -0.203 F 
ATOM    100  C   UNL     1      -7.546  21.950   1.723  1.00  0.00     0.198 A 
ATOM    101  C   UNL     1      -9.902  22.335   1.469  1.00  0.00     0.198 A 
ATOM    102  F   UNL     1     -11.375  20.515   1.243  1.00  0.00    -0.203 F 
ATOM    103  F   UNL     1      -6.307  22.423   1.917  1.00  0.00    -0.200 F 
ATOM    104  C   UNL     1      -8.617  22.827   1.640  1.00  0.00     0.200 A 
ATOM    105  F   UNL     1     -10.936  23.181   1.374  1.00  0.00    -0.200 F 
ATOM    106  F   UNL     1      -8.411  24.148   1.730  1.00  0.00    -0.200 F 
ENDBRANCH  73  96
ENDBRANCH  47  48
ENDBRANCH  39  42
ENDBRANCH  37  38
ENDBRANCH  36  37
ENDBRANCH  35  36
ENDBRANCH   1  35
TORSDOF 18
