REMARK SMILES CC(C)n1ccc(C#CC(=O)NCCCCCCNC(=O)c2ccc(-c3c4nc(c(-c5c(F)c(F)c(F)c(F)c5F)c5ccc([nH]5)c(-c5c(F)c(F)c(F)c(F)c5F)c5nc(c(-c6c(F)c(F)c(F)c(F)c6F)c6ccc3[nH]6)C=C5)C=C4)cc2)n1
REMARK SMILES IDX 15 1 14 2 13 3 12 4 10 5 11 6 9 8 8 9 7 10 4 11 5 12 85 13
REMARK SMILES IDX 6 14 2 15 1 16 3 17 16 18 17 19 18 20 19 21 20 22 21 24
REMARK SMILES IDX 22 25 23 26 84 27 24 28 83 29 25 30 26 31 27 32 77 33 28 34
REMARK SMILES IDX 82 35 76 36 78 37 29 38 81 39 75 40 74 41 30 43 62 44 42 45
REMARK SMILES IDX 61 46 43 47 46 48 60 49 79 50 44 51 45 52 59 54 80 55 47 56
REMARK SMILES IDX 31 57 32 58 40 59 33 60 34 61 38 62 41 63 35 64 36 65 39 66
REMARK SMILES IDX 37 67 63 68 64 69 72 70 65 71 66 72 70 73 73 74 67 75 68 76
REMARK SMILES IDX 71 77 69 78 48 79 49 80 57 81 50 82 51 83 55 84 58 85 52 86
REMARK SMILES IDX 53 87 56 88 54 89
REMARK H PARENT 12 7 19 23 78 42 46 53
REMARK Flexibility Score: inf
ROOT
ATOM      1  C   UNL     1      -7.380   6.687   4.093  1.00  0.00     0.002 C 
ENDROOT
BRANCH   1   2
ATOM      2  C   UNL     1      -6.124   5.844   3.835  1.00  0.00     0.021 C 
BRANCH   2   3
ATOM      3  C   UNL     1      -6.367   4.590   2.998  1.00  0.00     0.117 C 
BRANCH   3   4
ATOM      4  N   UNL     1      -6.849   4.926   1.673  1.00  0.00    -0.345 N 
ATOM      5  C   UNL     1      -6.274   4.622   0.471  1.00  0.00     0.296 C 
ATOM      6  O   UNL     1      -6.769   5.003  -0.581  1.00  0.00    -0.260 OA
ATOM      7  H   UNL     1      -7.692   5.433   1.634  1.00  0.00     0.164 HD
BRANCH   5   8
ATOM      8  C   UNL     1      -5.090   3.799   0.450  1.00  0.00     0.002 C 
ATOM      9  C   UNL     1      -4.158   3.055   0.463  1.00  0.00    -0.034 C 
BRANCH   9  10
ATOM     10  C   UNL     1      -3.111   2.090   0.502  1.00  0.00     0.135 A 
ATOM     11  N   UNL     1      -1.135   1.344   0.508  1.00  0.00    -0.269 N 
ATOM     12  C   UNL     1      -1.940   0.235   0.554  1.00  0.00     0.110 A 
ATOM     13  N   UNL     1      -1.843   2.497   0.537  1.00  0.00    -0.164 NA
ATOM     14  C   UNL     1      -3.236   0.694   0.531  1.00  0.00     0.059 A 
BRANCH  11  15
ATOM     15  C   UNL     1       0.329   1.390   0.512  1.00  0.00     0.101 C 
ATOM     16  C   UNL     1       0.975   0.098  -0.003  1.00  0.00     0.033 C 
ATOM     17  C   UNL     1       0.878   2.573  -0.296  1.00  0.00     0.033 C 
ENDBRANCH  11  15
ENDBRANCH   9  10
ENDBRANCH   5   8
ENDBRANCH   3   4
ENDBRANCH   2   3
ENDBRANCH   1   2
BRANCH   1  18
ATOM     18  C   UNL     1      -8.570   5.948   4.730  1.00  0.00     0.002 C 
BRANCH  18  19
ATOM     19  C   UNL     1      -8.290   5.195   6.038  1.00  0.00     0.021 C 
BRANCH  19  20
ATOM     20  C   UNL     1      -7.801   6.090   7.164  1.00  0.00     0.116 C 
BRANCH  20  21
ATOM     21  N   UNL     1      -8.823   7.013   7.676  1.00  0.00    -0.352 N 
ATOM     22  C   UNL     1      -8.740   7.861   8.774  1.00  0.00     0.251 C 
ATOM     23  H   UNL     1      -9.673   7.033   7.180  1.00  0.00     0.163 HD
ATOM     24  O   UNL     1      -9.741   8.303   9.324  1.00  0.00    -0.269 OA
BRANCH  22  25
ATOM     25  C   UNL     1      -7.403   8.274   9.236  1.00  0.00     0.039 A 
ATOM     26  C   UNL     1      -7.050   8.545  10.562  1.00  0.00     0.014 A 
ATOM     27  C   UNL     1      -6.455   8.404   8.246  1.00  0.00     0.014 A 
ATOM     28  C   UNL     1      -5.731   8.938  10.823  1.00  0.00     0.010 A 
ATOM     29  C   UNL     1      -5.170   8.237   8.622  1.00  0.00     0.010 A 
ATOM     30  C   UNL     1      -4.791   8.828   9.796  1.00  0.00    -0.014 A 
BRANCH  30  31
ATOM     31  C   UNL     1      -3.362   9.049   9.904  1.00  0.00     0.031 A 
ATOM     32  C   UNL     1      -2.749   8.169  10.921  1.00  0.00     0.074 A 
ATOM     33  C   UNL     1      -2.670   9.784   8.996  1.00  0.00     0.049 A 
ATOM     34  N   UNL     1      -2.389   8.513  12.110  1.00  0.00    -0.248 NA
ATOM     35  C   UNL     1      -2.769   6.710  10.706  1.00  0.00     0.031 C 
ATOM     36  C   UNL     1      -3.140  10.447   7.769  1.00  0.00     0.029 A 
ATOM     37  N   UNL     1      -1.331  10.054   8.965  1.00  0.00    -0.354 N 
ATOM     38  C   UNL     1      -1.881   7.358  12.689  1.00  0.00     0.074 A 
ATOM     39  C   UNL     1      -2.386   6.266  11.905  1.00  0.00     0.031 C 
ATOM     40  C   UNL     1      -2.083  10.839   7.014  1.00  0.00     0.029 A 
ATOM     41  C   UNL     1      -0.865  10.604   7.761  1.00  0.00     0.049 A 
ATOM     42  H   UNL     1      -0.738   9.875   9.731  1.00  0.00     0.167 HD
ATOM     43  C   UNL     1      -0.828   7.440  13.547  1.00  0.00     0.037 A 
ATOM     44  C   UNL     1       0.447  10.810   7.447  1.00  0.00     0.037 A 
ATOM     45  C   UNL     1      -0.648   8.806  13.988  1.00  0.00     0.049 A 
ATOM     46  C   UNL     1       1.189  10.821   8.741  1.00  0.00     0.074 A 
ATOM     47  C   UNL     1      -1.446   9.718  14.653  1.00  0.00     0.029 A 
ATOM     48  N   UNL     1       0.313   9.550  13.347  1.00  0.00    -0.354 N 
ATOM     49  N   UNL     1       1.024  11.749   9.645  1.00  0.00    -0.248 NA
ATOM     50  C   UNL     1       1.653   9.530   9.233  1.00  0.00     0.031 C 
ATOM     51  C   UNL     1      -1.232  10.957  13.975  1.00  0.00     0.029 A 
ATOM     52  C   UNL     1      -0.234  10.766  13.021  1.00  0.00     0.049 A 
ATOM     53  H   UNL     1       1.235   9.261  13.155  1.00  0.00     0.167 HD
ATOM     54  C   UNL     1       0.925  11.052  10.841  1.00  0.00     0.074 A 
ATOM     55  C   UNL     1       1.338   9.683  10.522  1.00  0.00     0.031 C 
ATOM     56  C   UNL     1       0.211  11.550  11.893  1.00  0.00     0.037 A 
BRANCH  43  57
ATOM     57  C   UNL     1       0.288   6.424  13.628  1.00  0.00     0.064 A 
ATOM     58  C   UNL     1       1.280   6.599  14.613  1.00  0.00     0.173 A 
ATOM     59  C   UNL     1       0.598   5.486  12.618  1.00  0.00     0.173 A 
ATOM     60  F   UNL     1       1.097   7.469  15.618  1.00  0.00    -0.203 F 
ATOM     61  C   UNL     1       2.521   5.963  14.534  1.00  0.00     0.198 A 
ATOM     62  C   UNL     1       1.818   4.814  12.572  1.00  0.00     0.198 A 
ATOM     63  F   UNL     1      -0.202   5.254  11.573  1.00  0.00    -0.203 F 
ATOM     64  F   UNL     1       3.479   6.267  15.419  1.00  0.00    -0.200 F 
ATOM     65  C   UNL     1       2.792   5.078  13.508  1.00  0.00     0.200 A 
ATOM     66  F   UNL     1       2.067   3.974  11.557  1.00  0.00    -0.200 F 
ATOM     67  F   UNL     1       4.002   4.517  13.392  1.00  0.00    -0.200 F 
ENDBRANCH  43  57
BRANCH  44  68
ATOM     68  C   UNL     1       1.160  10.611   6.154  1.00  0.00     0.064 A 
ATOM     69  C   UNL     1       2.486  11.054   5.973  1.00  0.00     0.173 A 
ATOM     70  C   UNL     1       0.679   9.700   5.195  1.00  0.00     0.173 A 
ATOM     71  F   UNL     1       3.045  11.889   6.861  1.00  0.00    -0.203 F 
ATOM     72  C   UNL     1       3.289  10.581   4.925  1.00  0.00     0.198 A 
ATOM     73  C   UNL     1       1.482   9.226   4.153  1.00  0.00     0.198 A 
ATOM     74  F   UNL     1      -0.547   9.170   5.312  1.00  0.00    -0.203 F 
ATOM     75  F   UNL     1       4.568  10.973   4.828  1.00  0.00    -0.200 F 
ATOM     76  C   UNL     1       2.791   9.653   4.027  1.00  0.00     0.200 A 
ATOM     77  F   UNL     1       1.002   8.297   3.315  1.00  0.00    -0.200 F 
ATOM     78  F   UNL     1       3.580   9.139   3.072  1.00  0.00    -0.200 F 
ENDBRANCH  44  68
BRANCH  56  79
ATOM     79  C   UNL     1      -0.295  12.965  11.800  1.00  0.00     0.064 A 
ATOM     80  C   UNL     1      -1.230  13.424  10.853  1.00  0.00     0.173 A 
ATOM     81  C   UNL     1       0.082  13.859  12.809  1.00  0.00     0.173 A 
ATOM     82  F   UNL     1      -1.719  12.605   9.915  1.00  0.00    -0.203 F 
ATOM     83  C   UNL     1      -1.724  14.729  10.893  1.00  0.00     0.198 A 
ATOM     84  C   UNL     1      -0.437  15.149  12.868  1.00  0.00     0.198 A 
ATOM     85  F   UNL     1       0.927  13.461  13.773  1.00  0.00    -0.203 F 
ATOM     86  F   UNL     1      -2.608  15.145   9.973  1.00  0.00    -0.200 F 
ATOM     87  C   UNL     1      -1.330  15.588  11.905  1.00  0.00     0.200 A 
ATOM     88  F   UNL     1      -0.090  15.957  13.879  1.00  0.00    -0.200 F 
ATOM     89  F   UNL     1      -1.827  16.832  11.966  1.00  0.00    -0.200 F 
ENDBRANCH  56  79
ENDBRANCH  30  31
ENDBRANCH  22  25
ENDBRANCH  20  21
ENDBRANCH  19  20
ENDBRANCH  18  19
ENDBRANCH   1  18
TORSDOF 15
