REMARK SMILES O=C(CC(=O)c1ccccc1)Nc1cccc(C(=O)NCCCCCCNC(=O)c2ccc(-c3c4nc(c(-c5c(F)c(F)c(F)c(F)c5F)c5ccc([nH]5)c(-c5c(F)c(F)c(F)c(F)c5F)c5nc(c(-c6c(F)c(F)c(F)c(F)c6F)c6ccc3[nH]6)C=C5)C=C4)cc2)c1
REMARK SMILES IDX 22 1 21 2 20 3 18 4 19 5 17 7 13 8 14 9 93 10 15 11 16 12
REMARK SMILES IDX 12 13 1 14 2 15 3 17 4 18 5 19 6 20 7 21 11 22 8 23 10 24
REMARK SMILES IDX 9 25 23 26 24 27 25 28 26 29 27 30 28 31 29 33 30 34 31 35
REMARK SMILES IDX 92 36 32 37 91 38 33 39 34 40 35 41 85 42 36 43 90 44 84 45
REMARK SMILES IDX 86 46 37 47 89 48 83 49 82 50 38 52 70 53 50 54 69 55 51 56
REMARK SMILES IDX 54 57 68 58 87 59 52 60 53 61 67 63 88 64 55 65 39 66 40 67
REMARK SMILES IDX 48 68 41 69 42 70 46 71 49 72 43 73 44 74 47 75 45 76 71 77
REMARK SMILES IDX 72 78 80 79 73 80 74 81 78 82 81 83 75 84 76 85 79 86 77 87
REMARK SMILES IDX 56 88 57 89 65 90 58 91 59 92 63 93 66 94 60 95 61 96 64 97
REMARK SMILES IDX 62 98
REMARK H PARENT 20 6 12 16 27 32 86 51 54 62
REMARK Flexibility Score: inf
ROOT
ATOM      1  C   UNL     1       0.426   2.919  -3.818  1.00  0.00     0.021 C 
ENDROOT
BRANCH   1   2
ATOM      2  C   UNL     1       0.147   1.563  -3.183  1.00  0.00     0.116 C 
BRANCH   2   3
ATOM      3  N   UNL     1      -0.663   0.661  -3.993  1.00  0.00    -0.352 N 
ATOM      4  C   UNL     1      -0.556  -0.704  -4.181  1.00  0.00     0.251 C 
ATOM      5  O   UNL     1      -1.341  -1.277  -4.933  1.00  0.00    -0.269 OA
ATOM      6  H   UNL     1      -1.401   1.092  -4.483  1.00  0.00     0.163 HD
BRANCH   4   7
ATOM      7  C   UNL     1       0.541  -1.481  -3.543  1.00  0.00     0.041 A 
ATOM      8  C   UNL     1       2.240  -1.608  -1.826  1.00  0.00     0.041 A 
ATOM      9  C   UNL     1       2.885  -2.613  -2.551  1.00  0.00     0.026 A 
ATOM     10  C   UNL     1       0.999  -1.160  -2.267  1.00  0.00     0.040 A 
ATOM     11  C   UNL     1       2.327  -3.091  -3.743  1.00  0.00     0.003 A 
ATOM     12  C   UNL     1       1.175  -2.497  -4.261  1.00  0.00     0.014 A 
BRANCH   8  13
ATOM     13  N   UNL     1       2.909  -1.031  -0.721  1.00  0.00    -0.326 N 
ATOM     14  O   UNL     1       1.400   0.639  -0.110  1.00  0.00    -0.274 OA
ATOM     15  C   UNL     1       2.446   0.016   0.063  1.00  0.00     0.232 C 
ATOM     16  H   UNL     1       3.788  -1.409  -0.486  1.00  0.00     0.169 HD
BRANCH  15  17
ATOM     17  C   UNL     1       3.355   0.437   1.177  1.00  0.00     0.181 C 
BRANCH  17  18
ATOM     18  C   UNL     1       4.110  -0.617   1.932  1.00  0.00     0.172 C 
ATOM     19  O   UNL     1       5.334  -0.526   2.046  1.00  0.00    -0.294 OA
BRANCH  18  20
ATOM     20  C   UNL     1       3.420  -1.751   2.615  1.00  0.00     0.018 A 
ATOM     21  C   UNL     1       4.032  -2.262   3.768  1.00  0.00     0.012 A 
ATOM     22  C   UNL     1       2.271  -2.382   2.125  1.00  0.00     0.012 A 
ATOM     23  C   UNL     1       3.525  -3.398   4.400  1.00  0.00     0.001 A 
ATOM     24  C   UNL     1       1.783  -3.538   2.741  1.00  0.00     0.001 A 
ATOM     25  C   UNL     1       2.411  -4.047   3.874  1.00  0.00     0.000 A 
ENDBRANCH  18  20
ENDBRANCH  17  18
ENDBRANCH  15  17
ENDBRANCH   8  13
ENDBRANCH   4   7
ENDBRANCH   2   3
ENDBRANCH   1   2
BRANCH   1  26
ATOM     26  C   UNL     1      -0.779   3.835  -4.015  1.00  0.00     0.002 C 
BRANCH  26  27
ATOM     27  C   UNL     1      -1.618   4.133  -2.769  1.00  0.00     0.002 C 
BRANCH  27  28
ATOM     28  C   UNL     1      -0.862   4.652  -1.543  1.00  0.00     0.021 C 
BRANCH  28  29
ATOM     29  C   UNL     1       0.018   5.878  -1.768  1.00  0.00     0.116 C 
BRANCH  29  30
ATOM     30  N   UNL     1      -0.728   7.032  -2.242  1.00  0.00    -0.352 N 
ATOM     31  C   UNL     1      -0.755   8.320  -1.769  1.00  0.00     0.251 C 
ATOM     32  H   UNL     1      -1.302   6.864  -3.023  1.00  0.00     0.163 HD
ATOM     33  O   UNL     1      -1.565   9.122  -2.225  1.00  0.00    -0.269 OA
BRANCH  31  34
ATOM     34  C   UNL     1       0.169   8.752  -0.694  1.00  0.00     0.039 A 
ATOM     35  C   UNL     1      -0.331   9.562   0.331  1.00  0.00     0.014 A 
ATOM     36  C   UNL     1       1.521   8.400  -0.706  1.00  0.00     0.014 A 
ATOM     37  C   UNL     1       0.510   9.973   1.368  1.00  0.00     0.010 A 
ATOM     38  C   UNL     1       2.342   8.753   0.365  1.00  0.00     0.010 A 
ATOM     39  C   UNL     1       1.847   9.548   1.411  1.00  0.00    -0.014 A 
BRANCH  39  40
ATOM     40  C   UNL     1       2.737   9.932   2.539  1.00  0.00     0.031 A 
ATOM     41  C   UNL     1       3.944  10.798   2.295  1.00  0.00     0.074 A 
ATOM     42  C   UNL     1       2.490   9.455   3.775  1.00  0.00     0.049 A 
ATOM     43  N   UNL     1       4.866  11.190   3.138  1.00  0.00    -0.248 NA
ATOM     44  C   UNL     1       4.158  11.265   0.916  1.00  0.00     0.031 C 
ATOM     45  C   UNL     1       1.384   8.565   4.131  1.00  0.00     0.029 A 
ATOM     46  N   UNL     1       3.161   9.640   4.959  1.00  0.00    -0.354 N 
ATOM     47  C   UNL     1       5.775  11.929   2.390  1.00  0.00     0.074 A 
ATOM     48  C   UNL     1       5.319  11.896   1.018  1.00  0.00     0.031 C 
ATOM     49  C   UNL     1       1.444   8.293   5.445  1.00  0.00     0.029 A 
ATOM     50  C   UNL     1       2.610   8.958   6.017  1.00  0.00     0.049 A 
ATOM     51  H   UNL     1       3.961  10.208   5.042  1.00  0.00     0.167 HD
ATOM     52  C   UNL     1       6.878  12.591   2.815  1.00  0.00     0.037 A 
ATOM     53  C   UNL     1       3.007   8.869   7.301  1.00  0.00     0.037 A 
ATOM     54  C   UNL     1       7.308  12.653   4.188  1.00  0.00     0.049 A 
ATOM     55  C   UNL     1       4.227   9.632   7.747  1.00  0.00     0.074 A 
ATOM     56  C   UNL     1       8.368  13.362   4.727  1.00  0.00     0.029 A 
ATOM     57  N   UNL     1       6.702  11.980   5.238  1.00  0.00    -0.354 N 
ATOM     58  N   UNL     1       5.030  10.394   7.045  1.00  0.00    -0.248 NA
ATOM     59  C   UNL     1       4.589   9.532   9.168  1.00  0.00     0.031 C 
ATOM     60  C   UNL     1       8.436  13.077   6.094  1.00  0.00     0.029 A 
ATOM     61  C   UNL     1       7.382  12.238   6.418  1.00  0.00     0.049 A 
ATOM     62  H   UNL     1       5.908  11.405   5.157  1.00  0.00     0.167 HD
ATOM     63  C   UNL     1       5.968  10.889   7.941  1.00  0.00     0.074 A 
ATOM     64  C   UNL     1       5.625  10.355   9.242  1.00  0.00     0.031 C 
ATOM     65  C   UNL     1       7.020  11.711   7.708  1.00  0.00     0.037 A 
BRANCH  52  66
ATOM     66  C   UNL     1       7.705  13.311   1.789  1.00  0.00     0.064 A 
ATOM     67  C   UNL     1       7.249  14.479   1.161  1.00  0.00     0.173 A 
ATOM     68  C   UNL     1       9.001  12.866   1.485  1.00  0.00     0.173 A 
ATOM     69  F   UNL     1       6.014  14.942   1.410  1.00  0.00    -0.203 F 
ATOM     70  C   UNL     1       8.052  15.165   0.253  1.00  0.00     0.198 A 
ATOM     71  C   UNL     1       9.812  13.571   0.600  1.00  0.00     0.198 A 
ATOM     72  F   UNL     1       9.489  11.758   2.062  1.00  0.00    -0.203 F 
ATOM     73  F   UNL     1       7.581  16.259  -0.362  1.00  0.00    -0.200 F 
ATOM     74  C   UNL     1       9.336  14.717  -0.019  1.00  0.00     0.200 A 
ATOM     75  F   UNL     1      11.058  13.145   0.350  1.00  0.00    -0.200 F 
ATOM     76  F   UNL     1      10.113  15.389  -0.879  1.00  0.00    -0.200 F 
ENDBRANCH  52  66
BRANCH  53  77
ATOM     77  C   UNL     1       2.242   8.035   8.266  1.00  0.00     0.064 A 
ATOM     78  C   UNL     1       1.535   8.618   9.327  1.00  0.00     0.173 A 
ATOM     79  C   UNL     1       2.228   6.636   8.166  1.00  0.00     0.173 A 
ATOM     80  F   UNL     1       1.535   9.951   9.479  1.00  0.00    -0.203 F 
ATOM     81  C   UNL     1       0.873   7.834  10.270  1.00  0.00     0.198 A 
ATOM     82  C   UNL     1       1.538   5.854   9.090  1.00  0.00     0.198 A 
ATOM     83  F   UNL     1       2.883   6.026   7.167  1.00  0.00    -0.203 F 
ATOM     84  F   UNL     1       0.259   8.415  11.309  1.00  0.00    -0.200 F 
ATOM     85  C   UNL     1       0.871   6.453  10.148  1.00  0.00     0.200 A 
ATOM     86  F   UNL     1       1.526   4.520   8.960  1.00  0.00    -0.200 F 
ATOM     87  F   UNL     1       0.238   5.699  11.057  1.00  0.00    -0.200 F 
ENDBRANCH  53  77
BRANCH  65  88
ATOM     88  C   UNL     1       7.850  12.122   8.891  1.00  0.00     0.064 A 
ATOM     89  C   UNL     1       8.693  11.218   9.554  1.00  0.00     0.173 A 
ATOM     90  C   UNL     1       7.824  13.450   9.346  1.00  0.00     0.173 A 
ATOM     91  F   UNL     1       8.743   9.934   9.167  1.00  0.00    -0.203 F 
ATOM     92  C   UNL     1       9.454  11.620  10.648  1.00  0.00     0.198 A 
ATOM     93  C   UNL     1       8.612  13.856  10.418  1.00  0.00     0.198 A 
ATOM     94  F   UNL     1       7.042  14.357   8.742  1.00  0.00    -0.203 F 
ATOM     95  F   UNL     1      10.210  10.726  11.300  1.00  0.00    -0.200 F 
ATOM     96  C   UNL     1       9.419  12.939  11.075  1.00  0.00     0.200 A 
ATOM     97  F   UNL     1       8.589  15.135  10.819  1.00  0.00    -0.200 F 
ATOM     98  F   UNL     1      10.157  13.325  12.124  1.00  0.00    -0.200 F 
ENDBRANCH  65  88
ENDBRANCH  39  40
ENDBRANCH  31  34
ENDBRANCH  29  30
ENDBRANCH  28  29
ENDBRANCH  27  28
ENDBRANCH  26  27
ENDBRANCH   1  26
TORSDOF 17
