REMARK SMILES CCC[NH2+][C@@H]1COC[C@@H]1C(=O)N[C@@](C)(CC)C(=O)NCCCCCCNC(=O)c1ccc(-c2c3nc(c(-c4c(F)c(F)c(F)c(F)c4F)c4ccc([nH]4)c(-c4c(F)c(F)c(F)c(F)c4F)c4nc(c(-c5c(F)c(F)c(F)c(F)c5F)c5ccc2[nH]5)C=C4)C=C3)cc1
REMARK SMILES IDX 21 1 20 2 19 3 17 4 18 5 13 7 14 8 12 9 10 10 11 11 9 13
REMARK SMILES IDX 5 14 6 15 7 16 8 17 4 18 3 21 2 22 1 23 15 24 16 25 22 26
REMARK SMILES IDX 23 27 24 28 25 29 26 30 27 31 28 33 29 34 30 35 91 36 31 37
REMARK SMILES IDX 90 38 32 39 33 40 34 41 84 42 35 43 89 44 83 45 85 46 36 47
REMARK SMILES IDX 88 48 82 49 81 50 37 52 69 53 49 54 68 55 50 56 53 57 67 58
REMARK SMILES IDX 86 59 51 60 52 61 66 63 87 64 54 65 38 66 39 67 47 68 40 69
REMARK SMILES IDX 41 70 45 71 48 72 42 73 43 74 46 75 44 76 70 77 71 78 79 79
REMARK SMILES IDX 72 80 73 81 77 82 80 83 74 84 75 85 78 86 76 87 55 88 56 89
REMARK SMILES IDX 64 90 57 91 58 92 62 93 65 94 59 95 60 96 63 97 61 98
REMARK H PARENT 19 6 12 12 4 19 4 20 26 32 85 51 53 62
REMARK Flexibility Score: inf
ROOT
ATOM      1  C   UNL     1       0.158   1.786   8.046  1.00  0.00     0.021 C 
ENDROOT
BRANCH   1   2
ATOM      2  C   UNL     1      -0.054   1.902   6.542  1.00  0.00     0.116 C 
BRANCH   2   3
ATOM      3  N   UNL     1       0.430   0.737   5.838  1.00  0.00    -0.354 N 
ATOM      4  C   UNL     1      -0.104   0.067   4.788  1.00  0.00     0.245 C 
ATOM      5  O   UNL     1       0.733  -0.296   3.953  1.00  0.00    -0.272 OA
ATOM      6  H   UNL     1       1.281   0.373   6.174  1.00  0.00     0.163 HD
BRANCH   4   7
ATOM      7  C   UNL     1      -1.638  -0.147   4.570  1.00  0.00     0.116 C 
ATOM      8  C   UNL     1      -2.034   1.056   3.679  1.00  0.00     0.045 C 
BRANCH   7   9
ATOM      9  N   UNL     1      -1.976  -1.368   3.776  1.00  0.00    -0.341 N 
ATOM     10  C   UNL     1      -1.618  -2.685   3.913  1.00  0.00     0.232 C 
ATOM     11  O   UNL     1      -2.467  -3.530   3.620  1.00  0.00    -0.274 OA
ATOM     12  H   UNL     1      -2.568  -1.194   3.010  1.00  0.00     0.164 HD
BRANCH  10  13
ATOM     13  C   UNL     1      -0.195  -3.061   4.305  1.00  0.00     0.164 C 
ATOM     14  C   UNL     1       0.731  -3.128   3.078  1.00  0.00     0.223 C 
ATOM     15  C   UNL     1       0.666  -4.605   2.709  1.00  0.00     0.225 C 
ATOM     16  O   UNL     1       0.576  -5.317   3.947  1.00  0.00    -0.374 OA
ATOM     17  C   UNL     1      -0.098  -4.468   4.887  1.00  0.00     0.180 C 
BRANCH  14  18
ATOM     18  N   UNL     1       0.393  -2.174   2.018  1.00  0.00    -0.341 N 
ATOM     19  H   UNL     1      -0.607  -2.256   1.834  1.00  0.00     0.346 HD
ATOM     20  H   UNL     1       0.682  -1.261   2.371  1.00  0.00     0.346 HD
BRANCH  18  21
ATOM     21  C   UNL     1       1.091  -2.340   0.756  1.00  0.00     0.260 C 
BRANCH  21  22
ATOM     22  C   UNL     1       0.566  -1.327  -0.270  1.00  0.00     0.058 C 
ATOM     23  C   UNL     1       0.981   0.110   0.016  1.00  0.00     0.010 C 
ENDBRANCH  21  22
ENDBRANCH  18  21
ENDBRANCH  14  18
ENDBRANCH  10  13
ENDBRANCH   7   9
BRANCH   7  24
ATOM     24  C   UNL     1      -2.546  -0.145   5.826  1.00  0.00     0.035 C 
ATOM     25  C   UNL     1      -2.342  -1.293   6.803  1.00  0.00     0.007 C 
ENDBRANCH   7  24
ENDBRANCH   4   7
ENDBRANCH   2   3
ENDBRANCH   1   2
BRANCH   1  26
ATOM     26  C   UNL     1       1.620   1.578   8.469  1.00  0.00     0.002 C 
BRANCH  26  27
ATOM     27  C   UNL     1       2.628   2.567   7.874  1.00  0.00     0.002 C 
BRANCH  27  28
ATOM     28  C   UNL     1       2.285   4.044   8.067  1.00  0.00     0.021 C 
BRANCH  28  29
ATOM     29  C   UNL     1       2.071   4.457   9.515  1.00  0.00     0.116 C 
BRANCH  29  30
ATOM     30  N   UNL     1       3.275   4.304  10.313  1.00  0.00    -0.352 N 
ATOM     31  C   UNL     1       3.873   5.217  11.143  1.00  0.00     0.251 C 
ATOM     32  H   UNL     1       3.721   3.429  10.250  1.00  0.00     0.163 HD
ATOM     33  O   UNL     1       4.991   5.001  11.606  1.00  0.00    -0.269 OA
BRANCH  31  34
ATOM     34  C   UNL     1       3.173   6.478  11.459  1.00  0.00     0.039 A 
ATOM     35  C   UNL     1       3.882   7.679  11.391  1.00  0.00     0.014 A 
ATOM     36  C   UNL     1       1.818   6.473  11.802  1.00  0.00     0.014 A 
ATOM     37  C   UNL     1       3.216   8.883  11.618  1.00  0.00     0.010 A 
ATOM     38  C   UNL     1       1.139   7.678  11.944  1.00  0.00     0.010 A 
ATOM     39  C   UNL     1       1.833   8.894  11.865  1.00  0.00    -0.014 A 
BRANCH  39  40
ATOM     40  C   UNL     1       1.099  10.170  12.052  1.00  0.00     0.031 A 
ATOM     41  C   UNL     1       0.428  10.471  13.361  1.00  0.00     0.074 A 
ATOM     42  C   UNL     1       0.982  11.027  11.020  1.00  0.00     0.049 A 
ATOM     43  N   UNL     1      -0.301  11.504  13.701  1.00  0.00    -0.248 NA
ATOM     44  C   UNL     1       0.565   9.459  14.419  1.00  0.00     0.031 C 
ATOM     45  C   UNL     1       1.535  10.815   9.682  1.00  0.00     0.029 A 
ATOM     46  N   UNL     1       0.346  12.239  10.931  1.00  0.00    -0.354 N 
ATOM     47  C   UNL     1      -0.717  11.259  15.002  1.00  0.00     0.074 A 
ATOM     48  C   UNL     1      -0.218   9.951  15.366  1.00  0.00     0.031 C 
ATOM     49  C   UNL     1       1.229  11.869   8.909  1.00  0.00     0.029 A 
ATOM     50  C   UNL     1       0.427  12.810   9.685  1.00  0.00     0.049 A 
ATOM     51  H   UNL     1      -0.123  12.659  11.687  1.00  0.00     0.167 HD
ATOM     52  C   UNL     1      -1.429  12.064  15.829  1.00  0.00     0.037 A 
ATOM     53  C   UNL     1      -0.097  13.959   9.217  1.00  0.00     0.037 A 
ATOM     54  C   UNL     1      -1.913  13.369  15.461  1.00  0.00     0.049 A 
ATOM     55  C   UNL     1      -0.882  14.840  10.148  1.00  0.00     0.074 A 
ATOM     56  C   UNL     1      -2.582  14.294  16.242  1.00  0.00     0.029 A 
ATOM     57  N   UNL     1      -1.790  13.929  14.196  1.00  0.00    -0.354 N 
ATOM     58  N   UNL     1      -1.197  14.641  11.405  1.00  0.00    -0.248 NA
ATOM     59  C   UNL     1      -1.375  16.110   9.600  1.00  0.00     0.031 C 
ATOM     60  C   UNL     1      -2.921  15.385  15.434  1.00  0.00     0.029 A 
ATOM     61  C   UNL     1      -2.403  15.172  14.166  1.00  0.00     0.049 A 
ATOM     62  H   UNL     1      -1.335  13.505  13.433  1.00  0.00     0.167 HD
ATOM     63  C   UNL     1      -1.906  15.765  11.806  1.00  0.00     0.074 A 
ATOM     64  C   UNL     1      -1.960  16.651  10.660  1.00  0.00     0.031 C 
ATOM     65  C   UNL     1      -2.460  16.039  13.014  1.00  0.00     0.037 A 
BRANCH  52  66
ATOM     66  C   UNL     1      -1.734  11.538  17.204  1.00  0.00     0.064 A 
ATOM     67  C   UNL     1      -0.724  11.309  18.153  1.00  0.00     0.173 A 
ATOM     68  C   UNL     1      -3.056  11.250  17.578  1.00  0.00     0.173 A 
ATOM     69  F   UNL     1       0.559  11.557  17.847  1.00  0.00    -0.203 F 
ATOM     70  C   UNL     1      -1.019  10.761  19.399  1.00  0.00     0.198 A 
ATOM     71  C   UNL     1      -3.351  10.740  18.840  1.00  0.00     0.198 A 
ATOM     72  F   UNL     1      -4.064  11.457  16.717  1.00  0.00    -0.203 F 
ATOM     73  F   UNL     1      -0.027  10.478  20.255  1.00  0.00    -0.200 F 
ATOM     74  C   UNL     1      -2.332  10.481  19.743  1.00  0.00     0.200 A 
ATOM     75  F   UNL     1      -4.623  10.484  19.176  1.00  0.00    -0.200 F 
ATOM     76  F   UNL     1      -2.614   9.950  20.940  1.00  0.00    -0.200 F 
ENDBRANCH  52  66
BRANCH  53  77
ATOM     77  C   UNL     1       0.130  14.336   7.798  1.00  0.00     0.064 A 
ATOM     78  C   UNL     1       0.984  15.392   7.456  1.00  0.00     0.173 A 
ATOM     79  C   UNL     1      -0.469  13.616   6.753  1.00  0.00     0.173 A 
ATOM     80  F   UNL     1       1.567  16.121   8.419  1.00  0.00    -0.203 F 
ATOM     81  C   UNL     1       1.225  15.719   6.123  1.00  0.00     0.198 A 
ATOM     82  C   UNL     1      -0.205  13.925   5.421  1.00  0.00     0.198 A 
ATOM     83  F   UNL     1      -1.288  12.589   7.028  1.00  0.00    -0.203 F 
ATOM     84  F   UNL     1       2.024  16.753   5.823  1.00  0.00    -0.200 F 
ATOM     85  C   UNL     1       0.639  14.979   5.107  1.00  0.00     0.200 A 
ATOM     86  F   UNL     1      -0.758  13.194   4.444  1.00  0.00    -0.200 F 
ATOM     87  F   UNL     1       0.887  15.282   3.825  1.00  0.00    -0.200 F 
ENDBRANCH  53  77
BRANCH  65  88
ATOM     88  C   UNL     1      -3.158  17.361  13.167  1.00  0.00     0.064 A 
ATOM     89  C   UNL     1      -4.379  17.630  12.531  1.00  0.00     0.173 A 
ATOM     90  C   UNL     1      -2.617  18.357  13.996  1.00  0.00     0.173 A 
ATOM     91  F   UNL     1      -4.931  16.718  11.716  1.00  0.00    -0.203 F 
ATOM     92  C   UNL     1      -5.018  18.856  12.697  1.00  0.00     0.198 A 
ATOM     93  C   UNL     1      -3.276  19.568  14.187  1.00  0.00     0.198 A 
ATOM     94  F   UNL     1      -1.456  18.149  14.634  1.00  0.00    -0.203 F 
ATOM     95  F   UNL     1      -6.157  19.110  12.038  1.00  0.00    -0.200 F 
ATOM     96  C   UNL     1      -4.471  19.820  13.531  1.00  0.00     0.200 A 
ATOM     97  F   UNL     1      -2.754  20.491  15.006  1.00  0.00    -0.200 F 
ATOM     98  F   UNL     1      -5.093  20.996  13.697  1.00  0.00    -0.200 F 
ENDBRANCH  65  88
ENDBRANCH  39  40
ENDBRANCH  31  34
ENDBRANCH  29  30
ENDBRANCH  28  29
ENDBRANCH  27  28
ENDBRANCH  26  27
ENDBRANCH   1  26
TORSDOF 19
