REMARK SMILES Nc1cc(F)c([C@H]([NH3+])C(=O)NCCCCCCNC(=O)c2ccc(-c3c4nc(c(-c5c(F)c(F)c(F)c(F)c5F)c5ccc([nH]5)c(-c5c(F)c(F)c(F)c(F)c5F)c5nc(c(-c6c(F)c(F)c(F)c(F)c6F)c6ccc3[nH]6)C=C5)C=C4)cc2)cc1F
REMARK SMILES IDX 14 1 13 2 12 3 11 4 9 5 10 6 7 8 6 9 2 10 3 11 85 12 4 13
REMARK SMILES IDX 84 14 86 15 5 16 1 17 8 20 15 24 16 25 17 26 18 27 19 28
REMARK SMILES IDX 20 30 21 31 22 32 83 33 23 34 82 35 24 36 25 37 26 38 76 39
REMARK SMILES IDX 27 40 81 41 75 42 77 43 28 44 80 45 74 46 73 47 29 49 61 50
REMARK SMILES IDX 41 51 60 52 42 53 45 54 59 55 78 56 43 57 44 58 58 60 79 61
REMARK SMILES IDX 46 62 30 63 31 64 39 65 32 66 33 67 37 68 40 69 34 70 35 71
REMARK SMILES IDX 38 72 36 73 62 74 63 75 71 76 64 77 65 78 69 79 72 80 66 81
REMARK SMILES IDX 67 82 70 83 68 84 47 85 48 86 56 87 49 88 50 89 54 90 57 91
REMARK SMILES IDX 51 92 52 93 55 94 53 95
REMARK H PARENT 11 7 1 18 1 19 8 21 8 22 8 23 18 29 77 48 45 59
REMARK Flexibility Score: inf
ROOT
ATOM      1  C   UNL     1       0.351   2.839   6.552  1.00  0.00     0.002 C 
ENDROOT
BRANCH   1   2
ATOM      2  C   UNL     1       0.439   1.854   5.383  1.00  0.00     0.021 C 
BRANCH   2   3
ATOM      3  C   UNL     1       0.238   0.383   5.738  1.00  0.00     0.116 C 
BRANCH   3   4
ATOM      4  N   UNL     1      -1.140   0.068   6.051  1.00  0.00    -0.351 N 
ATOM      5  C   UNL     1      -1.901  -1.026   5.741  1.00  0.00     0.283 C 
ATOM      6  O   UNL     1      -3.030  -1.073   6.240  1.00  0.00    -0.268 OA
ATOM      7  H   UNL     1      -1.608   0.756   6.576  1.00  0.00     0.163 HD
BRANCH   5   8
ATOM      8  C   UNL     1      -1.422  -2.126   4.753  1.00  0.00     0.305 C 
BRANCH   8   9
ATOM      9  C   UNL     1      -0.273  -2.969   5.266  1.00  0.00     0.058 A 
ATOM     10  C   UNL     1       1.788  -4.612   6.342  1.00  0.00     0.071 A 
ATOM     11  C   UNL     1       0.462  -4.798   6.724  1.00  0.00     0.068 A 
ATOM     12  C   UNL     1       2.069  -3.583   5.435  1.00  0.00     0.146 A 
ATOM     13  C   UNL     1      -0.543  -3.985   6.194  1.00  0.00     0.135 A 
ATOM     14  C   UNL     1       1.061  -2.797   4.874  1.00  0.00     0.055 A 
ATOM     15  F   UNL     1       3.342  -3.340   5.083  1.00  0.00    -0.205 F 
ATOM     16  F   UNL     1      -1.806  -4.206   6.586  1.00  0.00    -0.206 F 
BRANCH  10  17
ATOM     17  N   UNL     1       2.808  -5.343   6.940  1.00  0.00    -0.396 N 
ATOM     18  H   UNL     1       2.590  -6.063   7.575  1.00  0.00     0.156 HD
ATOM     19  H   UNL     1       3.748  -5.141   6.728  1.00  0.00     0.156 HD
ENDBRANCH  10  17
ENDBRANCH   8   9
BRANCH   8  20
ATOM     20  N   UNL     1      -1.224  -1.564   3.396  1.00  0.00    -0.343 N 
ATOM     21  H   UNL     1      -0.476  -0.872   3.420  1.00  0.00     0.345 HD
ATOM     22  H   UNL     1      -2.088  -1.121   3.082  1.00  0.00     0.345 HD
ATOM     23  H   UNL     1      -0.973  -2.314   2.751  1.00  0.00     0.345 HD
ENDBRANCH   8  20
ENDBRANCH   5   8
ENDBRANCH   3   4
ENDBRANCH   2   3
ENDBRANCH   1   2
BRANCH   1  24
ATOM     24  C   UNL     1       1.280   2.570   7.740  1.00  0.00     0.002 C 
BRANCH  24  25
ATOM     25  C   UNL     1       2.752   2.319   7.408  1.00  0.00     0.021 C 
BRANCH  25  26
ATOM     26  C   UNL     1       3.437   3.380   6.555  1.00  0.00     0.116 C 
BRANCH  26  27
ATOM     27  N   UNL     1       3.506   4.684   7.192  1.00  0.00    -0.352 N 
ATOM     28  C   UNL     1       4.583   5.525   7.343  1.00  0.00     0.251 C 
ATOM     29  H   UNL     1       2.659   5.013   7.571  1.00  0.00     0.163 HD
ATOM     30  O   UNL     1       4.474   6.561   7.993  1.00  0.00    -0.269 OA
BRANCH  28  31
ATOM     31  C   UNL     1       5.894   5.160   6.759  1.00  0.00     0.039 A 
ATOM     32  C   UNL     1       5.995   4.693   5.447  1.00  0.00     0.014 A 
ATOM     33  C   UNL     1       7.039   5.267   7.555  1.00  0.00     0.014 A 
ATOM     34  C   UNL     1       7.205   4.177   4.991  1.00  0.00     0.010 A 
ATOM     35  C   UNL     1       8.270   4.819   7.067  1.00  0.00     0.010 A 
ATOM     36  C   UNL     1       8.353   4.222   5.799  1.00  0.00    -0.014 A 
BRANCH  36  37
ATOM     37  C   UNL     1       9.623   3.626   5.307  1.00  0.00     0.031 A 
ATOM     38  C   UNL     1      10.209   2.410   5.974  1.00  0.00     0.074 A 
ATOM     39  C   UNL     1      10.219   4.147   4.218  1.00  0.00     0.049 A 
ATOM     40  N   UNL     1      11.299   1.748   5.673  1.00  0.00    -0.248 NA
ATOM     41  C   UNL     1       9.481   1.866   7.131  1.00  0.00     0.031 C 
ATOM     42  C   UNL     1       9.740   5.314   3.476  1.00  0.00     0.029 A 
ATOM     43  N   UNL     1      11.339   3.752   3.532  1.00  0.00    -0.354 N 
ATOM     44  C   UNL     1      11.393   0.724   6.607  1.00  0.00     0.074 A 
ATOM     45  C   UNL     1      10.267   0.865   7.504  1.00  0.00     0.031 C 
ATOM     46  C   UNL     1      10.528   5.507   2.408  1.00  0.00     0.029 A 
ATOM     47  C   UNL     1      11.600   4.517   2.422  1.00  0.00     0.049 A 
ATOM     48  H   UNL     1      11.902   2.993   3.808  1.00  0.00     0.167 HD
ATOM     49  C   UNL     1      12.327  -0.253   6.698  1.00  0.00     0.037 A 
ATOM     50  C   UNL     1      12.596   4.436   1.519  1.00  0.00     0.037 A 
ATOM     51  C   UNL     1      13.434  -0.410   5.791  1.00  0.00     0.049 A 
ATOM     52  C   UNL     1      13.640   3.366   1.668  1.00  0.00     0.074 A 
ATOM     53  C   UNL     1      14.424  -1.378   5.797  1.00  0.00     0.029 A 
ATOM     54  N   UNL     1      13.694   0.421   4.711  1.00  0.00    -0.354 N 
ATOM     55  N   UNL     1      13.719   2.409   2.559  1.00  0.00    -0.248 NA
ATOM     56  C   UNL     1      14.739   3.373   0.693  1.00  0.00     0.031 C 
ATOM     57  C   UNL     1      15.303  -1.113   4.742  1.00  0.00     0.029 A 
ATOM     58  C   UNL     1      14.838  -0.005   4.054  1.00  0.00     0.049 A 
ATOM     59  H   UNL     1      13.148   1.197   4.450  1.00  0.00     0.167 HD
ATOM     60  C   UNL     1      14.867   1.694   2.249  1.00  0.00     0.074 A 
ATOM     61  C   UNL     1      15.443   2.315   1.073  1.00  0.00     0.031 C 
ATOM     62  C   UNL     1      15.399   0.623   2.886  1.00  0.00     0.037 A 
BRANCH  49  63
ATOM     63  C   UNL     1      12.202  -1.241   7.820  1.00  0.00     0.064 A 
ATOM     64  C   UNL     1      11.232  -2.254   7.800  1.00  0.00     0.173 A 
ATOM     65  C   UNL     1      13.111  -1.223   8.889  1.00  0.00     0.173 A 
ATOM     66  F   UNL     1      10.334  -2.308   6.805  1.00  0.00    -0.203 F 
ATOM     67  C   UNL     1      11.171  -3.207   8.813  1.00  0.00     0.198 A 
ATOM     68  C   UNL     1      13.062  -2.191   9.888  1.00  0.00     0.198 A 
ATOM     69  F   UNL     1      14.062  -0.279   8.951  1.00  0.00    -0.203 F 
ATOM     70  F   UNL     1      10.221  -4.151   8.787  1.00  0.00    -0.200 F 
ATOM     71  C   UNL     1      12.091  -3.181   9.851  1.00  0.00     0.200 A 
ATOM     72  F   UNL     1      13.960  -2.171  10.884  1.00  0.00    -0.200 F 
ATOM     73  F   UNL     1      12.041  -4.109  10.817  1.00  0.00    -0.200 F 
ENDBRANCH  49  63
BRANCH  50  74
ATOM     74  C   UNL     1      12.639   5.397   0.389  1.00  0.00     0.064 A 
ATOM     75  C   UNL     1      12.369   4.978  -0.921  1.00  0.00     0.173 A 
ATOM     76  C   UNL     1      12.922   6.755   0.596  1.00  0.00     0.173 A 
ATOM     77  F   UNL     1      12.114   3.685  -1.171  1.00  0.00    -0.203 F 
ATOM     78  C   UNL     1      12.382   5.881  -1.981  1.00  0.00     0.198 A 
ATOM     79  C   UNL     1      12.908   7.662  -0.461  1.00  0.00     0.198 A 
ATOM     80  F   UNL     1      13.185   7.205   1.832  1.00  0.00    -0.203 F 
ATOM     81  F   UNL     1      12.146   5.451  -3.228  1.00  0.00    -0.200 F 
ATOM     82  C   UNL     1      12.642   7.224  -1.749  1.00  0.00     0.200 A 
ATOM     83  F   UNL     1      13.146   8.960  -0.230  1.00  0.00    -0.200 F 
ATOM     84  F   UNL     1      12.640   8.095  -2.767  1.00  0.00    -0.200 F 
ENDBRANCH  50  74
BRANCH  62  85
ATOM     85  C   UNL     1      16.661   0.043   2.323  1.00  0.00     0.064 A 
ATOM     86  C   UNL     1      17.896   0.684   2.492  1.00  0.00     0.173 A 
ATOM     87  C   UNL     1      16.644  -1.195   1.665  1.00  0.00     0.173 A 
ATOM     88  F   UNL     1      17.960   1.876   3.103  1.00  0.00    -0.203 F 
ATOM     89  C   UNL     1      19.070   0.112   2.008  1.00  0.00     0.198 A 
ATOM     90  C   UNL     1      17.822  -1.776   1.204  1.00  0.00     0.198 A 
ATOM     91  F   UNL     1      15.487  -1.850   1.485  1.00  0.00    -0.203 F 
ATOM     92  F   UNL     1      20.236   0.756   2.152  1.00  0.00    -0.200 F 
ATOM     93  C   UNL     1      19.033  -1.120   1.372  1.00  0.00     0.200 A 
ATOM     94  F   UNL     1      17.787  -2.972   0.600  1.00  0.00    -0.200 F 
ATOM     95  F   UNL     1      20.165  -1.675   0.918  1.00  0.00    -0.200 F 
ENDBRANCH  62  85
ENDBRANCH  36  37
ENDBRANCH  28  31
ENDBRANCH  26  27
ENDBRANCH  25  26
ENDBRANCH  24  25
ENDBRANCH   1  24
TORSDOF 16
