REMARK SMILES C[C@H]1[C@H](C(=O)NCCCCCCNC(=O)c2ccc(-c3c4nc(c(-c5c(F)c(F)c(F)c(F)c5F)c5ccc([nH]5)c(-c5c(F)c(F)c(F)c(F)c5F)c5nc(c(-c6c(F)c(F)c(F)c(F)c6F)c6ccc3[nH]6)C=C5)C=C4)cc2)CCN1c1ncnc2sccc12
REMARK SMILES IDX 10 1 9 2 8 3 7 4 6 5 4 6 5 7 3 9 1 10 2 11 81 12 79 13 80 14
REMARK SMILES IDX 82 15 83 16 90 17 84 18 86 19 89 20 85 21 87 22 88 23 11 24
REMARK SMILES IDX 12 25 13 26 14 27 15 29 16 30 17 31 78 32 18 33 77 34 19 35
REMARK SMILES IDX 20 36 21 37 71 38 22 39 76 40 70 41 72 42 23 43 75 44 69 45
REMARK SMILES IDX 68 46 24 48 56 49 36 50 55 51 37 52 40 53 54 54 73 55 38 56
REMARK SMILES IDX 39 57 53 59 74 60 41 61 25 62 26 63 34 64 27 65 28 66 32 67
REMARK SMILES IDX 35 68 29 69 30 70 33 71 31 72 57 73 58 74 66 75 59 76 60 77
REMARK SMILES IDX 64 78 67 79 61 80 62 81 65 82 63 83 42 84 43 85 51 86 44 87
REMARK SMILES IDX 45 88 49 89 52 90 46 91 47 92 50 93 48 94
REMARK H PARENT 6 8 13 28 72 47 40 58
REMARK Flexibility Score: inf
ROOT
ATOM      1  C   UNL     1      -1.519   1.074   5.909  1.00  0.00     0.002 C 
ENDROOT
BRANCH   1   2
ATOM      2  C   UNL     1      -0.112   1.025   5.304  1.00  0.00     0.002 C 
BRANCH   2   3
ATOM      3  C   UNL     1       0.011   0.184   4.028  1.00  0.00     0.021 C 
BRANCH   3   4
ATOM      4  C   UNL     1      -0.912   0.645   2.902  1.00  0.00     0.116 C 
BRANCH   4   5
ATOM      5  N   UNL     1      -0.462   1.907   2.344  1.00  0.00    -0.356 N 
ATOM      6  C   UNL     1       0.016   2.212   1.109  1.00  0.00     0.225 C 
ATOM      7  O   UNL     1       0.415   3.365   0.925  1.00  0.00    -0.275 OA
ATOM      8  H   UNL     1      -0.512   2.670   2.963  1.00  0.00     0.163 HD
BRANCH   6   9
ATOM      9  C   UNL     1       0.020   1.213  -0.036  1.00  0.00     0.102 C 
ATOM     10  C   UNL     1       2.055  -0.113  -0.708  1.00  0.00     0.032 C 
ATOM     11  C   UNL     1       0.860  -0.043   0.245  1.00  0.00     0.093 C 
ATOM     12  N   UNL     1      -0.062  -1.168   0.030  1.00  0.00    -0.352 N 
ATOM     13  C   UNL     1      -1.385   0.751  -0.403  1.00  0.00     0.037 C 
ATOM     14  C   UNL     1      -1.317  -0.760  -0.566  1.00  0.00     0.119 C 
BRANCH  12  15
ATOM     15  C   UNL     1       0.234  -2.435   0.486  1.00  0.00     0.141 A 
ATOM     16  N   UNL     1       1.406  -2.585   1.163  1.00  0.00    -0.219 NA
ATOM     17  C   UNL     1      -0.577  -3.598   0.346  1.00  0.00     0.054 A 
ATOM     18  C   UNL     1       1.761  -3.781   1.649  1.00  0.00     0.225 A 
ATOM     19  C   UNL     1      -0.091  -4.762   0.933  1.00  0.00     0.128 A 
ATOM     20  C   UNL     1      -1.843  -3.881  -0.289  1.00  0.00     0.026 A 
ATOM     21  N   UNL     1       1.067  -4.912   1.592  1.00  0.00    -0.225 NA
ATOM     22  S   UNL     1      -1.137  -6.099   0.763  1.00  0.00    -0.124 S 
ATOM     23  C   UNL     1      -2.267  -5.181  -0.119  1.00  0.00     0.068 A 
ENDBRANCH  12  15
ENDBRANCH   6   9
ENDBRANCH   4   5
ENDBRANCH   3   4
ENDBRANCH   2   3
ENDBRANCH   1   2
BRANCH   1  24
ATOM     24  C   UNL     1      -2.152  -0.292   6.180  1.00  0.00     0.021 C 
BRANCH  24  25
ATOM     25  C   UNL     1      -1.339  -1.189   7.106  1.00  0.00     0.116 C 
BRANCH  25  26
ATOM     26  N   UNL     1      -1.183  -0.606   8.430  1.00  0.00    -0.352 N 
ATOM     27  C   UNL     1      -1.502  -1.132   9.653  1.00  0.00     0.251 C 
ATOM     28  H   UNL     1      -0.793   0.298   8.448  1.00  0.00     0.163 HD
ATOM     29  O   UNL     1      -1.499  -0.419  10.655  1.00  0.00    -0.269 OA
BRANCH  27  30
ATOM     30  C   UNL     1      -1.871  -2.558   9.767  1.00  0.00     0.039 A 
ATOM     31  C   UNL     1      -2.968  -2.911  10.555  1.00  0.00     0.014 A 
ATOM     32  C   UNL     1      -1.134  -3.542   9.102  1.00  0.00     0.014 A 
ATOM     33  C   UNL     1      -3.361  -4.248  10.630  1.00  0.00     0.010 A 
ATOM     34  C   UNL     1      -1.573  -4.862   9.115  1.00  0.00     0.010 A 
ATOM     35  C   UNL     1      -2.688  -5.229   9.883  1.00  0.00    -0.014 A 
BRANCH  35  36
ATOM     36  C   UNL     1      -3.140  -6.643   9.894  1.00  0.00     0.031 A 
ATOM     37  C   UNL     1      -2.246  -7.719  10.444  1.00  0.00     0.074 A 
ATOM     38  C   UNL     1      -4.332  -6.964   9.356  1.00  0.00     0.049 A 
ATOM     39  N   UNL     1      -2.441  -9.013  10.492  1.00  0.00    -0.248 NA
ATOM     40  C   UNL     1      -0.950  -7.287  10.989  1.00  0.00     0.031 C 
ATOM     41  C   UNL     1      -5.268  -6.015   8.751  1.00  0.00     0.029 A 
ATOM     42  N   UNL     1      -4.958  -8.178   9.223  1.00  0.00    -0.354 N 
ATOM     43  C   UNL     1      -1.292  -9.547  11.062  1.00  0.00     0.074 A 
ATOM     44  C   UNL     1      -0.381  -8.446  11.287  1.00  0.00     0.031 C 
ATOM     45  C   UNL     1      -6.359  -6.678   8.336  1.00  0.00     0.029 A 
ATOM     46  C   UNL     1      -6.182  -8.102   8.605  1.00  0.00     0.049 A 
ATOM     47  H   UNL     1      -4.566  -9.024   9.541  1.00  0.00     0.167 HD
ATOM     48  C   UNL     1      -1.031 -10.835  11.389  1.00  0.00     0.037 A 
ATOM     49  C   UNL     1      -7.058  -9.072   8.283  1.00  0.00     0.037 A 
ATOM     50  C   UNL     1      -1.948 -11.925  11.175  1.00  0.00     0.049 A 
ATOM     51  C   UNL     1      -6.733 -10.499   8.636  1.00  0.00     0.074 A 
ATOM     52  C   UNL     1      -1.802 -13.256  11.523  1.00  0.00     0.029 A 
ATOM     53  N   UNL     1      -3.180 -11.809  10.547  1.00  0.00    -0.354 N 
ATOM     54  N   UNL     1      -5.676 -10.983   9.242  1.00  0.00    -0.248 NA
ATOM     55  C   UNL     1      -7.727 -11.515   8.262  1.00  0.00     0.031 C 
ATOM     56  C   UNL     1      -2.919 -13.956  11.055  1.00  0.00     0.029 A 
ATOM     57  C   UNL     1      -3.791 -13.051  10.471  1.00  0.00     0.049 A 
ATOM     58  H   UNL     1      -3.563 -10.969  10.206  1.00  0.00     0.167 HD
ATOM     59  C   UNL     1      -5.889 -12.351   9.349  1.00  0.00     0.074 A 
ATOM     60  C   UNL     1      -7.186 -12.617   8.760  1.00  0.00     0.031 C 
ATOM     61  C   UNL     1      -5.084 -13.300   9.885  1.00  0.00     0.037 A 
BRANCH  48  62
ATOM     62  C   UNL     1       0.302 -11.137  12.014  1.00  0.00     0.064 A 
ATOM     63  C   UNL     1       0.630 -10.692  13.304  1.00  0.00     0.173 A 
ATOM     64  C   UNL     1       1.252 -11.908  11.327  1.00  0.00     0.173 A 
ATOM     65  F   UNL     1      -0.238  -9.943  14.001  1.00  0.00    -0.203 F 
ATOM     66  C   UNL     1       1.870 -10.978  13.869  1.00  0.00     0.198 A 
ATOM     67  C   UNL     1       2.478 -12.222  11.909  1.00  0.00     0.198 A 
ATOM     68  F   UNL     1       0.990 -12.366  10.094  1.00  0.00    -0.203 F 
ATOM     69  F   UNL     1       2.180 -10.495  15.080  1.00  0.00    -0.200 F 
ATOM     70  C   UNL     1       2.790 -11.749  13.175  1.00  0.00     0.200 A 
ATOM     71  F   UNL     1       3.360 -12.980  11.243  1.00  0.00    -0.200 F 
ATOM     72  F   UNL     1       3.980 -12.030  13.722  1.00  0.00    -0.200 F 
ENDBRANCH  48  62
BRANCH  49  73
ATOM     73  C   UNL     1      -8.336  -8.726   7.607  1.00  0.00     0.064 A 
ATOM     74  C   UNL     1      -9.564  -8.873   8.268  1.00  0.00     0.173 A 
ATOM     75  C   UNL     1      -8.360  -8.248   6.288  1.00  0.00     0.173 A 
ATOM     76  F   UNL     1      -9.595  -9.345   9.523  1.00  0.00    -0.203 F 
ATOM     77  C   UNL     1     -10.766  -8.578   7.629  1.00  0.00     0.198 A 
ATOM     78  C   UNL     1      -9.561  -7.923   5.661  1.00  0.00     0.198 A 
ATOM     79  F   UNL     1      -7.213  -8.083   5.612  1.00  0.00    -0.203 F 
ATOM     80  F   UNL     1     -11.928  -8.775   8.268  1.00  0.00    -0.200 F 
ATOM     81  C   UNL     1     -10.764  -8.097   6.329  1.00  0.00     0.200 A 
ATOM     82  F   UNL     1      -9.552  -7.443   4.410  1.00  0.00    -0.200 F 
ATOM     83  F   UNL     1     -11.920  -7.809   5.716  1.00  0.00    -0.200 F 
ENDBRANCH  49  73
BRANCH  61  84
ATOM     84  C   UNL     1      -5.594 -14.713   9.891  1.00  0.00     0.064 A 
ATOM     85  C   UNL     1      -5.711 -15.461   8.710  1.00  0.00     0.173 A 
ATOM     86  C   UNL     1      -5.934 -15.340  11.100  1.00  0.00     0.173 A 
ATOM     87  F   UNL     1      -5.414 -14.905   7.526  1.00  0.00    -0.203 F 
ATOM     88  C   UNL     1      -6.177 -16.773   8.736  1.00  0.00     0.198 A 
ATOM     89  C   UNL     1      -6.366 -16.663  11.127  1.00  0.00     0.198 A 
ATOM     90  F   UNL     1      -5.834 -14.672  12.259  1.00  0.00    -0.203 F 
ATOM     91  F   UNL     1      -6.331 -17.451   7.590  1.00  0.00    -0.200 F 
ATOM     92  C   UNL     1      -6.495 -17.375   9.945  1.00  0.00     0.200 A 
ATOM     93  F   UNL     1      -6.657 -17.247  12.297  1.00  0.00    -0.200 F 
ATOM     94  F   UNL     1      -6.934 -18.641   9.969  1.00  0.00    -0.200 F 
ENDBRANCH  61  84
ENDBRANCH  35  36
ENDBRANCH  27  30
ENDBRANCH  25  26
ENDBRANCH  24  25
ENDBRANCH   1  24
TORSDOF 14
