REMARK SMILES Cc1ccc(S(=O)(=O)n2cc(C(=O)C(=O)N[C@@H](Cc3cnc[nH]3)C(=O)NCCCCCCNC(=O)c3ccc(-c4c5nc(c(-c6c(F)c(F)c(F)c(F)c6F)c6ccc([nH]6)c(-c6c(F)c(F)c(F)c(F)c6F)c6nc(c(-c7c(F)c(F)c(F)c(F)c7F)c7ccc4[nH]7)C=C6)C=C5)cc3)c3ccccc32)cc1
REMARK SMILES IDX 28 1 27 2 26 3 24 4 25 5 17 7 16 8 14 9 15 10 12 12 13 13
REMARK SMILES IDX 11 14 9 15 10 16 104 17 99 18 103 19 100 20 102 21 101 22
REMARK SMILES IDX 6 23 7 24 8 25 5 26 1 27 2 28 3 29 106 30 4 31 105 32 18 33
REMARK SMILES IDX 19 34 20 35 23 36 21 37 22 38 29 40 30 41 31 42 32 43 33 44
REMARK SMILES IDX 34 45 35 47 36 48 37 49 98 50 38 51 97 52 39 53 40 54 41 55
REMARK SMILES IDX 91 56 42 57 96 58 90 59 92 60 43 61 95 62 89 63 88 64 44 66
REMARK SMILES IDX 76 67 56 68 75 69 57 70 60 71 74 72 93 73 58 74 59 75 73 77
REMARK SMILES IDX 94 78 61 79 45 80 46 81 54 82 47 83 48 84 52 85 55 86 49 87
REMARK SMILES IDX 50 88 53 89 51 90 77 91 78 92 86 93 79 94 80 95 84 96 87 97
REMARK SMILES IDX 81 98 82 99 85 100 83 101 62 102 63 103 71 104 64 105 65 106
REMARK SMILES IDX 69 107 72 108 66 109 67 110 70 111 68 112
REMARK H PARENT 26 6 16 11 23 39 33 46 92 65 60 76
REMARK Flexibility Score: inf
ROOT
ATOM      1  C   UNL     1      -7.869   5.605   7.340  1.00  0.00     0.021 C 
ENDROOT
BRANCH   1   2
ATOM      2  C   UNL     1      -8.339   6.171   6.008  1.00  0.00     0.116 C 
BRANCH   2   3
ATOM      3  N   UNL     1      -7.369   6.976   5.306  1.00  0.00    -0.354 N 
ATOM      4  C   UNL     1      -7.313   7.250   3.968  1.00  0.00     0.242 C 
ATOM      5  O   UNL     1      -6.814   8.335   3.651  1.00  0.00    -0.273 OA
ATOM      6  H   UNL     1      -6.661   7.378   5.859  1.00  0.00     0.163 HD
BRANCH   4   7
ATOM      7  C   UNL     1      -7.938   6.332   2.883  1.00  0.00     0.177 C 
BRANCH   7   8
ATOM      8  N   UNL     1      -7.677   4.901   3.094  1.00  0.00    -0.337 N 
ATOM      9  C   UNL     1      -6.766   4.047   2.510  1.00  0.00     0.293 C 
ATOM     10  O   UNL     1      -6.609   2.946   3.031  1.00  0.00    -0.265 OA
ATOM     11  H   UNL     1      -8.255   4.478   3.769  1.00  0.00     0.164 HD
BRANCH   9  12
ATOM     12  C   UNL     1      -5.995   4.426   1.220  1.00  0.00     0.252 C 
ATOM     13  O   UNL     1      -6.100   5.570   0.790  1.00  0.00    -0.283 OA
BRANCH  12  14
ATOM     14  C   UNL     1      -5.181   3.451   0.479  1.00  0.00     0.054 A 
ATOM     15  N   UNL     1      -4.141   1.590  -0.185  1.00  0.00    -0.240 N 
ATOM     16  C   UNL     1      -4.909   2.136   0.811  1.00  0.00     0.117 A 
ATOM     17  C   UNL     1      -3.885   2.508  -1.181  1.00  0.00     0.065 A 
ATOM     18  C   UNL     1      -4.500   3.698  -0.768  1.00  0.00     0.012 A 
ATOM     19  C   UNL     1      -3.160   2.428  -2.384  1.00  0.00     0.028 A 
ATOM     20  C   UNL     1      -4.364   4.842  -1.588  1.00  0.00     0.011 A 
ATOM     21  C   UNL     1      -3.035   3.582  -3.163  1.00  0.00     0.002 A 
ATOM     22  C   UNL     1      -3.626   4.775  -2.770  1.00  0.00     0.001 A 
BRANCH  15  23
ATOM     23  S   UNL     1      -3.552  -0.007  -0.155  1.00  0.00     0.268 S 
ATOM     24  O   UNL     1      -3.873  -0.554  -1.454  1.00  0.00    -0.201 OA
ATOM     25  O   UNL     1      -4.064  -0.592   1.077  1.00  0.00    -0.201 OA
BRANCH  23  26
ATOM     26  C   UNL     1      -1.787   0.055  -0.008  1.00  0.00     0.088 A 
ATOM     27  C   UNL     1       2.513  -0.044   0.028  1.00  0.00     0.044 C 
ATOM     28  C   UNL     1       1.013  -0.004   0.041  1.00  0.00    -0.051 A 
ATOM     29  C   UNL     1       0.284  -1.196  -0.045  1.00  0.00     0.005 A 
ATOM     30  C   UNL     1       0.326   1.212   0.138  1.00  0.00     0.005 A 
ATOM     31  C   UNL     1      -1.111  -1.169  -0.075  1.00  0.00     0.022 A 
ATOM     32  C   UNL     1      -1.072   1.245   0.128  1.00  0.00     0.022 A 
ENDBRANCH  23  26
ENDBRANCH  15  23
ENDBRANCH  12  14
ENDBRANCH   9  12
ENDBRANCH   7   8
BRANCH   7  33
ATOM     33  C   UNL     1      -9.402   6.652   2.527  1.00  0.00     0.090 C 
BRANCH  33  34
ATOM     34  C   UNL     1     -10.430   6.345   3.561  1.00  0.00     0.037 A 
ATOM     35  C   UNL     1     -10.978   5.162   4.015  1.00  0.00     0.134 A 
ATOM     36  N   UNL     1     -11.098   7.323   4.261  1.00  0.00    -0.348 N 
ATOM     37  N   UNL     1     -11.858   5.396   5.039  1.00  0.00    -0.245 NA
ATOM     38  C   UNL     1     -11.930   6.702   5.148  1.00  0.00     0.196 A 
ATOM     39  H   UNL     1     -10.995   8.295   4.142  1.00  0.00     0.167 HD
ENDBRANCH  33  34
ENDBRANCH   7  33
ENDBRANCH   4   7
ENDBRANCH   2   3
ENDBRANCH   1   2
BRANCH   1  40
ATOM     40  C   UNL     1      -7.829   6.596   8.507  1.00  0.00     0.002 C 
BRANCH  40  41
ATOM     41  C   UNL     1      -9.065   7.488   8.714  1.00  0.00     0.002 C 
BRANCH  41  42
ATOM     42  C   UNL     1     -10.430   6.806   8.634  1.00  0.00     0.021 C 
BRANCH  42  43
ATOM     43  C   UNL     1     -10.723   5.821   9.749  1.00  0.00     0.116 C 
BRANCH  43  44
ATOM     44  N   UNL     1     -11.364   6.421  10.913  1.00  0.00    -0.352 N 
ATOM     45  C   UNL     1     -11.909   5.811  12.030  1.00  0.00     0.251 C 
ATOM     46  H   UNL     1     -11.418   7.404  10.902  1.00  0.00     0.163 HD
ATOM     47  O   UNL     1     -12.510   6.472  12.870  1.00  0.00    -0.269 OA
BRANCH  45  48
ATOM     48  C   UNL     1     -11.584   4.393  12.303  1.00  0.00     0.039 A 
ATOM     49  C   UNL     1     -10.967   4.137  13.535  1.00  0.00     0.014 A 
ATOM     50  C   UNL     1     -11.486   3.487  11.255  1.00  0.00     0.014 A 
ATOM     51  C   UNL     1      -9.978   3.170  13.597  1.00  0.00     0.010 A 
ATOM     52  C   UNL     1     -10.419   2.626  11.264  1.00  0.00     0.010 A 
ATOM     53  C   UNL     1      -9.626   2.536  12.410  1.00  0.00    -0.014 A 
BRANCH  53  54
ATOM     54  C   UNL     1      -8.426   1.744  12.259  1.00  0.00     0.031 A 
ATOM     55  C   UNL     1      -8.557   0.296  12.451  1.00  0.00     0.074 A 
ATOM     56  C   UNL     1      -7.295   2.359  11.854  1.00  0.00     0.049 A 
ATOM     57  N   UNL     1      -7.612  -0.476  12.848  1.00  0.00    -0.248 NA
ATOM     58  C   UNL     1      -9.832  -0.393  12.277  1.00  0.00     0.031 C 
ATOM     59  C   UNL     1      -6.046   1.757  11.402  1.00  0.00     0.029 A 
ATOM     60  N   UNL     1      -7.005   3.732  11.944  1.00  0.00    -0.354 N 
ATOM     61  C   UNL     1      -8.053  -1.774  12.695  1.00  0.00     0.074 A 
ATOM     62  C   UNL     1      -9.470  -1.665  12.457  1.00  0.00     0.031 C 
ATOM     63  C   UNL     1      -5.058   2.661  11.537  1.00  0.00     0.029 A 
ATOM     64  C   UNL     1      -5.622   3.813  12.223  1.00  0.00     0.049 A 
ATOM     65  H   UNL     1      -7.634   4.481  11.834  1.00  0.00     0.167 HD
ATOM     66  C   UNL     1      -7.120  -2.765  12.618  1.00  0.00     0.037 A 
ATOM     67  C   UNL     1      -5.192   4.290  13.429  1.00  0.00     0.037 A 
ATOM     68  C   UNL     1      -5.788  -2.194  12.811  1.00  0.00     0.049 A 
ATOM     69  C   UNL     1      -4.463   3.242  14.236  1.00  0.00     0.074 A 
ATOM     70  C   UNL     1      -4.854  -1.725  11.901  1.00  0.00     0.029 A 
ATOM     71  N   UNL     1      -5.443  -1.658  14.047  1.00  0.00    -0.354 N 
ATOM     72  N   UNL     1      -4.654   1.958  14.099  1.00  0.00    -0.248 NA
ATOM     73  C   UNL     1      -3.463   3.560  15.250  1.00  0.00     0.031 C 
ATOM     74  C   UNL     1      -3.991  -0.834  12.585  1.00  0.00     0.029 A 
ATOM     75  C   UNL     1      -4.379  -0.786  13.914  1.00  0.00     0.049 A 
ATOM     76  H   UNL     1      -5.894  -1.870  14.897  1.00  0.00     0.167 HD
ATOM     77  C   UNL     1      -3.841   1.285  14.972  1.00  0.00     0.074 A 
ATOM     78  C   UNL     1      -3.108   2.331  15.661  1.00  0.00     0.031 C 
ATOM     79  C   UNL     1      -3.839  -0.078  15.066  1.00  0.00     0.037 A 
BRANCH  66  80
ATOM     80  C   UNL     1      -7.356  -4.148  12.044  1.00  0.00     0.064 A 
ATOM     81  C   UNL     1      -6.276  -4.877  11.496  1.00  0.00     0.173 A 
ATOM     82  C   UNL     1      -8.602  -4.796  11.947  1.00  0.00     0.173 A 
ATOM     83  F   UNL     1      -5.014  -4.436  11.591  1.00  0.00    -0.203 F 
ATOM     84  C   UNL     1      -6.444  -6.092  10.826  1.00  0.00     0.198 A 
ATOM     85  C   UNL     1      -8.778  -5.993  11.242  1.00  0.00     0.198 A 
ATOM     86  F   UNL     1      -9.687  -4.336  12.576  1.00  0.00    -0.203 F 
ATOM     87  F   UNL     1      -5.376  -6.724  10.320  1.00  0.00    -0.200 F 
ATOM     88  C   UNL     1      -7.700  -6.637  10.674  1.00  0.00     0.200 A 
ATOM     89  F   UNL     1     -10.006  -6.520  11.126  1.00  0.00    -0.200 F 
ATOM     90  F   UNL     1      -7.867  -7.790  10.012  1.00  0.00    -0.200 F 
ENDBRANCH  66  80
BRANCH  67  91
ATOM     91  C   UNL     1      -6.107   5.325  13.994  1.00  0.00     0.064 A 
ATOM     92  C   UNL     1      -6.310   6.504  13.247  1.00  0.00     0.173 A 
ATOM     93  C   UNL     1      -7.054   5.017  14.979  1.00  0.00     0.173 A 
ATOM     94  F   UNL     1      -5.425   6.857  12.300  1.00  0.00    -0.203 F 
ATOM     95  C   UNL     1      -7.481   7.249  13.369  1.00  0.00     0.198 A 
ATOM     96  C   UNL     1      -8.213   5.787  15.119  1.00  0.00     0.198 A 
ATOM     97  F   UNL     1      -6.923   3.912  15.726  1.00  0.00    -0.203 F 
ATOM     98  F   UNL     1      -7.706   8.280  12.540  1.00  0.00    -0.200 F 
ATOM     99  C   UNL     1      -8.445   6.872  14.285  1.00  0.00     0.200 A 
ATOM    100  F   UNL     1      -9.153   5.418  16.002  1.00  0.00    -0.200 F 
ATOM    101  F   UNL     1      -9.612   7.529  14.339  1.00  0.00    -0.200 F 
ENDBRANCH  67  91
BRANCH  79 102
ATOM    102  C   UNL     1      -3.231  -0.872  16.196  1.00  0.00     0.064 A 
ATOM    103  C   UNL     1      -3.056  -0.367  17.495  1.00  0.00     0.173 A 
ATOM    104  C   UNL     1      -2.933  -2.248  16.034  1.00  0.00     0.173 A 
ATOM    105  F   UNL     1      -3.444   0.872  17.822  1.00  0.00    -0.203 F 
ATOM    106  C   UNL     1      -2.529  -1.147  18.526  1.00  0.00     0.198 A 
ATOM    107  C   UNL     1      -2.480  -3.042  17.086  1.00  0.00     0.198 A 
ATOM    108  F   UNL     1      -3.100  -2.873  14.860  1.00  0.00    -0.203 F 
ATOM    109  F   UNL     1      -2.318  -0.595  19.729  1.00  0.00    -0.200 F 
ATOM    110  C   UNL     1      -2.250  -2.485  18.325  1.00  0.00     0.200 A 
ATOM    111  F   UNL     1      -2.287  -4.354  16.892  1.00  0.00    -0.200 F 
ATOM    112  F   UNL     1      -1.785  -3.239  19.329  1.00  0.00    -0.200 F 
ENDBRANCH  79 102
ENDBRANCH  53  54
ENDBRANCH  45  48
ENDBRANCH  43  44
ENDBRANCH  42  43
ENDBRANCH  41  42
ENDBRANCH  40  41
ENDBRANCH   1  40
TORSDOF 20
