REMARK SMILES COCc1c(C(=O)NCCCCCCNC(=O)c2ccc(-c3c4nc(c(-c5c(F)c(F)c(F)c(F)c5F)c5ccc([nH]5)c(-c5c(F)c(F)c(F)c(F)c5F)c5nc(c(-c6c(F)c(F)c(F)c(F)c6F)c6ccc3[nH]6)C=C5)C=C4)cc2)sc2ccccc12
REMARK SMILES IDX 11 1 10 2 9 3 8 4 6 5 7 6 5 8 4 9 87 10 81 11 82 12 86 13
REMARK SMILES IDX 83 14 85 15 84 16 3 17 2 18 1 19 12 20 13 21 14 22 15 23
REMARK SMILES IDX 16 24 17 26 18 27 19 28 80 29 20 30 79 31 21 32 22 33 23 34
REMARK SMILES IDX 73 35 24 36 78 37 72 38 74 39 25 40 77 41 71 42 70 43 26 45
REMARK SMILES IDX 58 46 38 47 57 48 39 49 42 50 56 51 75 52 40 53 41 54 55 56
REMARK SMILES IDX 76 57 43 58 27 59 28 60 36 61 29 62 30 63 34 64 37 65 31 66
REMARK SMILES IDX 32 67 35 68 33 69 59 70 60 71 68 72 61 73 62 74 66 75 69 76
REMARK SMILES IDX 63 77 64 78 67 79 65 80 44 81 45 82 53 83 46 84 47 85 51 86
REMARK SMILES IDX 54 87 48 88 49 89 52 90 50 91
REMARK H PARENT 8 7 15 25 74 44 42 55
REMARK Flexibility Score: inf
ROOT
ATOM      1  C   UNL     1       1.837   5.482   0.038  1.00  0.00     0.002 C 
ENDROOT
BRANCH   1   2
ATOM      2  C   UNL     1       0.949   4.874  -1.050  1.00  0.00     0.021 C 
BRANCH   2   3
ATOM      3  C   UNL     1       1.667   4.052  -2.116  1.00  0.00     0.116 C 
BRANCH   3   4
ATOM      4  N   UNL     1       2.286   2.853  -1.590  1.00  0.00    -0.351 N 
ATOM      5  C   UNL     1       2.179   1.514  -1.881  1.00  0.00     0.261 C 
ATOM      6  O   UNL     1       2.926   0.800  -1.202  1.00  0.00    -0.268 OA
ATOM      7  H   UNL     1       2.924   3.038  -0.863  1.00  0.00     0.163 HD
BRANCH   5   8
ATOM      8  C   UNL     1       1.256   0.946  -2.864  1.00  0.00     0.099 A 
ATOM      9  C   UNL     1       0.748  -0.358  -2.873  1.00  0.00     0.009 A 
ATOM     10  C   UNL     1      -0.094  -0.609  -4.037  1.00  0.00    -0.001 A 
ATOM     11  S   UNL     1       0.793   1.780  -4.276  1.00  0.00    -0.130 S 
ATOM     12  C   UNL     1      -0.198   0.518  -4.849  1.00  0.00     0.035 A 
ATOM     13  C   UNL     1      -0.787  -1.775  -4.459  1.00  0.00     0.010 A 
ATOM     14  C   UNL     1      -1.000   0.542  -6.007  1.00  0.00     0.019 A 
ATOM     15  C   UNL     1      -1.552  -1.774  -5.632  1.00  0.00     0.001 A 
ATOM     16  C   UNL     1      -1.670  -0.619  -6.389  1.00  0.00     0.001 A 
BRANCH   9  17
ATOM     17  C   UNL     1       1.041  -1.412  -1.832  1.00  0.00     0.197 C 
BRANCH  17  18
ATOM     18  O   UNL     1       0.131  -1.379  -0.729  1.00  0.00    -0.380 OA
ATOM     19  C   UNL     1       0.587  -0.569   0.347  1.00  0.00     0.195 C 
ENDBRANCH  17  18
ENDBRANCH   9  17
ENDBRANCH   5   8
ENDBRANCH   3   4
ENDBRANCH   2   3
ENDBRANCH   1   2
BRANCH   1  20
ATOM     20  C   UNL     1       3.059   6.267  -0.450  1.00  0.00     0.002 C 
BRANCH  20  21
ATOM     21  C   UNL     1       2.791   7.327  -1.520  1.00  0.00     0.021 C 
BRANCH  21  22
ATOM     22  C   UNL     1       1.764   8.385  -1.138  1.00  0.00     0.116 C 
BRANCH  22  23
ATOM     23  N   UNL     1       2.216   9.220  -0.036  1.00  0.00    -0.352 N 
ATOM     24  C   UNL     1       2.423  10.577  -0.003  1.00  0.00     0.251 C 
ATOM     25  H   UNL     1       2.400   8.744   0.806  1.00  0.00     0.163 HD
ATOM     26  O   UNL     1       2.990  11.098   0.952  1.00  0.00    -0.269 OA
BRANCH  24  27
ATOM     27  C   UNL     1       1.982  11.410  -1.141  1.00  0.00     0.039 A 
ATOM     28  C   UNL     1       2.873  12.336  -1.689  1.00  0.00     0.014 A 
ATOM     29  C   UNL     1       0.701  11.260  -1.679  1.00  0.00     0.014 A 
ATOM     30  C   UNL     1       2.510  13.051  -2.832  1.00  0.00     0.010 A 
ATOM     31  C   UNL     1       0.366  11.921  -2.857  1.00  0.00     0.010 A 
ATOM     32  C   UNL     1       1.273  12.813  -3.452  1.00  0.00    -0.014 A 
BRANCH  32  33
ATOM     33  C   UNL     1       0.917  13.451  -4.744  1.00  0.00     0.031 A 
ATOM     34  C   UNL     1      -0.243  14.401  -4.825  1.00  0.00     0.074 A 
ATOM     35  C   UNL     1       1.586  13.104  -5.860  1.00  0.00     0.049 A 
ATOM     36  N   UNL     1      -0.778  14.968  -5.876  1.00  0.00    -0.248 NA
ATOM     37  C   UNL     1      -0.905  14.739  -3.556  1.00  0.00     0.031 C 
ATOM     38  C   UNL     1       2.712  12.170  -5.914  1.00  0.00     0.029 A 
ATOM     39  N   UNL     1       1.406  13.482  -7.168  1.00  0.00    -0.354 N 
ATOM     40  C   UNL     1      -1.841  15.722  -5.398  1.00  0.00     0.074 A 
ATOM     41  C   UNL     1      -1.909  15.498  -3.970  1.00  0.00     0.031 C 
ATOM     42  C   UNL     1       3.132  12.061  -7.184  1.00  0.00     0.029 A 
ATOM     43  C   UNL     1       2.276  12.876  -8.040  1.00  0.00     0.049 A 
ATOM     44  H   UNL     1       0.719  14.127  -7.452  1.00  0.00     0.167 HD
ATOM     45  C   UNL     1      -2.671  16.542  -6.087  1.00  0.00     0.037 A 
ATOM     46  C   UNL     1       2.362  12.952  -9.382  1.00  0.00     0.037 A 
ATOM     47  C   UNL     1      -2.593  16.764  -7.508  1.00  0.00     0.049 A 
ATOM     48  C   UNL     1       1.389  13.822 -10.131  1.00  0.00     0.074 A 
ATOM     49  C   UNL     1      -3.353  17.615  -8.291  1.00  0.00     0.029 A 
ATOM     50  N   UNL     1      -1.707  16.120  -8.360  1.00  0.00    -0.354 N 
ATOM     51  N   UNL     1       0.428  14.581  -9.663  1.00  0.00    -0.248 NA
ATOM     52  C   UNL     1       1.509  13.842 -11.595  1.00  0.00     0.031 C 
ATOM     53  C   UNL     1      -2.966  17.443  -9.624  1.00  0.00     0.029 A 
ATOM     54  C   UNL     1      -1.927  16.527  -9.667  1.00  0.00     0.049 A 
ATOM     55  H   UNL     1      -1.024  15.470  -8.079  1.00  0.00     0.167 HD
ATOM     56  C   UNL     1      -0.154  15.187 -10.768  1.00  0.00     0.074 A 
ATOM     57  C   UNL     1       0.572  14.718 -11.931  1.00  0.00     0.031 C 
ATOM     58  C   UNL     1      -1.196  16.052 -10.815  1.00  0.00     0.037 A 
BRANCH  45  59
ATOM     59  C   UNL     1      -3.740  17.255  -5.311  1.00  0.00     0.064 A 
ATOM     60  C   UNL     1      -3.431  18.270  -4.392  1.00  0.00     0.173 A 
ATOM     61  C   UNL     1      -5.094  16.941  -5.507  1.00  0.00     0.173 A 
ATOM     62  F   UNL     1      -2.152  18.604  -4.159  1.00  0.00    -0.203 F 
ATOM     63  C   UNL     1      -4.433  18.918  -3.673  1.00  0.00     0.198 A 
ATOM     64  C   UNL     1      -6.095  17.614  -4.811  1.00  0.00     0.198 A 
ATOM     65  F   UNL     1      -5.447  15.985  -6.379  1.00  0.00    -0.203 F 
ATOM     66  F   UNL     1      -4.108  19.844  -2.761  1.00  0.00    -0.200 F 
ATOM     67  C   UNL     1      -5.764  18.594  -3.888  1.00  0.00     0.200 A 
ATOM     68  F   UNL     1      -7.382  17.310  -5.031  1.00  0.00    -0.200 F 
ATOM     69  F   UNL     1      -6.727  19.221  -3.199  1.00  0.00    -0.200 F 
ENDBRANCH  45  59
BRANCH  46  70
ATOM     70  C   UNL     1       3.413  12.188 -10.104  1.00  0.00     0.064 A 
ATOM     71  C   UNL     1       4.473  12.851 -10.738  1.00  0.00     0.173 A 
ATOM     72  C   UNL     1       3.384  10.787 -10.174  1.00  0.00     0.173 A 
ATOM     73  F   UNL     1       4.532  14.190 -10.717  1.00  0.00    -0.203 F 
ATOM     74  C   UNL     1       5.455  12.143 -11.427  1.00  0.00     0.198 A 
ATOM     75  C   UNL     1       4.383  10.079 -10.839  1.00  0.00     0.198 A 
ATOM     76  F   UNL     1       2.393  10.104  -9.582  1.00  0.00    -0.203 F 
ATOM     77  F   UNL     1       6.434  12.804 -12.060  1.00  0.00    -0.200 F 
ATOM     78  C   UNL     1       5.414  10.758 -11.471  1.00  0.00     0.200 A 
ATOM     79  F   UNL     1       4.347   8.740 -10.866  1.00  0.00    -0.200 F 
ATOM     80  F   UNL     1       6.363  10.077 -12.128  1.00  0.00    -0.200 F 
ENDBRANCH  46  70
BRANCH  58  81
ATOM     81  C   UNL     1      -1.604  16.570 -12.163  1.00  0.00     0.064 A 
ATOM     82  C   UNL     1      -2.266  15.755 -13.093  1.00  0.00     0.173 A 
ATOM     83  C   UNL     1      -1.383  17.913 -12.507  1.00  0.00     0.173 A 
ATOM     84  F   UNL     1      -2.485  14.459 -12.820  1.00  0.00    -0.203 F 
ATOM     85  C   UNL     1      -2.677  16.261 -14.323  1.00  0.00     0.198 A 
ATOM     86  C   UNL     1      -1.823  18.423 -13.724  1.00  0.00     0.198 A 
ATOM     87  F   UNL     1      -0.759  18.736 -11.651  1.00  0.00    -0.203 F 
ATOM     88  F   UNL     1      -3.272  15.454 -15.213  1.00  0.00    -0.200 F 
ATOM     89  C   UNL     1      -2.465  17.596 -14.634  1.00  0.00     0.200 A 
ATOM     90  F   UNL     1      -1.631  19.717 -14.016  1.00  0.00    -0.200 F 
ATOM     91  F   UNL     1      -2.876  18.085 -15.812  1.00  0.00    -0.200 F 
ENDBRANCH  58  81
ENDBRANCH  32  33
ENDBRANCH  24  27
ENDBRANCH  22  23
ENDBRANCH  21  22
ENDBRANCH  20  21
ENDBRANCH   1  20
TORSDOF 15
