REMARK SMILES CC[C@@H](NC(=O)N1CCO[C@H](CC(=O)NCCCCCCNC(=O)c2ccc(-c3c4nc(c(-c5c(F)c(F)c(F)c(F)c5F)c5ccc([nH]5)c(-c5c(F)c(F)c(F)c(F)c5F)c5nc(c(-c6c(F)c(F)c(F)c(F)c6F)c6ccc3[nH]6)C=C5)C=C4)cc2)C1)c1cccs1
REMARK SMILES IDX 17 1 16 2 15 3 13 4 14 5 12 7 11 8 7 9 8 10 88 11 9 12 10 13
REMARK SMILES IDX 5 14 4 15 6 17 3 18 2 19 1 20 89 21 90 22 93 23 91 24 92 25
REMARK SMILES IDX 18 26 19 27 20 28 21 29 22 30 23 31 24 33 25 34 26 35 87 36
REMARK SMILES IDX 27 37 86 38 28 39 29 40 30 41 80 42 31 43 85 44 79 45 81 46
REMARK SMILES IDX 32 47 84 48 78 49 77 50 33 52 65 53 45 54 64 55 46 56 49 57
REMARK SMILES IDX 63 58 82 59 47 60 48 61 62 63 83 64 50 65 34 66 35 67 43 68
REMARK SMILES IDX 36 69 37 70 41 71 44 72 38 73 39 74 42 75 40 76 66 77 67 78
REMARK SMILES IDX 75 79 68 80 69 81 73 82 76 83 70 84 71 85 74 86 72 87 51 88
REMARK SMILES IDX 52 89 60 90 53 91 54 92 58 93 61 94 55 95 56 96 59 97 57 98
REMARK H PARENT 15 6 4 16 22 32 81 51 49 62
REMARK Flexibility Score: inf
ROOT
ATOM      1  C   UNL     1      -2.207  -2.585  -6.810  1.00  0.00     0.021 C 
ENDROOT
BRANCH   1   2
ATOM      2  C   UNL     1      -2.040  -1.624  -5.637  1.00  0.00     0.116 C 
BRANCH   2   3
ATOM      3  N   UNL     1      -3.312  -1.300  -5.031  1.00  0.00    -0.356 N 
ATOM      4  C   UNL     1      -3.776  -1.643  -3.798  1.00  0.00     0.222 C 
ATOM      5  O   UNL     1      -4.934  -1.352  -3.497  1.00  0.00    -0.275 OA
ATOM      6  H   UNL     1      -3.923  -0.760  -5.582  1.00  0.00     0.163 HD
BRANCH   4   7
ATOM      7  C   UNL     1      -2.868  -2.337  -2.811  1.00  0.00     0.133 C 
BRANCH   7   8
ATOM      8  C   UNL     1      -3.113  -3.849  -2.764  1.00  0.00     0.147 C 
ATOM      9  N   UNL     1      -1.182  -4.360  -1.355  1.00  0.00    -0.320 N 
ATOM     10  C   UNL     1      -0.572  -5.163  -2.402  1.00  0.00     0.150 C 
ATOM     11  C   UNL     1      -2.641  -4.409  -1.407  1.00  0.00     0.154 C 
ATOM     12  C   UNL     1      -1.065  -4.705  -3.772  1.00  0.00     0.182 C 
ATOM     13  O   UNL     1      -2.495  -4.572  -3.857  1.00  0.00    -0.374 OA
BRANCH   9  14
ATOM     14  C   UNL     1      -0.544  -3.834  -0.274  1.00  0.00     0.318 C 
ATOM     15  N   UNL     1       0.744  -3.414  -0.388  1.00  0.00    -0.330 N 
ATOM     16  H   UNL     1       1.431  -3.953   0.067  1.00  0.00     0.166 HD
ATOM     17  O   UNL     1      -1.086  -3.726   0.826  1.00  0.00    -0.249 OA
BRANCH  15  18
ATOM     18  C   UNL     1       1.211  -2.225  -1.132  1.00  0.00     0.124 C 
BRANCH  18  19
ATOM     19  C   UNL     1       0.310  -0.984  -0.929  1.00  0.00     0.027 C 
ATOM     20  C   UNL     1       0.599  -0.275   0.392  1.00  0.00     0.006 C 
ENDBRANCH  18  19
BRANCH  18  21
ATOM     21  C   UNL     1       1.622  -2.560  -2.555  1.00  0.00     0.027 A 
ATOM     22  C   UNL     1       2.403  -3.632  -2.966  1.00  0.00     0.017 A 
ATOM     23  S   UNL     1       1.343  -1.504  -3.886  1.00  0.00    -0.147 S 
ATOM     24  C   UNL     1       2.620  -3.664  -4.373  1.00  0.00     0.012 A 
ATOM     25  C   UNL     1       2.083  -2.564  -4.997  1.00  0.00     0.065 A 
ENDBRANCH  18  21
ENDBRANCH  15  18
ENDBRANCH   9  14
ENDBRANCH   7   8
ENDBRANCH   4   7
ENDBRANCH   2   3
ENDBRANCH   1   2
BRANCH   1  26
ATOM     26  C   UNL     1      -2.465  -1.864  -8.134  1.00  0.00     0.002 C 
BRANCH  26  27
ATOM     27  C   UNL     1      -1.292  -1.009  -8.634  1.00  0.00     0.002 C 
BRANCH  27  28
ATOM     28  C   UNL     1       0.022  -1.765  -8.850  1.00  0.00     0.021 C 
BRANCH  28  29
ATOM     29  C   UNL     1      -0.062  -2.918  -9.845  1.00  0.00     0.116 C 
BRANCH  29  30
ATOM     30  N   UNL     1      -0.468  -2.469 -11.168  1.00  0.00    -0.352 N 
ATOM     31  C   UNL     1       0.160  -2.609 -12.376  1.00  0.00     0.251 C 
ATOM     32  H   UNL     1      -1.327  -1.989 -11.199  1.00  0.00     0.163 HD
ATOM     33  O   UNL     1      -0.242  -1.978 -13.355  1.00  0.00    -0.269 OA
BRANCH  31  34
ATOM     34  C   UNL     1       1.325  -3.505 -12.516  1.00  0.00     0.039 A 
ATOM     35  C   UNL     1       2.416  -3.079 -13.280  1.00  0.00     0.014 A 
ATOM     36  C   UNL     1       1.333  -4.774 -11.930  1.00  0.00     0.014 A 
ATOM     37  C   UNL     1       3.535  -3.902 -13.412  1.00  0.00     0.010 A 
ATOM     38  C   UNL     1       2.477  -5.565 -12.005  1.00  0.00     0.010 A 
ATOM     39  C   UNL     1       3.586  -5.140 -12.752  1.00  0.00    -0.014 A 
BRANCH  39  40
ATOM     40  C   UNL     1       4.790  -6.003 -12.831  1.00  0.00     0.031 A 
ATOM     41  C   UNL     1       4.715  -7.350 -13.492  1.00  0.00     0.074 A 
ATOM     42  C   UNL     1       5.931  -5.606 -12.238  1.00  0.00     0.049 A 
ATOM     43  N   UNL     1       5.636  -8.275 -13.596  1.00  0.00    -0.248 NA
ATOM     44  C   UNL     1       3.422  -7.721 -14.088  1.00  0.00     0.031 C 
ATOM     45  C   UNL     1       6.111  -4.348 -11.512  1.00  0.00     0.029 A 
ATOM     46  N   UNL     1       7.150  -6.228 -12.134  1.00  0.00    -0.354 N 
ATOM     47  C   UNL     1       5.028  -9.342 -14.245  1.00  0.00     0.074 A 
ATOM     48  C   UNL     1       3.648  -8.969 -14.469  1.00  0.00     0.031 C 
ATOM     49  C   UNL     1       7.369  -4.286 -11.047  1.00  0.00     0.029 A 
ATOM     50  C   UNL     1       8.073  -5.511 -11.415  1.00  0.00     0.049 A 
ATOM     51  H   UNL     1       7.344  -7.105 -12.538  1.00  0.00     0.167 HD
ATOM     52  C   UNL     1       5.577 -10.517 -14.634  1.00  0.00     0.037 A 
ATOM     53  C   UNL     1       9.342  -5.811 -11.080  1.00  0.00     0.037 A 
ATOM     54  C   UNL     1       6.960 -10.867 -14.440  1.00  0.00     0.049 A 
ATOM     55  C   UNL     1       9.940  -7.107 -11.550  1.00  0.00     0.074 A 
ATOM     56  C   UNL     1       7.636 -11.991 -14.881  1.00  0.00     0.029 A 
ATOM     57  N   UNL     1       7.878 -10.098 -13.739  1.00  0.00    -0.354 N 
ATOM     58  N   UNL     1       9.382  -8.072 -12.239  1.00  0.00    -0.248 NA
ATOM     59  C   UNL     1      11.347  -7.352 -11.205  1.00  0.00     0.031 C 
ATOM     60  C   UNL     1       8.951 -11.926 -14.405  1.00  0.00     0.029 A 
ATOM     61  C   UNL     1       9.108 -10.737 -13.711  1.00  0.00     0.049 A 
ATOM     62  H   UNL     1       7.684  -9.227 -13.324  1.00  0.00     0.167 HD
ATOM     63  C   UNL     1      10.370  -9.029 -12.427  1.00  0.00     0.074 A 
ATOM     64  C   UNL     1      11.569  -8.520 -11.793  1.00  0.00     0.031 C 
ATOM     65  C   UNL     1      10.291 -10.220 -13.069  1.00  0.00     0.037 A 
BRANCH  52  66
ATOM     66  C   UNL     1       4.676 -11.514 -15.304  1.00  0.00     0.064 A 
ATOM     67  C   UNL     1       4.157 -11.295 -16.589  1.00  0.00     0.173 A 
ATOM     68  C   UNL     1       4.343 -12.715 -14.659  1.00  0.00     0.173 A 
ATOM     69  F   UNL     1       4.436 -10.159 -17.246  1.00  0.00    -0.203 F 
ATOM     70  C   UNL     1       3.307 -12.223 -17.187  1.00  0.00     0.198 A 
ATOM     71  C   UNL     1       3.519 -13.655 -15.273  1.00  0.00     0.198 A 
ATOM     72  F   UNL     1       4.818 -12.979 -13.433  1.00  0.00    -0.203 F 
ATOM     73  F   UNL     1       2.776 -11.964 -18.390  1.00  0.00    -0.200 F 
ATOM     74  C   UNL     1       2.993 -13.403 -16.531  1.00  0.00     0.200 A 
ATOM     75  F   UNL     1       3.227 -14.801 -14.643  1.00  0.00    -0.200 F 
ATOM     76  F   UNL     1       2.176 -14.295 -17.108  1.00  0.00    -0.200 F 
ENDBRANCH  52  66
BRANCH  53  77
ATOM     77  C   UNL     1      10.133  -4.845 -10.275  1.00  0.00     0.064 A 
ATOM     78  C   UNL     1      11.172  -4.105 -10.855  1.00  0.00     0.173 A 
ATOM     79  C   UNL     1       9.845  -4.620  -8.921  1.00  0.00     0.173 A 
ATOM     80  F   UNL     1      11.495  -4.299 -12.142  1.00  0.00    -0.203 F 
ATOM     81  C   UNL     1      11.900  -3.182 -10.107  1.00  0.00     0.198 A 
ATOM     82  C   UNL     1      10.557  -3.679  -8.182  1.00  0.00     0.198 A 
ATOM     83  F   UNL     1       8.854  -5.298  -8.323  1.00  0.00    -0.203 F 
ATOM     84  F   UNL     1      12.909  -2.508 -10.678  1.00  0.00    -0.200 F 
ATOM     85  C   UNL     1      11.587  -2.963  -8.774  1.00  0.00     0.200 A 
ATOM     86  F   UNL     1      10.240  -3.459  -6.898  1.00  0.00    -0.200 F 
ATOM     87  F   UNL     1      12.279  -2.066  -8.059  1.00  0.00    -0.200 F 
ENDBRANCH  53  77
BRANCH  65  88
ATOM     88  C   UNL     1      11.539 -11.051 -13.132  1.00  0.00     0.064 A 
ATOM     89  C   UNL     1      12.037 -11.715 -12.002  1.00  0.00     0.173 A 
ATOM     90  C   UNL     1      12.221 -11.219 -14.347  1.00  0.00     0.173 A 
ATOM     91  F   UNL     1      11.430 -11.574 -10.814  1.00  0.00    -0.203 F 
ATOM     92  C   UNL     1      13.184 -12.500 -12.081  1.00  0.00     0.198 A 
ATOM     93  C   UNL     1      13.351 -12.027 -14.429  1.00  0.00     0.198 A 
ATOM     94  F   UNL     1      11.782 -10.609 -15.459  1.00  0.00    -0.203 F 
ATOM     95  F   UNL     1      13.667 -13.090 -10.979  1.00  0.00    -0.200 F 
ATOM     96  C   UNL     1      13.836 -12.661 -13.295  1.00  0.00     0.200 A 
ATOM     97  F   UNL     1      13.972 -12.191 -15.605  1.00  0.00    -0.200 F 
ATOM     98  F   UNL     1      14.936 -13.423 -13.370  1.00  0.00    -0.200 F 
ENDBRANCH  65  88
ENDBRANCH  39  40
ENDBRANCH  31  34
ENDBRANCH  29  30
ENDBRANCH  28  29
ENDBRANCH  27  28
ENDBRANCH  26  27
ENDBRANCH   1  26
TORSDOF 18
