REMARK SMILES CC(=O)N[C@@]1(C(=O)NCCCCCCNC(=O)c2ccc(-c3c4nc(c(-c5c(F)c(F)c(F)c(F)c5F)c5ccc([nH]5)c(-c5c(F)c(F)c(F)c(F)c5F)c5nc(c(-c6c(F)c(F)c(F)c(F)c6F)c6ccc3[nH]6)C=C5)C=C4)cc2)CCCc2ccccc21
REMARK SMILES IDX 12 1 11 2 10 3 9 4 8 5 6 6 7 7 5 9 81 10 89 11 82 12 84 13
REMARK SMILES IDX 88 14 83 15 85 16 87 17 86 18 4 19 1 20 2 21 3 22 13 24
REMARK SMILES IDX 14 25 15 26 16 27 17 29 18 30 19 31 80 32 20 33 79 34 21 35
REMARK SMILES IDX 22 36 23 37 73 38 24 39 78 40 72 41 74 42 25 43 77 44 71 45
REMARK SMILES IDX 70 46 26 48 58 49 38 50 57 51 39 52 42 53 56 54 75 55 40 56
REMARK SMILES IDX 41 57 55 59 76 60 43 61 27 62 28 63 36 64 29 65 30 66 34 67
REMARK SMILES IDX 37 68 31 69 32 70 35 71 33 72 59 73 60 74 68 75 61 76 62 77
REMARK SMILES IDX 66 78 69 79 63 80 64 81 67 82 65 83 44 84 45 85 53 86 46 87
REMARK SMILES IDX 47 88 51 89 54 90 48 91 49 92 52 93 50 94
REMARK H PARENT 8 8 4 23 15 28 74 47 42 58
REMARK Flexibility Score: inf
ROOT
ATOM      1  C   UNL     1      -0.533   3.517  -0.042  1.00  0.00     0.002 C 
ENDROOT
BRANCH   1   2
ATOM      2  C   UNL     1      -0.762   2.074  -0.497  1.00  0.00     0.002 C 
BRANCH   2   3
ATOM      3  C   UNL     1       0.492   1.202  -0.513  1.00  0.00     0.021 C 
BRANCH   3   4
ATOM      4  C   UNL     1       1.101   0.924   0.861  1.00  0.00     0.116 C 
BRANCH   4   5
ATOM      5  N   UNL     1       0.229   0.165   1.750  1.00  0.00    -0.354 N 
ATOM      6  C   UNL     1       0.323  -1.071   2.342  1.00  0.00     0.250 C 
ATOM      7  O   UNL     1      -0.603  -1.358   3.110  1.00  0.00    -0.272 OA
ATOM      8  H   UNL     1      -0.605   0.640   1.974  1.00  0.00     0.163 HD
BRANCH   6   9
ATOM      9  C   UNL     1       1.581  -2.024   2.181  1.00  0.00     0.144 C 
ATOM     10  C   UNL     1       1.202  -3.518   2.406  1.00  0.00     0.044 C 
ATOM     11  C   UNL     1       2.639  -1.587   3.245  1.00  0.00    -0.010 A 
ATOM     12  C   UNL     1       1.026  -3.935   3.855  1.00  0.00     0.008 C 
ATOM     13  C   UNL     1       2.868  -2.340   4.422  1.00  0.00    -0.042 A 
ATOM     14  C   UNL     1       3.316  -0.354   3.144  1.00  0.00     0.007 A 
ATOM     15  C   UNL     1       2.310  -3.723   4.621  1.00  0.00     0.036 C 
ATOM     16  C   UNL     1       3.691  -1.836   5.449  1.00  0.00     0.004 A 
ATOM     17  C   UNL     1       4.113   0.147   4.180  1.00  0.00     0.000 A 
ATOM     18  C   UNL     1       4.288  -0.588   5.340  1.00  0.00     0.000 A 
BRANCH   9  19
ATOM     19  N   UNL     1       2.114  -1.931   0.804  1.00  0.00    -0.338 N 
ATOM     20  C   UNL     1       0.004  -2.439  -0.468  1.00  0.00     0.114 C 
ATOM     21  C   UNL     1       1.497  -2.201  -0.387  1.00  0.00     0.217 C 
ATOM     22  O   UNL     1       2.181  -2.182  -1.412  1.00  0.00    -0.275 OA
ATOM     23  H   UNL     1       3.049  -1.631   0.734  1.00  0.00     0.164 HD
ENDBRANCH   9  19
ENDBRANCH   6   9
ENDBRANCH   4   5
ENDBRANCH   3   4
ENDBRANCH   2   3
ENDBRANCH   1   2
BRANCH   1  24
ATOM     24  C   UNL     1       0.502   4.307  -0.851  1.00  0.00     0.021 C 
BRANCH  24  25
ATOM     25  C   UNL     1       0.280   4.331  -2.363  1.00  0.00     0.116 C 
BRANCH  25  26
ATOM     26  N   UNL     1      -1.008   4.894  -2.728  1.00  0.00    -0.352 N 
ATOM     27  C   UNL     1      -1.324   5.839  -3.667  1.00  0.00     0.251 C 
ATOM     28  H   UNL     1      -1.774   4.542  -2.220  1.00  0.00     0.163 HD
ATOM     29  O   UNL     1      -2.471   6.290  -3.710  1.00  0.00    -0.269 OA
BRANCH  27  30
ATOM     30  C   UNL     1      -0.310   6.346  -4.618  1.00  0.00     0.039 A 
ATOM     31  C   UNL     1      -0.316   7.710  -4.925  1.00  0.00     0.014 A 
ATOM     32  C   UNL     1       0.607   5.498  -5.246  1.00  0.00     0.014 A 
ATOM     33  C   UNL     1       0.619   8.227  -5.824  1.00  0.00     0.010 A 
ATOM     34  C   UNL     1       1.583   6.026  -6.093  1.00  0.00     0.010 A 
ATOM     35  C   UNL     1       1.593   7.394  -6.399  1.00  0.00    -0.014 A 
BRANCH  35  36
ATOM     36  C   UNL     1       2.619   7.963  -7.311  1.00  0.00     0.031 A 
ATOM     37  C   UNL     1       2.652   7.585  -8.766  1.00  0.00     0.074 A 
ATOM     38  C   UNL     1       3.540   8.814  -6.819  1.00  0.00     0.049 A 
ATOM     39  N   UNL     1       3.444   8.019  -9.716  1.00  0.00    -0.248 NA
ATOM     40  C   UNL     1       1.684   6.572  -9.211  1.00  0.00     0.031 C 
ATOM     41  C   UNL     1       3.658   9.208  -5.414  1.00  0.00     0.029 A 
ATOM     42  N   UNL     1       4.548   9.505  -7.443  1.00  0.00    -0.354 N 
ATOM     43  C   UNL     1       3.075   7.329 -10.863  1.00  0.00     0.074 A 
ATOM     44  C   UNL     1       2.026   6.409 -10.482  1.00  0.00     0.031 C 
ATOM     45  C   UNL     1       4.655  10.097  -5.289  1.00  0.00     0.029 A 
ATOM     46  C   UNL     1       5.262  10.319  -6.599  1.00  0.00     0.049 A 
ATOM     47  H   UNL     1       4.741   9.425  -8.405  1.00  0.00     0.167 HD
ATOM     48  C   UNL     1       3.549   7.468 -12.125  1.00  0.00     0.037 A 
ATOM     49  C   UNL     1       6.282  11.159  -6.853  1.00  0.00     0.037 A 
ATOM     50  C   UNL     1       4.580   8.399 -12.508  1.00  0.00     0.049 A 
ATOM     51  C   UNL     1       6.767  11.319  -8.268  1.00  0.00     0.074 A 
ATOM     52  C   UNL     1       5.086   8.658 -13.771  1.00  0.00     0.029 A 
ATOM     53  N   UNL     1       5.265   9.225 -11.629  1.00  0.00    -0.354 N 
ATOM     54  N   UNL     1       6.351  10.724  -9.359  1.00  0.00    -0.248 NA
ATOM     55  C   UNL     1       7.854  12.284  -8.487  1.00  0.00     0.031 C 
ATOM     56  C   UNL     1       6.106   9.608 -13.649  1.00  0.00     0.029 A 
ATOM     57  C   UNL     1       6.202   9.980 -12.318  1.00  0.00     0.049 A 
ATOM     58  H   UNL     1       5.109   9.268 -10.658  1.00  0.00     0.167 HD
ATOM     59  C   UNL     1       7.106  11.256 -10.395  1.00  0.00     0.074 A 
ATOM     60  C   UNL     1       7.988  12.242  -9.804  1.00  0.00     0.031 C 
ATOM     61  C   UNL     1       7.076  10.954 -11.716  1.00  0.00     0.037 A 
BRANCH  48  62
ATOM     62  C   UNL     1       2.951   6.595 -13.191  1.00  0.00     0.064 A 
ATOM     63  C   UNL     1       1.635   6.783 -13.642  1.00  0.00     0.173 A 
ATOM     64  C   UNL     1       3.713   5.584 -13.797  1.00  0.00     0.173 A 
ATOM     65  F   UNL     1       0.861   7.729 -13.090  1.00  0.00    -0.203 F 
ATOM     66  C   UNL     1       1.095   5.973 -14.639  1.00  0.00     0.198 A 
ATOM     67  C   UNL     1       3.179   4.796 -14.814  1.00  0.00     0.198 A 
ATOM     68  F   UNL     1       4.978   5.366 -13.409  1.00  0.00    -0.203 F 
ATOM     69  F   UNL     1      -0.179   6.141 -15.019  1.00  0.00    -0.200 F 
ATOM     70  C   UNL     1       1.869   4.986 -15.228  1.00  0.00     0.200 A 
ATOM     71  F   UNL     1       3.933   3.851 -15.393  1.00  0.00    -0.200 F 
ATOM     72  F   UNL     1       1.351   4.212 -16.192  1.00  0.00    -0.200 F 
ENDBRANCH  48  62
BRANCH  49  73
ATOM     73  C   UNL     1       6.883  11.951  -5.749  1.00  0.00     0.064 A 
ATOM     74  C   UNL     1       6.694  13.338  -5.672  1.00  0.00     0.173 A 
ATOM     75  C   UNL     1       7.659  11.342  -4.753  1.00  0.00     0.173 A 
ATOM     76  F   UNL     1       5.975  13.969  -6.613  1.00  0.00    -0.203 F 
ATOM     77  C   UNL     1       7.278  14.089  -4.654  1.00  0.00     0.198 A 
ATOM     78  C   UNL     1       8.219  12.089  -3.720  1.00  0.00     0.198 A 
ATOM     79  F   UNL     1       7.864  10.017  -4.778  1.00  0.00    -0.203 F 
ATOM     80  F   UNL     1       7.121  15.420  -4.632  1.00  0.00    -0.200 F 
ATOM     81  C   UNL     1       8.036  13.463  -3.676  1.00  0.00     0.200 A 
ATOM     82  F   UNL     1       8.938  11.480  -2.768  1.00  0.00    -0.200 F 
ATOM     83  F   UNL     1       8.595  14.185  -2.696  1.00  0.00    -0.200 F 
ENDBRANCH  49  73
BRANCH  61  84
ATOM     84  C   UNL     1       8.009  11.718 -12.611  1.00  0.00     0.064 A 
ATOM     85  C   UNL     1       9.398  11.515 -12.571  1.00  0.00     0.173 A 
ATOM     86  C   UNL     1       7.510  12.663 -13.519  1.00  0.00     0.173 A 
ATOM     87  F   UNL     1       9.926  10.633 -11.709  1.00  0.00    -0.203 F 
ATOM     88  C   UNL     1      10.253  12.261 -13.377  1.00  0.00     0.198 A 
ATOM     89  C   UNL     1       8.367  13.384 -14.347  1.00  0.00     0.198 A 
ATOM     90  F   UNL     1       6.191  12.890 -13.603  1.00  0.00    -0.203 F 
ATOM     91  F   UNL     1      11.579  12.096 -13.275  1.00  0.00    -0.200 F 
ATOM     92  C   UNL     1       9.737  13.191 -14.267  1.00  0.00     0.200 A 
ATOM     93  F   UNL     1       7.866  14.274 -15.215  1.00  0.00    -0.200 F 
ATOM     94  F   UNL     1      10.563  13.912 -15.038  1.00  0.00    -0.200 F 
ENDBRANCH  61  84
ENDBRANCH  35  36
ENDBRANCH  27  30
ENDBRANCH  25  26
ENDBRANCH  24  25
ENDBRANCH   1  24
TORSDOF 14
