REMARK SMILES CCN1C(=O)C[C@@H](C(=O)Nc2cccc(C(=O)NCCCCCCNC(=O)c3ccc(-c4c5nc(c(-c6c(F)c(F)c(F)c(F)c6F)c6ccc([nH]6)c(-c6c(F)c(F)c(F)c(F)c6F)c6nc(c(-c7c(F)c(F)c(F)c(F)c7F)c7ccc4[nH]7)C=C6)C=C5)cc3)c2)S/C1=[NH+]/c1ccccc1
REMARK SMILES IDX 21 1 20 2 19 3 18 4 16 5 17 6 15 8 11 9 12 10 91 11 13 12
REMARK SMILES IDX 14 13 10 14 8 15 9 16 7 18 3 19 4 20 93 21 5 22 6 23 92 24
REMARK SMILES IDX 94 25 2 27 1 28 95 29 96 30 100 31 97 32 99 33 98 34 22 35
REMARK SMILES IDX 23 36 24 37 25 38 26 39 27 41 28 42 29 43 90 44 30 45 89 46
REMARK SMILES IDX 31 47 32 48 33 49 83 50 34 51 88 52 82 53 84 54 35 55 87 56
REMARK SMILES IDX 81 57 80 58 36 60 68 61 48 62 67 63 49 64 52 65 66 66 85 67
REMARK SMILES IDX 50 68 51 69 65 71 86 72 53 73 37 74 38 75 46 76 39 77 40 78
REMARK SMILES IDX 44 79 47 80 41 81 42 82 45 83 43 84 69 85 70 86 78 87 71 88
REMARK SMILES IDX 72 89 76 90 79 91 73 92 74 93 77 94 75 95 54 96 55 97 63 98
REMARK SMILES IDX 56 99 57 100 61 101 64 102 58 103 59 104 62 105 60 106
REMARK H PARENT 18 7 10 17 94 26 25 40 84 59 52 70
REMARK Flexibility Score: inf
ROOT
ATOM      1  C   UNL     1       3.359   6.269   2.979  1.00  0.00     0.002 C 
ENDROOT
BRANCH   1   2
ATOM      2  C   UNL     1       2.098   6.785   2.285  1.00  0.00     0.021 C 
BRANCH   2   3
ATOM      3  C   UNL     1       1.181   5.756   1.635  1.00  0.00     0.116 C 
BRANCH   3   4
ATOM      4  N   UNL     1       0.533   4.799   2.516  1.00  0.00    -0.352 N 
ATOM      5  C   UNL     1      -0.651   4.105   2.351  1.00  0.00     0.251 C 
ATOM      6  O   UNL     1      -0.980   3.273   3.194  1.00  0.00    -0.269 OA
ATOM      7  H   UNL     1       1.010   4.617   3.358  1.00  0.00     0.163 HD
BRANCH   5   8
ATOM      8  C   UNL     1      -1.569   4.360   1.202  1.00  0.00     0.041 A 
ATOM      9  C   UNL     1      -1.962   5.125  -1.071  1.00  0.00     0.041 A 
ATOM     10  C   UNL     1      -3.336   5.134  -0.821  1.00  0.00     0.026 A 
ATOM     11  C   UNL     1      -1.100   4.689  -0.071  1.00  0.00     0.040 A 
ATOM     12  C   UNL     1      -3.833   4.669   0.400  1.00  0.00     0.003 A 
ATOM     13  C   UNL     1      -2.950   4.292   1.415  1.00  0.00     0.014 A 
BRANCH   9  14
ATOM     14  N   UNL     1      -1.496   5.685  -2.271  1.00  0.00    -0.325 N 
ATOM     15  C   UNL     1      -0.308   5.590  -2.943  1.00  0.00     0.238 C 
ATOM     16  O   UNL     1       0.007   6.560  -3.645  1.00  0.00    -0.273 OA
ATOM     17  H   UNL     1      -2.157   6.262  -2.719  1.00  0.00     0.169 HD
BRANCH  15  18
ATOM     18  C   UNL     1       0.559   4.317  -2.967  1.00  0.00     0.160 C 
ATOM     19  N   UNL     1       1.171   2.039  -1.195  1.00  0.00    -0.191 N 
ATOM     20  C   UNL     1       0.538   1.854  -2.406  1.00  0.00     0.311 C 
ATOM     21  C   UNL     1       2.147   2.997  -1.023  1.00  0.00     0.319 C 
ATOM     22  O   UNL     1       0.475   0.769  -2.979  1.00  0.00    -0.247 OA
ATOM     23  C   UNL     1      -0.223   3.030  -2.927  1.00  0.00     0.153 C 
ATOM     24  S   UNL     1       2.017   4.495  -1.929  1.00  0.00    -0.024 SA
ATOM     25  N   UNL     1       3.176   2.969  -0.239  1.00  0.00    -0.235 N 
ATOM     26  H   UNL     1       3.614   3.826  -0.031  1.00  0.00     0.313 HD
BRANCH  19  27
ATOM     27  C   UNL     1       0.695   1.228  -0.073  1.00  0.00     0.243 C 
ATOM     28  C   UNL     1       0.952  -0.266  -0.168  1.00  0.00     0.054 C 
ENDBRANCH  19  27
BRANCH  25  29
ATOM     29  C   UNL     1       3.714   1.810   0.334  1.00  0.00     0.125 A 
ATOM     30  C   UNL     1       3.814   1.668   1.722  1.00  0.00     0.051 A 
ATOM     31  C   UNL     1       4.353   0.867  -0.478  1.00  0.00     0.051 A 
ATOM     32  C   UNL     1       4.545   0.619   2.287  1.00  0.00     0.004 A 
ATOM     33  C   UNL     1       5.061  -0.200   0.082  1.00  0.00     0.004 A 
ATOM     34  C   UNL     1       5.168  -0.316   1.465  1.00  0.00     0.000 A 
ENDBRANCH  25  29
ENDBRANCH  15  18
ENDBRANCH   9  14
ENDBRANCH   5   8
ENDBRANCH   3   4
ENDBRANCH   2   3
ENDBRANCH   1   2
BRANCH   1  35
ATOM     35  C   UNL     1       4.240   5.309   2.183  1.00  0.00     0.002 C 
BRANCH  35  36
ATOM     36  C   UNL     1       4.719   5.756   0.805  1.00  0.00     0.021 C 
BRANCH  36  37
ATOM     37  C   UNL     1       5.506   7.054   0.763  1.00  0.00     0.116 C 
BRANCH  37  38
ATOM     38  N   UNL     1       6.730   7.009   1.546  1.00  0.00    -0.352 N 
ATOM     39  C   UNL     1       8.007   7.379   1.192  1.00  0.00     0.251 C 
ATOM     40  H   UNL     1       6.631   6.663   2.462  1.00  0.00     0.163 HD
ATOM     41  O   UNL     1       8.948   7.157   1.942  1.00  0.00    -0.269 OA
BRANCH  39  42
ATOM     42  C   UNL     1       8.248   8.023  -0.119  1.00  0.00     0.039 A 
ATOM     43  C   UNL     1       9.328   7.593  -0.896  1.00  0.00     0.014 A 
ATOM     44  C   UNL     1       7.406   9.033  -0.590  1.00  0.00     0.014 A 
ATOM     45  C   UNL     1       9.518   8.122  -2.175  1.00  0.00     0.010 A 
ATOM     46  C   UNL     1       7.543   9.495  -1.894  1.00  0.00     0.010 A 
ATOM     47  C   UNL     1       8.601   9.046  -2.700  1.00  0.00    -0.014 A 
BRANCH  47  48
ATOM     48  C   UNL     1       8.720   9.562  -4.088  1.00  0.00     0.031 A 
ATOM     49  C   UNL     1       8.921  11.032  -4.327  1.00  0.00     0.074 A 
ATOM     50  C   UNL     1       8.553   8.726  -5.130  1.00  0.00     0.049 A 
ATOM     51  N   UNL     1       8.925  11.699  -5.454  1.00  0.00    -0.248 NA
ATOM     52  C   UNL     1       9.107  11.871  -3.132  1.00  0.00     0.031 C 
ATOM     53  C   UNL     1       8.300   7.288  -5.027  1.00  0.00     0.029 A 
ATOM     54  N   UNL     1       8.544   8.970  -6.481  1.00  0.00    -0.354 N 
ATOM     55  C   UNL     1       9.094  13.031  -5.102  1.00  0.00     0.074 A 
ATOM     56  C   UNL     1       9.126  13.086  -3.657  1.00  0.00     0.031 C 
ATOM     57  C   UNL     1       8.166   6.777  -6.260  1.00  0.00     0.029 A 
ATOM     58  C   UNL     1       8.278   7.855  -7.238  1.00  0.00     0.049 A 
ATOM     59  H   UNL     1       8.712   9.858  -6.870  1.00  0.00     0.167 HD
ATOM     60  C   UNL     1       9.234  14.108  -5.912  1.00  0.00     0.037 A 
ATOM     61  C   UNL     1       8.119   7.721  -8.569  1.00  0.00     0.037 A 
ATOM     62  C   UNL     1       9.211  14.043  -7.350  1.00  0.00     0.049 A 
ATOM     63  C   UNL     1       8.266   8.931  -9.451  1.00  0.00     0.074 A 
ATOM     64  C   UNL     1       9.399  15.064  -8.264  1.00  0.00     0.029 A 
ATOM     65  N   UNL     1       8.974  12.888  -8.084  1.00  0.00    -0.354 N 
ATOM     66  N   UNL     1       8.497  10.177  -9.114  1.00  0.00    -0.248 NA
ATOM     67  C   UNL     1       8.138   8.716 -10.899  1.00  0.00     0.031 C 
ATOM     68  C   UNL     1       9.217  14.540  -9.549  1.00  0.00     0.029 A 
ATOM     69  C   UNL     1       8.984  13.178  -9.440  1.00  0.00     0.049 A 
ATOM     70  H   UNL     1       8.822  11.995  -7.698  1.00  0.00     0.167 HD
ATOM     71  C   UNL     1       8.570  10.888 -10.305  1.00  0.00     0.074 A 
ATOM     72  C   UNL     1       8.371   9.931 -11.373  1.00  0.00     0.031 C 
ATOM     73  C   UNL     1       8.787  12.214 -10.494  1.00  0.00     0.037 A 
BRANCH  60  74
ATOM     74  C   UNL     1       9.412  15.448  -5.253  1.00  0.00     0.064 A 
ATOM     75  C   UNL     1      10.561  15.759  -4.507  1.00  0.00     0.173 A 
ATOM     76  C   UNL     1       8.424  16.438  -5.371  1.00  0.00     0.173 A 
ATOM     77  F   UNL     1      11.534  14.848  -4.354  1.00  0.00    -0.203 F 
ATOM     78  C   UNL     1      10.690  16.988  -3.865  1.00  0.00     0.198 A 
ATOM     79  C   UNL     1       8.575  17.680  -4.760  1.00  0.00     0.198 A 
ATOM     80  F   UNL     1       7.309  16.201  -6.079  1.00  0.00    -0.203 F 
ATOM     81  F   UNL     1      11.763  17.232  -3.100  1.00  0.00    -0.200 F 
ATOM     82  C   UNL     1       9.700  17.949  -3.996  1.00  0.00     0.200 A 
ATOM     83  F   UNL     1       7.624  18.614  -4.901  1.00  0.00    -0.200 F 
ATOM     84  F   UNL     1       9.826  19.131  -3.377  1.00  0.00    -0.200 F 
ENDBRANCH  60  74
BRANCH  61  85
ATOM     85  C   UNL     1       7.811   6.383  -9.141  1.00  0.00     0.064 A 
ATOM     86  C   UNL     1       8.755   5.690  -9.909  1.00  0.00     0.173 A 
ATOM     87  C   UNL     1       6.573   5.763  -8.913  1.00  0.00     0.173 A 
ATOM     88  F   UNL     1       9.945   6.249 -10.172  1.00  0.00    -0.203 F 
ATOM     89  C   UNL     1       8.469   4.434 -10.441  1.00  0.00     0.198 A 
ATOM     90  C   UNL     1       6.299   4.494  -9.419  1.00  0.00     0.198 A 
ATOM     91  F   UNL     1       5.636   6.381  -8.180  1.00  0.00    -0.203 F 
ATOM     92  F   UNL     1       9.375   3.811 -11.207  1.00  0.00    -0.200 F 
ATOM     93  C   UNL     1       7.245   3.833 -10.189  1.00  0.00     0.200 A 
ATOM     94  F   UNL     1       5.121   3.910  -9.159  1.00  0.00    -0.200 F 
ATOM     95  F   UNL     1       6.974   2.621 -10.691  1.00  0.00    -0.200 F 
ENDBRANCH  61  85
BRANCH  73  96
ATOM     96  C   UNL     1       8.860  12.707 -11.911  1.00  0.00     0.064 A 
ATOM     97  C   UNL     1       7.724  12.775 -12.732  1.00  0.00     0.173 A 
ATOM     98  C   UNL     1      10.078  13.166 -12.437  1.00  0.00     0.173 A 
ATOM     99  F   UNL     1       6.539  12.336 -12.283  1.00  0.00    -0.203 F 
ATOM    100  C   UNL     1       7.811  13.261 -14.034  1.00  0.00     0.198 A 
ATOM    101  C   UNL     1      10.154  13.683 -13.727  1.00  0.00     0.198 A 
ATOM    102  F   UNL     1      11.193  13.130 -11.692  1.00  0.00    -0.203 F 
ATOM    103  F   UNL     1       6.723  13.272 -14.817  1.00  0.00    -0.200 F 
ATOM    104  C   UNL     1       9.022  13.723 -14.527  1.00  0.00     0.200 A 
ATOM    105  F   UNL     1      11.322  14.144 -14.195  1.00  0.00    -0.200 F 
ATOM    106  F   UNL     1       9.101  14.202 -15.776  1.00  0.00    -0.200 F 
ENDBRANCH  73  96
ENDBRANCH  47  48
ENDBRANCH  39  42
ENDBRANCH  37  38
ENDBRANCH  36  37
ENDBRANCH  35  36
ENDBRANCH   1  35
TORSDOF 17
