REMARK SMILES COC(=O)c1c(NC(=O)CCC(=O)NCCCCCCNC(=O)c2ccc(-c3c4nc(c(-c5c(F)c(F)c(F)c(F)c5F)c5ccc([nH]5)c(-c5c(F)c(F)c(F)c(F)c5F)c5nc(c(-c6c(F)c(F)c(F)c(F)c6F)c6ccc3[nH]6)C=C5)C=C4)cc2)sc2c1CCCCCC2
REMARK SMILES IDX 15 1 14 2 12 3 13 4 11 6 10 7 8 8 7 9 9 11 6 12 5 13 89 14
REMARK SMILES IDX 87 15 88 16 3 17 4 18 2 19 1 20 90 21 91 22 92 23 95 25
REMARK SMILES IDX 94 26 93 27 16 29 17 30 18 31 19 32 20 33 21 34 22 35 23 37
REMARK SMILES IDX 24 38 25 39 86 40 26 41 85 42 27 43 28 44 29 45 79 46 30 47
REMARK SMILES IDX 84 48 78 49 80 50 31 51 83 52 77 53 76 54 32 56 64 57 44 58
REMARK SMILES IDX 63 59 45 60 48 61 62 62 81 63 46 64 47 65 61 67 82 68 49 69
REMARK SMILES IDX 33 70 34 71 42 72 35 73 36 74 40 75 43 76 37 77 38 78 41 79
REMARK SMILES IDX 39 80 65 81 66 82 74 83 67 84 68 85 72 86 75 87 69 88 70 89
REMARK SMILES IDX 73 90 71 91 50 92 51 93 59 94 52 95 53 96 57 97 60 98 54 99
REMARK SMILES IDX 55 100 58 101 56 102
REMARK H PARENT 14 5 7 10 21 36 80 55 48 66
REMARK Flexibility Score: 90.00
ROOT
ATOM      1  C   UNL     1      -2.672   4.176  -0.521  1.00  0.00     0.116 C 
ENDROOT
BRANCH   1   2
ATOM      2  N   UNL     1      -1.257   4.277  -0.241  1.00  0.00    -0.356 N 
ATOM      3  C   UNL     1      -0.278   3.368  -0.493  1.00  0.00     0.220 C 
ATOM      4  O   UNL     1       0.896   3.724  -0.398  1.00  0.00    -0.275 OA
ATOM      5  H   UNL     1      -0.964   5.113   0.188  1.00  0.00     0.163 HD
BRANCH   3   6
ATOM      6  C   UNL     1      -0.645   1.966  -0.921  1.00  0.00     0.110 C 
BRANCH   6   7
ATOM      7  C   UNL     1      -1.101   0.978   0.147  1.00  0.00     0.110 C 
BRANCH   7   8
ATOM      8  C   UNL     1      -2.062   1.404   1.219  1.00  0.00     0.225 C 
ATOM      9  N   UNL     1      -1.722   2.046   2.366  1.00  0.00    -0.317 N 
ATOM     10  H   UNL     1      -2.385   1.958   3.090  1.00  0.00     0.170 HD
ATOM     11  O   UNL     1      -3.268   1.160   1.061  1.00  0.00    -0.275 OA
BRANCH   9  12
ATOM     12  C   UNL     1      -0.621   2.796   2.700  1.00  0.00     0.110 A 
ATOM     13  C   UNL     1       0.755   2.757   2.602  1.00  0.00     0.098 A 
ATOM     14  C   UNL     1       1.335   4.072   2.933  1.00  0.00    -0.017 A 
ATOM     15  S   UNL     1      -1.143   4.172   3.555  1.00  0.00    -0.122 S 
ATOM     16  C   UNL     1       0.352   4.974   3.337  1.00  0.00     0.011 A 
BRANCH  13  17
ATOM     17  C   UNL     1       1.513   1.546   2.346  1.00  0.00     0.341 C 
ATOM     18  O   UNL     1       1.834   0.771   3.260  1.00  0.00    -0.246 OA
BRANCH  17  19
ATOM     19  O   UNL     1       1.792   1.329   1.039  1.00  0.00    -0.465 OA
ATOM     20  C   UNL     1       2.237   0.005   0.720  1.00  0.00     0.282 C 
ENDBRANCH  17  19
ENDBRANCH  13  17
BRANCH  14  21
ATOM     21  C   UNL     1       2.814   4.361   2.884  1.00  0.00     0.037 C 
BRANCH  21  22
ATOM     22  C   UNL     1       3.273   5.292   1.765  1.00  0.00     0.005 C 
BRANCH  22  23
ATOM     23  C   UNL     1       2.621   6.671   1.673  1.00  0.00     0.000 CG0
ATOM     24  G   UNL     1       2.612   7.500   2.956  1.00  0.00     0.000 G0
ENDBRANCH  22  23
ENDBRANCH  21  22
ENDBRANCH  14  21
BRANCH  16  25
ATOM     25  C   UNL     1       0.357   6.452   3.650  1.00  0.00     0.047 C 
BRANCH  25  26
ATOM     26  C   UNL     1       1.687   7.048   4.090  1.00  0.00     0.006 C 
BRANCH  26  27
ATOM     27  C   UNL     1       2.612   7.500   2.956  1.00  0.00     0.000 CG0
ATOM     28  G   UNL     1       2.621   6.671   1.673  1.00  0.00     0.000 G0
ENDBRANCH  26  27
ENDBRANCH  25  26
ENDBRANCH  16  25
ENDBRANCH   9  12
ENDBRANCH   7   8
ENDBRANCH   6   7
ENDBRANCH   3   6
ENDBRANCH   1   2
BRANCH   1  29
ATOM     29  C   UNL     1      -3.534   4.556   0.677  1.00  0.00     0.021 C 
BRANCH  29  30
ATOM     30  C   UNL     1      -3.466   6.031   1.075  1.00  0.00     0.002 C 
BRANCH  30  31
ATOM     31  C   UNL     1      -3.914   7.011  -0.014  1.00  0.00     0.002 C 
BRANCH  31  32
ATOM     32  C   UNL     1      -5.236   6.665  -0.711  1.00  0.00     0.021 C 
BRANCH  32  33
ATOM     33  C   UNL     1      -6.418   6.518   0.238  1.00  0.00     0.116 C 
BRANCH  33  34
ATOM     34  N   UNL     1      -6.753   7.774   0.891  1.00  0.00    -0.352 N 
ATOM     35  C   UNL     1      -7.771   8.015   1.781  1.00  0.00     0.251 C 
ATOM     36  H   UNL     1      -6.181   8.543   0.668  1.00  0.00     0.163 HD
ATOM     37  O   UNL     1      -8.185   9.153   1.967  1.00  0.00    -0.269 OA
BRANCH  35  38
ATOM     38  C   UNL     1      -8.367   6.886   2.514  1.00  0.00     0.039 A 
ATOM     39  C   UNL     1      -9.753   6.814   2.674  1.00  0.00     0.014 A 
ATOM     40  C   UNL     1      -7.532   5.907   3.058  1.00  0.00     0.014 A 
ATOM     41  C   UNL     1     -10.299   5.719   3.333  1.00  0.00     0.010 A 
ATOM     42  C   UNL     1      -8.077   4.778   3.629  1.00  0.00     0.010 A 
ATOM     43  C   UNL     1      -9.458   4.693   3.794  1.00  0.00    -0.014 A 
BRANCH  43  44
ATOM     44  C   UNL     1     -10.048   3.445   4.278  1.00  0.00     0.031 A 
ATOM     45  C   UNL     1     -10.954   2.799   3.288  1.00  0.00     0.074 A 
ATOM     46  C   UNL     1      -9.656   2.822   5.411  1.00  0.00     0.049 A 
ATOM     47  N   UNL     1     -12.221   2.575   3.404  1.00  0.00    -0.248 NA
ATOM     48  C   UNL     1     -10.420   2.494   1.948  1.00  0.00     0.031 C 
ATOM     49  C   UNL     1      -8.554   3.208   6.298  1.00  0.00     0.029 A 
ATOM     50  N   UNL     1     -10.079   1.643   5.954  1.00  0.00    -0.354 N 
ATOM     51  C   UNL     1     -12.601   1.913   2.238  1.00  0.00     0.074 A 
ATOM     52  C   UNL     1     -11.511   2.059   1.313  1.00  0.00     0.031 C 
ATOM     53  C   UNL     1      -8.242   2.174   7.109  1.00  0.00     0.029 A 
ATOM     54  C   UNL     1      -9.216   1.116   6.912  1.00  0.00     0.049 A 
ATOM     55  H   UNL     1     -10.920   1.203   5.692  1.00  0.00     0.167 HD
ATOM     56  C   UNL     1     -13.653   1.049   2.253  1.00  0.00     0.037 A 
ATOM     57  C   UNL     1      -9.276  -0.113   7.482  1.00  0.00     0.037 A 
ATOM     58  C   UNL     1     -14.467   1.270   3.423  1.00  0.00     0.049 A 
ATOM     59  C   UNL     1     -10.653  -0.618   7.296  1.00  0.00     0.074 A 
ATOM     60  C   UNL     1     -15.275   2.277   3.902  1.00  0.00     0.029 A 
ATOM     61  N   UNL     1     -14.163   0.462   4.485  1.00  0.00    -0.354 N 
ATOM     62  N   UNL     1     -11.697  -0.118   7.894  1.00  0.00    -0.248 NA
ATOM     63  C   UNL     1     -10.938  -1.480   6.159  1.00  0.00     0.031 C 
ATOM     64  C   UNL     1     -15.179   2.204   5.326  1.00  0.00     0.029 A 
ATOM     65  C   UNL     1     -14.366   1.122   5.663  1.00  0.00     0.049 A 
ATOM     66  H   UNL     1     -13.842  -0.465   4.410  1.00  0.00     0.167 HD
ATOM     67  C   UNL     1     -12.705  -0.214   6.954  1.00  0.00     0.074 A 
ATOM     68  C   UNL     1     -12.238  -1.218   6.005  1.00  0.00     0.031 C 
ATOM     69  C   UNL     1     -13.661   0.758   6.873  1.00  0.00     0.037 A 
BRANCH  56  70
ATOM     70  C   UNL     1     -13.658  -0.300   1.548  1.00  0.00     0.064 A 
ATOM     71  C   UNL     1     -14.810  -1.113   1.651  1.00  0.00     0.173 A 
ATOM     72  C   UNL     1     -12.498  -0.964   1.090  1.00  0.00     0.173 A 
ATOM     73  F   UNL     1     -15.969  -0.602   2.092  1.00  0.00    -0.203 F 
ATOM     74  C   UNL     1     -14.772  -2.491   1.410  1.00  0.00     0.198 A 
ATOM     75  C   UNL     1     -12.478  -2.329   0.802  1.00  0.00     0.198 A 
ATOM     76  F   UNL     1     -11.308  -0.361   1.011  1.00  0.00    -0.203 F 
ATOM     77  F   UNL     1     -15.855  -3.240   1.657  1.00  0.00    -0.200 F 
ATOM     78  C   UNL     1     -13.603  -3.099   0.994  1.00  0.00     0.200 A 
ATOM     79  F   UNL     1     -11.327  -2.903   0.423  1.00  0.00    -0.200 F 
ATOM     80  F   UNL     1     -13.544  -4.427   0.829  1.00  0.00    -0.200 F 
ENDBRANCH  56  70
BRANCH  57  81
ATOM     81  C   UNL     1      -8.186  -0.986   7.982  1.00  0.00     0.064 A 
ATOM     82  C   UNL     1      -8.463  -2.086   8.813  1.00  0.00     0.173 A 
ATOM     83  C   UNL     1      -6.897  -0.939   7.418  1.00  0.00     0.173 A 
ATOM     84  F   UNL     1      -9.677  -2.228   9.365  1.00  0.00    -0.203 F 
ATOM     85  C   UNL     1      -7.524  -3.101   9.028  1.00  0.00     0.198 A 
ATOM     86  C   UNL     1      -5.958  -1.949   7.639  1.00  0.00     0.198 A 
ATOM     87  F   UNL     1      -6.558   0.035   6.561  1.00  0.00    -0.203 F 
ATOM     88  F   UNL     1      -7.853  -4.171   9.765  1.00  0.00    -0.200 F 
ATOM     89  C   UNL     1      -6.278  -3.038   8.428  1.00  0.00     0.200 A 
ATOM     90  F   UNL     1      -4.768  -1.894   7.026  1.00  0.00    -0.200 F 
ATOM     91  F   UNL     1      -5.404  -4.044   8.574  1.00  0.00    -0.200 F 
ENDBRANCH  57  81
BRANCH  69  92
ATOM     92  C   UNL     1     -13.870   1.613   8.090  1.00  0.00     0.064 A 
ATOM     93  C   UNL     1     -12.901   2.459   8.658  1.00  0.00     0.173 A 
ATOM     94  C   UNL     1     -15.144   1.609   8.674  1.00  0.00     0.173 A 
ATOM     95  F   UNL     1     -11.689   2.596   8.105  1.00  0.00    -0.203 F 
ATOM     96  C   UNL     1     -13.182   3.212   9.797  1.00  0.00     0.198 A 
ATOM     97  C   UNL     1     -15.434   2.396   9.783  1.00  0.00     0.198 A 
ATOM     98  F   UNL     1     -16.123   0.857   8.148  1.00  0.00    -0.203 F 
ATOM     99  F   UNL     1     -12.230   3.981  10.346  1.00  0.00    -0.200 F 
ATOM    100  C   UNL     1     -14.449   3.183  10.356  1.00  0.00     0.200 A 
ATOM    101  F   UNL     1     -16.675   2.400  10.289  1.00  0.00    -0.200 F 
ATOM    102  F   UNL     1     -14.727   3.927  11.435  1.00  0.00    -0.200 F 
ENDBRANCH  69  92
ENDBRANCH  43  44
ENDBRANCH  35  38
ENDBRANCH  33  34
ENDBRANCH  32  33
ENDBRANCH  31  32
ENDBRANCH  30  31
ENDBRANCH  29  30
ENDBRANCH   1  29
TORSDOF 18
