REMARK SMILES O=Cc1ccc2c(c1)C=C(C(=O)NCCCCCCNC(=O)c1ccc(-c3c4nc(c(-c5c(F)c(F)c(F)c(F)c5F)c5ccc([nH]5)c(-c5c(F)c(F)c(F)c(F)c5F)c5nc(c(-c6c(F)c(F)c(F)c(F)c6F)c6ccc3[nH]6)C=C5)C=C4)cc1)[C@H](C(F)(F)F)O2
REMARK SMILES IDX 17 1 16 2 15 3 14 4 13 5 11 6 12 7 10 9 3 10 4 11 8 12 5 13
REMARK SMILES IDX 7 14 6 15 9 16 91 17 86 18 2 19 1 20 87 21 88 22 89 23 90 24
REMARK SMILES IDX 18 25 19 26 20 27 21 28 22 30 23 31 24 32 85 33 25 34 84 35
REMARK SMILES IDX 26 36 27 37 28 38 78 39 29 40 83 41 77 42 79 43 30 44 82 45
REMARK SMILES IDX 76 46 75 47 31 49 63 50 43 51 62 52 44 53 47 54 61 55 80 56
REMARK SMILES IDX 45 57 46 58 60 60 81 61 48 62 32 63 33 64 41 65 34 66 35 67
REMARK SMILES IDX 39 68 42 69 36 70 37 71 40 72 38 73 64 74 65 75 73 76 66 77
REMARK SMILES IDX 67 78 71 79 74 80 68 81 69 82 72 83 70 84 49 85 50 86 58 87
REMARK SMILES IDX 51 88 52 89 56 90 59 91 53 92 54 93 57 94 55 95
REMARK H PARENT 13 8 20 29 79 48 47 59
REMARK Flexibility Score: inf
ROOT
ATOM      1  C   UNL     1       9.687  -4.892   2.862  1.00  0.00     0.002 C 
ENDROOT
BRANCH   1   2
ATOM      2  C   UNL     1       8.445  -5.602   2.308  1.00  0.00     0.002 C 
BRANCH   2   3
ATOM      3  C   UNL     1       7.455  -4.685   1.575  1.00  0.00     0.021 C 
BRANCH   3   4
ATOM      4  C   UNL     1       8.006  -4.128   0.257  1.00  0.00     0.116 C 
BRANCH   4   5
ATOM      5  N   UNL     1       7.912  -5.144  -0.777  1.00  0.00    -0.352 N 
ATOM      6  C   UNL     1       6.978  -5.410  -1.726  1.00  0.00     0.251 C 
ATOM      7  O   UNL     1       7.062  -6.469  -2.343  1.00  0.00    -0.270 OA
ATOM      8  H   UNL     1       8.677  -5.763  -0.793  1.00  0.00     0.163 HD
BRANCH   6   9
ATOM      9  C   UNL     1       5.915  -4.441  -2.104  1.00  0.00     0.067 C 
ATOM     10  C   UNL     1       2.693  -0.951  -1.232  1.00  0.00     0.015 A 
ATOM     11  C   UNL     1       2.467  -0.808  -2.603  1.00  0.00     0.015 A 
ATOM     12  C   UNL     1       3.586  -1.918  -0.758  1.00  0.00     0.023 A 
ATOM     13  C   UNL     1       3.153  -1.622  -3.503  1.00  0.00     0.048 A 
ATOM     14  C   UNL     1       4.266  -2.740  -1.666  1.00  0.00     0.018 A 
ATOM     15  C   UNL     1       4.052  -2.581  -3.034  1.00  0.00     0.128 A 
ATOM     16  C   UNL     1       5.255  -3.701  -1.201  1.00  0.00     0.025 C 
ATOM     17  O   UNL     1       4.734  -3.281  -3.983  1.00  0.00    -0.475 OA
ATOM     18  C   UNL     1       5.497  -4.452  -3.573  1.00  0.00     0.314 C 
BRANCH  10  19
ATOM     19  C   UNL     1       2.012  -0.061  -0.270  1.00  0.00     0.260 C 
ATOM     20  O   UNL     1       1.179   0.762  -0.623  1.00  0.00    -0.298 OA
ENDBRANCH  10  19
BRANCH  18  21
ATOM     21  C   UNL     1       6.633  -4.637  -4.607  1.00  0.00     0.429 C 
ATOM     22  F   UNL     1       6.952  -5.934  -4.811  1.00  0.00    -0.167 F 
ATOM     23  F   UNL     1       6.264  -4.157  -5.825  1.00  0.00    -0.167 F 
ATOM     24  F   UNL     1       7.760  -3.975  -4.253  1.00  0.00    -0.167 F 
ENDBRANCH  18  21
ENDBRANCH   6   9
ENDBRANCH   4   5
ENDBRANCH   3   4
ENDBRANCH   2   3
ENDBRANCH   1   2
BRANCH   1  25
ATOM     25  C   UNL     1       9.402  -3.741   3.832  1.00  0.00     0.021 C 
BRANCH  25  26
ATOM     26  C   UNL     1       8.627  -4.137   5.087  1.00  0.00     0.116 C 
BRANCH  26  27
ATOM     27  N   UNL     1       9.374  -5.070   5.913  1.00  0.00    -0.352 N 
ATOM     28  C   UNL     1       9.718  -4.994   7.238  1.00  0.00     0.251 C 
ATOM     29  H   UNL     1       9.681  -5.883   5.449  1.00  0.00     0.163 HD
ATOM     30  O   UNL     1      10.539  -5.780   7.700  1.00  0.00    -0.269 OA
BRANCH  28  31
ATOM     31  C   UNL     1       9.118  -3.966   8.117  1.00  0.00     0.039 A 
ATOM     32  C   UNL     1       9.937  -3.332   9.056  1.00  0.00     0.014 A 
ATOM     33  C   UNL     1       7.754  -3.663   8.063  1.00  0.00     0.014 A 
ATOM     34  C   UNL     1       9.399  -2.368   9.909  1.00  0.00     0.010 A 
ATOM     35  C   UNL     1       7.230  -2.655   8.873  1.00  0.00     0.010 A 
ATOM     36  C   UNL     1       8.046  -2.005   9.810  1.00  0.00    -0.014 A 
BRANCH  36  37
ATOM     37  C   UNL     1       7.494  -0.933  10.677  1.00  0.00     0.031 A 
ATOM     38  C   UNL     1       6.470  -1.244  11.732  1.00  0.00     0.074 A 
ATOM     39  C   UNL     1       7.897   0.337  10.485  1.00  0.00     0.049 A 
ATOM     40  N   UNL     1       5.915  -0.441  12.606  1.00  0.00    -0.248 NA
ATOM     41  C   UNL     1       5.982  -2.629  11.796  1.00  0.00     0.031 C 
ATOM     42  C   UNL     1       8.822   0.777   9.440  1.00  0.00     0.029 A 
ATOM     43  N   UNL     1       7.579   1.490  11.157  1.00  0.00    -0.354 N 
ATOM     44  C   UNL     1       5.009  -1.220  13.314  1.00  0.00     0.074 A 
ATOM     45  C   UNL     1       5.051  -2.545  12.735  1.00  0.00     0.031 C 
ATOM     46  C   UNL     1       9.019   2.100   9.558  1.00  0.00     0.029 A 
ATOM     47  C   UNL     1       8.224   2.601  10.675  1.00  0.00     0.049 A 
ATOM     48  H   UNL     1       6.950   1.517  11.914  1.00  0.00     0.167 HD
ATOM     49  C   UNL     1       4.230  -0.866  14.365  1.00  0.00     0.037 A 
ATOM     50  C   UNL     1       8.190   3.880  11.095  1.00  0.00     0.037 A 
ATOM     51  C   UNL     1       4.212   0.448  14.956  1.00  0.00     0.049 A 
ATOM     52  C   UNL     1       7.370   4.233  12.303  1.00  0.00     0.074 A 
ATOM     53  C   UNL     1       3.524   0.884  16.075  1.00  0.00     0.029 A 
ATOM     54  N   UNL     1       4.913   1.541  14.469  1.00  0.00    -0.354 N 
ATOM     55  N   UNL     1       6.595   3.466  13.030  1.00  0.00    -0.248 NA
ATOM     56  C   UNL     1       7.438   5.627  12.762  1.00  0.00     0.031 C 
ATOM     57  C   UNL     1       3.775   2.251  16.240  1.00  0.00     0.029 A 
ATOM     58  C   UNL     1       4.657   2.657  15.251  1.00  0.00     0.049 A 
ATOM     59  H   UNL     1       5.506   1.527  13.682  1.00  0.00     0.167 HD
ATOM     60  C   UNL     1       6.096   4.276  14.040  1.00  0.00     0.074 A 
ATOM     61  C   UNL     1       6.677   5.589  13.847  1.00  0.00     0.031 C 
ATOM     62  C   UNL     1       5.231   3.961  15.037  1.00  0.00     0.037 A 
BRANCH  49  63
ATOM     63  C   UNL     1       3.331  -1.920  14.946  1.00  0.00     0.064 A 
ATOM     64  C   UNL     1       3.843  -3.012  15.664  1.00  0.00     0.173 A 
ATOM     65  C   UNL     1       1.938  -1.823  14.806  1.00  0.00     0.173 A 
ATOM     66  F   UNL     1       5.167  -3.158  15.818  1.00  0.00    -0.203 F 
ATOM     67  C   UNL     1       2.996  -3.984  16.191  1.00  0.00     0.198 A 
ATOM     68  C   UNL     1       1.093  -2.781  15.359  1.00  0.00     0.198 A 
ATOM     69  F   UNL     1       1.396  -0.796  14.134  1.00  0.00    -0.203 F 
ATOM     70  F   UNL     1       3.511  -5.046  16.826  1.00  0.00    -0.200 F 
ATOM     71  C   UNL     1       1.623  -3.865  16.043  1.00  0.00     0.200 A 
ATOM     72  F   UNL     1      -0.235  -2.660  15.225  1.00  0.00    -0.200 F 
ATOM     73  F   UNL     1       0.809  -4.801  16.552  1.00  0.00    -0.200 F 
ENDBRANCH  49  63
BRANCH  50  74
ATOM     74  C   UNL     1       9.002   4.903  10.390  1.00  0.00     0.064 A 
ATOM     75  C   UNL     1      10.156   5.438  10.978  1.00  0.00     0.173 A 
ATOM     76  C   UNL     1       8.657   5.345   9.105  1.00  0.00     0.173 A 
ATOM     77  F   UNL     1      10.516   5.056  12.213  1.00  0.00    -0.203 F 
ATOM     78  C   UNL     1      10.927   6.388  10.313  1.00  0.00     0.198 A 
ATOM     79  C   UNL     1       9.443   6.276   8.431  1.00  0.00     0.198 A 
ATOM     80  F   UNL     1       7.567   4.854   8.496  1.00  0.00    -0.203 F 
ATOM     81  F   UNL     1      12.007   6.909  10.912  1.00  0.00    -0.200 F 
ATOM     82  C   UNL     1      10.574   6.801   9.037  1.00  0.00     0.200 A 
ATOM     83  F   UNL     1       9.108   6.661   7.191  1.00  0.00    -0.200 F 
ATOM     84  F   UNL     1      11.323   7.707   8.393  1.00  0.00    -0.200 F 
ENDBRANCH  50  74
BRANCH  62  85
ATOM     85  C   UNL     1       4.872   5.059  15.995  1.00  0.00     0.064 A 
ATOM     86  C   UNL     1       4.056   6.133  15.608  1.00  0.00     0.173 A 
ATOM     87  C   UNL     1       5.345   5.036  17.316  1.00  0.00     0.173 A 
ATOM     88  F   UNL     1       3.591   6.209  14.352  1.00  0.00    -0.203 F 
ATOM     89  C   UNL     1       3.756   7.161  16.498  1.00  0.00     0.198 A 
ATOM     90  C   UNL     1       5.018   6.051  18.211  1.00  0.00     0.198 A 
ATOM     91  F   UNL     1       6.123   4.029  17.738  1.00  0.00    -0.203 F 
ATOM     92  F   UNL     1       3.023   8.206  16.088  1.00  0.00    -0.200 F 
ATOM     93  C   UNL     1       4.234   7.117  17.799  1.00  0.00     0.200 A 
ATOM     94  F   UNL     1       5.472   6.002  19.471  1.00  0.00    -0.200 F 
ATOM     95  F   UNL     1       3.948   8.110  18.652  1.00  0.00    -0.200 F 
ENDBRANCH  62  85
ENDBRANCH  36  37
ENDBRANCH  28  31
ENDBRANCH  26  27
ENDBRANCH  25  26
ENDBRANCH   1  25
TORSDOF 15
