REMARK SMILES O=C(NCCCCCCNC(=O)[C@@H](CCO)NC(=O)c1c(F)ccc([N+](=O)[O-])c1F)c1ccc(-c2c3nc(c(-c4c(F)c(F)c(F)c(F)c4F)c4ccc([nH]4)c(-c4c(F)c(F)c(F)c(F)c4F)c4nc(c(-c5c(F)c(F)c(F)c(F)c5F)c5ccc2[nH]5)C=C4)C=C3)cc1
REMARK SMILES IDX 7 1 6 2 5 3 4 4 3 5 1 6 2 7 31 9 32 10 93 11 33 12 92 13
REMARK SMILES IDX 34 14 35 15 36 16 86 17 37 18 91 19 85 20 87 21 38 22 90 23
REMARK SMILES IDX 84 24 83 25 39 27 71 28 51 29 70 30 52 31 55 32 69 33 88 34
REMARK SMILES IDX 53 35 54 36 68 38 89 39 56 40 40 41 41 42 49 43 42 44 43 45
REMARK SMILES IDX 47 46 50 47 44 48 45 49 48 50 46 51 72 52 73 53 81 54 74 55
REMARK SMILES IDX 75 56 79 57 82 58 76 59 77 60 80 61 78 62 57 63 58 64 66 65
REMARK SMILES IDX 59 66 60 67 64 68 67 69 61 70 62 71 65 72 63 73 8 74 9 75
REMARK SMILES IDX 10 76 11 77 12 79 13 80 14 81 15 82 16 83 17 85 18 86 19 88
REMARK SMILES IDX 20 89 21 90 29 91 22 92 23 93 25 94 30 95 24 96 26 97 27 98
REMARK SMILES IDX 28 99
REMARK H PARENT 3 8 87 26 55 37 10 78 16 84 17 87
REMARK Flexibility Score: inf
ROOT
ATOM      1  C   UNL     1       4.521  -0.157  -4.353  1.00  0.00     0.002 C 
ENDROOT
BRANCH   1   2
ATOM      2  C   UNL     1       3.959  -1.313  -3.521  1.00  0.00     0.002 C 
BRANCH   2   3
ATOM      3  C   UNL     1       4.548  -1.437  -2.116  1.00  0.00     0.021 C 
BRANCH   3   4
ATOM      4  C   UNL     1       4.421  -0.173  -1.276  1.00  0.00     0.116 C 
BRANCH   4   5
ATOM      5  N   UNL     1       3.030   0.183  -1.044  1.00  0.00    -0.352 N 
ATOM      6  O   UNL     1       1.108   0.295   0.138  1.00  0.00    -0.269 OA
ATOM      7  C   UNL     1       2.329   0.206   0.136  1.00  0.00     0.251 C 
ATOM      8  H   UNL     1       2.520   0.443  -1.845  1.00  0.00     0.163 HD
BRANCH   7   9
ATOM      9  C   UNL     1       3.069   0.117   1.410  1.00  0.00     0.039 A 
ATOM     10  C   UNL     1       4.222   0.881   1.602  1.00  0.00     0.014 A 
ATOM     11  C   UNL     1       2.602  -0.726   2.420  1.00  0.00     0.014 A 
ATOM     12  C   UNL     1       4.983   0.702   2.748  1.00  0.00     0.010 A 
ATOM     13  C   UNL     1       3.317  -0.831   3.615  1.00  0.00     0.010 A 
ATOM     14  C   UNL     1       4.522  -0.131   3.780  1.00  0.00    -0.014 A 
BRANCH  14  15
ATOM     15  C   UNL     1       5.271  -0.172   5.059  1.00  0.00     0.031 A 
ATOM     16  C   UNL     1       5.920  -1.433   5.545  1.00  0.00     0.074 A 
ATOM     17  C   UNL     1       5.372   0.967   5.771  1.00  0.00     0.049 A 
ATOM     18  N   UNL     1       6.607  -1.632   6.642  1.00  0.00    -0.248 NA
ATOM     19  C   UNL     1       5.775  -2.630   4.703  1.00  0.00     0.031 C 
ATOM     20  C   UNL     1       4.769   2.248   5.391  1.00  0.00     0.029 A 
ATOM     21  N   UNL     1       6.022   1.243   6.945  1.00  0.00    -0.354 N 
ATOM     22  C   UNL     1       6.963  -2.974   6.630  1.00  0.00     0.074 A 
ATOM     23  C   UNL     1       6.393  -3.551   5.432  1.00  0.00     0.031 C 
ATOM     24  C   UNL     1       5.118   3.181   6.286  1.00  0.00     0.029 A 
ATOM     25  C   UNL     1       5.902   2.552   7.342  1.00  0.00     0.049 A 
ATOM     26  H   UNL     1       6.526   0.568   7.455  1.00  0.00     0.167 HD
ATOM     27  C   UNL     1       7.705  -3.651   7.538  1.00  0.00     0.037 A 
ATOM     28  C   UNL     1       6.350   3.176   8.446  1.00  0.00     0.037 A 
ATOM     29  C   UNL     1       8.278  -3.056   8.720  1.00  0.00     0.049 A 
ATOM     30  C   UNL     1       7.140   2.391   9.451  1.00  0.00     0.074 A 
ATOM     31  C   UNL     1       9.080  -3.650   9.678  1.00  0.00     0.029 A 
ATOM     32  N   UNL     1       8.105  -1.734   9.107  1.00  0.00    -0.354 N 
ATOM     33  N   UNL     1       7.500   1.131   9.412  1.00  0.00    -0.248 NA
ATOM     34  C   UNL     1       7.583   3.108  10.653  1.00  0.00     0.031 C 
ATOM     35  C   UNL     1       9.339  -2.707  10.677  1.00  0.00     0.029 A 
ATOM     36  C   UNL     1       8.758  -1.505  10.309  1.00  0.00     0.049 A 
ATOM     37  H   UNL     1       7.594  -1.060   8.604  1.00  0.00     0.167 HD
ATOM     38  C   UNL     1       8.224   0.906  10.573  1.00  0.00     0.074 A 
ATOM     39  C   UNL     1       8.270   2.166  11.286  1.00  0.00     0.031 C 
ATOM     40  C   UNL     1       8.795  -0.244  11.008  1.00  0.00     0.037 A 
BRANCH  27  41
ATOM     41  C   UNL     1       7.940  -5.117   7.310  1.00  0.00     0.064 A 
ATOM     42  C   UNL     1       7.382  -6.068   8.179  1.00  0.00     0.173 A 
ATOM     43  C   UNL     1       8.785  -5.580   6.290  1.00  0.00     0.173 A 
ATOM     44  F   UNL     1       6.573  -5.680   9.177  1.00  0.00    -0.203 F 
ATOM     45  C   UNL     1       7.676  -7.423   8.048  1.00  0.00     0.198 A 
ATOM     46  C   UNL     1       9.053  -6.940   6.143  1.00  0.00     0.198 A 
ATOM     47  F   UNL     1       9.338  -4.716   5.427  1.00  0.00    -0.203 F 
ATOM     48  F   UNL     1       7.162  -8.306   8.915  1.00  0.00    -0.200 F 
ATOM     49  C   UNL     1       8.508  -7.858   7.028  1.00  0.00     0.200 A 
ATOM     50  F   UNL     1       9.840  -7.362   5.143  1.00  0.00    -0.200 F 
ATOM     51  F   UNL     1       8.785  -9.163   6.898  1.00  0.00    -0.200 F 
ENDBRANCH  27  41
BRANCH  28  52
ATOM     52  C   UNL     1       6.053   4.619   8.637  1.00  0.00     0.064 A 
ATOM     53  C   UNL     1       4.738   5.070   8.838  1.00  0.00     0.173 A 
ATOM     54  C   UNL     1       7.068   5.581   8.564  1.00  0.00     0.173 A 
ATOM     55  F   UNL     1       3.729   4.190   8.905  1.00  0.00    -0.203 F 
ATOM     56  C   UNL     1       4.449   6.429   8.928  1.00  0.00     0.198 A 
ATOM     57  C   UNL     1       6.781   6.939   8.687  1.00  0.00     0.198 A 
ATOM     58  F   UNL     1       8.341   5.198   8.388  1.00  0.00    -0.203 F 
ATOM     59  F   UNL     1       3.179   6.834   9.066  1.00  0.00    -0.200 F 
ATOM     60  C   UNL     1       5.471   7.362   8.857  1.00  0.00     0.200 A 
ATOM     61  F   UNL     1       7.774   7.837   8.641  1.00  0.00    -0.200 F 
ATOM     62  F   UNL     1       5.195   8.670   8.951  1.00  0.00    -0.200 F 
ENDBRANCH  28  52
BRANCH  40  63
ATOM     63  C   UNL     1       9.540  -0.197  12.310  1.00  0.00     0.064 A 
ATOM     64  C   UNL     1      10.935  -0.347  12.336  1.00  0.00     0.173 A 
ATOM     65  C   UNL     1       8.868  -0.080  13.536  1.00  0.00     0.173 A 
ATOM     66  F   UNL     1      11.623  -0.470  11.191  1.00  0.00    -0.203 F 
ATOM     67  C   UNL     1      11.627  -0.402  13.541  1.00  0.00     0.198 A 
ATOM     68  C   UNL     1       9.569  -0.101  14.739  1.00  0.00     0.198 A 
ATOM     69  F   UNL     1       7.537   0.082  13.564  1.00  0.00    -0.203 F 
ATOM     70  F   UNL     1      12.955  -0.587  13.542  1.00  0.00    -0.200 F 
ATOM     71  C   UNL     1      10.945  -0.275  14.741  1.00  0.00     0.200 A 
ATOM     72  F   UNL     1       8.911   0.050  15.897  1.00  0.00    -0.200 F 
ATOM     73  F   UNL     1      11.614  -0.316  15.902  1.00  0.00    -0.200 F 
ENDBRANCH  40  63
ENDBRANCH  14  15
ENDBRANCH   7   9
ENDBRANCH   4   5
ENDBRANCH   3   4
ENDBRANCH   2   3
ENDBRANCH   1   2
BRANCH   1  74
ATOM     74  C   UNL     1       6.049  -0.105  -4.429  1.00  0.00     0.021 C 
BRANCH  74  75
ATOM     75  C   UNL     1       6.681  -1.331  -5.090  1.00  0.00     0.116 C 
BRANCH  75  76
ATOM     76  N   UNL     1       6.635  -1.202  -6.528  1.00  0.00    -0.354 N 
ATOM     77  C   UNL     1       7.606  -0.941  -7.437  1.00  0.00     0.242 C 
ATOM     78  H   UNL     1       5.739  -1.326  -6.917  1.00  0.00     0.163 HD
ATOM     79  O   UNL     1       7.227  -0.666  -8.583  1.00  0.00    -0.273 OA
BRANCH  77  80
ATOM     80  C   UNL     1       9.117  -0.912  -7.112  1.00  0.00     0.173 C 
BRANCH  80  81
ATOM     81  C   UNL     1       9.643   0.372  -6.449  1.00  0.00     0.063 C 
BRANCH  81  82
ATOM     82  C   UNL     1       9.488   0.577  -4.949  1.00  0.00     0.158 C 
BRANCH  82  83
ATOM     83  O   UNL     1       9.791  -0.582  -4.192  1.00  0.00    -0.396 OA
ATOM     84  H   UNL     1       9.178  -1.295  -4.431  1.00  0.00     0.210 HD
ENDBRANCH  82  83
ENDBRANCH  81  82
ENDBRANCH  80  81
BRANCH  80  85
ATOM     85  N   UNL     1       9.643  -2.146  -6.522  1.00  0.00    -0.340 N 
ATOM     86  C   UNL     1      10.489  -3.091  -7.055  1.00  0.00     0.258 C 
ATOM     87  H   UNL     1       9.345  -2.327  -5.601  1.00  0.00     0.164 HD
ATOM     88  O   UNL     1      10.750  -4.104  -6.414  1.00  0.00    -0.269 OA
BRANCH  86  89
ATOM     89  C   UNL     1      11.106  -2.909  -8.380  1.00  0.00     0.118 A 
ATOM     90  C   UNL     1      11.879  -1.784  -8.663  1.00  0.00     0.139 A 
ATOM     91  C   UNL     1      10.978  -3.913  -9.344  1.00  0.00     0.216 A 
ATOM     92  F   UNL     1      12.123  -0.863  -7.723  1.00  0.00    -0.206 F 
ATOM     93  C   UNL     1      12.427  -1.585  -9.927  1.00  0.00     0.047 A 
ATOM     94  C   UNL     1      11.572  -3.747 -10.599  1.00  0.00     0.305 A 
ATOM     95  F   UNL     1      10.261  -5.008  -9.055  1.00  0.00    -0.198 F 
ATOM     96  C   UNL     1      12.272  -2.565 -10.905  1.00  0.00     0.092 A 
BRANCH  94  97
ATOM     97  N   UNL     1      11.496  -4.802 -11.610  1.00  0.00     0.065 N 
ATOM     98  O   UNL     1      11.050  -5.907 -11.284  1.00  0.00    -0.258 OA
ATOM     99  O   UNL     1      11.914  -4.527 -12.744  1.00  0.00    -0.258 OA
ENDBRANCH  94  97
ENDBRANCH  86  89
ENDBRANCH  80  85
ENDBRANCH  77  80
ENDBRANCH  75  76
ENDBRANCH  74  75
ENDBRANCH   1  74
TORSDOF 19
