REMARK SMILES C/C(=N\NC(N)=O)c1nnn(-c2ccc(C(=O)NCCCCCCNC(=O)c3ccc(-c4c5nc(c(-c6c(F)c(F)c(F)c(F)c6F)c6ccc([nH]6)c(-c6c(F)c(F)c(F)c(F)c6F)c6nc(c(-c7c(F)c(F)c(F)c(F)c7F)c7ccc4[nH]7)C=C6)C=C5)cc3)cc2)c1C
REMARK SMILES IDX 21 1 20 2 19 3 18 4 16 5 17 6 15 8 12 9 13 10 92 11 14 12
REMARK SMILES IDX 91 13 11 14 8 15 9 16 93 17 10 18 94 19 2 20 1 21 3 22 4 23
REMARK SMILES IDX 5 24 6 26 7 27 22 30 23 31 24 32 25 33 26 34 27 36 28 37
REMARK SMILES IDX 29 38 90 39 30 40 89 41 31 42 32 43 33 44 83 45 34 46 88 47
REMARK SMILES IDX 82 48 84 49 35 50 87 51 81 52 80 53 36 55 68 56 48 57 67 58
REMARK SMILES IDX 49 59 52 60 66 61 85 62 50 63 51 64 65 66 86 67 53 68 37 69
REMARK SMILES IDX 38 70 46 71 39 72 40 73 44 74 47 75 41 76 42 77 45 78 43 79
REMARK SMILES IDX 69 80 70 81 78 82 71 83 72 84 76 85 79 86 73 87 74 88 77 89
REMARK SMILES IDX 75 90 54 91 55 92 63 93 56 94 57 95 61 96 64 97 58 98 59 99
REMARK SMILES IDX 62 100 60 101
REMARK H PARENT 18 7 4 25 6 28 6 29 25 35 84 54 52 65
REMARK Flexibility Score: inf
ROOT
ATOM      1  C   UNL     1       9.719   5.257   6.165  1.00  0.00     0.002 C 
ENDROOT
BRANCH   1   2
ATOM      2  C   UNL     1       8.344   4.921   5.571  1.00  0.00     0.021 C 
BRANCH   2   3
ATOM      3  C   UNL     1       8.145   3.426   5.307  1.00  0.00     0.116 C 
BRANCH   3   4
ATOM      4  N   UNL     1       7.745   2.749   6.527  1.00  0.00    -0.352 N 
ATOM      5  C   UNL     1       6.536   2.293   6.990  1.00  0.00     0.251 C 
ATOM      6  O   UNL     1       6.521   1.733   8.086  1.00  0.00    -0.269 OA
ATOM      7  H   UNL     1       8.492   2.583   7.147  1.00  0.00     0.163 HD
BRANCH   5   8
ATOM      8  C   UNL     1       5.274   2.373   6.200  1.00  0.00     0.039 A 
ATOM      9  C   UNL     1       2.998   2.189   4.593  1.00  0.00     0.067 A 
ATOM     10  C   UNL     1       3.139   1.316   5.672  1.00  0.00     0.029 A 
ATOM     11  C   UNL     1       3.912   3.222   4.384  1.00  0.00     0.029 A 
ATOM     12  C   UNL     1       4.296   1.394   6.452  1.00  0.00     0.016 A 
ATOM     13  C   UNL     1       5.017   3.343   5.228  1.00  0.00     0.016 A 
BRANCH   9  14
ATOM     14  N   UNL     1       1.977   1.971   3.653  1.00  0.00    -0.217 N 
ATOM     15  C   UNL     1       0.835   1.464   1.876  1.00  0.00     0.132 A 
ATOM     16  N   UNL     1      -0.032   1.634   2.924  1.00  0.00    -0.128 NA
ATOM     17  C   UNL     1       2.131   1.655   2.315  1.00  0.00     0.071 A 
ATOM     18  N   UNL     1       0.683   1.863   4.018  1.00  0.00    -0.061 NA
ATOM     19  C   UNL     1       3.434   1.414   1.650  1.00  0.00     0.069 C 
BRANCH  15  20
ATOM     20  C   UNL     1       0.404   0.935   0.593  1.00  0.00     0.087 C 
ATOM     21  C   UNL     1       0.627  -0.540   0.391  1.00  0.00     0.071 C 
ATOM     22  N   UNL     1      -0.159   1.792  -0.207  1.00  0.00    -0.174 NA
BRANCH  22  23
ATOM     23  N   UNL     1      -0.609   1.455  -1.454  1.00  0.00    -0.229 N 
ATOM     24  C   UNL     1       0.014   0.652  -2.384  1.00  0.00     0.332 C 
ATOM     25  H   UNL     1      -1.480   1.830  -1.718  1.00  0.00     0.195 HD
ATOM     26  N   UNL     1      -0.731   0.492  -3.514  1.00  0.00    -0.350 N 
ATOM     27  O   UNL     1       1.101   0.099  -2.283  1.00  0.00    -0.247 OA
ATOM     28  H   UNL     1      -1.606   0.938  -3.594  1.00  0.00     0.161 HD
ATOM     29  H   UNL     1      -0.396  -0.069  -4.250  1.00  0.00     0.161 HD
ENDBRANCH  22  23
ENDBRANCH  15  20
ENDBRANCH   9  14
ENDBRANCH   5   8
ENDBRANCH   3   4
ENDBRANCH   2   3
ENDBRANCH   1   2
BRANCH   1  30
ATOM     30  C   UNL     1      10.920   4.907   5.273  1.00  0.00     0.002 C 
BRANCH  30  31
ATOM     31  C   UNL     1      10.870   5.467   3.845  1.00  0.00     0.021 C 
BRANCH  31  32
ATOM     32  C   UNL     1      10.965   6.987   3.786  1.00  0.00     0.116 C 
BRANCH  32  33
ATOM     33  N   UNL     1      12.289   7.451   4.176  1.00  0.00    -0.352 N 
ATOM     34  C   UNL     1      12.782   8.734   4.208  1.00  0.00     0.251 C 
ATOM     35  H   UNL     1      12.919   6.748   4.454  1.00  0.00     0.163 HD
ATOM     36  O   UNL     1      13.988   8.932   4.210  1.00  0.00    -0.269 OA
BRANCH  34  37
ATOM     37  C   UNL     1      11.849   9.876   4.224  1.00  0.00     0.039 A 
ATOM     38  C   UNL     1      12.145  11.003   3.453  1.00  0.00     0.014 A 
ATOM     39  C   UNL     1      10.704   9.842   5.023  1.00  0.00     0.014 A 
ATOM     40  C   UNL     1      11.245  12.062   3.428  1.00  0.00     0.010 A 
ATOM     41  C   UNL     1       9.775  10.863   4.945  1.00  0.00     0.010 A 
ATOM     42  C   UNL     1      10.044  11.978   4.152  1.00  0.00    -0.014 A 
BRANCH  42  43
ATOM     43  C   UNL     1       8.997  12.969   3.893  1.00  0.00     0.031 A 
ATOM     44  C   UNL     1       8.595  13.046   2.459  1.00  0.00     0.074 A 
ATOM     45  C   UNL     1       8.296  13.615   4.848  1.00  0.00     0.049 A 
ATOM     46  N   UNL     1       8.687  14.059   1.663  1.00  0.00    -0.248 NA
ATOM     47  C   UNL     1       8.154  11.809   1.792  1.00  0.00     0.031 C 
ATOM     48  C   UNL     1       8.356  13.393   6.295  1.00  0.00     0.029 A 
ATOM     49  N   UNL     1       7.291  14.536   4.721  1.00  0.00    -0.354 N 
ATOM     50  C   UNL     1       8.148  13.646   0.444  1.00  0.00     0.074 A 
ATOM     51  C   UNL     1       7.990  12.221   0.534  1.00  0.00     0.031 C 
ATOM     52  C   UNL     1       7.290  13.977   6.884  1.00  0.00     0.029 A 
ATOM     53  C   UNL     1       6.558  14.738   5.886  1.00  0.00     0.049 A 
ATOM     54  H   UNL     1       7.104  15.012   3.881  1.00  0.00     0.167 HD
ATOM     55  C   UNL     1       7.638  14.560  -0.428  1.00  0.00     0.037 A 
ATOM     56  C   UNL     1       5.415  15.454   6.024  1.00  0.00     0.037 A 
ATOM     57  C   UNL     1       8.090  15.884  -0.084  1.00  0.00     0.049 A 
ATOM     58  C   UNL     1       5.327  16.384   4.877  1.00  0.00     0.074 A 
ATOM     59  C   UNL     1       9.276  16.582  -0.131  1.00  0.00     0.029 A 
ATOM     60  N   UNL     1       7.253  16.557   0.762  1.00  0.00    -0.354 N 
ATOM     61  N   UNL     1       6.110  17.412   4.713  1.00  0.00    -0.248 NA
ATOM     62  C   UNL     1       4.538  16.006   3.711  1.00  0.00     0.031 C 
ATOM     63  C   UNL     1       9.196  17.553   0.913  1.00  0.00     0.029 A 
ATOM     64  C   UNL     1       7.950  17.443   1.531  1.00  0.00     0.049 A 
ATOM     65  H   UNL     1       6.279  16.421   0.810  1.00  0.00     0.167 HD
ATOM     66  C   UNL     1       6.251  17.513   3.344  1.00  0.00     0.074 A 
ATOM     67  C   UNL     1       5.127  16.772   2.789  1.00  0.00     0.031 C 
ATOM     68  C   UNL     1       7.442  17.900   2.805  1.00  0.00     0.037 A 
BRANCH  55  69
ATOM     69  C   UNL     1       6.360  14.376  -1.238  1.00  0.00     0.064 A 
ATOM     70  C   UNL     1       5.910  15.455  -2.036  1.00  0.00     0.173 A 
ATOM     71  C   UNL     1       5.400  13.370  -1.001  1.00  0.00     0.173 A 
ATOM     72  F   UNL     1       6.730  16.472  -2.340  1.00  0.00    -0.203 F 
ATOM     73  C   UNL     1       4.579  15.571  -2.450  1.00  0.00     0.198 A 
ATOM     74  C   UNL     1       4.084  13.468  -1.457  1.00  0.00     0.198 A 
ATOM     75  F   UNL     1       5.649  12.305  -0.233  1.00  0.00    -0.203 F 
ATOM     76  F   UNL     1       4.171  16.683  -3.078  1.00  0.00    -0.200 F 
ATOM     77  C   UNL     1       3.663  14.584  -2.147  1.00  0.00     0.200 A 
ATOM     78  F   UNL     1       3.207  12.504  -1.140  1.00  0.00    -0.200 F 
ATOM     79  F   UNL     1       2.373  14.724  -2.476  1.00  0.00    -0.200 F 
ENDBRANCH  55  69
BRANCH  56  80
ATOM     80  C   UNL     1       4.293  15.298   6.980  1.00  0.00     0.064 A 
ATOM     81  C   UNL     1       3.366  16.335   7.185  1.00  0.00     0.173 A 
ATOM     82  C   UNL     1       3.940  14.035   7.491  1.00  0.00     0.173 A 
ATOM     83  F   UNL     1       3.607  17.564   6.704  1.00  0.00    -0.203 F 
ATOM     84  C   UNL     1       2.140  16.112   7.818  1.00  0.00     0.198 A 
ATOM     85  C   UNL     1       2.719  13.815   8.132  1.00  0.00     0.198 A 
ATOM     86  F   UNL     1       4.727  12.969   7.290  1.00  0.00    -0.203 F 
ATOM     87  F   UNL     1       1.250  17.109   7.924  1.00  0.00    -0.200 F 
ATOM     88  C   UNL     1       1.811  14.848   8.278  1.00  0.00     0.200 A 
ATOM     89  F   UNL     1       2.398  12.581   8.544  1.00  0.00    -0.200 F 
ATOM     90  F   UNL     1       0.608  14.616   8.820  1.00  0.00    -0.200 F 
ENDBRANCH  56  80
BRANCH  68  91
ATOM     91  C   UNL     1       8.357  18.712   3.668  1.00  0.00     0.064 A 
ATOM     92  C   UNL     1       8.955  18.258   4.855  1.00  0.00     0.173 A 
ATOM     93  C   UNL     1       8.702  19.993   3.215  1.00  0.00     0.173 A 
ATOM     94  F   UNL     1       8.743  17.015   5.308  1.00  0.00    -0.203 F 
ATOM     95  C   UNL     1       9.823  19.076   5.576  1.00  0.00     0.198 A 
ATOM     96  C   UNL     1       9.602  20.788   3.912  1.00  0.00     0.198 A 
ATOM     97  F   UNL     1       8.189  20.459   2.064  1.00  0.00    -0.203 F 
ATOM     98  F   UNL     1      10.363  18.637   6.723  1.00  0.00    -0.200 F 
ATOM     99  C   UNL     1      10.152  20.336   5.100  1.00  0.00     0.200 A 
ATOM    100  F   UNL     1       9.950  21.986   3.422  1.00  0.00    -0.200 F 
ATOM    101  F   UNL     1      11.016  21.107   5.774  1.00  0.00    -0.200 F 
ENDBRANCH  68  91
ENDBRANCH  42  43
ENDBRANCH  34  37
ENDBRANCH  32  33
ENDBRANCH  31  32
ENDBRANCH  30  31
ENDBRANCH   1  30
TORSDOF 16
