REMARK SMILES CC(C)(C)NS(=O)(=O)c1csc(C(=O)Nc2ccccc2C(=O)NCCCCCCNC(=O)c2ccc(-c3c4nc(c(-c5c(F)c(F)c(F)c(F)c5F)c5ccc([nH]5)c(-c5c(F)c(F)c(F)c(F)c5F)c5nc(c(-c6c(F)c(F)c(F)c(F)c6F)c6ccc3[nH]6)C=C5)C=C4)cc2)c1
REMARK SMILES IDX 26 1 25 2 24 3 22 4 23 5 21 7 16 8 17 9 18 10 20 11 19 12
REMARK SMILES IDX 15 13 13 14 14 15 12 17 9 18 10 19 97 20 11 21 6 22 7 23
REMARK SMILES IDX 8 24 5 25 2 27 1 28 3 29 4 30 27 31 28 32 29 33 30 34 31 35
REMARK SMILES IDX 32 36 33 38 34 39 35 40 96 41 36 42 95 43 37 44 38 45 39 46
REMARK SMILES IDX 89 47 40 48 94 49 88 50 90 51 41 52 93 53 87 54 86 55 42 57
REMARK SMILES IDX 74 58 54 59 73 60 55 61 58 62 72 63 91 64 56 65 57 66 71 68
REMARK SMILES IDX 92 69 59 70 43 71 44 72 52 73 45 74 46 75 50 76 53 77 47 78
REMARK SMILES IDX 48 79 51 80 49 81 75 82 76 83 84 84 77 85 78 86 82 87 85 88
REMARK SMILES IDX 79 89 80 90 83 91 81 92 60 93 61 94 69 95 62 96 63 97 67 98
REMARK SMILES IDX 70 99 64 100 65 101 68 102 66 103
REMARK H PARENT 24 6 15 16 5 26 31 37 90 56 58 67
REMARK Flexibility Score: inf
ROOT
ATOM      1  C   UNL     1       7.361   1.690  -3.553  1.00  0.00     0.021 C 
ENDROOT
BRANCH   1   2
ATOM      2  C   UNL     1       6.161   1.834  -2.631  1.00  0.00     0.116 C 
BRANCH   2   3
ATOM      3  N   UNL     1       6.333   1.212  -1.341  1.00  0.00    -0.352 N 
ATOM      4  C   UNL     1       5.679   1.422  -0.155  1.00  0.00     0.253 C 
ATOM      5  O   UNL     1       6.068   0.784   0.825  1.00  0.00    -0.269 OA
ATOM      6  H   UNL     1       7.035   0.523  -1.306  1.00  0.00     0.163 HD
BRANCH   4   7
ATOM      7  C   UNL     1       4.567   2.407   0.024  1.00  0.00     0.063 A 
ATOM      8  C   UNL     1       3.523   2.717  -0.871  1.00  0.00     0.054 A 
ATOM      9  C   UNL     1       2.649   3.778  -0.551  1.00  0.00     0.027 A 
ATOM     10  C   UNL     1       2.684   4.404   0.695  1.00  0.00     0.002 A 
ATOM     11  C   UNL     1       4.566   3.037   1.291  1.00  0.00     0.016 A 
ATOM     12  C   UNL     1       3.622   4.006   1.634  1.00  0.00     0.001 A 
BRANCH   8  13
ATOM     13  N   UNL     1       3.159   2.044  -2.056  1.00  0.00    -0.321 N 
ATOM     14  C   UNL     1       3.161   0.715  -2.445  1.00  0.00     0.265 C 
ATOM     15  O   UNL     1       2.933   0.523  -3.644  1.00  0.00    -0.268 OA
ATOM     16  H   UNL     1       2.831   2.651  -2.759  1.00  0.00     0.170 HD
BRANCH  14  17
ATOM     17  C   UNL     1       3.285  -0.366  -1.482  1.00  0.00     0.094 A 
ATOM     18  C   UNL     1       2.950  -1.627   0.447  1.00  0.00     0.093 A 
ATOM     19  C   UNL     1       3.221  -2.627  -0.455  1.00  0.00     0.087 A 
ATOM     20  C   UNL     1       3.120  -0.345  -0.118  1.00  0.00     0.047 A 
ATOM     21  S   UNL     1       3.525  -1.983  -2.018  1.00  0.00    -0.137 S 
BRANCH  18  22
ATOM     22  S   UNL     1       2.336  -1.794   2.047  1.00  0.00     0.241 S 
ATOM     23  O   UNL     1       3.006  -0.789   2.829  1.00  0.00    -0.207 OA
ATOM     24  O   UNL     1       2.458  -3.207   2.350  1.00  0.00    -0.207 OA
BRANCH  22  25
ATOM     25  N   UNL     1       0.683  -1.451   2.026  1.00  0.00    -0.206 NA
ATOM     26  H   UNL     1       0.276  -2.138   1.392  1.00  0.00     0.141 HD
BRANCH  25  27
ATOM     27  C   UNL     1       0.059  -0.145   1.642  1.00  0.00     0.025 C 
ATOM     28  C   UNL     1       0.066   0.073   0.120  1.00  0.00     0.028 C 
ATOM     29  C   UNL     1       0.663   1.051   2.383  1.00  0.00     0.028 C 
ATOM     30  C   UNL     1      -1.423  -0.262   2.056  1.00  0.00     0.028 C 
ENDBRANCH  25  27
ENDBRANCH  22  25
ENDBRANCH  18  22
ENDBRANCH  14  17
ENDBRANCH   8  13
ENDBRANCH   4   7
ENDBRANCH   2   3
ENDBRANCH   1   2
BRANCH   1  31
ATOM     31  C   UNL     1       7.663   0.263  -4.033  1.00  0.00     0.002 C 
BRANCH  31  32
ATOM     32  C   UNL     1       6.515  -0.542  -4.656  1.00  0.00     0.002 C 
BRANCH  32  33
ATOM     33  C   UNL     1       5.702   0.128  -5.764  1.00  0.00     0.021 C 
BRANCH  33  34
ATOM     34  C   UNL     1       6.495   0.755  -6.903  1.00  0.00     0.116 C 
BRANCH  34  35
ATOM     35  N   UNL     1       7.407  -0.169  -7.554  1.00  0.00    -0.352 N 
ATOM     36  C   UNL     1       7.627  -0.387  -8.891  1.00  0.00     0.251 C 
ATOM     37  H   UNL     1       7.949  -0.721  -6.945  1.00  0.00     0.163 HD
ATOM     38  O   UNL     1       8.388  -1.278  -9.255  1.00  0.00    -0.269 OA
BRANCH  36  39
ATOM     39  C   UNL     1       6.913   0.423  -9.903  1.00  0.00     0.039 A 
ATOM     40  C   UNL     1       6.306  -0.237 -10.975  1.00  0.00     0.014 A 
ATOM     41  C   UNL     1       6.825   1.813  -9.795  1.00  0.00     0.014 A 
ATOM     42  C   UNL     1       5.539   0.485 -11.890  1.00  0.00     0.010 A 
ATOM     43  C   UNL     1       6.005   2.524 -10.669  1.00  0.00     0.010 A 
ATOM     44  C   UNL     1       5.342   1.864 -11.716  1.00  0.00    -0.014 A 
BRANCH  44  45
ATOM     45  C   UNL     1       4.405   2.621 -12.585  1.00  0.00     0.031 A 
ATOM     46  C   UNL     1       4.909   3.719 -13.477  1.00  0.00     0.074 A 
ATOM     47  C   UNL     1       3.084   2.366 -12.506  1.00  0.00     0.049 A 
ATOM     48  N   UNL     1       4.233   4.543 -14.238  1.00  0.00    -0.248 NA
ATOM     49  C   UNL     1       6.363   3.936 -13.501  1.00  0.00     0.031 C 
ATOM     50  C   UNL     1       2.469   1.358 -11.642  1.00  0.00     0.029 A 
ATOM     51  N   UNL     1       2.017   2.946 -13.148  1.00  0.00    -0.354 N 
ATOM     52  C   UNL     1       5.175   5.381 -14.818  1.00  0.00     0.074 A 
ATOM     53  C   UNL     1       6.466   4.997 -14.289  1.00  0.00     0.031 C 
ATOM     54  C   UNL     1       1.138   1.381 -11.815  1.00  0.00     0.029 A 
ATOM     55  C   UNL     1       0.801   2.433 -12.768  1.00  0.00     0.049 A 
ATOM     56  H   UNL     1       2.115   3.662 -13.817  1.00  0.00     0.167 HD
ATOM     57  C   UNL     1       4.978   6.370 -15.723  1.00  0.00     0.037 A 
ATOM     58  C   UNL     1      -0.448   2.784 -13.130  1.00  0.00     0.037 A 
ATOM     59  C   UNL     1       3.693   6.732 -16.261  1.00  0.00     0.049 A 
ATOM     60  C   UNL     1      -0.637   3.900 -14.122  1.00  0.00     0.074 A 
ATOM     61  C   UNL     1       3.401   7.666 -17.241  1.00  0.00     0.029 A 
ATOM     62  N   UNL     1       2.483   6.185 -15.858  1.00  0.00    -0.354 N 
ATOM     63  N   UNL     1       0.268   4.632 -14.725  1.00  0.00    -0.248 NA
ATOM     64  C   UNL     1      -2.021   4.238 -14.484  1.00  0.00     0.031 C 
ATOM     65  C   UNL     1       2.011   7.725 -17.389  1.00  0.00     0.029 A 
ATOM     66  C   UNL     1       1.440   6.789 -16.543  1.00  0.00     0.049 A 
ATOM     67  H   UNL     1       2.381   5.472 -15.187  1.00  0.00     0.167 HD
ATOM     68  C   UNL     1      -0.433   5.502 -15.550  1.00  0.00     0.074 A 
ATOM     69  C   UNL     1      -1.838   5.192 -15.386  1.00  0.00     0.031 C 
ATOM     70  C   UNL     1       0.045   6.473 -16.365  1.00  0.00     0.037 A 
BRANCH  57  71
ATOM     71  C   UNL     1       6.180   7.138 -16.192  1.00  0.00     0.064 A 
ATOM     72  C   UNL     1       7.149   6.556 -17.023  1.00  0.00     0.173 A 
ATOM     73  C   UNL     1       6.335   8.491 -15.854  1.00  0.00     0.173 A 
ATOM     74  F   UNL     1       7.054   5.263 -17.369  1.00  0.00    -0.203 F 
ATOM     75  C   UNL     1       8.241   7.292 -17.477  1.00  0.00     0.198 A 
ATOM     76  C   UNL     1       7.411   9.233 -16.334  1.00  0.00     0.198 A 
ATOM     77  F   UNL     1       5.433   9.099 -15.068  1.00  0.00    -0.203 F 
ATOM     78  F   UNL     1       9.176   6.703 -18.235  1.00  0.00    -0.200 F 
ATOM     79  C   UNL     1       8.366   8.632 -17.140  1.00  0.00     0.200 A 
ATOM     80  F   UNL     1       7.522  10.531 -16.019  1.00  0.00    -0.200 F 
ATOM     81  F   UNL     1       9.410   9.342 -17.588  1.00  0.00    -0.200 F 
ENDBRANCH  57  71
BRANCH  58  82
ATOM     82  C   UNL     1      -1.618   2.076 -12.547  1.00  0.00     0.064 A 
ATOM     83  C   UNL     1      -2.430   1.251 -13.338  1.00  0.00     0.173 A 
ATOM     84  C   UNL     1      -1.955   2.215 -11.193  1.00  0.00     0.173 A 
ATOM     85  F   UNL     1      -2.163   1.104 -14.644  1.00  0.00    -0.203 F 
ATOM     86  C   UNL     1      -3.545   0.610 -12.802  1.00  0.00     0.198 A 
ATOM     87  C   UNL     1      -3.052   1.549 -10.650  1.00  0.00     0.198 A 
ATOM     88  F   UNL     1      -1.210   2.991 -10.391  1.00  0.00    -0.203 F 
ATOM     89  F   UNL     1      -4.333  -0.131 -13.592  1.00  0.00    -0.200 F 
ATOM     90  C   UNL     1      -3.852   0.755 -11.457  1.00  0.00     0.200 A 
ATOM     91  F   UNL     1      -3.337   1.682  -9.348  1.00  0.00    -0.200 F 
ATOM     92  F   UNL     1      -4.923   0.137 -10.942  1.00  0.00    -0.200 F 
ENDBRANCH  58  82
BRANCH  70  93
ATOM     93  C   UNL     1      -0.957   7.263 -17.155  1.00  0.00     0.064 A 
ATOM     94  C   UNL     1      -1.799   8.201 -16.540  1.00  0.00     0.173 A 
ATOM     95  C   UNL     1      -1.045   7.115 -18.548  1.00  0.00     0.173 A 
ATOM     96  F   UNL     1      -1.766   8.369 -15.210  1.00  0.00    -0.203 F 
ATOM     97  C   UNL     1      -2.707   8.947 -17.288  1.00  0.00     0.198 A 
ATOM     98  C   UNL     1      -1.931   7.884 -19.296  1.00  0.00     0.198 A 
ATOM     99  F   UNL     1      -0.258   6.235 -19.185  1.00  0.00    -0.203 F 
ATOM    100  F   UNL     1      -3.533   9.805 -16.674  1.00  0.00    -0.200 F 
ATOM    101  C   UNL     1      -2.766   8.794 -18.666  1.00  0.00     0.200 A 
ATOM    102  F   UNL     1      -1.976   7.746 -20.628  1.00  0.00    -0.200 F 
ATOM    103  F   UNL     1      -3.632   9.521 -19.385  1.00  0.00    -0.200 F 
ENDBRANCH  70  93
ENDBRANCH  44  45
ENDBRANCH  36  39
ENDBRANCH  34  35
ENDBRANCH  33  34
ENDBRANCH  32  33
ENDBRANCH  31  32
ENDBRANCH   1  31
TORSDOF 18
