REMARK SMILES C[C@@H](C(=O)[C@H](C)[C@@H](C)C(=O)NCCCCCCNC(=O)c1ccc(-c2c3nc(c(-c4c(F)c(F)c(F)c(F)c4F)c4ccc([nH]4)c(-c4c(F)c(F)c(F)c(F)c4F)c4nc(c(-c5c(F)c(F)c(F)c(F)c5F)c5ccc2[nH]5)C=C4)C=C3)cc1)c1ccccc1
REMARK SMILES IDX 13 1 12 2 11 3 9 4 10 5 7 7 8 8 5 9 6 10 3 11 4 12 2 13 1 14
REMARK SMILES IDX 84 15 85 16 89 17 86 18 88 19 87 20 14 21 15 22 16 23 17 24
REMARK SMILES IDX 18 25 19 26 20 28 21 29 22 30 83 31 23 32 82 33 24 34 25 35
REMARK SMILES IDX 26 36 76 37 27 38 81 39 75 40 77 41 28 42 80 43 74 44 73 45
REMARK SMILES IDX 29 47 61 48 41 49 60 50 42 51 45 52 59 53 78 54 43 55 44 56
REMARK SMILES IDX 58 58 79 59 46 60 30 61 31 62 39 63 32 64 33 65 37 66 40 67
REMARK SMILES IDX 34 68 35 69 38 70 36 71 62 72 63 73 71 74 64 75 65 76 69 77
REMARK SMILES IDX 72 78 66 79 67 80 70 81 68 82 47 83 48 84 56 85 49 86 50 87
REMARK SMILES IDX 54 88 57 89 51 90 52 91 55 92 53 93
REMARK H PARENT 11 6 18 27 77 46 45 57
REMARK Flexibility Score: inf
ROOT
ATOM      1  C   UNL     1       4.669   0.927   5.416  1.00  0.00     0.021 C 
ENDROOT
BRANCH   1   2
ATOM      2  C   UNL     1       4.229   1.861   4.292  1.00  0.00     0.116 C 
BRANCH   2   3
ATOM      3  N   UNL     1       4.954   1.587   3.069  1.00  0.00    -0.356 N 
ATOM      4  C   UNL     1       4.537   1.178   1.849  1.00  0.00     0.223 C 
ATOM      5  O   UNL     1       5.397   1.017   0.979  1.00  0.00    -0.275 OA
ATOM      6  H   UNL     1       5.927   1.725   3.137  1.00  0.00     0.163 HD
BRANCH   4   7
ATOM      7  C   UNL     1       3.071   0.933   1.519  1.00  0.00     0.085 C 
ATOM      8  C   UNL     1       2.298   2.258   1.544  1.00  0.00     0.019 C 
BRANCH   7   9
ATOM      9  C   UNL     1       2.416  -0.209   2.319  1.00  0.00     0.066 C 
ATOM     10  C   UNL     1       0.951  -0.443   1.942  1.00  0.00     0.017 C 
BRANCH   9  11
ATOM     11  C   UNL     1       3.138  -1.566   2.366  1.00  0.00     0.143 C 
ATOM     12  O   UNL     1       2.997  -2.234   3.400  1.00  0.00    -0.299 OA
BRANCH  11  13
ATOM     13  C   UNL     1       3.972  -2.087   1.180  1.00  0.00     0.083 C 
ATOM     14  C   UNL     1       3.206  -2.129  -0.144  1.00  0.00     0.021 C 
BRANCH  13  15
ATOM     15  C   UNL     1       4.577  -3.463   1.473  1.00  0.00    -0.038 A 
ATOM     16  C   UNL     1       3.796  -4.631   1.437  1.00  0.00     0.004 A 
ATOM     17  C   UNL     1       5.935  -3.578   1.810  1.00  0.00     0.004 A 
ATOM     18  C   UNL     1       4.362  -5.879   1.705  1.00  0.00     0.000 A 
ATOM     19  C   UNL     1       6.497  -4.828   2.084  1.00  0.00     0.000 A 
ATOM     20  C   UNL     1       5.713  -5.978   2.026  1.00  0.00     0.000 A 
ENDBRANCH  13  15
ENDBRANCH  11  13
ENDBRANCH   9  11
ENDBRANCH   7   9
ENDBRANCH   4   7
ENDBRANCH   2   3
ENDBRANCH   1   2
BRANCH   1  21
ATOM     21  C   UNL     1       6.113   1.142   5.884  1.00  0.00     0.002 C 
BRANCH  21  22
ATOM     22  C   UNL     1       6.463   2.581   6.279  1.00  0.00     0.002 C 
BRANCH  22  23
ATOM     23  C   UNL     1       5.519   3.226   7.296  1.00  0.00     0.021 C 
BRANCH  23  24
ATOM     24  C   UNL     1       5.390   2.469   8.612  1.00  0.00     0.116 C 
BRANCH  24  25
ATOM     25  N   UNL     1       6.650   2.411   9.335  1.00  0.00    -0.352 N 
ATOM     26  C   UNL     1       6.924   2.771  10.627  1.00  0.00     0.251 C 
ATOM     27  H   UNL     1       7.415   2.064   8.822  1.00  0.00     0.163 HD
ATOM     28  O   UNL     1       8.090   2.839  11.017  1.00  0.00    -0.269 OA
BRANCH  26  29
ATOM     29  C   UNL     1       5.822   3.100  11.553  1.00  0.00     0.039 A 
ATOM     30  C   UNL     1       5.947   4.218  12.382  1.00  0.00     0.014 A 
ATOM     31  C   UNL     1       4.673   2.305  11.615  1.00  0.00     0.014 A 
ATOM     32  C   UNL     1       4.900   4.568  13.236  1.00  0.00     0.010 A 
ATOM     33  C   UNL     1       3.601   2.697  12.411  1.00  0.00     0.010 A 
ATOM     34  C   UNL     1       3.707   3.827  13.236  1.00  0.00    -0.014 A 
BRANCH  34  35
ATOM     35  C   UNL     1       2.563   4.219  14.097  1.00  0.00     0.031 A 
ATOM     36  C   UNL     1       2.105   3.313  15.205  1.00  0.00     0.074 A 
ATOM     37  C   UNL     1       1.903   5.364  13.842  1.00  0.00     0.049 A 
ATOM     38  N   UNL     1       1.106   3.464  16.039  1.00  0.00    -0.248 NA
ATOM     39  C   UNL     1       2.850   2.058  15.384  1.00  0.00     0.031 C 
ATOM     40  C   UNL     1       2.224   6.304  12.767  1.00  0.00     0.029 A 
ATOM     41  N   UNL     1       0.821   5.932  14.468  1.00  0.00    -0.354 N 
ATOM     42  C   UNL     1       1.093   2.318  16.823  1.00  0.00     0.074 A 
ATOM     43  C   UNL     1       2.149   1.459  16.334  1.00  0.00     0.031 C 
ATOM     44  C   UNL     1       1.381   7.347  12.830  1.00  0.00     0.029 A 
ATOM     45  C   UNL     1       0.438   7.133  13.923  1.00  0.00     0.049 A 
ATOM     46  H   UNL     1       0.363   5.517  15.235  1.00  0.00     0.167 HD
ATOM     47  C   UNL     1       0.286   2.020  17.870  1.00  0.00     0.037 A 
ATOM     48  C   UNL     1      -0.560   7.966  14.269  1.00  0.00     0.037 A 
ATOM     49  C   UNL     1      -0.744   2.893  18.371  1.00  0.00     0.049 A 
ATOM     50  C   UNL     1      -1.447   7.607  15.430  1.00  0.00     0.074 A 
ATOM     51  C   UNL     1      -1.560   2.721  19.476  1.00  0.00     0.029 A 
ATOM     52  N   UNL     1      -1.106   4.101  17.791  1.00  0.00    -0.354 N 
ATOM     53  N   UNL     1      -1.397   6.562  16.219  1.00  0.00    -0.248 NA
ATOM     54  C   UNL     1      -2.529   8.549  15.750  1.00  0.00     0.031 C 
ATOM     55  C   UNL     1      -2.451   3.798  19.532  1.00  0.00     0.029 A 
ATOM     56  C   UNL     1      -2.155   4.669  18.496  1.00  0.00     0.049 A 
ATOM     57  H   UNL     1      -0.680   4.496  16.997  1.00  0.00     0.167 HD
ATOM     58  C   UNL     1      -2.416   6.734  17.147  1.00  0.00     0.074 A 
ATOM     59  C   UNL     1      -3.059   7.992  16.829  1.00  0.00     0.031 C 
ATOM     60  C   UNL     1      -2.783   5.925  18.171  1.00  0.00     0.037 A 
BRANCH  47  61
ATOM     61  C   UNL     1       0.480   0.688  18.538  1.00  0.00     0.064 A 
ATOM     62  C   UNL     1       1.629   0.397  19.290  1.00  0.00     0.173 A 
ATOM     63  C   UNL     1      -0.507  -0.304  18.441  1.00  0.00     0.173 A 
ATOM     64  F   UNL     1       2.608   1.307  19.406  1.00  0.00    -0.203 F 
ATOM     65  C   UNL     1       1.799  -0.850  19.886  1.00  0.00     0.198 A 
ATOM     66  C   UNL     1      -0.348  -1.538  19.067  1.00  0.00     0.198 A 
ATOM     67  F   UNL     1      -1.629  -0.078  17.741  1.00  0.00    -0.203 F 
ATOM     68  F   UNL     1       2.931  -1.124  20.549  1.00  0.00    -0.200 F 
ATOM     69  C   UNL     1       0.809  -1.814  19.780  1.00  0.00     0.200 A 
ATOM     70  F   UNL     1      -1.313  -2.464  18.975  1.00  0.00    -0.200 F 
ATOM     71  F   UNL     1       0.973  -3.012  20.357  1.00  0.00    -0.200 F 
ENDBRANCH  47  61
BRANCH  48  72
ATOM     72  C   UNL     1      -0.748   9.244  13.535  1.00  0.00     0.064 A 
ATOM     73  C   UNL     1      -0.469  10.471  14.154  1.00  0.00     0.173 A 
ATOM     74  C   UNL     1      -1.204   9.271  12.210  1.00  0.00     0.173 A 
ATOM     75  F   UNL     1      -0.049  10.497  15.428  1.00  0.00    -0.203 F 
ATOM     76  C   UNL     1      -0.655  11.676  13.481  1.00  0.00     0.198 A 
ATOM     77  C   UNL     1      -1.364  10.476  11.529  1.00  0.00     0.198 A 
ATOM     78  F   UNL     1      -1.481   8.125  11.571  1.00  0.00    -0.203 F 
ATOM     79  F   UNL     1      -0.420  12.836  14.111  1.00  0.00    -0.200 F 
ATOM     80  C   UNL     1      -1.097  11.678  12.167  1.00  0.00     0.200 A 
ATOM     81  F   UNL     1      -1.778  10.473  10.254  1.00  0.00    -0.200 F 
ATOM     82  F   UNL     1      -1.271  12.837  11.518  1.00  0.00    -0.200 F 
ENDBRANCH  48  72
BRANCH  60  83
ATOM     83  C   UNL     1      -3.911   6.393  19.045  1.00  0.00     0.064 A 
ATOM     84  C   UNL     1      -5.237   6.420  18.588  1.00  0.00     0.173 A 
ATOM     85  C   UNL     1      -3.664   6.791  20.368  1.00  0.00     0.173 A 
ATOM     86  F   UNL     1      -5.523   6.065  17.326  1.00  0.00    -0.203 F 
ATOM     87  C   UNL     1      -6.269   6.856  19.414  1.00  0.00     0.198 A 
ATOM     88  C   UNL     1      -4.704   7.195  21.201  1.00  0.00     0.198 A 
ATOM     89  F   UNL     1      -2.415   6.778  20.857  1.00  0.00    -0.203 F 
ATOM     90  F   UNL     1      -7.521   6.924  18.939  1.00  0.00    -0.200 F 
ATOM     91  C   UNL     1      -6.003   7.235  20.721  1.00  0.00     0.200 A 
ATOM     92  F   UNL     1      -4.446   7.548  22.468  1.00  0.00    -0.200 F 
ATOM     93  F   UNL     1      -7.000   7.649  21.516  1.00  0.00    -0.200 F 
ENDBRANCH  60  83
ENDBRANCH  34  35
ENDBRANCH  26  29
ENDBRANCH  24  25
ENDBRANCH  23  24
ENDBRANCH  22  23
ENDBRANCH  21  22
ENDBRANCH   1  21
TORSDOF 17
