REMARK SMILES COCc1nc2ccccc2n1CC(=O)NCCCCCCNC(=O)c1ccc(-c2c3nc(c(-c4c(F)c(F)c(F)c(F)c4F)c4ccc([nH]4)c(-c4c(F)c(F)c(F)c(F)c4F)c4nc(c(-c5c(F)c(F)c(F)c(F)c5F)c5ccc2[nH]5)C=C4)C=C3)cc1
REMARK SMILES IDX 19 1 18 2 17 3 16 4 14 5 15 6 13 8 12 9 4 10 5 11 6 12 11 13
REMARK SMILES IDX 7 14 10 15 8 16 9 17 3 18 2 19 1 20 20 21 21 22 22 23 23 24
REMARK SMILES IDX 24 25 25 27 26 28 27 29 88 30 28 31 87 32 29 33 30 34 31 35
REMARK SMILES IDX 81 36 32 37 86 38 80 39 82 40 33 41 85 42 79 43 78 44 34 46
REMARK SMILES IDX 66 47 46 48 65 49 47 50 50 51 64 52 83 53 48 54 49 55 63 57
REMARK SMILES IDX 84 58 51 59 35 60 36 61 44 62 37 63 38 64 42 65 45 66 39 67
REMARK SMILES IDX 40 68 43 69 41 70 67 71 68 72 76 73 69 74 70 75 74 76 77 77
REMARK SMILES IDX 71 78 72 79 75 80 73 81 52 82 53 83 61 84 54 85 55 86 59 87
REMARK SMILES IDX 62 88 56 89 57 90 60 91 58 92
REMARK H PARENT 16 7 23 26 82 45 50 56
REMARK Flexibility Score: inf
ROOT
ATOM      1  C   UNL     1      -3.569   1.243  -0.607  1.00  0.00     0.002 C 
ENDROOT
BRANCH   1   2
ATOM      2  C   UNL     1      -2.480   1.320  -1.686  1.00  0.00     0.021 C 
BRANCH   2   3
ATOM      3  C   UNL     1      -1.446   2.425  -1.473  1.00  0.00     0.116 C 
BRANCH   3   4
ATOM      4  N   UNL     1      -0.536   2.137  -0.383  1.00  0.00    -0.355 N 
ATOM      5  C   UNL     1       0.748   1.690  -0.385  1.00  0.00     0.240 C 
ATOM      6  O   UNL     1       1.314   1.630   0.714  1.00  0.00    -0.273 OA
ATOM      7  H   UNL     1      -0.912   2.292   0.513  1.00  0.00     0.163 HD
BRANCH   5   8
ATOM      8  C   UNL     1       1.536   1.372  -1.640  1.00  0.00     0.223 C 
BRANCH   8   9
ATOM      9  N   UNL     1       0.890   0.518  -2.621  1.00  0.00    -0.316 N 
ATOM     10  C   UNL     1       0.708  -0.852  -2.564  1.00  0.00     0.136 A 
ATOM     11  N   UNL     1       0.018  -1.261  -3.617  1.00  0.00    -0.231 NA
ATOM     12  C   UNL     1      -0.116  -0.175  -4.437  1.00  0.00     0.089 A 
ATOM     13  C   UNL     1       0.482   0.944  -3.873  1.00  0.00     0.069 A 
ATOM     14  C   UNL     1      -0.718  -0.075  -5.700  1.00  0.00     0.030 A 
ATOM     15  C   UNL     1       0.549   2.177  -4.541  1.00  0.00     0.028 A 
ATOM     16  C   UNL     1      -0.684   1.153  -6.370  1.00  0.00     0.002 A 
ATOM     17  C   UNL     1      -0.054   2.259  -5.800  1.00  0.00     0.002 A 
BRANCH  10  18
ATOM     18  C   UNL     1       1.316  -1.771  -1.550  1.00  0.00     0.235 C 
BRANCH  18  19
ATOM     19  O   UNL     1       0.365  -2.073  -0.535  1.00  0.00    -0.377 OA
ATOM     20  C   UNL     1       0.570  -1.388   0.688  1.00  0.00     0.195 C 
ENDBRANCH  18  19
ENDBRANCH  10  18
ENDBRANCH   8   9
ENDBRANCH   5   8
ENDBRANCH   3   4
ENDBRANCH   2   3
ENDBRANCH   1   2
BRANCH   1  21
ATOM     21  C   UNL     1      -4.373   2.526  -0.377  1.00  0.00     0.002 C 
BRANCH  21  22
ATOM     22  C   UNL     1      -4.985   3.161  -1.629  1.00  0.00     0.021 C 
BRANCH  22  23
ATOM     23  C   UNL     1      -5.959   2.265  -2.398  1.00  0.00     0.116 C 
BRANCH  23  24
ATOM     24  N   UNL     1      -7.124   1.863  -1.637  1.00  0.00    -0.352 N 
ATOM     25  C   UNL     1      -8.329   2.444  -1.328  1.00  0.00     0.251 C 
ATOM     26  H   UNL     1      -7.030   0.963  -1.250  1.00  0.00     0.163 HD
ATOM     27  O   UNL     1      -9.145   1.734  -0.750  1.00  0.00    -0.269 OA
BRANCH  25  28
ATOM     28  C   UNL     1      -8.682   3.870  -1.592  1.00  0.00     0.039 A 
ATOM     29  C   UNL     1      -7.902   4.782  -2.298  1.00  0.00     0.014 A 
ATOM     30  C   UNL     1      -9.889   4.329  -1.027  1.00  0.00     0.014 A 
ATOM     31  C   UNL     1      -8.249   6.128  -2.340  1.00  0.00     0.010 A 
ATOM     32  C   UNL     1     -10.264   5.671  -1.101  1.00  0.00     0.010 A 
ATOM     33  C   UNL     1      -9.415   6.583  -1.718  1.00  0.00    -0.014 A 
BRANCH  33  34
ATOM     34  C   UNL     1      -9.695   8.015  -1.809  1.00  0.00     0.031 A 
ATOM     35  C   UNL     1      -9.783   8.581  -3.188  1.00  0.00     0.074 A 
ATOM     36  C   UNL     1      -9.920   8.819  -0.752  1.00  0.00     0.049 A 
ATOM     37  N   UNL     1      -9.061   9.513  -3.725  1.00  0.00    -0.248 NA
ATOM     38  C   UNL     1     -10.773   7.987  -4.098  1.00  0.00     0.031 C 
ATOM     39  C   UNL     1     -10.159   8.444   0.642  1.00  0.00     0.029 A 
ATOM     40  N   UNL     1     -10.056  10.179  -0.739  1.00  0.00    -0.354 N 
ATOM     41  C   UNL     1      -9.594   9.731  -4.994  1.00  0.00     0.074 A 
ATOM     42  C   UNL     1     -10.586   8.708  -5.204  1.00  0.00     0.031 C 
ATOM     43  C   UNL     1     -10.607   9.523   1.321  1.00  0.00     0.029 A 
ATOM     44  C   UNL     1     -10.547  10.686   0.452  1.00  0.00     0.049 A 
ATOM     45  H   UNL     1      -9.825  10.748  -1.509  1.00  0.00     0.167 HD
ATOM     46  C   UNL     1      -9.300  10.841  -5.725  1.00  0.00     0.037 A 
ATOM     47  C   UNL     1     -10.930  11.962   0.688  1.00  0.00     0.037 A 
ATOM     48  C   UNL     1      -8.083  11.468  -5.291  1.00  0.00     0.049 A 
ATOM     49  C   UNL     1     -10.271  12.834  -0.311  1.00  0.00     0.074 A 
ATOM     50  C   UNL     1      -6.753  11.103  -5.249  1.00  0.00     0.029 A 
ATOM     51  N   UNL     1      -8.176  12.610  -4.540  1.00  0.00    -0.354 N 
ATOM     52  N   UNL     1      -8.995  13.094  -0.344  1.00  0.00    -0.248 NA
ATOM     53  C   UNL     1     -11.014  13.205  -1.507  1.00  0.00     0.031 C 
ATOM     54  C   UNL     1      -6.210  11.778  -4.117  1.00  0.00     0.029 A 
ATOM     55  C   UNL     1      -7.243  12.518  -3.541  1.00  0.00     0.049 A 
ATOM     56  H   UNL     1      -8.798  13.358  -4.690  1.00  0.00     0.167 HD
ATOM     57  C   UNL     1      -8.707  13.273  -1.686  1.00  0.00     0.074 A 
ATOM     58  C   UNL     1      -9.998  13.478  -2.327  1.00  0.00     0.031 C 
ATOM     59  C   UNL     1      -7.477  12.961  -2.186  1.00  0.00     0.037 A 
BRANCH  46  60
ATOM     60  C   UNL     1     -10.278  11.539  -6.640  1.00  0.00     0.064 A 
ATOM     61  C   UNL     1      -9.830  12.575  -7.486  1.00  0.00     0.173 A 
ATOM     62  C   UNL     1     -11.679  11.434  -6.498  1.00  0.00     0.173 A 
ATOM     63  F   UNL     1      -8.518  12.788  -7.670  1.00  0.00    -0.203 F 
ATOM     64  C   UNL     1     -10.715  13.473  -8.090  1.00  0.00     0.198 A 
ATOM     65  C   UNL     1     -12.561  12.299  -7.145  1.00  0.00     0.198 A 
ATOM     66  F   UNL     1     -12.240  10.567  -5.647  1.00  0.00    -0.203 F 
ATOM     67  F   UNL     1     -10.236  14.512  -8.787  1.00  0.00    -0.200 F 
ATOM     68  C   UNL     1     -12.080  13.336  -7.917  1.00  0.00     0.200 A 
ATOM     69  F   UNL     1     -13.880  12.164  -6.948  1.00  0.00    -0.200 F 
ATOM     70  F   UNL     1     -12.926  14.229  -8.447  1.00  0.00    -0.200 F 
ENDBRANCH  46  60
BRANCH  47  71
ATOM     71  C   UNL     1     -12.032  12.444   1.551  1.00  0.00     0.064 A 
ATOM     72  C   UNL     1     -12.115  13.793   1.930  1.00  0.00     0.173 A 
ATOM     73  C   UNL     1     -13.175  11.655   1.782  1.00  0.00     0.173 A 
ATOM     74  F   UNL     1     -11.085  14.623   1.707  1.00  0.00    -0.203 F 
ATOM     75  C   UNL     1     -13.286  14.329   2.474  1.00  0.00     0.198 A 
ATOM     76  C   UNL     1     -14.339  12.188   2.336  1.00  0.00     0.198 A 
ATOM     77  F   UNL     1     -13.222  10.375   1.385  1.00  0.00    -0.203 F 
ATOM     78  F   UNL     1     -13.354  15.638   2.754  1.00  0.00    -0.200 F 
ATOM     79  C   UNL     1     -14.400  13.529   2.665  1.00  0.00     0.200 A 
ATOM     80  F   UNL     1     -15.421  11.410   2.484  1.00  0.00    -0.200 F 
ATOM     81  F   UNL     1     -15.544  14.057   3.123  1.00  0.00    -0.200 F 
ENDBRANCH  47  71
BRANCH  59  82
ATOM     82  C   UNL     1      -6.353  12.783  -1.209  1.00  0.00     0.064 A 
ATOM     83  C   UNL     1      -6.311  11.763  -0.244  1.00  0.00     0.173 A 
ATOM     84  C   UNL     1      -5.218  13.594  -1.345  1.00  0.00     0.173 A 
ATOM     85  F   UNL     1      -7.315  10.884  -0.126  1.00  0.00    -0.203 F 
ATOM     86  C   UNL     1      -5.199  11.596   0.580  1.00  0.00     0.198 A 
ATOM     87  C   UNL     1      -4.094  13.400  -0.547  1.00  0.00     0.198 A 
ATOM     88  F   UNL     1      -5.179  14.545  -2.292  1.00  0.00    -0.203 F 
ATOM     89  F   UNL     1      -5.186  10.623   1.502  1.00  0.00    -0.200 F 
ATOM     90  C   UNL     1      -4.089  12.410   0.422  1.00  0.00     0.200 A 
ATOM     91  F   UNL     1      -3.002  14.155  -0.738  1.00  0.00    -0.200 F 
ATOM     92  F   UNL     1      -3.002  12.220   1.183  1.00  0.00    -0.200 F 
ENDBRANCH  59  82
ENDBRANCH  33  34
ENDBRANCH  25  28
ENDBRANCH  23  24
ENDBRANCH  22  23
ENDBRANCH  21  22
ENDBRANCH   1  21
TORSDOF 16
