REMARK SMILES Cc1nsc(N(C)S(=O)(=O)c2cn[nH]c2C)c1C(=O)NCCCCCCNC(=O)c1ccc(-c2c3nc(c(-c4c(F)c(F)c(F)c(F)c4F)c4ccc([nH]4)c(-c4c(F)c(F)c(F)c(F)c4F)c4nc(c(-c5c(F)c(F)c(F)c(F)c5F)c5ccc2[nH]5)C=C4)C=C3)cc1
REMARK SMILES IDX 23 1 22 2 21 3 20 4 18 5 19 6 17 8 1 9 2 10 3 11 4 12 5 13
REMARK SMILES IDX 6 14 7 15 8 16 9 17 10 18 11 19 12 20 15 21 13 22 14 23
REMARK SMILES IDX 16 24 24 26 25 27 26 28 27 29 28 30 29 32 30 33 31 34 92 35
REMARK SMILES IDX 32 36 91 37 33 38 34 39 35 40 85 41 36 42 90 43 84 44 86 45
REMARK SMILES IDX 37 46 89 47 83 48 82 49 38 51 70 52 50 53 69 54 51 55 54 56
REMARK SMILES IDX 68 57 87 58 52 59 53 60 67 62 88 63 55 64 39 65 40 66 48 67
REMARK SMILES IDX 41 68 42 69 46 70 49 71 43 72 44 73 47 74 45 75 71 76 72 77
REMARK SMILES IDX 80 78 73 79 74 80 78 81 81 82 75 83 76 84 79 85 77 86 56 87
REMARK SMILES IDX 57 88 65 89 58 90 59 91 63 92 66 93 60 94 61 95 64 96 62 97
REMARK H PARENT 20 7 14 25 27 31 86 50 54 61
REMARK Flexibility Score: inf
ROOT
ATOM      1  C   UNL     1      -1.625   3.467  -0.637  1.00  0.00     0.002 C 
ENDROOT
BRANCH   1   2
ATOM      2  C   UNL     1      -0.675   2.405  -1.197  1.00  0.00     0.021 C 
BRANCH   2   3
ATOM      3  C   UNL     1      -0.146   1.336  -0.251  1.00  0.00     0.116 C 
BRANCH   3   4
ATOM      4  N   UNL     1      -1.182   0.621   0.433  1.00  0.00    -0.352 N 
ATOM      5  C   UNL     1      -1.531  -0.689   0.600  1.00  0.00     0.256 C 
ATOM      6  O   UNL     1      -2.683  -0.740   1.020  1.00  0.00    -0.269 OA
ATOM      7  H   UNL     1      -1.799   1.227   0.903  1.00  0.00     0.163 HD
BRANCH   5   8
ATOM      8  C   UNL     1      -0.687  -1.881   0.365  1.00  0.00     0.098 A 
ATOM      9  C   UNL     1       1.811  -0.816   0.523  1.00  0.00     0.069 C 
ATOM     10  C   UNL     1       0.799  -1.893   0.302  1.00  0.00     0.066 A 
ATOM     11  N   UNL     1       1.378  -3.052   0.021  1.00  0.00    -0.195 NA
ATOM     12  S   UNL     1       0.264  -4.211  -0.076  1.00  0.00    -0.017 S 
ATOM     13  C   UNL     1      -1.133  -3.241   0.291  1.00  0.00     0.138 A 
BRANCH  13  14
ATOM     14  N   UNL     1      -2.425  -3.970   0.413  1.00  0.00    -0.258 N 
ATOM     15  C   UNL     1      -2.476  -5.440   0.490  1.00  0.00     0.165 C 
BRANCH  14  16
ATOM     16  S   UNL     1      -3.869  -3.151   0.700  1.00  0.00     0.268 S 
ATOM     17  O   UNL     1      -3.832  -2.665   2.062  1.00  0.00    -0.201 OA
ATOM     18  O   UNL     1      -4.124  -2.343  -0.482  1.00  0.00    -0.201 OA
BRANCH  16  19
ATOM     19  C   UNL     1      -5.349  -4.041   0.785  1.00  0.00     0.128 A 
ATOM     20  C   UNL     1      -5.617  -5.414   0.834  1.00  0.00     0.157 A 
ATOM     21  C   UNL     1      -6.595  -3.444   0.941  1.00  0.00     0.053 A 
ATOM     22  N   UNL     1      -6.919  -5.682   0.985  1.00  0.00    -0.183 NA
ATOM     23  N   UNL     1      -7.489  -4.468   1.056  1.00  0.00    -0.281 N 
ATOM     24  C   UNL     1      -7.010  -2.021   1.017  1.00  0.00     0.067 C 
ATOM     25  H   UNL     1      -8.456  -4.331   1.178  1.00  0.00     0.190 HD
ENDBRANCH  16  19
ENDBRANCH  14  16
ENDBRANCH  13  14
ENDBRANCH   5   8
ENDBRANCH   3   4
ENDBRANCH   2   3
ENDBRANCH   1   2
BRANCH   1  26
ATOM     26  C   UNL     1      -1.291   4.143   0.700  1.00  0.00     0.002 C 
BRANCH  26  27
ATOM     27  C   UNL     1       0.122   4.695   0.919  1.00  0.00     0.021 C 
BRANCH  27  28
ATOM     28  C   UNL     1       0.607   5.666  -0.139  1.00  0.00     0.116 C 
BRANCH  28  29
ATOM     29  N   UNL     1      -0.163   6.910  -0.198  1.00  0.00    -0.352 N 
ATOM     30  C   UNL     1      -0.004   7.963  -1.084  1.00  0.00     0.251 C 
ATOM     31  H   UNL     1      -0.877   7.010   0.472  1.00  0.00     0.163 HD
ATOM     32  O   UNL     1      -0.419   9.086  -0.828  1.00  0.00    -0.269 OA
BRANCH  30  33
ATOM     33  C   UNL     1       0.671   7.694  -2.365  1.00  0.00     0.039 A 
ATOM     34  C   UNL     1       1.561   8.591  -2.959  1.00  0.00     0.014 A 
ATOM     35  C   UNL     1       0.414   6.459  -2.947  1.00  0.00     0.014 A 
ATOM     36  C   UNL     1       2.230   8.191  -4.114  1.00  0.00     0.010 A 
ATOM     37  C   UNL     1       1.256   5.977  -3.902  1.00  0.00     0.010 A 
ATOM     38  C   UNL     1       2.073   6.872  -4.569  1.00  0.00    -0.014 A 
BRANCH  38  39
ATOM     39  C   UNL     1       2.767   6.358  -5.734  1.00  0.00     0.031 A 
ATOM     40  C   UNL     1       4.240   6.476  -5.686  1.00  0.00     0.074 A 
ATOM     41  C   UNL     1       2.138   5.649  -6.696  1.00  0.00     0.049 A 
ATOM     42  N   UNL     1       4.974   7.274  -6.383  1.00  0.00    -0.248 NA
ATOM     43  C   UNL     1       4.975   5.727  -4.658  1.00  0.00     0.031 C 
ATOM     44  C   UNL     1       0.745   5.182  -6.757  1.00  0.00     0.029 A 
ATOM     45  N   UNL     1       2.671   5.124  -7.828  1.00  0.00    -0.354 N 
ATOM     46  C   UNL     1       6.288   7.007  -6.020  1.00  0.00     0.074 A 
ATOM     47  C   UNL     1       6.218   6.179  -4.843  1.00  0.00     0.031 C 
ATOM     48  C   UNL     1       0.608   4.277  -7.752  1.00  0.00     0.029 A 
ATOM     49  C   UNL     1       1.846   4.238  -8.505  1.00  0.00     0.049 A 
ATOM     50  H   UNL     1       3.574   5.355  -8.145  1.00  0.00     0.167 HD
ATOM     51  C   UNL     1       7.314   7.313  -6.863  1.00  0.00     0.037 A 
ATOM     52  C   UNL     1       2.173   3.523  -9.609  1.00  0.00     0.037 A 
ATOM     53  C   UNL     1       6.873   8.207  -7.907  1.00  0.00     0.049 A 
ATOM     54  C   UNL     1       3.312   4.227 -10.253  1.00  0.00     0.074 A 
ATOM     55  C   UNL     1       6.341   9.483  -7.926  1.00  0.00     0.029 A 
ATOM     56  N   UNL     1       6.567   7.665  -9.133  1.00  0.00    -0.354 N 
ATOM     57  N   UNL     1       3.207   5.409 -10.798  1.00  0.00    -0.248 NA
ATOM     58  C   UNL     1       4.657   3.844  -9.848  1.00  0.00     0.031 C 
ATOM     59  C   UNL     1       5.329   9.445  -8.932  1.00  0.00     0.029 A 
ATOM     60  C   UNL     1       5.353   8.178  -9.516  1.00  0.00     0.049 A 
ATOM     61  H   UNL     1       7.116   7.025  -9.642  1.00  0.00     0.167 HD
ATOM     62  C   UNL     1       4.360   6.079 -10.416  1.00  0.00     0.074 A 
ATOM     63  C   UNL     1       5.251   5.041  -9.899  1.00  0.00     0.031 C 
ATOM     64  C   UNL     1       4.377   7.439 -10.282  1.00  0.00     0.037 A 
BRANCH  51  65
ATOM     65  C   UNL     1       8.601   6.536  -6.972  1.00  0.00     0.064 A 
ATOM     66  C   UNL     1       9.630   7.037  -7.795  1.00  0.00     0.173 A 
ATOM     67  C   UNL     1       8.751   5.196  -6.559  1.00  0.00     0.173 A 
ATOM     68  F   UNL     1       9.588   8.299  -8.249  1.00  0.00    -0.203 F 
ATOM     69  C   UNL     1      10.672   6.227  -8.250  1.00  0.00     0.198 A 
ATOM     70  C   UNL     1       9.822   4.405  -6.971  1.00  0.00     0.198 A 
ATOM     71  F   UNL     1       7.819   4.559  -5.840  1.00  0.00    -0.203 F 
ATOM     72  F   UNL     1      11.550   6.709  -9.140  1.00  0.00    -0.200 F 
ATOM     73  C   UNL     1      10.761   4.908  -7.846  1.00  0.00     0.200 A 
ATOM     74  F   UNL     1       9.883   3.124  -6.580  1.00  0.00    -0.200 F 
ATOM     75  F   UNL     1      11.718   4.109  -8.335  1.00  0.00    -0.200 F 
ENDBRANCH  51  65
BRANCH  52  76
ATOM     76  C   UNL     1       1.776   2.137  -9.947  1.00  0.00     0.064 A 
ATOM     77  C   UNL     1       1.939   1.627 -11.245  1.00  0.00     0.173 A 
ATOM     78  C   UNL     1       1.490   1.197  -8.937  1.00  0.00     0.173 A 
ATOM     79  F   UNL     1       2.257   2.449 -12.256  1.00  0.00    -0.203 F 
ATOM     80  C   UNL     1       1.848   0.256 -11.511  1.00  0.00     0.198 A 
ATOM     81  C   UNL     1       1.397  -0.170  -9.204  1.00  0.00     0.198 A 
ATOM     82  F   UNL     1       1.393   1.576  -7.654  1.00  0.00    -0.203 F 
ATOM     83  F   UNL     1       2.070  -0.201 -12.752  1.00  0.00    -0.200 F 
ATOM     84  C   UNL     1       1.589  -0.642 -10.489  1.00  0.00     0.200 A 
ATOM     85  F   UNL     1       1.186  -1.030  -8.198  1.00  0.00    -0.200 F 
ATOM     86  F   UNL     1       1.566  -1.960 -10.731  1.00  0.00    -0.200 F 
ENDBRANCH  52  76
BRANCH  64  87
ATOM     87  C   UNL     1       3.174   8.203 -10.767  1.00  0.00     0.064 A 
ATOM     88  C   UNL     1       1.891   8.089 -10.202  1.00  0.00     0.173 A 
ATOM     89  C   UNL     1       3.357   9.194 -11.739  1.00  0.00     0.173 A 
ATOM     90  F   UNL     1       1.654   7.240  -9.197  1.00  0.00    -0.203 F 
ATOM     91  C   UNL     1       0.835   8.896 -10.621  1.00  0.00     0.198 A 
ATOM     92  C   UNL     1       2.309  10.023 -12.133  1.00  0.00     0.198 A 
ATOM     93  F   UNL     1       4.572   9.392 -12.273  1.00  0.00    -0.203 F 
ATOM     94  F   UNL     1      -0.380   8.757 -10.068  1.00  0.00    -0.200 F 
ATOM     95  C   UNL     1       1.047   9.868 -11.583  1.00  0.00     0.200 A 
ATOM     96  F   UNL     1       2.532  10.995 -13.029  1.00  0.00    -0.200 F 
ATOM     97  F   UNL     1       0.043  10.672 -11.960  1.00  0.00    -0.200 F 
ENDBRANCH  64  87
ENDBRANCH  38  39
ENDBRANCH  30  33
ENDBRANCH  28  29
ENDBRANCH  27  28
ENDBRANCH  26  27
ENDBRANCH   1  26
TORSDOF 16
