REMARK SMILES Cc1csc(NC(=O)[C@@H]2CC=CC[C@H]2C(=O)NCCCCCCNC(=O)c2ccc(-c3c4nc(c(-c5c(F)c(F)c(F)c(F)c5F)c5ccc([nH]5)c(-c5c(F)c(F)c(F)c(F)c5F)c5nc(c(-c6c(F)c(F)c(F)c(F)c6F)c6ccc3[nH]6)C=C5)C=C4)cc2)n1
REMARK SMILES IDX 20 1 19 2 18 3 17 4 15 5 16 6 14 8 9 9 10 10 11 11 13 12
REMARK SMILES IDX 12 13 7 14 6 15 8 17 5 18 1 19 2 20 3 21 90 22 4 23 21 24
REMARK SMILES IDX 22 25 23 26 24 27 25 28 26 30 27 31 28 32 89 33 29 34 88 35
REMARK SMILES IDX 30 36 31 37 32 38 82 39 33 40 87 41 81 42 83 43 34 44 86 45
REMARK SMILES IDX 80 46 79 47 35 49 67 50 47 51 66 52 48 53 51 54 65 55 84 56
REMARK SMILES IDX 49 57 50 58 64 60 85 61 52 62 36 63 37 64 45 65 38 66 39 67
REMARK SMILES IDX 43 68 46 69 40 70 41 71 44 72 42 73 68 74 69 75 77 76 70 77
REMARK SMILES IDX 71 78 75 79 78 80 72 81 73 82 76 83 74 84 53 85 54 86 62 87
REMARK SMILES IDX 55 88 56 89 60 90 63 91 57 92 58 93 61 94 59 95
REMARK H PARENT 17 7 6 16 24 29 83 48 51 59
REMARK Flexibility Score: inf
ROOT
ATOM      1  C   UNL     1       3.284   0.927  -0.312  1.00  0.00     0.002 C 
ENDROOT
BRANCH   1   2
ATOM      2  C   UNL     1       2.474   2.224  -0.198  1.00  0.00     0.021 C 
BRANCH   2   3
ATOM      3  C   UNL     1       1.622   2.505  -1.433  1.00  0.00     0.116 C 
BRANCH   3   4
ATOM      4  N   UNL     1       0.526   1.559  -1.514  1.00  0.00    -0.356 N 
ATOM      5  C   UNL     1      -0.820   1.751  -1.484  1.00  0.00     0.224 C 
ATOM      6  O   UNL     1      -1.542   0.765  -1.648  1.00  0.00    -0.275 OA
ATOM      7  H   UNL     1       0.804   0.619  -1.606  1.00  0.00     0.163 HD
BRANCH   5   8
ATOM      8  C   UNL     1      -1.417   3.153  -1.409  1.00  0.00     0.095 C 
ATOM      9  C   UNL     1      -1.037   3.970  -0.131  1.00  0.00     0.095 C 
ATOM     10  C   UNL     1      -1.278   5.459  -0.372  1.00  0.00     0.041 C 
ATOM     11  C   UNL     1      -0.966   6.016  -1.719  1.00  0.00    -0.030 C 
ATOM     12  C   UNL     1      -1.131   3.795  -2.791  1.00  0.00     0.041 C 
ATOM     13  C   UNL     1      -0.903   5.264  -2.815  1.00  0.00    -0.030 C 
BRANCH   9  14
ATOM     14  C   UNL     1      -1.690   3.303   1.115  1.00  0.00     0.230 C 
ATOM     15  N   UNL     1      -2.208   3.877   2.227  1.00  0.00    -0.302 N 
ATOM     16  H   UNL     1      -2.511   3.233   2.907  1.00  0.00     0.172 HD
ATOM     17  O   UNL     1      -1.690   2.061   1.173  1.00  0.00    -0.274 OA
BRANCH  15  18
ATOM     18  C   UNL     1      -2.388   5.176   2.576  1.00  0.00     0.189 A 
ATOM     19  C   UNL     1      -2.464   8.611   1.663  1.00  0.00     0.068 C 
ATOM     20  C   UNL     1      -2.627   7.362   2.447  1.00  0.00     0.051 A 
ATOM     21  C   UNL     1      -3.418   7.125   3.553  1.00  0.00     0.092 A 
ATOM     22  N   UNL     1      -1.958   6.252   1.991  1.00  0.00    -0.225 NA
ATOM     23  S   UNL     1      -3.378   5.444   3.942  1.00  0.00    -0.105 S 
ENDBRANCH  15  18
ENDBRANCH   9  14
ENDBRANCH   5   8
ENDBRANCH   3   4
ENDBRANCH   2   3
ENDBRANCH   1   2
BRANCH   1  24
ATOM     24  C   UNL     1       4.227   0.870  -1.520  1.00  0.00     0.002 C 
BRANCH  24  25
ATOM     25  C   UNL     1       5.203   2.044  -1.622  1.00  0.00     0.021 C 
BRANCH  25  26
ATOM     26  C   UNL     1       6.104   2.210  -0.405  1.00  0.00     0.116 C 
BRANCH  26  27
ATOM     27  N   UNL     1       6.958   1.050  -0.204  1.00  0.00    -0.352 N 
ATOM     28  C   UNL     1       8.323   0.989  -0.081  1.00  0.00     0.251 C 
ATOM     29  H   UNL     1       6.490   0.186  -0.148  1.00  0.00     0.163 HD
ATOM     30  O   UNL     1       8.905  -0.087  -0.133  1.00  0.00    -0.269 OA
BRANCH  28  31
ATOM     31  C   UNL     1       9.092   2.237   0.099  1.00  0.00     0.039 A 
ATOM     32  C   UNL     1      10.263   2.421  -0.638  1.00  0.00     0.014 A 
ATOM     33  C   UNL     1       8.659   3.218   0.996  1.00  0.00     0.014 A 
ATOM     34  C   UNL     1      10.975   3.614  -0.513  1.00  0.00     0.010 A 
ATOM     35  C   UNL     1       9.325   4.436   1.062  1.00  0.00     0.010 A 
ATOM     36  C   UNL     1      10.495   4.643   0.315  1.00  0.00    -0.014 A 
BRANCH  36  37
ATOM     37  C   UNL     1      11.209   5.939   0.420  1.00  0.00     0.031 A 
ATOM     38  C   UNL     1      11.808   6.366   1.730  1.00  0.00     0.074 A 
ATOM     39  C   UNL     1      11.264   6.756  -0.648  1.00  0.00     0.049 A 
ATOM     40  N   UNL     1      12.418   7.483   2.038  1.00  0.00    -0.248 NA
ATOM     41  C   UNL     1      11.677   5.424   2.853  1.00  0.00     0.031 C 
ATOM     42  C   UNL     1      10.681   6.472  -1.960  1.00  0.00     0.029 A 
ATOM     43  N   UNL     1      11.831   7.997  -0.797  1.00  0.00    -0.354 N 
ATOM     44  C   UNL     1      12.731   7.382   3.387  1.00  0.00     0.074 A 
ATOM     45  C   UNL     1      12.190   6.124   3.854  1.00  0.00     0.031 C 
ATOM     46  C   UNL     1      10.944   7.495  -2.788  1.00  0.00     0.029 A 
ATOM     47  C   UNL     1      11.676   8.524  -2.056  1.00  0.00     0.049 A 
ATOM     48  H   UNL     1      12.303   8.465  -0.071  1.00  0.00     0.167 HD
ATOM     49  C   UNL     1      13.427   8.249   4.160  1.00  0.00     0.037 A 
ATOM     50  C   UNL     1      12.076   9.707  -2.559  1.00  0.00     0.037 A 
ATOM     51  C   UNL     1      13.977   9.491   3.684  1.00  0.00     0.049 A 
ATOM     52  C   UNL     1      12.832  10.661  -1.676  1.00  0.00     0.074 A 
ATOM     53  C   UNL     1      14.750  10.412   4.370  1.00  0.00     0.029 A 
ATOM     54  N   UNL     1      13.805   9.991   2.401  1.00  0.00    -0.354 N 
ATOM     55  N   UNL     1      13.186  10.525  -0.421  1.00  0.00    -0.248 NA
ATOM     56  C   UNL     1      13.250  11.932  -2.283  1.00  0.00     0.031 C 
ATOM     57  C   UNL     1      14.997  11.495   3.519  1.00  0.00     0.029 A 
ATOM     58  C   UNL     1      14.432  11.221   2.283  1.00  0.00     0.049 A 
ATOM     59  H   UNL     1      13.310   9.537   1.680  1.00  0.00     0.167 HD
ATOM     60  C   UNL     1      13.892  11.676  -0.096  1.00  0.00     0.074 A 
ATOM     61  C   UNL     1      13.928  12.493  -1.292  1.00  0.00     0.031 C 
ATOM     62  C   UNL     1      14.461  12.023   1.085  1.00  0.00     0.037 A 
BRANCH  49  63
ATOM     63  C   UNL     1      13.625   7.883   5.604  1.00  0.00     0.064 A 
ATOM     64  C   UNL     1      14.433   6.800   5.989  1.00  0.00     0.173 A 
ATOM     65  C   UNL     1      13.012   8.633   6.619  1.00  0.00     0.173 A 
ATOM     66  F   UNL     1      15.034   6.043   5.059  1.00  0.00    -0.203 F 
ATOM     67  C   UNL     1      14.585   6.459   7.330  1.00  0.00     0.198 A 
ATOM     68  C   UNL     1      13.196   8.310   7.962  1.00  0.00     0.198 A 
ATOM     69  F   UNL     1      12.235   9.682   6.311  1.00  0.00    -0.203 F 
ATOM     70  F   UNL     1      15.309   5.383   7.667  1.00  0.00    -0.200 F 
ATOM     71  C   UNL     1      13.972   7.217   8.315  1.00  0.00     0.200 A 
ATOM     72  F   UNL     1      12.614   9.053   8.913  1.00  0.00    -0.200 F 
ATOM     73  F   UNL     1      14.121   6.889   9.606  1.00  0.00    -0.200 F 
ENDBRANCH  49  63
BRANCH  50  74
ATOM     74  C   UNL     1      11.794  10.038  -3.981  1.00  0.00     0.064 A 
ATOM     75  C   UNL     1      12.831  10.104  -4.922  1.00  0.00     0.173 A 
ATOM     76  C   UNL     1      10.488  10.284  -4.429  1.00  0.00     0.173 A 
ATOM     77  F   UNL     1      14.098   9.895  -4.537  1.00  0.00    -0.203 F 
ATOM     78  C   UNL     1      12.574  10.421  -6.254  1.00  0.00     0.198 A 
ATOM     79  C   UNL     1      10.230  10.572  -5.768  1.00  0.00     0.198 A 
ATOM     80  F   UNL     1       9.460  10.228  -3.570  1.00  0.00    -0.203 F 
ATOM     81  F   UNL     1      13.589  10.518  -7.124  1.00  0.00    -0.200 F 
ATOM     82  C   UNL     1      11.274  10.648  -6.678  1.00  0.00     0.200 A 
ATOM     83  F   UNL     1       8.970  10.775  -6.176  1.00  0.00    -0.200 F 
ATOM     84  F   UNL     1      11.027  10.944  -7.961  1.00  0.00    -0.200 F 
ENDBRANCH  50  74
BRANCH  62  85
ATOM     85  C   UNL     1      15.201  13.329   1.136  1.00  0.00     0.064 A 
ATOM     86  C   UNL     1      14.532  14.560   1.090  1.00  0.00     0.173 A 
ATOM     87  C   UNL     1      16.598  13.346   1.272  1.00  0.00     0.173 A 
ATOM     88  F   UNL     1      13.199  14.599   0.945  1.00  0.00    -0.203 F 
ATOM     89  C   UNL     1      15.236  15.760   1.151  1.00  0.00     0.198 A 
ATOM     90  C   UNL     1      17.295  14.547   1.367  1.00  0.00     0.198 A 
ATOM     91  F   UNL     1      17.287  12.196   1.327  1.00  0.00    -0.203 F 
ATOM     92  F   UNL     1      14.580  16.925   1.054  1.00  0.00    -0.200 F 
ATOM     93  C   UNL     1      16.615  15.753   1.298  1.00  0.00     0.200 A 
ATOM     94  F   UNL     1      18.626  14.537   1.525  1.00  0.00    -0.200 F 
ATOM     95  F   UNL     1      17.289  16.909   1.367  1.00  0.00    -0.200 F 
ENDBRANCH  62  85
ENDBRANCH  36  37
ENDBRANCH  28  31
ENDBRANCH  26  27
ENDBRANCH  25  26
ENDBRANCH  24  25
ENDBRANCH   1  24
TORSDOF 15
