REMARK SMILES COc1ccc(OCc2cccs2)c(C(=O)NCCCCCCNC(=O)c2ccc(-c3c4nc(c(-c5c(F)c(F)c(F)c(F)c5F)c5ccc([nH]5)c(-c5c(F)c(F)c(F)c(F)c5F)c5nc(c(-c6c(F)c(F)c(F)c(F)c6F)c6ccc3[nH]6)C=C5)C=C4)cc2)c1
REMARK SMILES IDX 20 1 19 2 18 3 17 4 15 5 16 6 14 8 3 9 4 10 90 11 5 12 6 13
REMARK SMILES IDX 2 14 1 15 7 16 8 17 9 18 10 19 13 20 11 21 12 22 21 23 22 24
REMARK SMILES IDX 23 25 24 26 25 27 26 29 27 30 28 31 89 32 29 33 88 34 30 35
REMARK SMILES IDX 31 36 32 37 82 38 33 39 87 40 81 41 83 42 34 43 86 44 80 45
REMARK SMILES IDX 79 46 35 48 67 49 47 50 66 51 48 52 51 53 65 54 84 55 49 56
REMARK SMILES IDX 50 57 64 59 85 60 52 61 36 62 37 63 45 64 38 65 39 66 43 67
REMARK SMILES IDX 46 68 40 69 41 70 44 71 42 72 68 73 69 74 77 75 70 76 71 77
REMARK SMILES IDX 75 78 78 79 72 80 73 81 76 82 74 83 53 84 54 85 62 86 55 87
REMARK SMILES IDX 56 88 60 89 63 90 57 91 58 92 61 93 59 94
REMARK H PARENT 17 7 24 28 83 47 51 58
REMARK Flexibility Score: inf
ROOT
ATOM      1  C   UNL     1       7.366  -1.036   1.011  1.00  0.00     0.002 C 
ENDROOT
BRANCH   1   2
ATOM      2  C   UNL     1       5.921  -0.898   1.483  1.00  0.00     0.021 C 
BRANCH   2   3
ATOM      3  C   UNL     1       4.880  -1.486   0.533  1.00  0.00     0.116 C 
BRANCH   3   4
ATOM      4  N   UNL     1       4.818  -2.928   0.646  1.00  0.00    -0.352 N 
ATOM      5  C   UNL     1       3.929  -3.740   1.308  1.00  0.00     0.255 C 
ATOM      6  O   UNL     1       4.422  -4.610   2.026  1.00  0.00    -0.269 OA
ATOM      7  H   UNL     1       5.532  -3.408   0.167  1.00  0.00     0.163 HD
BRANCH   5   8
ATOM      8  C   UNL     1       2.443  -3.663   1.162  1.00  0.00     0.085 A 
ATOM      9  C   UNL     1       0.394  -2.305   1.086  1.00  0.00     0.119 A 
ATOM     10  C   UNL     1      -0.361  -3.420   1.399  1.00  0.00     0.050 A 
ATOM     11  C   UNL     1       1.779  -2.438   0.986  1.00  0.00     0.064 A 
ATOM     12  C   UNL     1       0.256  -4.666   1.454  1.00  0.00     0.051 A 
ATOM     13  C   UNL     1       1.642  -4.813   1.254  1.00  0.00     0.132 A 
BRANCH   9  14
ATOM     14  O   UNL     1      -0.297  -1.134   0.936  1.00  0.00    -0.497 OA
ATOM     15  C   UNL     1       0.378  -0.073   0.262  1.00  0.00     0.278 C 
ENDBRANCH   9  14
BRANCH  13  16
ATOM     16  O   UNL     1       1.956  -6.128   1.082  1.00  0.00    -0.487 OA
BRANCH  16  17
ATOM     17  C   UNL     1       3.126  -6.638   0.433  1.00  0.00     0.276 C 
BRANCH  17  18
ATOM     18  C   UNL     1       3.335  -6.201  -0.999  1.00  0.00     0.042 A 
ATOM     19  C   UNL     1       2.916  -5.102  -1.728  1.00  0.00     0.019 A 
ATOM     20  S   UNL     1       4.353  -7.204  -1.976  1.00  0.00    -0.145 S 
ATOM     21  C   UNL     1       3.502  -5.032  -3.027  1.00  0.00     0.012 A 
ATOM     22  C   UNL     1       4.287  -6.126  -3.296  1.00  0.00     0.065 A 
ENDBRANCH  17  18
ENDBRANCH  16  17
ENDBRANCH  13  16
ENDBRANCH   5   8
ENDBRANCH   3   4
ENDBRANCH   2   3
ENDBRANCH   1   2
BRANCH   1  23
ATOM     23  C   UNL     1       7.650  -0.498  -0.395  1.00  0.00     0.002 C 
BRANCH  23  24
ATOM     24  C   UNL     1       7.114   0.905  -0.690  1.00  0.00     0.021 C 
BRANCH  24  25
ATOM     25  C   UNL     1       7.534   1.980   0.304  1.00  0.00     0.116 C 
BRANCH  25  26
ATOM     26  N   UNL     1       8.975   2.139   0.369  1.00  0.00    -0.352 N 
ATOM     27  C   UNL     1       9.724   3.283   0.265  1.00  0.00     0.251 C 
ATOM     28  H   UNL     1       9.486   1.309   0.507  1.00  0.00     0.163 HD
ATOM     29  O   UNL     1      10.942   3.221   0.166  1.00  0.00    -0.269 OA
BRANCH  27  30
ATOM     30  C   UNL     1       9.047   4.597   0.247  1.00  0.00     0.039 A 
ATOM     31  C   UNL     1       9.435   5.538  -0.708  1.00  0.00     0.014 A 
ATOM     32  C   UNL     1       8.038   4.898   1.168  1.00  0.00     0.014 A 
ATOM     33  C   UNL     1       8.778   6.767  -0.771  1.00  0.00     0.010 A 
ATOM     34  C   UNL     1       7.334   6.093   1.055  1.00  0.00     0.010 A 
ATOM     35  C   UNL     1       7.704   7.043   0.091  1.00  0.00    -0.014 A 
BRANCH  35  36
ATOM     36  C   UNL     1       6.963   8.325   0.004  1.00  0.00     0.031 A 
ATOM     37  C   UNL     1       6.994   9.293   1.153  1.00  0.00     0.074 A 
ATOM     38  C   UNL     1       6.217   8.590  -1.085  1.00  0.00     0.049 A 
ATOM     39  N   UNL     1       6.371  10.436   1.291  1.00  0.00    -0.248 NA
ATOM     40  C   UNL     1       7.810   8.911   2.316  1.00  0.00     0.031 C 
ATOM     41  C   UNL     1       6.069   7.706  -2.241  1.00  0.00     0.029 A 
ATOM     42  N   UNL     1       5.433   9.674  -1.391  1.00  0.00    -0.354 N 
ATOM     43  C   UNL     1       6.708  10.899   2.555  1.00  0.00     0.074 A 
ATOM     44  C   UNL     1       7.542   9.888   3.168  1.00  0.00     0.031 C 
ATOM     45  C   UNL     1       5.264   8.292  -3.141  1.00  0.00     0.029 A 
ATOM     46  C   UNL     1       4.809   9.574  -2.610  1.00  0.00     0.049 A 
ATOM     47  H   UNL     1       5.329  10.450  -0.794  1.00  0.00     0.167 HD
ATOM     48  C   UNL     1       6.372  12.073   3.143  1.00  0.00     0.037 A 
ATOM     49  C   UNL     1       3.960  10.418  -3.226  1.00  0.00     0.037 A 
ATOM     50  C   UNL     1       5.560  13.084   2.518  1.00  0.00     0.049 A 
ATOM     51  C   UNL     1       3.599  11.714  -2.553  1.00  0.00     0.074 A 
ATOM     52  C   UNL     1       5.215  14.334   3.000  1.00  0.00     0.029 A 
ATOM     53  N   UNL     1       4.957  12.954   1.274  1.00  0.00    -0.354 N 
ATOM     54  N   UNL     1       3.984  12.177  -1.388  1.00  0.00    -0.248 NA
ATOM     55  C   UNL     1       2.693  12.610  -3.285  1.00  0.00     0.031 C 
ATOM     56  C   UNL     1       4.361  14.939   2.072  1.00  0.00     0.029 A 
ATOM     57  C   UNL     1       4.220  14.092   0.985  1.00  0.00     0.049 A 
ATOM     58  H   UNL     1       5.042  12.171   0.685  1.00  0.00     0.167 HD
ATOM     59  C   UNL     1       3.391  13.425  -1.258  1.00  0.00     0.074 A 
ATOM     60  C   UNL     1       2.631  13.654  -2.470  1.00  0.00     0.031 C 
ATOM     61  C   UNL     1       3.470  14.304  -0.228  1.00  0.00     0.037 A 
BRANCH  48  62
ATOM     62  C   UNL     1       6.881  12.321   4.535  1.00  0.00     0.064 A 
ATOM     63  C   UNL     1       8.245  12.518   4.800  1.00  0.00     0.173 A 
ATOM     64  C   UNL     1       5.990  12.379   5.618  1.00  0.00     0.173 A 
ATOM     65  F   UNL     1       9.142  12.463   3.803  1.00  0.00    -0.203 F 
ATOM     66  C   UNL     1       8.702  12.725   6.099  1.00  0.00     0.198 A 
ATOM     67  C   UNL     1       6.446  12.620   6.911  1.00  0.00     0.198 A 
ATOM     68  F   UNL     1       4.674  12.204   5.422  1.00  0.00    -0.203 F 
ATOM     69  F   UNL     1      10.016  12.848   6.334  1.00  0.00    -0.200 F 
ATOM     70  C   UNL     1       7.802  12.781   7.153  1.00  0.00     0.200 A 
ATOM     71  F   UNL     1       5.574  12.688   7.926  1.00  0.00    -0.200 F 
ATOM     72  F   UNL     1       8.243  12.982   8.402  1.00  0.00    -0.200 F 
ENDBRANCH  48  62
BRANCH  49  73
ATOM     73  C   UNL     1       3.420  10.071  -4.566  1.00  0.00     0.064 A 
ATOM     74  C   UNL     1       3.825  10.772  -5.710  1.00  0.00     0.173 A 
ATOM     75  C   UNL     1       2.503   9.023  -4.734  1.00  0.00     0.173 A 
ATOM     76  F   UNL     1       4.686  11.795  -5.598  1.00  0.00    -0.203 F 
ATOM     77  C   UNL     1       3.324  10.448  -6.969  1.00  0.00     0.198 A 
ATOM     78  C   UNL     1       2.024   8.681  -5.997  1.00  0.00     0.198 A 
ATOM     79  F   UNL     1       2.090   8.316  -3.672  1.00  0.00    -0.203 F 
ATOM     80  F   UNL     1       3.700  11.159  -8.040  1.00  0.00    -0.200 F 
ATOM     81  C   UNL     1       2.430   9.398  -7.112  1.00  0.00     0.200 A 
ATOM     82  F   UNL     1       1.174   7.654  -6.133  1.00  0.00    -0.200 F 
ATOM     83  F   UNL     1       1.956   9.079  -8.324  1.00  0.00    -0.200 F 
ENDBRANCH  49  73
BRANCH  61  84
ATOM     84  C   UNL     1       2.744  15.610  -0.379  1.00  0.00     0.064 A 
ATOM     85  C   UNL     1       1.344  15.685  -0.331  1.00  0.00     0.173 A 
ATOM     86  C   UNL     1       3.461  16.806  -0.530  1.00  0.00     0.173 A 
ATOM     87  F   UNL     1       0.612  14.568  -0.204  1.00  0.00    -0.203 F 
ATOM     88  C   UNL     1       0.689  16.907  -0.455  1.00  0.00     0.198 A 
ATOM     89  C   UNL     1       2.804  18.030  -0.621  1.00  0.00     0.198 A 
ATOM     90  F   UNL     1       4.802  16.790  -0.575  1.00  0.00    -0.203 F 
ATOM     91  F   UNL     1      -0.651  16.950  -0.455  1.00  0.00    -0.200 F 
ATOM     92  C   UNL     1       1.419  18.079  -0.591  1.00  0.00     0.200 A 
ATOM     93  F   UNL     1       3.512  19.162  -0.737  1.00  0.00    -0.200 F 
ATOM     94  F   UNL     1       0.786  19.255  -0.700  1.00  0.00    -0.200 F 
ENDBRANCH  61  84
ENDBRANCH  35  36
ENDBRANCH  27  30
ENDBRANCH  25  26
ENDBRANCH  24  25
ENDBRANCH  23  24
ENDBRANCH   1  23
TORSDOF 17
