REMARK SMILES CSc1nc2nnc(C(=O)NCCCCCCNC(=O)c3ccc(-c4c5nc(c(-c6c(F)c(F)c(F)c(F)c6F)c6ccc([nH]6)c(-c6c(F)c(F)c(F)c(F)c6F)c6nc(c(-c7c(F)c(F)c(F)c(F)c7F)c7ccc4[nH]7)C=C6)C=C5)cc3)c(O)n2n1
REMARK SMILES IDX 15 1 14 2 13 3 12 4 11 5 9 6 10 7 8 9 3 10 4 11 87 12 5 13
REMARK SMILES IDX 86 14 6 15 84 16 7 17 2 18 1 19 85 20 16 22 17 23 18 24
REMARK SMILES IDX 19 25 20 27 21 28 22 29 83 30 23 31 82 32 24 33 25 34 26 35
REMARK SMILES IDX 76 36 27 37 81 38 75 39 77 40 28 41 80 42 74 43 73 44 29 46
REMARK SMILES IDX 61 47 41 48 60 49 42 50 45 51 59 52 78 53 43 54 44 55 58 57
REMARK SMILES IDX 79 58 46 59 30 60 31 61 39 62 32 63 33 64 37 65 40 66 34 67
REMARK SMILES IDX 35 68 38 69 36 70 62 71 63 72 71 73 64 74 65 75 69 76 72 77
REMARK SMILES IDX 66 78 67 79 70 80 68 81 47 82 48 83 56 84 49 85 50 86 54 87
REMARK SMILES IDX 57 88 51 89 52 90 55 91 53 92
REMARK H PARENT 11 8 85 21 18 26 77 45 45 56
REMARK Flexibility Score: inf
ROOT
ATOM      1  C   UNL     1       3.386  -4.095  11.974  1.00  0.00     0.002 C 
ENDROOT
BRANCH   1   2
ATOM      2  C   UNL     1       1.947  -3.793  11.528  1.00  0.00     0.002 C 
BRANCH   2   3
ATOM      3  C   UNL     1       1.763  -2.530  10.677  1.00  0.00     0.021 C 
BRANCH   3   4
ATOM      4  C   UNL     1       2.632  -2.480   9.421  1.00  0.00     0.116 C 
BRANCH   4   5
ATOM      5  N   UNL     1       2.236  -3.502   8.466  1.00  0.00    -0.350 N 
ATOM      6  C   UNL     1       1.787  -3.462   7.185  1.00  0.00     0.277 C 
ATOM      7  O   UNL     1       1.479  -4.542   6.667  1.00  0.00    -0.267 OA
ATOM      8  H   UNL     1       2.309  -4.417   8.824  1.00  0.00     0.163 HD
BRANCH   6   9
ATOM      9  C   UNL     1       1.669  -2.195   6.384  1.00  0.00     0.212 A 
ATOM     10  C   UNL     1       0.963   0.475   3.016  1.00  0.00     0.210 A 
ATOM     11  N   UNL     1       1.407   1.098   4.143  1.00  0.00    -0.182 NA
ATOM     12  N   UNL     1       0.806  -0.844   3.111  1.00  0.00    -0.134 NA
ATOM     13  C   UNL     1       1.545   0.108   4.997  1.00  0.00     0.275 A 
ATOM     14  N   UNL     1       1.174  -1.085   4.392  1.00  0.00    -0.159 N 
ATOM     15  N   UNL     1       1.970   0.102   6.291  1.00  0.00    -0.108 NA
ATOM     16  C   UNL     1       1.229  -2.285   5.106  1.00  0.00     0.249 A 
ATOM     17  N   UNL     1       2.031  -0.980   6.934  1.00  0.00    -0.136 NA
BRANCH  10  18
ATOM     18  S   UNL     1       0.588   1.360   1.563  1.00  0.00    -0.088 SA
ATOM     19  C   UNL     1       0.939   0.111   0.308  1.00  0.00     0.094 C 
ENDBRANCH  10  18
BRANCH  16  20
ATOM     20  O   UNL     1       0.848  -3.456   4.463  1.00  0.00    -0.491 OA
ATOM     21  H   UNL     1       0.877  -4.272   4.922  1.00  0.00     0.295 HD
ENDBRANCH  16  20
ENDBRANCH   6   9
ENDBRANCH   4   5
ENDBRANCH   3   4
ENDBRANCH   2   3
ENDBRANCH   1   2
BRANCH   1  22
ATOM     22  C   UNL     1       4.134  -2.949  12.668  1.00  0.00     0.021 C 
BRANCH  22  23
ATOM     23  C   UNL     1       3.483  -2.493  13.964  1.00  0.00     0.116 C 
BRANCH  23  24
ATOM     24  N   UNL     1       3.586  -3.491  15.023  1.00  0.00    -0.352 N 
ATOM     25  C   UNL     1       3.250  -3.347  16.349  1.00  0.00     0.251 C 
ATOM     26  H   UNL     1       3.937  -4.372  14.758  1.00  0.00     0.163 HD
ATOM     27  O   UNL     1       3.705  -4.112  17.202  1.00  0.00    -0.269 OA
BRANCH  25  28
ATOM     28  C   UNL     1       2.331  -2.268  16.744  1.00  0.00     0.039 A 
ATOM     29  C   UNL     1       2.534  -1.549  17.925  1.00  0.00     0.014 A 
ATOM     30  C   UNL     1       1.243  -1.984  15.916  1.00  0.00     0.014 A 
ATOM     31  C   UNL     1       1.670  -0.503  18.232  1.00  0.00     0.010 A 
ATOM     32  C   UNL     1       0.466  -0.877  16.153  1.00  0.00     0.010 A 
ATOM     33  C   UNL     1       0.646  -0.162  17.331  1.00  0.00    -0.014 A 
BRANCH  33  34
ATOM     34  C   UNL     1      -0.152   1.040  17.542  1.00  0.00     0.031 A 
ATOM     35  C   UNL     1       0.659   2.284  17.651  1.00  0.00     0.074 A 
ATOM     36  C   UNL     1      -1.499   1.059  17.440  1.00  0.00     0.049 A 
ATOM     37  N   UNL     1       0.775   3.061  18.675  1.00  0.00    -0.248 NA
ATOM     38  C   UNL     1       1.565   2.627  16.541  1.00  0.00     0.031 C 
ATOM     39  C   UNL     1      -2.398  -0.031  17.044  1.00  0.00     0.029 A 
ATOM     40  N   UNL     1      -2.357   2.105  17.596  1.00  0.00    -0.354 N 
ATOM     41  C   UNL     1       1.617   4.099  18.282  1.00  0.00     0.074 A 
ATOM     42  C   UNL     1       2.203   3.690  17.034  1.00  0.00     0.031 C 
ATOM     43  C   UNL     1      -3.629   0.463  16.780  1.00  0.00     0.029 A 
ATOM     44  C   UNL     1      -3.653   1.867  17.145  1.00  0.00     0.049 A 
ATOM     45  H   UNL     1      -2.083   2.963  17.994  1.00  0.00     0.167 HD
ATOM     46  C   UNL     1       1.558   5.310  18.904  1.00  0.00     0.037 A 
ATOM     47  C   UNL     1      -4.667   2.767  17.069  1.00  0.00     0.037 A 
ATOM     48  C   UNL     1       0.918   5.185  20.191  1.00  0.00     0.049 A 
ATOM     49  C   UNL     1      -4.322   3.880  17.986  1.00  0.00     0.074 A 
ATOM     50  C   UNL     1       1.200   4.495  21.354  1.00  0.00     0.029 A 
ATOM     51  N   UNL     1      -0.406   5.535  20.276  1.00  0.00    -0.354 N 
ATOM     52  N   UNL     1      -4.258   3.754  19.283  1.00  0.00    -0.248 NA
ATOM     53  C   UNL     1      -3.598   5.008  17.425  1.00  0.00     0.031 C 
ATOM     54  C   UNL     1      -0.067   4.057  21.839  1.00  0.00     0.029 A 
ATOM     55  C   UNL     1      -1.054   4.566  20.993  1.00  0.00     0.049 A 
ATOM     56  H   UNL     1      -0.817   6.341  19.889  1.00  0.00     0.167 HD
ATOM     57  C   UNL     1      -3.153   4.505  19.651  1.00  0.00     0.074 A 
ATOM     58  C   UNL     1      -2.838   5.320  18.478  1.00  0.00     0.031 C 
ATOM     59  C   UNL     1      -2.428   4.182  20.761  1.00  0.00     0.037 A 
BRANCH  46  60
ATOM     60  C   UNL     1       1.688   6.646  18.200  1.00  0.00     0.064 A 
ATOM     61  C   UNL     1       1.582   7.828  18.965  1.00  0.00     0.173 A 
ATOM     62  C   UNL     1       1.593   6.827  16.803  1.00  0.00     0.173 A 
ATOM     63  F   UNL     1       1.654   7.786  20.304  1.00  0.00    -0.203 F 
ATOM     64  C   UNL     1       1.294   9.066  18.384  1.00  0.00     0.198 A 
ATOM     65  C   UNL     1       1.355   8.073  16.224  1.00  0.00     0.198 A 
ATOM     66  F   UNL     1       1.616   5.806  15.941  1.00  0.00    -0.203 F 
ATOM     67  F   UNL     1       1.062  10.129  19.166  1.00  0.00    -0.200 F 
ATOM     68  C   UNL     1       1.169   9.185  17.014  1.00  0.00     0.200 A 
ATOM     69  F   UNL     1       1.223   8.163  14.892  1.00  0.00    -0.200 F 
ATOM     70  F   UNL     1       0.825  10.354  16.459  1.00  0.00    -0.200 F 
ENDBRANCH  46  60
BRANCH  47  71
ATOM     71  C   UNL     1      -5.730   2.894  16.040  1.00  0.00     0.064 A 
ATOM     72  C   UNL     1      -6.841   3.733  16.244  1.00  0.00     0.173 A 
ATOM     73  C   UNL     1      -5.531   2.437  14.723  1.00  0.00     0.173 A 
ATOM     74  F   UNL     1      -7.080   4.250  17.458  1.00  0.00    -0.203 F 
ATOM     75  C   UNL     1      -7.678   4.118  15.190  1.00  0.00     0.198 A 
ATOM     76  C   UNL     1      -6.369   2.819  13.672  1.00  0.00     0.198 A 
ATOM     77  F   UNL     1      -4.461   1.692  14.409  1.00  0.00    -0.203 F 
ATOM     78  F   UNL     1      -8.685   4.975  15.413  1.00  0.00    -0.200 F 
ATOM     79  C   UNL     1      -7.433   3.671  13.902  1.00  0.00     0.200 A 
ATOM     80  F   UNL     1      -6.098   2.411  12.424  1.00  0.00    -0.200 F 
ATOM     81  F   UNL     1      -8.191   4.094  12.881  1.00  0.00    -0.200 F 
ENDBRANCH  47  71
BRANCH  59  82
ATOM     82  C   UNL     1      -3.000   3.167  21.713  1.00  0.00     0.064 A 
ATOM     83  C   UNL     1      -3.182   1.808  21.401  1.00  0.00     0.173 A 
ATOM     84  C   UNL     1      -3.178   3.549  23.049  1.00  0.00     0.173 A 
ATOM     85  F   UNL     1      -2.957   1.346  20.166  1.00  0.00    -0.203 F 
ATOM     86  C   UNL     1      -3.532   0.881  22.383  1.00  0.00     0.198 A 
ATOM     87  C   UNL     1      -3.492   2.616  24.033  1.00  0.00     0.198 A 
ATOM     88  F   UNL     1      -2.974   4.825  23.413  1.00  0.00    -0.203 F 
ATOM     89  F   UNL     1      -3.688  -0.413  22.062  1.00  0.00    -0.200 F 
ATOM     90  C   UNL     1      -3.670   1.284  23.700  1.00  0.00     0.200 A 
ATOM     91  F   UNL     1      -3.578   3.004  25.313  1.00  0.00    -0.200 F 
ATOM     92  F   UNL     1      -3.944   0.383  24.655  1.00  0.00    -0.200 F 
ENDBRANCH  59  82
ENDBRANCH  33  34
ENDBRANCH  25  28
ENDBRANCH  23  24
ENDBRANCH  22  23
ENDBRANCH   1  22
TORSDOF 15
