REMARK SMILES O=C(COc1ccccc1/C=N/NC(=O)C1CC1)NCCCCCCNC(=O)c1ccc(-c2c3nc(c(-c4c(F)c(F)c(F)c(F)c4F)c4ccc([nH]4)c(-c4c(F)c(F)c(F)c(F)c4F)c4nc(c(-c5c(F)c(F)c(F)c(F)c5F)c5ccc2[nH]5)C=C4)C=C3)cc1
REMARK SMILES IDX 21 1 20 2 19 3 1 4 2 5 3 7 4 8 5 9 6 10 10 11 7 12 9 13 8 14
REMARK SMILES IDX 11 15 12 16 13 17 14 18 15 20 16 21 17 22 18 23 22 24 23 25
REMARK SMILES IDX 24 26 25 27 26 28 27 29 28 31 29 32 30 33 91 34 31 35 90 36
REMARK SMILES IDX 32 37 33 38 34 39 84 40 35 41 89 42 83 43 85 44 36 45 88 46
REMARK SMILES IDX 82 47 81 48 37 50 69 51 49 52 68 53 50 54 53 55 67 56 86 57
REMARK SMILES IDX 51 58 52 59 66 61 87 62 54 63 38 64 39 65 47 66 40 67 41 68
REMARK SMILES IDX 45 69 48 70 42 71 43 72 46 73 44 74 70 75 71 76 79 77 72 78
REMARK SMILES IDX 73 79 77 80 80 81 74 82 75 83 78 84 76 85 55 86 56 87 64 88
REMARK SMILES IDX 57 89 58 90 62 91 65 92 59 93 60 94 63 95 61 96
REMARK H PARENT 19 6 13 19 26 30 85 49 53 60
REMARK Flexibility Score: inf
ROOT
ATOM      1  C   UNL     1       3.802   2.783   1.712  1.00  0.00     0.021 C 
ENDROOT
BRANCH   1   2
ATOM      2  C   UNL     1       3.504   1.941   0.491  1.00  0.00     0.116 C 
BRANCH   2   3
ATOM      3  N   UNL     1       4.378   0.813   0.276  1.00  0.00    -0.353 N 
ATOM      4  O   UNL     1       3.120  -0.975   1.040  1.00  0.00    -0.271 OA
ATOM      5  C   UNL     1       3.836  -0.467   0.198  1.00  0.00     0.257 C 
ATOM      6  H   UNL     1       5.349   0.947   0.186  1.00  0.00     0.163 HD
BRANCH   5   7
ATOM      7  C   UNL     1       4.199  -1.181  -1.091  1.00  0.00     0.329 C 
BRANCH   7   8
ATOM      8  O   UNL     1       4.069  -0.179  -2.107  1.00  0.00    -0.483 OA
BRANCH   8   9
ATOM      9  C   UNL     1       3.125  -0.472  -3.048  1.00  0.00     0.128 A 
ATOM     10  C   UNL     1       3.572  -1.187  -4.164  1.00  0.00     0.047 A 
ATOM     11  C   UNL     1       1.865   0.140  -3.069  1.00  0.00     0.037 A 
ATOM     12  C   UNL     1       2.792  -1.245  -5.319  1.00  0.00     0.004 A 
ATOM     13  C   UNL     1       1.102   0.105  -4.243  1.00  0.00     0.013 A 
ATOM     14  C   UNL     1       1.570  -0.577  -5.367  1.00  0.00     0.001 A 
BRANCH  11  15
ATOM     15  C   UNL     1       1.283   0.945  -1.979  1.00  0.00     0.145 C 
ATOM     16  N   UNL     1       0.819   0.444  -0.872  1.00  0.00    -0.181 NA
BRANCH  16  17
ATOM     17  N   UNL     1       0.164   1.367  -0.087  1.00  0.00    -0.247 N 
ATOM     18  C   UNL     1      -0.055   1.270   1.277  1.00  0.00     0.243 C 
ATOM     19  H   UNL     1      -0.180   2.172  -0.538  1.00  0.00     0.193 HD
ATOM     20  O   UNL     1      -0.577   2.211   1.875  1.00  0.00    -0.273 OA
BRANCH  18  21
ATOM     21  C   UNL     1       0.432   0.074   2.019  1.00  0.00     0.080 C 
ATOM     22  C   UNL     1       1.456   0.260   3.127  1.00  0.00     0.014 C 
ATOM     23  C   UNL     1       0.063  -0.152   3.474  1.00  0.00     0.014 C 
ENDBRANCH  18  21
ENDBRANCH  16  17
ENDBRANCH  11  15
ENDBRANCH   8   9
ENDBRANCH   7   8
ENDBRANCH   5   7
ENDBRANCH   2   3
ENDBRANCH   1   2
BRANCH   1  24
ATOM     24  C   UNL     1       5.178   3.433   1.694  1.00  0.00     0.002 C 
BRANCH  24  25
ATOM     25  C   UNL     1       5.354   4.544   0.655  1.00  0.00     0.002 C 
BRANCH  25  26
ATOM     26  C   UNL     1       4.429   5.755   0.817  1.00  0.00     0.021 C 
BRANCH  26  27
ATOM     27  C   UNL     1       4.357   6.328   2.230  1.00  0.00     0.116 C 
BRANCH  27  28
ATOM     28  N   UNL     1       5.676   6.663   2.748  1.00  0.00    -0.352 N 
ATOM     29  C   UNL     1       6.170   7.870   3.164  1.00  0.00     0.251 C 
ATOM     30  H   UNL     1       6.306   5.909   2.808  1.00  0.00     0.163 HD
ATOM     31  O   UNL     1       7.372   8.019   3.355  1.00  0.00    -0.269 OA
BRANCH  29  32
ATOM     32  C   UNL     1       5.246   8.999   3.377  1.00  0.00     0.039 A 
ATOM     33  C   UNL     1       5.580  10.254   2.863  1.00  0.00     0.014 A 
ATOM     34  C   UNL     1       4.061   8.818   4.097  1.00  0.00     0.014 A 
ATOM     35  C   UNL     1       4.698  11.322   3.030  1.00  0.00     0.010 A 
ATOM     36  C   UNL     1       3.154   9.866   4.205  1.00  0.00     0.010 A 
ATOM     37  C   UNL     1       3.468  11.129   3.680  1.00  0.00    -0.014 A 
BRANCH  37  38
ATOM     38  C   UNL     1       2.499  12.241   3.828  1.00  0.00     0.031 A 
ATOM     39  C   UNL     1       2.163  12.769   5.194  1.00  0.00     0.074 A 
ATOM     40  C   UNL     1       1.879  12.730   2.738  1.00  0.00     0.049 A 
ATOM     41  N   UNL     1       1.302  13.694   5.536  1.00  0.00    -0.248 NA
ATOM     42  C   UNL     1       2.869  12.157   6.331  1.00  0.00     0.031 C 
ATOM     43  C   UNL     1       2.088  12.262   1.367  1.00  0.00     0.029 A 
ATOM     44  N   UNL     1       0.940  13.721   2.612  1.00  0.00    -0.354 N 
ATOM     45  C   UNL     1       1.353  13.763   6.921  1.00  0.00     0.074 A 
ATOM     46  C   UNL     1       2.289  12.752   7.363  1.00  0.00     0.031 C 
ATOM     47  C   UNL     1       1.315  12.979   0.536  1.00  0.00     0.029 A 
ATOM     48  C   UNL     1       0.532  13.931   1.318  1.00  0.00     0.049 A 
ATOM     49  H   UNL     1       0.591  14.234   3.377  1.00  0.00     0.167 HD
ATOM     50  C   UNL     1       0.696  14.611   7.748  1.00  0.00     0.037 A 
ATOM     51  C   UNL     1      -0.376  14.792   0.821  1.00  0.00     0.037 A 
ATOM     52  C   UNL     1      -0.216  15.629   7.300  1.00  0.00     0.049 A 
ATOM     53  C   UNL     1      -1.093  15.722   1.762  1.00  0.00     0.074 A 
ATOM     54  C   UNL     1      -0.886  16.580   8.050  1.00  0.00     0.029 A 
ATOM     55  N   UNL     1      -0.590  15.826   5.978  1.00  0.00    -0.354 N 
ATOM     56  N   UNL     1      -0.981  15.831   3.063  1.00  0.00    -0.248 NA
ATOM     57  C   UNL     1      -2.057  16.655   1.162  1.00  0.00     0.031 C 
ATOM     58  C   UNL     1      -1.700  17.322   7.188  1.00  0.00     0.029 A 
ATOM     59  C   UNL     1      -1.499  16.869   5.894  1.00  0.00     0.049 A 
ATOM     60  H   UNL     1      -0.259  15.302   5.213  1.00  0.00     0.167 HD
ATOM     61  C   UNL     1      -1.836  16.860   3.435  1.00  0.00     0.074 A 
ATOM     62  C   UNL     1      -2.448  17.353   2.219  1.00  0.00     0.031 C 
ATOM     63  C   UNL     1      -2.092  17.351   4.673  1.00  0.00     0.037 A 
BRANCH  50  64
ATOM     64  C   UNL     1       0.944  14.474   9.223  1.00  0.00     0.064 A 
ATOM     65  C   UNL     1       2.177  14.823   9.797  1.00  0.00     0.173 A 
ATOM     66  C   UNL     1      -0.072  14.022  10.078  1.00  0.00     0.173 A 
ATOM     67  F   UNL     1       3.186  15.250   9.022  1.00  0.00    -0.203 F 
ATOM     68  C   UNL     1       2.392  14.695  11.167  1.00  0.00     0.198 A 
ATOM     69  C   UNL     1       0.137  13.926  11.452  1.00  0.00     0.198 A 
ATOM     70  F   UNL     1      -1.271  13.681   9.584  1.00  0.00    -0.203 F 
ATOM     71  F   UNL     1       3.594  14.987  11.684  1.00  0.00    -0.200 F 
ATOM     72  C   UNL     1       1.371  14.254  11.994  1.00  0.00     0.200 A 
ATOM     73  F   UNL     1      -0.856  13.512  12.252  1.00  0.00    -0.200 F 
ATOM     74  F   UNL     1       1.577  14.140  13.313  1.00  0.00    -0.200 F 
ENDBRANCH  50  64
BRANCH  51  75
ATOM     75  C   UNL     1      -0.636  14.833  -0.641  1.00  0.00     0.064 A 
ATOM     76  C   UNL     1      -0.237  15.934  -1.412  1.00  0.00     0.173 A 
ATOM     77  C   UNL     1      -1.286  13.779  -1.298  1.00  0.00     0.173 A 
ATOM     78  F   UNL     1       0.372  16.976  -0.825  1.00  0.00    -0.203 F 
ATOM     79  C   UNL     1      -0.495  15.988  -2.780  1.00  0.00     0.198 A 
ATOM     80  C   UNL     1      -1.519  13.821  -2.672  1.00  0.00     0.198 A 
ATOM     81  F   UNL     1      -1.683  12.699  -0.609  1.00  0.00    -0.203 F 
ATOM     82  F   UNL     1      -0.142  17.072  -3.484  1.00  0.00    -0.200 F 
ATOM     83  C   UNL     1      -1.131  14.929  -3.409  1.00  0.00     0.200 A 
ATOM     84  F   UNL     1      -2.119  12.789  -3.280  1.00  0.00    -0.200 F 
ATOM     85  F   UNL     1      -1.375  14.979  -4.726  1.00  0.00    -0.200 F 
ENDBRANCH  51  75
BRANCH  63  86
ATOM     86  C   UNL     1      -3.050  18.502   4.769  1.00  0.00     0.064 A 
ATOM     87  C   UNL     1      -4.427  18.333   4.562  1.00  0.00     0.173 A 
ATOM     88  C   UNL     1      -2.588  19.782   5.112  1.00  0.00     0.173 A 
ATOM     89  F   UNL     1      -4.916  17.133   4.217  1.00  0.00    -0.203 F 
ATOM     90  C   UNL     1      -5.303  19.410   4.670  1.00  0.00     0.198 A 
ATOM     91  C   UNL     1      -3.471  20.849   5.250  1.00  0.00     0.198 A 
ATOM     92  F   UNL     1      -1.281  19.994   5.327  1.00  0.00    -0.203 F 
ATOM     93  F   UNL     1      -6.608  19.236   4.420  1.00  0.00    -0.200 F 
ATOM     94  C   UNL     1      -4.826  20.664   5.021  1.00  0.00     0.200 A 
ATOM     95  F   UNL     1      -3.009  22.057   5.602  1.00  0.00    -0.200 F 
ATOM     96  F   UNL     1      -5.672  21.697   5.132  1.00  0.00    -0.200 F 
ENDBRANCH  63  86
ENDBRANCH  37  38
ENDBRANCH  29  32
ENDBRANCH  27  28
ENDBRANCH  26  27
ENDBRANCH  25  26
ENDBRANCH  24  25
ENDBRANCH   1  24
TORSDOF 18
