REMARK SMILES O=C(NCCCCCCNC(=O)c1c(F)cccc1NC(=O)c1ccc(Cl)nc1)c1ccc(-c2c3nc(c(-c4c(F)c(F)c(F)c(F)c4F)c4ccc([nH]4)c(-c4c(F)c(F)c(F)c(F)c4F)c4nc(c(-c5c(F)c(F)c(F)c(F)c5F)c5ccc2[nH]5)C=C4)C=C3)cc1
REMARK SMILES IDX 6 1 5 2 4 3 3 4 1 5 2 6 30 8 31 9 92 10 32 11 91 12 33 13
REMARK SMILES IDX 34 14 35 15 85 16 36 17 90 18 84 19 86 20 37 21 89 22 83 23
REMARK SMILES IDX 82 24 38 26 70 27 50 28 69 29 51 30 54 31 68 32 87 33 52 34
REMARK SMILES IDX 53 35 67 37 88 38 55 39 39 40 40 41 48 42 41 43 42 44 46 45
REMARK SMILES IDX 49 46 43 47 44 48 47 49 45 50 71 51 72 52 80 53 73 54 74 55
REMARK SMILES IDX 78 56 81 57 75 58 76 59 79 60 77 61 56 62 57 63 65 64 58 65
REMARK SMILES IDX 59 66 63 67 66 68 60 69 61 70 64 71 62 72 7 73 8 74 9 75
REMARK SMILES IDX 10 76 11 77 12 79 13 80 14 81 19 82 15 83 16 84 18 85 17 86
REMARK SMILES IDX 20 87 21 88 22 90 23 91 24 92 29 93 25 94 28 95 26 96 27 97
REMARK H PARENT 3 7 86 25 54 36 10 78 20 89
REMARK Flexibility Score: inf
ROOT
ATOM      1  C   UNL     1       4.185  -3.798   1.378  1.00  0.00     0.002 C 
ENDROOT
BRANCH   1   2
ATOM      2  C   UNL     1       4.672  -2.362   1.579  1.00  0.00     0.021 C 
BRANCH   2   3
ATOM      3  C   UNL     1       4.436  -1.427   0.400  1.00  0.00     0.116 C 
BRANCH   3   4
ATOM      4  N   UNL     1       3.026  -1.212   0.126  1.00  0.00    -0.352 N 
ATOM      5  O   UNL     1       1.111  -0.039  -0.085  1.00  0.00    -0.269 OA
ATOM      6  C   UNL     1       2.332  -0.032   0.002  1.00  0.00     0.251 C 
ATOM      7  H   UNL     1       2.490  -2.030   0.013  1.00  0.00     0.163 HD
BRANCH   6   8
ATOM      8  C   UNL     1       3.063   1.255  -0.005  1.00  0.00     0.039 A 
ATOM      9  C   UNL     1       4.221   1.419  -0.769  1.00  0.00     0.014 A 
ATOM     10  C   UNL     1       2.565   2.321   0.751  1.00  0.00     0.014 A 
ATOM     11  C   UNL     1       4.948   2.601  -0.679  1.00  0.00     0.010 A 
ATOM     12  C   UNL     1       3.255   3.537   0.778  1.00  0.00     0.010 A 
ATOM     13  C   UNL     1       4.464   3.678   0.082  1.00  0.00    -0.014 A 
BRANCH  13  14
ATOM     14  C   UNL     1       5.202   4.966   0.070  1.00  0.00     0.031 A 
ATOM     15  C   UNL     1       5.864   5.498   1.308  1.00  0.00     0.074 A 
ATOM     16  C   UNL     1       5.292   5.644  -1.090  1.00  0.00     0.049 A 
ATOM     17  N   UNL     1       6.561   6.596   1.461  1.00  0.00    -0.248 NA
ATOM     18  C   UNL     1       5.726   4.701   2.536  1.00  0.00     0.031 C 
ATOM     19  C   UNL     1       4.681   5.226  -2.354  1.00  0.00     0.029 A 
ATOM     20  N   UNL     1       5.941   6.810  -1.405  1.00  0.00    -0.354 N 
ATOM     21  C   UNL     1       6.934   6.629   2.798  1.00  0.00     0.074 A 
ATOM     22  C   UNL     1       6.366   5.453   3.422  1.00  0.00     0.031 C 
ATOM     23  C   UNL     1       5.026   6.091  -3.316  1.00  0.00     0.029 A 
ATOM     24  C   UNL     1       5.829   7.159  -2.728  1.00  0.00     0.049 A 
ATOM     25  H   UNL     1       6.440   7.345  -0.746  1.00  0.00     0.167 HD
ATOM     26  C   UNL     1       7.690   7.553   3.437  1.00  0.00     0.037 A 
ATOM     27  C   UNL     1       6.306   8.225  -3.395  1.00  0.00     0.037 A 
ATOM     28  C   UNL     1       8.264   8.713   2.804  1.00  0.00     0.049 A 
ATOM     29  C   UNL     1       7.113   9.250  -2.653  1.00  0.00     0.074 A 
ATOM     30  C   UNL     1       9.071   9.689   3.364  1.00  0.00     0.029 A 
ATOM     31  N   UNL     1       8.088   9.057   1.471  1.00  0.00    -0.354 N 
ATOM     32  N   UNL     1       7.476   9.257  -1.395  1.00  0.00    -0.248 NA
ATOM     33  C   UNL     1       7.568  10.417  -3.419  1.00  0.00     0.031 C 
ATOM     34  C   UNL     1       9.346  10.646   2.383  1.00  0.00     0.029 A 
ATOM     35  C   UNL     1       8.753  10.243   1.198  1.00  0.00     0.049 A 
ATOM     36  H   UNL     1       7.569   8.536   0.817  1.00  0.00     0.167 HD
ATOM     37  C   UNL     1       8.210  10.421  -1.217  1.00  0.00     0.074 A 
ATOM     38  C   UNL     1       8.257  11.086  -2.503  1.00  0.00     0.031 C 
ATOM     39  C   UNL     1       8.787  10.895  -0.087  1.00  0.00     0.037 A 
BRANCH  26  40
ATOM     40  C   UNL     1       7.946   7.362   4.904  1.00  0.00     0.064 A 
ATOM     41  C   UNL     1       7.366   8.227   5.845  1.00  0.00     0.173 A 
ATOM     42  C   UNL     1       8.830   6.380   5.373  1.00  0.00     0.173 A 
ATOM     43  F   UNL     1       6.520   9.189   5.448  1.00  0.00    -0.203 F 
ATOM     44  C   UNL     1       7.675   8.124   7.199  1.00  0.00     0.198 A 
ATOM     45  C   UNL     1       9.117   6.264   6.731  1.00  0.00     0.198 A 
ATOM     46  F   UNL     1       9.403   5.522   4.515  1.00  0.00    -0.203 F 
ATOM     47  F   UNL     1       7.134   8.983   8.076  1.00  0.00    -0.200 F 
ATOM     48  C   UNL     1       8.547   7.142   7.641  1.00  0.00     0.200 A 
ATOM     49  F   UNL     1       9.945   5.301   7.159  1.00  0.00    -0.200 F 
ATOM     50  F   UNL     1       8.839   7.040   8.945  1.00  0.00    -0.200 F 
ENDBRANCH  26  40
BRANCH  27  51
ATOM     51  C   UNL     1       6.031   8.356  -4.848  1.00  0.00     0.064 A 
ATOM     52  C   UNL     1       4.735   8.603  -5.324  1.00  0.00     0.173 A 
ATOM     53  C   UNL     1       7.051   8.178  -5.791  1.00  0.00     0.173 A 
ATOM     54  F   UNL     1       3.723   8.774  -4.460  1.00  0.00    -0.203 F 
ATOM     55  C   UNL     1       4.465   8.638  -6.690  1.00  0.00     0.198 A 
ATOM     56  C   UNL     1       6.785   8.241  -7.157  1.00  0.00     0.198 A 
ATOM     57  F   UNL     1       8.309   7.957  -5.383  1.00  0.00    -0.203 F 
ATOM     58  F   UNL     1       3.209   8.830  -7.118  1.00  0.00    -0.200 F 
ATOM     59  C   UNL     1       5.490   8.459  -7.605  1.00  0.00     0.200 A 
ATOM     60  F   UNL     1       7.782   8.088  -8.039  1.00  0.00    -0.200 F 
ATOM     61  F   UNL     1       5.231   8.497  -8.919  1.00  0.00    -0.200 F 
ENDBRANCH  27  51
BRANCH  39  62
ATOM     62  C   UNL     1       9.531  12.193  -0.185  1.00  0.00     0.064 A 
ATOM     63  C   UNL     1      10.931  12.219  -0.099  1.00  0.00     0.173 A 
ATOM     64  C   UNL     1       8.855  13.416  -0.294  1.00  0.00     0.173 A 
ATOM     65  F   UNL     1      11.623  11.075   0.013  1.00  0.00    -0.203 F 
ATOM     66  C   UNL     1      11.626  13.424  -0.104  1.00  0.00     0.198 A 
ATOM     67  C   UNL     1       9.555  14.619  -0.325  1.00  0.00     0.198 A 
ATOM     68  F   UNL     1       7.517  13.441  -0.395  1.00  0.00    -0.203 F 
ATOM     69  F   UNL     1      12.961  13.427   0.011  1.00  0.00    -0.200 F 
ATOM     70  C   UNL     1      10.938  14.623  -0.220  1.00  0.00     0.200 A 
ATOM     71  F   UNL     1       8.891  15.775  -0.462  1.00  0.00    -0.200 F 
ATOM     72  F   UNL     1      11.609  15.783  -0.235  1.00  0.00    -0.200 F 
ENDBRANCH  39  62
ENDBRANCH  13  14
ENDBRANCH   6   8
ENDBRANCH   3   4
ENDBRANCH   2   3
ENDBRANCH   1   2
BRANCH   1  73
ATOM     73  C   UNL     1       4.736  -4.520   0.145  1.00  0.00     0.002 C 
BRANCH  73  74
ATOM     74  C   UNL     1       6.260  -4.517  -0.001  1.00  0.00     0.021 C 
BRANCH  74  75
ATOM     75  C   UNL     1       7.027  -5.075   1.194  1.00  0.00     0.116 C 
BRANCH  75  76
ATOM     76  N   UNL     1       6.800  -6.498   1.391  1.00  0.00    -0.352 N 
ATOM     77  C   UNL     1       7.732  -7.496   1.551  1.00  0.00     0.256 C 
ATOM     78  H   UNL     1       5.858  -6.784   1.411  1.00  0.00     0.163 HD
ATOM     79  O   UNL     1       7.396  -8.675   1.577  1.00  0.00    -0.269 OA
BRANCH  77  80
ATOM     80  C   UNL     1       9.162  -7.144   1.577  1.00  0.00     0.099 A 
ATOM     81  C   UNL     1       9.617  -6.271   2.569  1.00  0.00     0.138 A 
ATOM     82  C   UNL     1      10.034  -7.614   0.578  1.00  0.00     0.057 A 
ATOM     83  F   UNL     1       8.807  -5.878   3.563  1.00  0.00    -0.206 F 
ATOM     84  C   UNL     1      10.901  -5.747   2.519  1.00  0.00     0.040 A 
ATOM     85  C   UNL     1      11.283  -6.987   0.480  1.00  0.00     0.027 A 
ATOM     86  C   UNL     1      11.721  -6.073   1.446  1.00  0.00     0.005 A 
BRANCH  82  87
ATOM     87  N   UNL     1       9.613  -8.662  -0.280  1.00  0.00    -0.321 N 
ATOM     88  C   UNL     1      10.285  -9.475  -1.167  1.00  0.00     0.257 C 
ATOM     89  H   UNL     1       8.647  -8.845  -0.232  1.00  0.00     0.170 HD
ATOM     90  O   UNL     1       9.669 -10.215  -1.931  1.00  0.00    -0.269 OA
BRANCH  88  91
ATOM     91  C   UNL     1      11.750  -9.516  -1.212  1.00  0.00     0.058 A 
ATOM     92  C   UNL     1      12.528  -9.782  -0.082  1.00  0.00     0.018 A 
ATOM     93  C   UNL     1      12.387  -9.233  -2.412  1.00  0.00     0.126 A 
ATOM     94  C   UNL     1      13.912  -9.655  -0.175  1.00  0.00     0.042 A 
ATOM     95  N   UNL     1      13.730  -9.100  -2.527  1.00  0.00    -0.244 NA
ATOM     96  C   UNL     1      14.452  -9.302  -1.404  1.00  0.00     0.129 A 
ATOM     97  Cl  UNL     1      16.135  -9.028  -1.577  1.00  0.00    -0.062 Cl
ENDBRANCH  88  91
ENDBRANCH  82  87
ENDBRANCH  77  80
ENDBRANCH  75  76
ENDBRANCH  74  75
ENDBRANCH  73  74
ENDBRANCH   1  73
TORSDOF 15
