REMARK SMILES CC[C@@](C)(NC(=O)N(C)CCO)C(=O)NCCCCCCNC(=O)c1ccc(-c2c3nc(c(-c4c(F)c(F)c(F)c(F)c4F)c4ccc([nH]4)c(-c4c(F)c(F)c(F)c(F)c4F)c4nc(c(-c5c(F)c(F)c(F)c(F)c5F)c5ccc2[nH]5)C=C4)C=C3)cc1
REMARK SMILES IDX 17 1 16 2 15 3 13 4 14 5 3 7 4 8 2 9 1 10 5 11 6 12 7 14
REMARK SMILES IDX 8 15 9 16 10 17 11 18 12 19 18 21 19 22 20 23 21 24 22 25
REMARK SMILES IDX 23 26 24 28 25 29 26 30 87 31 27 32 86 33 28 34 29 35 30 36
REMARK SMILES IDX 80 37 31 38 85 39 79 40 81 41 32 42 84 43 78 44 77 45 33 47
REMARK SMILES IDX 65 48 45 49 64 50 46 51 49 52 63 53 82 54 47 55 48 56 62 58
REMARK SMILES IDX 83 59 50 60 34 61 35 62 43 63 36 64 37 65 41 66 44 67 38 68
REMARK SMILES IDX 39 69 42 70 40 71 66 72 67 73 75 74 68 75 69 76 73 77 76 78
REMARK SMILES IDX 70 79 71 80 74 81 72 82 51 83 52 84 60 85 53 86 54 87 58 88
REMARK SMILES IDX 61 89 55 90 56 91 59 92 57 93
REMARK H PARENT 15 6 5 13 12 20 22 27 81 46 49 57
REMARK Flexibility Score: inf
ROOT
ATOM      1  C   UNL     1       2.968   5.410  -2.390  1.00  0.00     0.021 C 
ENDROOT
BRANCH   1   2
ATOM      2  C   UNL     1       2.303   4.158  -2.936  1.00  0.00     0.116 C 
BRANCH   2   3
ATOM      3  N   UNL     1       2.835   2.946  -2.345  1.00  0.00    -0.354 N 
ATOM      4  C   UNL     1       2.396   2.146  -1.332  1.00  0.00     0.245 C 
ATOM      5  O   UNL     1       3.116   1.174  -1.078  1.00  0.00    -0.272 OA
ATOM      6  H   UNL     1       3.677   2.641  -2.755  1.00  0.00     0.163 HD
BRANCH   4   7
ATOM      7  C   UNL     1       1.022   2.358  -0.621  1.00  0.00     0.117 C 
ATOM      8  C   UNL     1      -0.062   2.067  -1.703  1.00  0.00     0.045 C 
BRANCH   7   9
ATOM      9  C   UNL     1       0.717   1.381   0.558  1.00  0.00     0.035 C 
ATOM     10  C   UNL     1       0.832  -0.115   0.270  1.00  0.00     0.007 C 
ENDBRANCH   7   9
BRANCH   7  11
ATOM     11  N   UNL     1       0.818   3.757  -0.144  1.00  0.00    -0.324 N 
ATOM     12  C   UNL     1       1.410   4.676   0.640  1.00  0.00     0.318 C 
ATOM     13  H   UNL     1      -0.013   4.123  -0.523  1.00  0.00     0.166 HD
ATOM     14  O   UNL     1       0.694   5.653   0.890  1.00  0.00    -0.249 OA
BRANCH  12  15
ATOM     15  N   UNL     1       2.718   4.649   1.031  1.00  0.00    -0.326 N 
ATOM     16  C   UNL     1       3.574   3.479   1.116  1.00  0.00     0.148 C 
BRANCH  15  17
ATOM     17  C   UNL     1       3.334   5.871   1.613  1.00  0.00     0.149 C 
BRANCH  17  18
ATOM     18  C   UNL     1       3.202   7.204   0.847  1.00  0.00     0.177 C 
BRANCH  18  19
ATOM     19  O   UNL     1       1.963   7.864   1.067  1.00  0.00    -0.395 OA
ATOM     20  H   UNL     1       1.238   7.303   0.749  1.00  0.00     0.210 HD
ENDBRANCH  18  19
ENDBRANCH  17  18
ENDBRANCH  15  17
ENDBRANCH  12  15
ENDBRANCH   7  11
ENDBRANCH   4   7
ENDBRANCH   2   3
ENDBRANCH   1   2
BRANCH   1  21
ATOM     21  C   UNL     1       4.490   5.471  -2.528  1.00  0.00     0.002 C 
BRANCH  21  22
ATOM     22  C   UNL     1       4.991   5.562  -3.968  1.00  0.00     0.002 C 
BRANCH  22  23
ATOM     23  C   UNL     1       4.333   6.663  -4.803  1.00  0.00     0.021 C 
BRANCH  23  24
ATOM     24  C   UNL     1       4.376   8.052  -4.172  1.00  0.00     0.116 C 
BRANCH  24  25
ATOM     25  N   UNL     1       5.727   8.585  -4.121  1.00  0.00    -0.352 N 
ATOM     26  C   UNL     1       6.267   9.634  -4.821  1.00  0.00     0.251 C 
ATOM     27  H   UNL     1       6.339   8.132  -3.497  1.00  0.00     0.163 HD
ATOM     28  O   UNL     1       7.482   9.819  -4.830  1.00  0.00    -0.269 OA
BRANCH  26  29
ATOM     29  C   UNL     1       5.381  10.527  -5.595  1.00  0.00     0.039 A 
ATOM     30  C   UNL     1       5.702  10.814  -6.923  1.00  0.00     0.014 A 
ATOM     31  C   UNL     1       4.225  11.060  -5.016  1.00  0.00     0.014 A 
ATOM     32  C   UNL     1       4.824  11.575  -7.695  1.00  0.00     0.010 A 
ATOM     33  C   UNL     1       3.315  11.755  -5.808  1.00  0.00     0.010 A 
ATOM     34  C   UNL     1       3.602  12.013  -7.158  1.00  0.00    -0.014 A 
BRANCH  34  35
ATOM     35  C   UNL     1       2.599  12.708  -8.004  1.00  0.00     0.031 A 
ATOM     36  C   UNL     1       2.202  14.126  -7.709  1.00  0.00     0.074 A 
ATOM     37  C   UNL     1       1.990  12.032  -8.997  1.00  0.00     0.049 A 
ATOM     38  N   UNL     1       1.300  14.873  -8.295  1.00  0.00    -0.248 NA
ATOM     39  C   UNL     1       2.894  14.784  -6.591  1.00  0.00     0.031 C 
ATOM     40  C   UNL     1       2.248  10.635  -9.347  1.00  0.00     0.029 A 
ATOM     41  N   UNL     1       1.016  12.422  -9.883  1.00  0.00    -0.354 N 
ATOM     42  C   UNL     1       1.314  16.084  -7.618  1.00  0.00     0.074 A 
ATOM     43  C   UNL     1       2.269  15.951  -6.538  1.00  0.00     0.031 C 
ATOM     44  C   UNL     1       1.463  10.288 -10.378  1.00  0.00     0.029 A 
ATOM     45  C   UNL     1       0.615  11.422 -10.734  1.00  0.00     0.049 A 
ATOM     46  H   UNL     1       0.641  13.333  -9.906  1.00  0.00     0.167 HD
ATOM     47  C   UNL     1       0.613  17.212  -7.886  1.00  0.00     0.037 A 
ATOM     48  C   UNL     1      -0.342  11.411 -11.681  1.00  0.00     0.037 A 
ATOM     49  C   UNL     1      -0.340  17.337  -8.960  1.00  0.00     0.049 A 
ATOM     50  C   UNL     1      -1.131  12.663 -11.943  1.00  0.00     0.074 A 
ATOM     51  C   UNL     1      -1.062  18.451  -9.349  1.00  0.00     0.029 A 
ATOM     52  N   UNL     1      -0.715  16.303  -9.808  1.00  0.00    -0.354 N 
ATOM     53  N   UNL     1      -1.053  13.829 -11.349  1.00  0.00    -0.248 NA
ATOM     54  C   UNL     1      -2.139  12.601 -13.011  1.00  0.00     0.031 C 
ATOM     55  C   UNL     1      -1.917  18.078 -10.392  1.00  0.00     0.029 A 
ATOM     56  C   UNL     1      -1.685  16.746 -10.695  1.00  0.00     0.049 A 
ATOM     57  H   UNL     1      -0.347  15.390  -9.783  1.00  0.00     0.167 HD
ATOM     58  C   UNL     1      -1.986  14.643 -11.977  1.00  0.00     0.074 A 
ATOM     59  C   UNL     1      -2.604  13.843 -13.015  1.00  0.00     0.031 C 
ATOM     60  C   UNL     1      -2.303  15.935 -11.716  1.00  0.00     0.037 A 
BRANCH  47  61
ATOM     61  C   UNL     1       0.848  18.398  -6.994  1.00  0.00     0.064 A 
ATOM     62  C   UNL     1       2.074  19.082  -6.985  1.00  0.00     0.173 A 
ATOM     63  C   UNL     1      -0.168  18.867  -6.146  1.00  0.00     0.173 A 
ATOM     64  F   UNL     1       3.082  18.672  -7.770  1.00  0.00    -0.203 F 
ATOM     65  C   UNL     1       2.289  20.161  -6.131  1.00  0.00     0.198 A 
ATOM     66  C   UNL     1       0.039  19.969  -5.320  1.00  0.00     0.198 A 
ATOM     67  F   UNL     1      -1.363  18.259  -6.120  1.00  0.00    -0.203 F 
ATOM     68  F   UNL     1       3.489  20.756  -6.095  1.00  0.00    -0.200 F 
ATOM     69  C   UNL     1       1.270  20.607  -5.303  1.00  0.00     0.200 A 
ATOM     70  F   UNL     1      -0.952  20.409  -4.532  1.00  0.00    -0.200 F 
ATOM     71  F   UNL     1       1.478  21.645  -4.482  1.00  0.00    -0.200 F 
ENDBRANCH  47  61
BRANCH  48  72
ATOM     72  C   UNL     1      -0.598  10.164 -12.448  1.00  0.00     0.064 A 
ATOM     73  C   UNL     1      -0.261  10.065 -13.804  1.00  0.00     0.173 A 
ATOM     74  C   UNL     1      -1.160   9.036 -11.831  1.00  0.00     0.173 A 
ATOM     75  F   UNL     1       0.261  11.122 -14.443  1.00  0.00    -0.203 F 
ATOM     76  C   UNL     1      -0.486   8.889 -14.518  1.00  0.00     0.198 A 
ATOM     77  C   UNL     1      -1.357   7.852 -12.537  1.00  0.00     0.198 A 
ATOM     78  F   UNL     1      -1.494   9.076 -10.533  1.00  0.00    -0.203 F 
ATOM     79  F   UNL     1      -0.188   8.832 -15.823  1.00  0.00    -0.200 F 
ATOM     80  C   UNL     1      -1.026   7.781 -13.881  1.00  0.00     0.200 A 
ATOM     81  F   UNL     1      -1.861   6.778 -11.913  1.00  0.00    -0.200 F 
ATOM     82  F   UNL     1      -1.229   6.646 -14.564  1.00  0.00    -0.200 F 
ENDBRANCH  48  72
BRANCH  60  83
ATOM     83  C   UNL     1      -3.361  16.571 -12.572  1.00  0.00     0.064 A 
ATOM     84  C   UNL     1      -4.713  16.211 -12.460  1.00  0.00     0.173 A 
ATOM     85  C   UNL     1      -3.026  17.584 -13.484  1.00  0.00     0.173 A 
ATOM     86  F   UNL     1      -5.084  15.237 -11.615  1.00  0.00    -0.203 F 
ATOM     87  C   UNL     1      -5.685  16.824 -13.245  1.00  0.00     0.198 A 
ATOM     88  C   UNL     1      -4.005  18.217 -14.245  1.00  0.00     0.198 A 
ATOM     89  F   UNL     1      -1.750  17.970 -13.628  1.00  0.00    -0.203 F 
ATOM     90  F   UNL     1      -6.963  16.430 -13.155  1.00  0.00    -0.200 F 
ATOM     91  C   UNL     1      -5.332  17.832 -14.130  1.00  0.00     0.200 A 
ATOM     92  F   UNL     1      -3.664  19.201 -15.089  1.00  0.00    -0.200 F 
ATOM     93  F   UNL     1      -6.271  18.428 -14.878  1.00  0.00    -0.200 F 
ENDBRANCH  60  83
ENDBRANCH  34  35
ENDBRANCH  26  29
ENDBRANCH  24  25
ENDBRANCH  23  24
ENDBRANCH  22  23
ENDBRANCH  21  22
ENDBRANCH   1  21
TORSDOF 19
