REMARK SMILES NS(=O)(=O)c1ccc(-n2nc(NC(=O)NCCCC(=O)NCCCCCCNC(=O)c3ccc(-c4c5nc(c(-c6c(F)c(F)c(F)c(F)c6F)c6ccc([nH]6)c(-c6c(F)c(F)c(F)c(F)c6F)c6nc(c(-c7c(F)c(F)c(F)c(F)c7F)c7ccc4[nH]7)C=C6)C=C5)cc3)cc2-c2ccccc2)cc1
REMARK SMILES IDX 22 1 21 2 19 3 20 4 18 6 17 7 16 8 15 9 12 10 13 11 14 13
REMARK SMILES IDX 11 15 9 16 10 17 95 18 94 19 8 20 5 21 6 22 103 23 7 24
REMARK SMILES IDX 102 25 2 26 3 27 4 28 1 29 96 32 97 33 101 34 98 35 100 36
REMARK SMILES IDX 99 37 23 38 24 39 25 40 26 41 27 42 28 43 29 44 30 46 31 47
REMARK SMILES IDX 32 48 93 49 33 50 92 51 34 52 35 53 36 54 86 55 37 56 91 57
REMARK SMILES IDX 85 58 87 59 38 60 90 61 84 62 83 63 39 65 71 66 51 67 70 68
REMARK SMILES IDX 52 69 55 70 69 71 88 72 53 73 54 74 68 76 89 77 56 78 40 79
REMARK SMILES IDX 41 80 49 81 42 82 43 83 47 84 50 85 44 86 45 87 48 88 46 89
REMARK SMILES IDX 72 90 73 91 81 92 74 93 75 94 79 95 82 96 76 97 77 98 80 99
REMARK SMILES IDX 78 100 57 101 58 102 66 103 59 104 60 105 64 106 67 107
REMARK SMILES IDX 61 108 62 109 65 110 63 111
REMARK H PARENT 21 5 12 12 15 14 1 30 1 31 28 45 87 64 55 75
REMARK Flexibility Score: inf
ROOT
ATOM      1  C   UNL     1       7.141  -5.720   0.383  1.00  0.00     0.116 C 
ENDROOT
BRANCH   1   2
ATOM      2  N   UNL     1       6.592  -4.882   1.435  1.00  0.00    -0.356 N 
ATOM      3  C   UNL     1       5.840  -5.218   2.521  1.00  0.00     0.220 C 
ATOM      4  O   UNL     1       5.274  -4.314   3.138  1.00  0.00    -0.275 OA
ATOM      5  H   UNL     1       6.794  -3.922   1.351  1.00  0.00     0.163 HD
BRANCH   3   6
ATOM      6  C   UNL     1       5.741  -6.661   2.987  1.00  0.00     0.102 C 
BRANCH   6   7
ATOM      7  C   UNL     1       4.437  -7.364   2.609  1.00  0.00     0.031 C 
BRANCH   7   8
ATOM      8  C   UNL     1       4.337  -7.741   1.137  1.00  0.00     0.118 C 
BRANCH   8   9
ATOM      9  N   UNL     1       5.310  -8.712   0.663  1.00  0.00    -0.338 N 
ATOM     10  N   UNL     1       4.557  -9.233  -1.547  1.00  0.00    -0.291 N 
ATOM     11  C   UNL     1       5.418  -9.373  -0.513  1.00  0.00     0.320 C 
ATOM     12  H   UNL     1       4.558  -9.985  -2.183  1.00  0.00     0.173 HD
ATOM     13  O   UNL     1       6.297 -10.238  -0.597  1.00  0.00    -0.248 OA
ATOM     14  H   UNL     1       6.017  -8.926   1.314  1.00  0.00     0.165 HD
BRANCH  10  15
ATOM     15  C   UNL     1       3.684  -8.223  -1.860  1.00  0.00     0.157 A 
ATOM     16  N   UNL     1       2.626  -6.434  -1.554  1.00  0.00    -0.231 N 
ATOM     17  N   UNL     1       3.856  -6.951  -1.510  1.00  0.00    -0.149 NA
ATOM     18  C   UNL     1       1.806  -7.183  -2.387  1.00  0.00     0.076 A 
ATOM     19  C   UNL     1       2.501  -8.354  -2.628  1.00  0.00     0.078 A 
BRANCH  16  20
ATOM     20  C   UNL     1       2.263  -5.308  -0.761  1.00  0.00     0.065 A 
ATOM     21  C   UNL     1       1.262  -3.005   0.444  1.00  0.00     0.082 A 
ATOM     22  C   UNL     1       0.630  -4.227   0.673  1.00  0.00     0.024 A 
ATOM     23  C   UNL     1       2.415  -2.934  -0.347  1.00  0.00     0.024 A 
ATOM     24  C   UNL     1       1.148  -5.383   0.089  1.00  0.00     0.030 A 
ATOM     25  C   UNL     1       2.918  -4.090  -0.954  1.00  0.00     0.030 A 
BRANCH  21  26
ATOM     26  S   UNL     1       0.534  -1.545   1.127  1.00  0.00     0.238 S 
ATOM     27  O   UNL     1       1.086  -1.313   2.427  1.00  0.00    -0.207 OA
ATOM     28  O   UNL     1      -0.898  -1.592   0.872  1.00  0.00    -0.207 OA
BRANCH  26  29
ATOM     29  N   UNL     1       1.097  -0.300   0.145  1.00  0.00    -0.225 NA
ATOM     30  H   UNL     1       0.720   0.589   0.473  1.00  0.00     0.137 HD
ATOM     31  H   UNL     1       0.796  -0.463  -0.816  1.00  0.00     0.137 HD
ENDBRANCH  26  29
ENDBRANCH  21  26
ENDBRANCH  16  20
BRANCH  18  32
ATOM     32  C   UNL     1       0.460  -6.708  -2.650  1.00  0.00     0.000 A 
ATOM     33  C   UNL     1       0.318  -5.410  -3.166  1.00  0.00     0.010 A 
ATOM     34  C   UNL     1      -0.587  -7.292  -1.938  1.00  0.00     0.010 A 
ATOM     35  C   UNL     1      -0.803  -4.646  -2.859  1.00  0.00     0.001 A 
ATOM     36  C   UNL     1      -1.681  -6.503  -1.586  1.00  0.00     0.001 A 
ATOM     37  C   UNL     1      -1.784  -5.182  -2.033  1.00  0.00     0.000 A 
ENDBRANCH  18  32
ENDBRANCH  10  15
ENDBRANCH   8   9
ENDBRANCH   7   8
ENDBRANCH   6   7
ENDBRANCH   3   6
ENDBRANCH   1   2
BRANCH   1  38
ATOM     38  C   UNL     1       6.423  -5.439  -0.935  1.00  0.00     0.021 C 
BRANCH  38  39
ATOM     39  C   UNL     1       6.949  -4.264  -1.755  1.00  0.00     0.002 C 
BRANCH  39  40
ATOM     40  C   UNL     1       8.374  -4.440  -2.290  1.00  0.00     0.002 C 
BRANCH  40  41
ATOM     41  C   UNL     1       8.634  -5.702  -3.127  1.00  0.00     0.021 C 
BRANCH  41  42
ATOM     42  C   UNL     1       7.894  -5.723  -4.455  1.00  0.00     0.116 C 
BRANCH  42  43
ATOM     43  N   UNL     1       8.367  -4.688  -5.379  1.00  0.00    -0.352 N 
ATOM     44  C   UNL     1       7.942  -4.431  -6.668  1.00  0.00     0.251 C 
ATOM     45  H   UNL     1       9.079  -4.100  -5.037  1.00  0.00     0.163 HD
ATOM     46  O   UNL     1       8.644  -3.811  -7.458  1.00  0.00    -0.269 OA
BRANCH  44  47
ATOM     47  C   UNL     1       6.604  -4.899  -7.070  1.00  0.00     0.039 A 
ATOM     48  C   UNL     1       6.342  -5.416  -8.341  1.00  0.00     0.014 A 
ATOM     49  C   UNL     1       5.596  -4.831  -6.112  1.00  0.00     0.014 A 
ATOM     50  C   UNL     1       5.066  -5.914  -8.604  1.00  0.00     0.010 A 
ATOM     51  C   UNL     1       4.420  -5.503  -6.301  1.00  0.00     0.010 A 
ATOM     52  C   UNL     1       4.111  -5.965  -7.568  1.00  0.00    -0.014 A 
BRANCH  52  53
ATOM     53  C   UNL     1       2.818  -6.621  -7.739  1.00  0.00     0.031 A 
ATOM     54  C   UNL     1       2.937  -8.010  -8.258  1.00  0.00     0.074 A 
ATOM     55  C   UNL     1       1.643  -6.097  -7.311  1.00  0.00     0.049 A 
ATOM     56  N   UNL     1       2.589  -8.447  -9.423  1.00  0.00    -0.248 NA
ATOM     57  C   UNL     1       3.683  -8.990  -7.451  1.00  0.00     0.031 C 
ATOM     58  C   UNL     1       1.380  -4.853  -6.578  1.00  0.00     0.029 A 
ATOM     59  N   UNL     1       0.388  -6.612  -7.449  1.00  0.00    -0.354 N 
ATOM     60  C   UNL     1       2.894  -9.805  -9.430  1.00  0.00     0.074 A 
ATOM     61  C   UNL     1       3.717 -10.041  -8.273  1.00  0.00     0.031 C 
ATOM     62  C   UNL     1       0.074  -4.795  -6.210  1.00  0.00     0.029 A 
ATOM     63  C   UNL     1      -0.631  -5.926  -6.777  1.00  0.00     0.049 A 
ATOM     64  H   UNL     1       0.209  -7.417  -7.988  1.00  0.00     0.167 HD
ATOM     65  C   UNL     1       2.220 -10.661 -10.246  1.00  0.00     0.037 A 
ATOM     66  C   UNL     1      -1.951  -6.269  -6.751  1.00  0.00     0.037 A 
ATOM     67  C   UNL     1       1.613  -9.954 -11.348  1.00  0.00     0.049 A 
ATOM     68  C   UNL     1      -2.177  -7.156  -7.905  1.00  0.00     0.074 A 
ATOM     69  C   UNL     1       2.090  -9.195 -12.401  1.00  0.00     0.029 A 
ATOM     70  N   UNL     1       0.281  -9.634 -11.254  1.00  0.00    -0.354 N 
ATOM     71  N   UNL     1      -2.148  -6.721  -9.131  1.00  0.00    -0.248 NA
ATOM     72  C   UNL     1      -1.942  -8.579  -7.715  1.00  0.00     0.031 C 
ATOM     73  C   UNL     1       1.173  -8.105 -12.517  1.00  0.00     0.029 A 
ATOM     74  C   UNL     1       0.161  -8.307 -11.582  1.00  0.00     0.049 A 
ATOM     75  H   UNL     1      -0.450 -10.242 -10.998  1.00  0.00     0.167 HD
ATOM     76  C   UNL     1      -1.490  -7.715  -9.829  1.00  0.00     0.074 A 
ATOM     77  C   UNL     1      -1.432  -8.860  -8.916  1.00  0.00     0.031 C 
ATOM     78  C   UNL     1      -0.796  -7.428 -10.966  1.00  0.00     0.037 A 
BRANCH  65  79
ATOM     79  C   UNL     1       1.758 -12.035  -9.813  1.00  0.00     0.064 A 
ATOM     80  C   UNL     1       1.089 -12.852 -10.746  1.00  0.00     0.173 A 
ATOM     81  C   UNL     1       1.655 -12.449  -8.466  1.00  0.00     0.173 A 
ATOM     82  F   UNL     1       1.112 -12.556 -12.055  1.00  0.00    -0.203 F 
ATOM     83  C   UNL     1       0.294 -13.931 -10.348  1.00  0.00     0.198 A 
ATOM     84  C   UNL     1       0.902 -13.555  -8.078  1.00  0.00     0.198 A 
ATOM     85  F   UNL     1       2.176 -11.747  -7.454  1.00  0.00    -0.203 F 
ATOM     86  F   UNL     1      -0.434 -14.592 -11.258  1.00  0.00    -0.200 F 
ATOM     87  C   UNL     1       0.192 -14.274  -9.013  1.00  0.00     0.200 A 
ATOM     88  F   UNL     1       0.804 -13.857  -6.775  1.00  0.00    -0.200 F 
ATOM     89  F   UNL     1      -0.626 -15.258  -8.621  1.00  0.00    -0.200 F 
ENDBRANCH  65  79
BRANCH  66  90
ATOM     90  C   UNL     1      -3.029  -6.138  -5.747  1.00  0.00     0.064 A 
ATOM     91  C   UNL     1      -4.266  -5.529  -5.988  1.00  0.00     0.173 A 
ATOM     92  C   UNL     1      -2.962  -6.964  -4.613  1.00  0.00     0.173 A 
ATOM     93  F   UNL     1      -4.484  -4.891  -7.146  1.00  0.00    -0.203 F 
ATOM     94  C   UNL     1      -5.333  -5.645  -5.080  1.00  0.00     0.198 A 
ATOM     95  C   UNL     1      -4.023  -7.082  -3.707  1.00  0.00     0.198 A 
ATOM     96  F   UNL     1      -1.896  -7.762  -4.447  1.00  0.00    -0.203 F 
ATOM     97  F   UNL     1      -6.521  -5.088  -5.361  1.00  0.00    -0.200 F 
ATOM     98  C   UNL     1      -5.197  -6.392  -3.921  1.00  0.00     0.200 A 
ATOM     99  F   UNL     1      -3.925  -7.906  -2.653  1.00  0.00    -0.200 F 
ATOM    100  F   UNL     1      -6.211  -6.501  -3.050  1.00  0.00    -0.200 F 
ENDBRANCH  66  90
BRANCH  78 101
ATOM    101  C   UNL     1      -0.883  -6.020 -11.488  1.00  0.00     0.064 A 
ATOM    102  C   UNL     1      -0.296  -4.909 -10.854  1.00  0.00     0.173 A 
ATOM    103  C   UNL     1      -1.460  -5.810 -12.743  1.00  0.00     0.173 A 
ATOM    104  F   UNL     1       0.348  -5.043  -9.690  1.00  0.00    -0.203 F 
ATOM    105  C   UNL     1      -0.310  -3.643 -11.441  1.00  0.00     0.198 A 
ATOM    106  C   UNL     1      -1.448  -4.553 -13.341  1.00  0.00     0.198 A 
ATOM    107  F   UNL     1      -1.993  -6.843 -13.413  1.00  0.00    -0.203 F 
ATOM    108  F   UNL     1       0.259  -2.601 -10.816  1.00  0.00    -0.200 F 
ATOM    109  C   UNL     1      -0.880  -3.469 -12.690  1.00  0.00     0.200 A 
ATOM    110  F   UNL     1      -1.963  -4.399 -14.569  1.00  0.00    -0.200 F 
ATOM    111  F   UNL     1      -0.857  -2.265 -13.279  1.00  0.00    -0.200 F 
ENDBRANCH  78 101
ENDBRANCH  52  53
ENDBRANCH  44  47
ENDBRANCH  42  43
ENDBRANCH  41  42
ENDBRANCH  40  41
ENDBRANCH  39  40
ENDBRANCH  38  39
ENDBRANCH   1  38
TORSDOF 21
