REMARK SMILES O=C(NCCCCCCNC(=O)[C@H](CO)NC(=O)[C@H](CS)NC(=O)[C@H](Cc1ccccc1)NC(=O)c1ccc(F)cc1)c1ccc(-c2c3nc(c(-c4c(F)c(F)c(F)c(F)c4F)c4ccc([nH]4)c(-c4c(F)c(F)c(F)c(F)c4F)c4nc(c(-c5c(F)c(F)c(F)c(F)c5F)c5ccc2[nH]5)C=C4)C=C3)cc1
REMARK SMILES IDX 8 1 7 2 6 3 5 4 4 5 3 6 1 7 2 8 43 10 44 11 105 12 45 13
REMARK SMILES IDX 104 14 46 15 47 16 48 17 98 18 49 19 103 20 97 21 99 22
REMARK SMILES IDX 50 23 102 24 96 25 95 26 51 28 83 29 63 30 82 31 64 32 67 33
REMARK SMILES IDX 81 34 100 35 65 36 66 37 80 39 101 40 68 41 52 42 53 43
REMARK SMILES IDX 61 44 54 45 55 46 59 47 62 48 56 49 57 50 60 51 58 52 84 53
REMARK SMILES IDX 85 54 93 55 86 56 87 57 91 58 94 59 88 60 89 61 92 62 90 63
REMARK SMILES IDX 69 64 70 65 78 66 71 67 72 68 76 69 79 70 73 71 74 72 77 73
REMARK SMILES IDX 75 74 9 75 10 76 11 77 12 79 13 80 16 81 17 82 18 84 19 85
REMARK SMILES IDX 22 86 23 87 24 89 25 90 33 91 34 92 35 94 36 95 37 96 42 97
REMARK SMILES IDX 38 98 41 99 39 100 40 101 26 102 27 103 28 104 32 105 29 106
REMARK SMILES IDX 31 107 30 108 20 109 21 110 14 112 15 113
REMARK H PARENT 3 9 99 27 67 38 10 78 16 83 22 88 33 93 21 111 15 114
REMARK Flexibility Score: inf
ROOT
ATOM      1  C   UNL     1      16.895  -5.268  -3.608  1.00  0.00     0.021 C 
ENDROOT
BRANCH   1   2
ATOM      2  C   UNL     1      17.910  -5.762  -2.577  1.00  0.00     0.002 C 
BRANCH   2   3
ATOM      3  C   UNL     1      19.382  -5.455  -2.879  1.00  0.00     0.002 C 
BRANCH   3   4
ATOM      4  C   UNL     1      19.718  -4.005  -3.237  1.00  0.00     0.021 C 
BRANCH   4   5
ATOM      5  C   UNL     1      19.262  -2.950  -2.235  1.00  0.00     0.116 C 
BRANCH   5   6
ATOM      6  N   UNL     1      19.852  -3.136  -0.920  1.00  0.00    -0.352 N 
ATOM      7  O   UNL     1      21.116  -2.674   0.883  1.00  0.00    -0.269 OA
ATOM      8  C   UNL     1      20.569  -2.266  -0.146  1.00  0.00     0.251 C 
ATOM      9  H   UNL     1      19.714  -4.027  -0.525  1.00  0.00     0.163 HD
BRANCH   8  10
ATOM     10  C   UNL     1      20.717  -0.845  -0.529  1.00  0.00     0.039 A 
ATOM     11  C   UNL     1      19.632  -0.102  -1.003  1.00  0.00     0.014 A 
ATOM     12  C   UNL     1      21.960  -0.226  -0.354  1.00  0.00     0.014 A 
ATOM     13  C   UNL     1      19.816   1.220  -1.401  1.00  0.00     0.010 A 
ATOM     14  C   UNL     1      22.127   1.120  -0.690  1.00  0.00     0.010 A 
ATOM     15  C   UNL     1      21.061   1.849  -1.237  1.00  0.00    -0.014 A 
BRANCH  15  16
ATOM     16  C   UNL     1      21.209   3.285  -1.582  1.00  0.00     0.031 A 
ATOM     17  C   UNL     1      22.071   3.723  -2.731  1.00  0.00     0.074 A 
ATOM     18  C   UNL     1      20.538   4.199  -0.855  1.00  0.00     0.049 A 
ATOM     19  N   UNL     1      22.290   4.932  -3.184  1.00  0.00    -0.248 NA
ATOM     20  C   UNL     1      22.786   2.669  -3.466  1.00  0.00     0.031 C 
ATOM     21  C   UNL     1      19.686   3.895   0.297  1.00  0.00     0.029 A 
ATOM     22  N   UNL     1      20.454   5.562  -0.980  1.00  0.00    -0.354 N 
ATOM     23  C   UNL     1      23.170   4.787  -4.248  1.00  0.00     0.074 A 
ATOM     24  C   UNL     1      23.470   3.375  -4.356  1.00  0.00     0.031 C 
ATOM     25  C   UNL     1      19.138   5.032   0.750  1.00  0.00     0.029 A 
ATOM     26  C   UNL     1      19.634   6.148  -0.047  1.00  0.00     0.049 A 
ATOM     27  H   UNL     1      20.936   6.071  -1.671  1.00  0.00     0.167 HD
ATOM     28  C   UNL     1      23.672   5.745  -5.064  1.00  0.00     0.037 A 
ATOM     29  C   UNL     1      19.324   7.443   0.150  1.00  0.00     0.037 A 
ATOM     30  C   UNL     1      23.367   7.149  -4.958  1.00  0.00     0.049 A 
ATOM     31  C   UNL     1      19.911   8.484  -0.759  1.00  0.00     0.074 A 
ATOM     32  C   UNL     1      23.806   8.192  -5.756  1.00  0.00     0.029 A 
ATOM     33  N   UNL     1      22.548   7.708  -3.987  1.00  0.00    -0.354 N 
ATOM     34  N   UNL     1      20.710   8.328  -1.786  1.00  0.00    -0.248 NA
ATOM     35  C   UNL     1      19.553   9.881  -0.481  1.00  0.00     0.031 C 
ATOM     36  C   UNL     1      23.281   9.385  -5.247  1.00  0.00     0.029 A 
ATOM     37  C   UNL     1      22.483   9.082  -4.157  1.00  0.00     0.049 A 
ATOM     38  H   UNL     1      22.082   7.203  -3.282  1.00  0.00     0.167 HD
ATOM     39  C   UNL     1      20.941   9.602  -2.284  1.00  0.00     0.074 A 
ATOM     40  C   UNL     1      20.179  10.518  -1.461  1.00  0.00     0.031 C 
ATOM     41  C   UNL     1      21.719   9.979  -3.328  1.00  0.00     0.037 A 
BRANCH  28  42
ATOM     42  C   UNL     1      24.613   5.310  -6.149  1.00  0.00     0.064 A 
ATOM     43  C   UNL     1      24.154   4.629  -7.287  1.00  0.00     0.173 A 
ATOM     44  C   UNL     1      25.979   5.623  -6.078  1.00  0.00     0.173 A 
ATOM     45  F   UNL     1      22.860   4.297  -7.398  1.00  0.00    -0.203 F 
ATOM     46  C   UNL     1      25.032   4.262  -8.304  1.00  0.00     0.198 A 
ATOM     47  C   UNL     1      26.849   5.275  -7.107  1.00  0.00     0.198 A 
ATOM     48  F   UNL     1      26.467   6.279  -5.014  1.00  0.00    -0.203 F 
ATOM     49  F   UNL     1      24.577   3.582  -9.366  1.00  0.00    -0.200 F 
ATOM     50  C   UNL     1      26.377   4.591  -8.217  1.00  0.00     0.200 A 
ATOM     51  F   UNL     1      28.146   5.603  -7.027  1.00  0.00    -0.200 F 
ATOM     52  F   UNL     1      27.218   4.244  -9.201  1.00  0.00    -0.200 F 
ENDBRANCH  28  42
BRANCH  29  53
ATOM     53  C   UNL     1      18.404   7.819   1.253  1.00  0.00     0.064 A 
ATOM     54  C   UNL     1      17.112   8.290   0.984  1.00  0.00     0.173 A 
ATOM     55  C   UNL     1      18.794   7.704   2.595  1.00  0.00     0.173 A 
ATOM     56  F   UNL     1      16.703   8.435  -0.285  1.00  0.00    -0.203 F 
ATOM     57  C   UNL     1      16.248   8.644   2.018  1.00  0.00     0.198 A 
ATOM     58  C   UNL     1      17.919   8.033   3.628  1.00  0.00     0.198 A 
ATOM     59  F   UNL     1      20.019   7.254   2.903  1.00  0.00    -0.203 F 
ATOM     60  F   UNL     1      15.030   9.127   1.734  1.00  0.00    -0.200 F 
ATOM     61  C   UNL     1      16.649   8.509   3.338  1.00  0.00     0.200 A 
ATOM     62  F   UNL     1      18.306   7.886   4.902  1.00  0.00    -0.200 F 
ATOM     63  F   UNL     1      15.815   8.842   4.332  1.00  0.00    -0.200 F 
ENDBRANCH  29  53
BRANCH  41  64
ATOM     64  C   UNL     1      21.764  11.443  -3.648  1.00  0.00     0.064 A 
ATOM     65  C   UNL     1      22.470  12.347  -2.840  1.00  0.00     0.173 A 
ATOM     66  C   UNL     1      21.114  11.943  -4.785  1.00  0.00     0.173 A 
ATOM     67  F   UNL     1      23.092  11.917  -1.732  1.00  0.00    -0.203 F 
ATOM     68  C   UNL     1      22.501  13.704  -3.146  1.00  0.00     0.198 A 
ATOM     69  C   UNL     1      21.168  13.297  -5.102  1.00  0.00     0.198 A 
ATOM     70  F   UNL     1      20.429  11.117  -5.590  1.00  0.00    -0.203 F 
ATOM     71  F   UNL     1      23.141  14.557  -2.336  1.00  0.00    -0.200 F 
ATOM     72  C   UNL     1      21.855  14.177  -4.279  1.00  0.00     0.200 A 
ATOM     73  F   UNL     1      20.551  13.752  -6.201  1.00  0.00    -0.200 F 
ATOM     74  F   UNL     1      21.887  15.484  -4.573  1.00  0.00    -0.200 F 
ENDBRANCH  41  64
ENDBRANCH  15  16
ENDBRANCH   8  10
ENDBRANCH   5   6
ENDBRANCH   4   5
ENDBRANCH   3   4
ENDBRANCH   2   3
ENDBRANCH   1   2
BRANCH   1  75
ATOM     75  C   UNL     1      17.145  -5.738  -5.032  1.00  0.00     0.116 C 
BRANCH  75  76
ATOM     76  N   UNL     1      16.771  -7.111  -5.268  1.00  0.00    -0.354 N 
ATOM     77  C   UNL     1      15.964  -7.617  -6.253  1.00  0.00     0.244 C 
ATOM     78  H   UNL     1      17.145  -7.771  -4.639  1.00  0.00     0.163 HD
ATOM     79  O   UNL     1      15.946  -8.839  -6.400  1.00  0.00    -0.273 OA
BRANCH  77  80
ATOM     80  C   UNL     1      15.205  -6.642  -7.192  1.00  0.00     0.197 C 
BRANCH  80  81
ATOM     81  N   UNL     1      16.147  -6.229  -8.252  1.00  0.00    -0.340 N 
ATOM     82  C   UNL     1      16.775  -5.090  -8.624  1.00  0.00     0.244 C 
ATOM     83  H   UNL     1      16.379  -6.981  -8.844  1.00  0.00     0.164 HD
ATOM     84  O   UNL     1      17.750  -5.236  -9.374  1.00  0.00    -0.273 OA
BRANCH  82  85
ATOM     85  C   UNL     1      16.430  -3.656  -8.143  1.00  0.00     0.181 C 
BRANCH  85  86
ATOM     86  N   UNL     1      15.113  -3.493  -7.542  1.00  0.00    -0.342 N 
ATOM     87  C   UNL     1      13.960  -3.066  -8.140  1.00  0.00     0.243 C 
ATOM     88  H   UNL     1      15.044  -3.719  -6.587  1.00  0.00     0.164 HD
ATOM     89  O   UNL     1      12.901  -3.493  -7.671  1.00  0.00    -0.273 OA
BRANCH  87  90
ATOM     90  C   UNL     1      13.999  -2.114  -9.358  1.00  0.00     0.176 C 
BRANCH  90  91
ATOM     91  N   UNL     1      13.539  -2.850 -10.553  1.00  0.00    -0.340 N 
ATOM     92  C   UNL     1      14.021  -2.759 -11.826  1.00  0.00     0.251 C 
ATOM     93  H   UNL     1      12.796  -3.482 -10.415  1.00  0.00     0.164 HD
ATOM     94  O   UNL     1      13.315  -3.051 -12.798  1.00  0.00    -0.269 OA
BRANCH  92  95
ATOM     95  C   UNL     1      15.425  -2.377 -12.052  1.00  0.00     0.040 A 
ATOM     96  C   UNL     1      15.760  -1.183 -12.697  1.00  0.00     0.017 A 
ATOM     97  C   UNL     1      16.427  -3.274 -11.665  1.00  0.00     0.017 A 
ATOM     98  C   UNL     1      17.107  -0.860 -12.883  1.00  0.00     0.040 A 
ATOM     99  C   UNL     1      17.770  -2.937 -11.830  1.00  0.00     0.040 A 
ATOM    100  C   UNL     1      18.098  -1.728 -12.431  1.00  0.00     0.123 A 
ATOM    101  F   UNL     1      19.388  -1.402 -12.588  1.00  0.00    -0.207 F 
ENDBRANCH  92  95
ENDBRANCH  90  91
BRANCH  90 102
ATOM    102  C   UNL     1      13.026  -0.932  -9.094  1.00  0.00     0.070 C 
BRANCH 102 103
ATOM    103  C   UNL     1      13.679   0.315  -8.536  1.00  0.00    -0.045 A 
ATOM    104  C   UNL     1      14.433   0.286  -7.356  1.00  0.00     0.004 A 
ATOM    105  C   UNL     1      13.481   1.549  -9.173  1.00  0.00     0.004 A 
ATOM    106  C   UNL     1      15.029   1.450  -6.863  1.00  0.00     0.000 A 
ATOM    107  C   UNL     1      14.060   2.715  -8.669  1.00  0.00     0.000 A 
ATOM    108  C   UNL     1      14.846   2.663  -7.522  1.00  0.00     0.000 A 
ENDBRANCH 102 103
ENDBRANCH  90 102
ENDBRANCH  87  90
ENDBRANCH  85  86
BRANCH  85 109
ATOM    109  C   UNL     1      17.633  -3.127  -7.332  1.00  0.00     0.101 C 
BRANCH 109 110
ATOM    110  S   UNL     1      17.274  -1.859  -6.076  1.00  0.00    -0.177 SA
ATOM    111  H   UNL     1      16.800  -0.739  -6.685  1.00  0.00     0.102 HD
ENDBRANCH 109 110
ENDBRANCH  85 109
ENDBRANCH  82  85
ENDBRANCH  80  81
BRANCH  80 112
ATOM    112  C   UNL     1      13.955  -7.330  -7.783  1.00  0.00     0.191 C 
BRANCH 112 113
ATOM    113  O   UNL     1      14.139  -7.714  -9.147  1.00  0.00    -0.394 OA
ATOM    114  H   UNL     1      14.307  -6.925  -9.685  1.00  0.00     0.210 HD
ENDBRANCH 112 113
ENDBRANCH  80 112
ENDBRANCH  77  80
ENDBRANCH  75  76
ENDBRANCH   1  75
TORSDOF 25
