REMARK SMILES CC[C@@]1(CO)CCCN(c2nc(-c3ccc(C)s3)ccc2C(=O)NCCCCCCNC(=O)c2ccc(-c3c4nc(c(-c5c(F)c(F)c(F)c(F)c5F)c5ccc([nH]5)c(-c5c(F)c(F)c(F)c(F)c5F)c5nc(c(-c6c(F)c(F)c(F)c(F)c6F)c6ccc3[nH]6)C=C5)C=C4)cc2)C1
REMARK SMILES IDX 27 1 26 2 25 3 24 4 22 5 23 6 21 8 10 9 11 10 12 11 20 12
REMARK SMILES IDX 19 13 9 14 3 15 6 16 97 17 7 18 8 19 2 20 1 21 4 22 5 23
REMARK SMILES IDX 13 25 14 26 18 27 15 28 16 29 17 30 28 31 29 32 30 33 31 34
REMARK SMILES IDX 32 35 33 37 34 38 35 39 96 40 36 41 95 42 37 43 38 44 39 45
REMARK SMILES IDX 89 46 40 47 94 48 88 49 90 50 41 51 93 52 87 53 86 54 42 56
REMARK SMILES IDX 74 57 54 58 73 59 55 60 58 61 72 62 91 63 56 64 57 65 71 67
REMARK SMILES IDX 92 68 59 69 43 70 44 71 52 72 45 73 46 74 50 75 53 76 47 77
REMARK SMILES IDX 48 78 51 79 49 80 75 81 76 82 84 83 77 84 78 85 82 86 85 87
REMARK SMILES IDX 79 88 80 89 83 90 81 91 60 92 61 93 69 94 62 95 63 96 67 97
REMARK SMILES IDX 70 98 64 99 65 100 68 101 66 102
REMARK H PARENT 24 7 5 24 31 36 90 55 58 66
REMARK Flexibility Score: inf
ROOT
ATOM      1  C   UNL     1      -5.992  -7.745   3.599  1.00  0.00     0.002 C 
ENDROOT
BRANCH   1   2
ATOM      2  C   UNL     1      -6.160  -6.325   3.035  1.00  0.00     0.021 C 
BRANCH   2   3
ATOM      3  C   UNL     1      -5.330  -5.283   3.784  1.00  0.00     0.116 C 
BRANCH   3   4
ATOM      4  N   UNL     1      -3.937  -5.419   3.427  1.00  0.00    -0.352 N 
ATOM      5  C   UNL     1      -3.076  -4.810   2.551  1.00  0.00     0.255 C 
ATOM      6  O   UNL     1      -1.943  -5.286   2.603  1.00  0.00    -0.269 OA
ATOM      7  H   UNL     1      -3.493  -6.130   3.944  1.00  0.00     0.163 HD
BRANCH   5   8
ATOM      8  C   UNL     1      -3.418  -3.627   1.684  1.00  0.00     0.082 A 
ATOM      9  C   UNL     1      -2.406  -2.830   1.108  1.00  0.00     0.142 A 
ATOM     10  N   UNL     1      -2.666  -1.567   0.655  1.00  0.00    -0.229 NA
ATOM     11  C   UNL     1      -3.937  -1.119   0.648  1.00  0.00     0.083 A 
ATOM     12  C   UNL     1      -4.735  -3.184   1.515  1.00  0.00     0.020 A 
ATOM     13  C   UNL     1      -5.003  -1.911   1.022  1.00  0.00     0.031 A 
BRANCH   9  14
ATOM     14  N   UNL     1      -1.113  -3.231   0.882  1.00  0.00    -0.355 N 
ATOM     15  C   UNL     1       1.099  -2.195   0.589  1.00  0.00     0.011 C 
ATOM     16  C   UNL     1       1.521  -3.494  -0.161  1.00  0.00     0.013 C 
ATOM     17  C   UNL     1      -0.051  -2.521   1.568  1.00  0.00     0.127 C 
ATOM     18  C   UNL     1       0.339  -4.248  -0.789  1.00  0.00     0.022 C 
ATOM     19  C   UNL     1      -0.773  -4.488   0.229  1.00  0.00     0.118 C 
BRANCH  15  20
ATOM     20  C   UNL     1       2.336  -1.613   1.343  1.00  0.00     0.008 C 
ATOM     21  C   UNL     1       2.663  -2.243   2.693  1.00  0.00     0.004 C 
ENDBRANCH  15  20
BRANCH  15  22
ATOM     22  C   UNL     1       0.587  -1.138  -0.430  1.00  0.00     0.164 C 
BRANCH  22  23
ATOM     23  O   UNL     1       1.665  -0.533  -1.144  1.00  0.00    -0.396 OA
ATOM     24  H   UNL     1       2.252  -0.080  -0.520  1.00  0.00     0.210 HD
ENDBRANCH  22  23
ENDBRANCH  15  22
ENDBRANCH   9  14
BRANCH  11  25
ATOM     25  C   UNL     1      -4.148   0.267   0.244  1.00  0.00     0.053 A 
ATOM     26  C   UNL     1      -4.674   1.307   0.990  1.00  0.00     0.022 A 
ATOM     27  S   UNL     1      -3.811   0.761  -1.358  1.00  0.00    -0.139 S 
ATOM     28  C   UNL     1      -4.844   2.496   0.223  1.00  0.00     0.016 A 
ATOM     29  C   UNL     1      -4.440   2.331  -1.085  1.00  0.00     0.002 A 
ATOM     30  C   UNL     1      -4.503   3.313  -2.203  1.00  0.00     0.056 C 
ENDBRANCH  11  25
ENDBRANCH   5   8
ENDBRANCH   3   4
ENDBRANCH   2   3
ENDBRANCH   1   2
BRANCH   1  31
ATOM     31  C   UNL     1      -6.353  -7.898   5.083  1.00  0.00     0.002 C 
BRANCH  31  32
ATOM     32  C   UNL     1      -7.727  -7.345   5.467  1.00  0.00     0.021 C 
BRANCH  32  33
ATOM     33  C   UNL     1      -8.889  -8.013   4.741  1.00  0.00     0.116 C 
BRANCH  33  34
ATOM     34  N   UNL     1      -9.020  -9.411   5.116  1.00  0.00    -0.352 N 
ATOM     35  C   UNL     1     -10.103 -10.068   5.642  1.00  0.00     0.251 C 
ATOM     36  H   UNL     1      -8.218  -9.964   4.973  1.00  0.00     0.163 HD
ATOM     37  O   UNL     1      -9.975 -11.188   6.123  1.00  0.00    -0.269 OA
BRANCH  35  38
ATOM     38  C   UNL     1     -11.428  -9.415   5.636  1.00  0.00     0.039 A 
ATOM     39  C   UNL     1     -12.222  -9.486   6.783  1.00  0.00     0.014 A 
ATOM     40  C   UNL     1     -11.895  -8.754   4.496  1.00  0.00     0.014 A 
ATOM     41  C   UNL     1     -13.465  -8.851   6.803  1.00  0.00     0.010 A 
ATOM     42  C   UNL     1     -13.102  -8.064   4.541  1.00  0.00     0.010 A 
ATOM     43  C   UNL     1     -13.903  -8.113   5.692  1.00  0.00    -0.014 A 
BRANCH  43  44
ATOM     44  C   UNL     1     -15.200  -7.390   5.714  1.00  0.00     0.031 A 
ATOM     45  C   UNL     1     -16.302  -7.792   4.773  1.00  0.00     0.074 A 
ATOM     46  C   UNL     1     -15.358  -6.332   6.533  1.00  0.00     0.049 A 
ATOM     47  N   UNL     1     -17.474  -7.239   4.587  1.00  0.00    -0.248 NA
ATOM     48  C   UNL     1     -16.046  -8.954   3.905  1.00  0.00     0.031 C 
ATOM     49  C   UNL     1     -14.343  -5.814   7.452  1.00  0.00     0.029 A 
ATOM     50  N   UNL     1     -16.427  -5.489   6.712  1.00  0.00    -0.354 N 
ATOM     51  C   UNL     1     -18.080  -7.967   3.572  1.00  0.00     0.074 A 
ATOM     52  C   UNL     1     -17.136  -8.978   3.151  1.00  0.00     0.031 C 
ATOM     53  C   UNL     1     -14.841  -4.752   8.106  1.00  0.00     0.029 A 
ATOM     54  C   UNL     1     -16.194  -4.489   7.626  1.00  0.00     0.049 A 
ATOM     55  H   UNL     1     -17.280  -5.591   6.231  1.00  0.00     0.167 HD
ATOM     56  C   UNL     1     -19.321  -7.815   3.052  1.00  0.00     0.037 A 
ATOM     57  C   UNL     1     -16.979  -3.469   8.021  1.00  0.00     0.037 A 
ATOM     58  C   UNL     1     -20.275  -6.838   3.507  1.00  0.00     0.049 A 
ATOM     59  C   UNL     1     -18.360  -3.340   7.435  1.00  0.00     0.074 A 
ATOM     60  C   UNL     1     -21.588  -6.666   3.107  1.00  0.00     0.029 A 
ATOM     61  N   UNL     1     -20.016  -5.867   4.463  1.00  0.00    -0.354 N 
ATOM     62  N   UNL     1     -18.954  -4.091   6.540  1.00  0.00    -0.248 NA
ATOM     63  C   UNL     1     -19.185  -2.224   7.921  1.00  0.00     0.031 C 
ATOM     64  C   UNL     1     -22.109  -5.558   3.781  1.00  0.00     0.029 A 
ATOM     65  C   UNL     1     -21.138  -5.075   4.643  1.00  0.00     0.049 A 
ATOM     66  H   UNL     1     -19.163  -5.757   4.941  1.00  0.00     0.167 HD
ATOM     67  C   UNL     1     -20.229  -3.562   6.383  1.00  0.00     0.074 A 
ATOM     68  C   UNL     1     -20.329  -2.436   7.286  1.00  0.00     0.031 C 
ATOM     69  C   UNL     1     -21.226  -3.970   5.562  1.00  0.00     0.037 A 
BRANCH  56  70
ATOM     70  C   UNL     1     -19.738  -8.726   1.935  1.00  0.00     0.064 A 
ATOM     71  C   UNL     1     -20.024 -10.081   2.156  1.00  0.00     0.173 A 
ATOM     72  C   UNL     1     -19.940  -8.214   0.644  1.00  0.00     0.173 A 
ATOM     73  F   UNL     1     -19.838 -10.621   3.370  1.00  0.00    -0.203 F 
ATOM     74  C   UNL     1     -20.487 -10.892   1.123  1.00  0.00     0.198 A 
ATOM     75  C   UNL     1     -20.429  -9.021  -0.379  1.00  0.00     0.198 A 
ATOM     76  F   UNL     1     -19.686  -6.923   0.381  1.00  0.00    -0.203 F 
ATOM     77  F   UNL     1     -20.728 -12.191   1.351  1.00  0.00    -0.200 F 
ATOM     78  C   UNL     1     -20.700 -10.360  -0.139  1.00  0.00     0.200 A 
ATOM     79  F   UNL     1     -20.648  -8.501  -1.595  1.00  0.00    -0.200 F 
ATOM     80  F   UNL     1     -21.167 -11.137  -1.126  1.00  0.00    -0.200 F 
ENDBRANCH  56  70
BRANCH  57  81
ATOM     81  C   UNL     1     -16.487  -2.484   9.021  1.00  0.00     0.064 A 
ATOM     82  C   UNL     1     -17.069  -2.393  10.294  1.00  0.00     0.173 A 
ATOM     83  C   UNL     1     -15.457  -1.583   8.711  1.00  0.00     0.173 A 
ATOM     84  F   UNL     1     -18.070  -3.219  10.632  1.00  0.00    -0.203 F 
ATOM     85  C   UNL     1     -16.668  -1.416  11.202  1.00  0.00     0.198 A 
ATOM     86  C   UNL     1     -15.033  -0.628   9.633  1.00  0.00     0.198 A 
ATOM     87  F   UNL     1     -14.861  -1.631   7.511  1.00  0.00    -0.203 F 
ATOM     88  F   UNL     1     -17.288  -1.309  12.385  1.00  0.00    -0.200 F 
ATOM     89  C   UNL     1     -15.648  -0.536  10.872  1.00  0.00     0.200 A 
ATOM     90  F   UNL     1     -14.037   0.210   9.315  1.00  0.00    -0.200 F 
ATOM     91  F   UNL     1     -15.268   0.409  11.742  1.00  0.00    -0.200 F 
ENDBRANCH  57  81
BRANCH  69  92
ATOM     92  C   UNL     1     -22.528  -3.226   5.635  1.00  0.00     0.064 A 
ATOM     93  C   UNL     1     -22.660  -1.921   5.139  1.00  0.00     0.173 A 
ATOM     94  C   UNL     1     -23.668  -3.845   6.169  1.00  0.00     0.173 A 
ATOM     95  F   UNL     1     -21.596  -1.280   4.632  1.00  0.00    -0.203 F 
ATOM     96  C   UNL     1     -23.880  -1.253   5.202  1.00  0.00     0.198 A 
ATOM     97  C   UNL     1     -24.893  -3.187   6.200  1.00  0.00     0.198 A 
ATOM     98  F   UNL     1     -23.596  -5.096   6.648  1.00  0.00    -0.203 F 
ATOM     99  F   UNL     1     -23.971   0.012   4.769  1.00  0.00    -0.200 F 
ATOM    100  C   UNL     1     -24.997  -1.889   5.724  1.00  0.00     0.200 A 
ATOM    101  F   UNL     1     -25.975  -3.809   6.690  1.00  0.00    -0.200 F 
ATOM    102  F   UNL     1     -26.172  -1.247   5.776  1.00  0.00    -0.200 F 
ENDBRANCH  69  92
ENDBRANCH  43  44
ENDBRANCH  35  38
ENDBRANCH  33  34
ENDBRANCH  32  33
ENDBRANCH  31  32
ENDBRANCH   1  31
TORSDOF 18
