REMARK SMILES O=C(NCCCCCCNC(=O)c1cc(OC[C@@H]2Cc3cc(F)ccc3O2)cs1)c1ccc(-c2c3nc(c(-c4c(F)c(F)c(F)c(F)c4F)c4ccc([nH]4)c(-c4c(F)c(F)c(F)c(F)c4F)c4nc(c(-c5c(F)c(F)c(F)c(F)c5F)c5ccc2[nH]5)C=C4)C=C3)cc1
REMARK SMILES IDX 7 1 6 2 5 3 4 4 3 5 1 6 2 7 30 9 31 10 92 11 32 12 91 13
REMARK SMILES IDX 33 14 34 15 35 16 85 17 36 18 90 19 84 20 86 21 37 22 89 23
REMARK SMILES IDX 83 24 82 25 38 27 70 28 50 29 69 30 51 31 54 32 68 33 87 34
REMARK SMILES IDX 52 35 53 36 67 38 88 39 55 40 39 41 40 42 48 43 41 44 42 45
REMARK SMILES IDX 46 46 49 47 43 48 44 49 47 50 45 51 71 52 72 53 80 54 73 55
REMARK SMILES IDX 74 56 78 57 81 58 75 59 76 60 79 61 77 62 56 63 57 64 65 65
REMARK SMILES IDX 58 66 59 67 63 68 66 69 60 70 61 71 64 72 62 73 8 74 9 75
REMARK SMILES IDX 10 76 11 77 12 79 13 80 14 81 29 82 15 83 28 84 16 85 17 86
REMARK SMILES IDX 18 87 19 88 27 89 20 90 26 91 21 92 25 93 22 94 24 95 23 96
REMARK H PARENT 3 8 86 26 54 37 10 78
REMARK Flexibility Score: inf
ROOT
ATOM      1  C   UNL     1       4.700  -3.463  -2.629  1.00  0.00     0.002 C 
ENDROOT
BRANCH   1   2
ATOM      2  C   UNL     1       4.179  -3.688  -1.207  1.00  0.00     0.002 C 
BRANCH   2   3
ATOM      3  C   UNL     1       4.697  -2.715  -0.145  1.00  0.00     0.021 C 
BRANCH   3   4
ATOM      4  C   UNL     1       4.491  -1.236  -0.456  1.00  0.00     0.116 C 
BRANCH   4   5
ATOM      5  N   UNL     1       3.090  -0.889  -0.603  1.00  0.00    -0.352 N 
ATOM      6  O   UNL     1       1.121   0.076  -0.126  1.00  0.00    -0.269 OA
ATOM      7  C   UNL     1       2.339   0.062   0.037  1.00  0.00     0.251 C 
ATOM      8  H   UNL     1       2.600  -1.423  -1.269  1.00  0.00     0.163 HD
BRANCH   7   9
ATOM      9  C   UNL     1       2.965   1.072   0.923  1.00  0.00     0.039 A 
ATOM     10  C   UNL     1       2.255   1.490   2.054  1.00  0.00     0.014 A 
ATOM     11  C   UNL     1       4.186   1.676   0.612  1.00  0.00     0.014 A 
ATOM     12  C   UNL     1       2.764   2.507   2.864  1.00  0.00     0.010 A 
ATOM     13  C   UNL     1       4.736   2.631   1.467  1.00  0.00     0.010 A 
ATOM     14  C   UNL     1       4.007   3.089   2.573  1.00  0.00    -0.014 A 
BRANCH  14  15
ATOM     15  C   UNL     1       4.492   4.258   3.348  1.00  0.00     0.031 A 
ATOM     16  C   UNL     1       4.588   5.604   2.679  1.00  0.00     0.074 A 
ATOM     17  C   UNL     1       4.838   4.123   4.642  1.00  0.00     0.049 A 
ATOM     18  N   UNL     1       4.975   6.752   3.176  1.00  0.00    -0.248 NA
ATOM     19  C   UNL     1       4.223   5.663   1.254  1.00  0.00     0.031 C 
ATOM     20  C   UNL     1       4.814   2.869   5.394  1.00  0.00     0.029 A 
ATOM     21  N   UNL     1       5.266   5.054   5.554  1.00  0.00    -0.354 N 
ATOM     22  C   UNL     1       4.912   7.657   2.125  1.00  0.00     0.074 A 
ATOM     23  C   UNL     1       4.514   6.918   0.948  1.00  0.00     0.031 C 
ATOM     24  C   UNL     1       5.171   3.116   6.665  1.00  0.00     0.029 A 
ATOM     25  C   UNL     1       5.474   4.539   6.810  1.00  0.00     0.049 A 
ATOM     26  H   UNL     1       5.410   6.002   5.330  1.00  0.00     0.167 HD
ATOM     27  C   UNL     1       5.126   8.993   2.144  1.00  0.00     0.037 A 
ATOM     28  C   UNL     1       5.854   5.149   7.949  1.00  0.00     0.037 A 
ATOM     29  C   UNL     1       5.470   9.737   3.324  1.00  0.00     0.049 A 
ATOM     30  C   UNL     1       6.109   6.632   7.944  1.00  0.00     0.074 A 
ATOM     31  C   UNL     1       5.625  11.104   3.466  1.00  0.00     0.029 A 
ATOM     32  N   UNL     1       5.708   9.171   4.567  1.00  0.00    -0.354 N 
ATOM     33  N   UNL     1       5.980   7.488   6.961  1.00  0.00    -0.248 NA
ATOM     34  C   UNL     1       6.565   7.232   9.206  1.00  0.00     0.031 C 
ATOM     35  C   UNL     1       5.998  11.363   4.788  1.00  0.00     0.029 A 
ATOM     36  C   UNL     1       6.040  10.160   5.477  1.00  0.00     0.049 A 
ATOM     37  H   UNL     1       5.649   8.210   4.773  1.00  0.00     0.167 HD
ATOM     38  C   UNL     1       6.328   8.726   7.483  1.00  0.00     0.074 A 
ATOM     39  C   UNL     1       6.659   8.515   8.877  1.00  0.00     0.031 C 
ATOM     40  C   UNL     1       6.373   9.929   6.860  1.00  0.00     0.037 A 
BRANCH  27  41
ATOM     41  C   UNL     1       4.974   9.738   0.851  1.00  0.00     0.064 A 
ATOM     42  C   UNL     1       3.715   9.935   0.263  1.00  0.00     0.173 A 
ATOM     43  C   UNL     1       6.093  10.283   0.205  1.00  0.00     0.173 A 
ATOM     44  F   UNL     1       2.615   9.423   0.836  1.00  0.00    -0.203 F 
ATOM     45  C   UNL     1       3.586  10.621  -0.941  1.00  0.00     0.198 A 
ATOM     46  C   UNL     1       5.957  10.994  -0.985  1.00  0.00     0.198 A 
ATOM     47  F   UNL     1       7.318  10.129   0.728  1.00  0.00    -0.203 F 
ATOM     48  F   UNL     1       2.379  10.751  -1.510  1.00  0.00    -0.200 F 
ATOM     49  C   UNL     1       4.705  11.155  -1.561  1.00  0.00     0.200 A 
ATOM     50  F   UNL     1       7.038  11.519  -1.577  1.00  0.00    -0.200 F 
ATOM     51  F   UNL     1       4.579  11.818  -2.718  1.00  0.00    -0.200 F 
ENDBRANCH  27  41
BRANCH  28  52
ATOM     52  C   UNL     1       5.971   4.354   9.198  1.00  0.00     0.064 A 
ATOM     53  C   UNL     1       5.017   4.482  10.217  1.00  0.00     0.173 A 
ATOM     54  C   UNL     1       7.004   3.425   9.382  1.00  0.00     0.173 A 
ATOM     55  F   UNL     1       4.021   5.372  10.093  1.00  0.00    -0.203 F 
ATOM     56  C   UNL     1       5.092   3.709  11.373  1.00  0.00     0.198 A 
ATOM     57  C   UNL     1       7.067   2.638  10.530  1.00  0.00     0.198 A 
ATOM     58  F   UNL     1       7.939   3.264   8.433  1.00  0.00    -0.203 F 
ATOM     59  F   UNL     1       4.178   3.864  12.341  1.00  0.00    -0.200 F 
ATOM     60  C   UNL     1       6.112   2.781  11.525  1.00  0.00     0.200 A 
ATOM     61  F   UNL     1       8.046   1.733  10.667  1.00  0.00    -0.200 F 
ATOM     62  F   UNL     1       6.175   2.026  12.630  1.00  0.00    -0.200 F 
ENDBRANCH  28  52
BRANCH  40  63
ATOM     63  C   UNL     1       6.809  11.117   7.663  1.00  0.00     0.064 A 
ATOM     64  C   UNL     1       8.161  11.323   7.972  1.00  0.00     0.173 A 
ATOM     65  C   UNL     1       5.889  12.111   8.028  1.00  0.00     0.173 A 
ATOM     66  F   UNL     1       9.075  10.394   7.653  1.00  0.00    -0.203 F 
ATOM     67  C   UNL     1       8.577  12.485   8.616  1.00  0.00     0.198 A 
ATOM     68  C   UNL     1       6.311  13.281   8.651  1.00  0.00     0.198 A 
ATOM     69  F   UNL     1       4.586  11.962   7.746  1.00  0.00    -0.203 F 
ATOM     70  F   UNL     1       9.872  12.656   8.914  1.00  0.00    -0.200 F 
ATOM     71  C   UNL     1       7.654  13.468   8.943  1.00  0.00     0.200 A 
ATOM     72  F   UNL     1       5.421  14.237   8.953  1.00  0.00    -0.200 F 
ATOM     73  F   UNL     1       8.060  14.597   9.539  1.00  0.00    -0.200 F 
ENDBRANCH  40  63
ENDBRANCH  14  15
ENDBRANCH   7   9
ENDBRANCH   4   5
ENDBRANCH   3   4
ENDBRANCH   2   3
ENDBRANCH   1   2
BRANCH   1  74
ATOM     74  C   UNL     1       6.222  -3.393  -2.774  1.00  0.00     0.021 C 
BRANCH  74  75
ATOM     75  C   UNL     1       6.982  -4.601  -2.237  1.00  0.00     0.116 C 
BRANCH  75  76
ATOM     76  N   UNL     1       6.713  -5.813  -2.992  1.00  0.00    -0.351 N 
ATOM     77  C   UNL     1       7.616  -6.705  -3.531  1.00  0.00     0.261 C 
ATOM     78  H   UNL     1       5.763  -6.024  -3.138  1.00  0.00     0.163 HD
ATOM     79  O   UNL     1       7.189  -7.599  -4.259  1.00  0.00    -0.268 OA
BRANCH  77  80
ATOM     80  C   UNL     1       9.012  -6.520  -3.200  1.00  0.00     0.096 A 
ATOM     81  C   UNL     1       9.595  -6.428  -1.950  1.00  0.00     0.072 A 
ATOM     82  S   UNL     1      10.164  -6.347  -4.448  1.00  0.00    -0.135 S 
ATOM     83  C   UNL     1      10.937  -5.965  -2.027  1.00  0.00     0.131 A 
ATOM     84  C   UNL     1      11.389  -5.933  -3.326  1.00  0.00     0.112 A 
BRANCH  83  85
ATOM     85  O   UNL     1      11.768  -5.561  -1.035  1.00  0.00    -0.489 OA
BRANCH  85  86
ATOM     86  C   UNL     1      11.187  -5.415   0.262  1.00  0.00     0.275 C 
BRANCH  86  87
ATOM     87  C   UNL     1      10.204  -4.245   0.394  1.00  0.00     0.215 C 
ATOM     88  C   UNL     1      10.708  -2.929  -0.216  1.00  0.00     0.088 C 
ATOM     89  O   UNL     1       9.896  -4.026   1.800  1.00  0.00    -0.486 OA
ATOM     90  C   UNL     1      10.089  -1.983   0.743  1.00  0.00     0.001 A 
ATOM     91  C   UNL     1       9.686  -2.674   1.877  1.00  0.00     0.123 A 
ATOM     92  C   UNL     1       9.950  -0.609   0.665  1.00  0.00     0.047 A 
ATOM     93  C   UNL     1       9.147  -2.034   2.976  1.00  0.00     0.050 A 
ATOM     94  C   UNL     1       9.391   0.048   1.761  1.00  0.00     0.123 A 
ATOM     95  C   UNL     1       8.996  -0.647   2.911  1.00  0.00     0.043 A 
ATOM     96  F   UNL     1       9.235   1.378   1.716  1.00  0.00    -0.207 F 
ENDBRANCH  86  87
ENDBRANCH  85  86
ENDBRANCH  83  85
ENDBRANCH  77  80
ENDBRANCH  75  76
ENDBRANCH  74  75
ENDBRANCH   1  74
TORSDOF 16
