REMARK SMILES CCc1ccccc1C[N@@H+]1CC2(CCN(C(=O)C3CC3)CC2)C[C@H]1C(=O)NCCCCCCNC(=O)c1ccc(-c2c3nc(c(-c4c(F)c(F)c(F)c(F)c4F)c4ccc([nH]4)c(-c4c(F)c(F)c(F)c(F)c4F)c4nc(c(-c5c(F)c(F)c(F)c(F)c5F)c5ccc2[nH]5)C=C4)C=C3)cc1
REMARK SMILES IDX 30 1 29 2 28 3 27 4 25 5 26 6 24 8 10 9 11 10 12 12 23 13
REMARK SMILES IDX 13 14 22 15 14 16 21 17 15 18 16 19 17 20 9 21 8 22 3 23
REMARK SMILES IDX 4 24 5 25 7 26 6 27 2 28 1 29 18 30 19 31 20 32 31 33 32 34
REMARK SMILES IDX 33 35 34 36 35 37 36 39 37 40 38 41 99 42 39 43 98 44 40 45
REMARK SMILES IDX 41 46 42 47 92 48 43 49 97 50 91 51 93 52 44 53 96 54 90 55
REMARK SMILES IDX 89 56 45 58 77 59 57 60 76 61 58 62 61 63 75 64 94 65 59 66
REMARK SMILES IDX 60 67 74 69 95 70 62 71 46 72 47 73 55 74 48 75 49 76 53 77
REMARK SMILES IDX 56 78 50 79 51 80 54 81 52 82 78 83 79 84 87 85 80 86 81 87
REMARK SMILES IDX 85 88 88 89 82 90 83 91 86 92 84 93 63 94 64 95 72 96 65 97
REMARK SMILES IDX 66 98 70 99 73 100 67 101 68 102 71 103 69 104
REMARK H PARENT 27 7 10 11 34 38 93 57 61 68
REMARK Flexibility Score: inf
ROOT
ATOM      1  C   UNL     1       9.403   0.713  -3.782  1.00  0.00     0.002 C 
ENDROOT
BRANCH   1   2
ATOM      2  C   UNL     1       7.876   0.668  -3.865  1.00  0.00     0.021 C 
BRANCH   2   3
ATOM      3  C   UNL     1       7.220  -0.050  -2.692  1.00  0.00     0.116 C 
BRANCH   3   4
ATOM      4  N   UNL     1       6.524   0.779  -1.752  1.00  0.00    -0.351 N 
ATOM      5  C   UNL     1       5.243   0.675  -1.287  1.00  0.00     0.278 C 
ATOM      6  O   UNL     1       4.963   1.409  -0.329  1.00  0.00    -0.268 OA
ATOM      7  H   UNL     1       7.044   1.532  -1.388  1.00  0.00     0.163 HD
BRANCH   5   8
ATOM      8  C   UNL     1       4.151  -0.286  -1.861  1.00  0.00     0.275 C 
ATOM      9  N   UNL     1       3.831   0.006  -3.267  1.00  0.00    -0.320 N 
ATOM     10  C   UNL     1       4.286  -1.117  -4.088  1.00  0.00     0.270 C 
ATOM     11  H   UNL     1       4.346   0.831  -3.574  1.00  0.00     0.349 HD
ATOM     12  C   UNL     1       4.519  -2.356  -3.174  1.00  0.00     0.029 C 
ATOM     13  C   UNL     1       4.387  -1.794  -1.744  1.00  0.00     0.088 C 
ATOM     14  C   UNL     1       5.870  -3.103  -3.333  1.00  0.00     0.034 C 
ATOM     15  C   UNL     1       3.499  -3.474  -3.491  1.00  0.00     0.034 C 
ATOM     16  C   UNL     1       6.082  -3.582  -4.759  1.00  0.00     0.120 C 
ATOM     17  C   UNL     1       3.657  -3.988  -4.934  1.00  0.00     0.120 C 
ATOM     18  N   UNL     1       5.017  -4.486  -5.165  1.00  0.00    -0.342 N 
ATOM     19  C   UNL     1       5.149  -5.669  -5.890  1.00  0.00     0.225 C 
ATOM     20  O   UNL     1       4.192  -6.130  -6.513  1.00  0.00    -0.275 OA
BRANCH   9  21
ATOM     21  C   UNL     1       2.433   0.464  -3.489  1.00  0.00     0.299 C 
BRANCH  21  22
ATOM     22  C   UNL     1       1.312  -0.554  -3.282  1.00  0.00     0.009 A 
ATOM     23  C   UNL     1       0.591  -0.722  -2.077  1.00  0.00    -0.039 A 
ATOM     24  C   UNL     1      -0.192  -1.885  -1.908  1.00  0.00     0.004 A 
ATOM     25  C   UNL     1      -0.366  -2.801  -2.944  1.00  0.00     0.000 A 
ATOM     26  C   UNL     1       1.000  -1.414  -4.358  1.00  0.00     0.010 A 
ATOM     27  C   UNL     1       0.176  -2.530  -4.192  1.00  0.00     0.001 A 
BRANCH  23  28
ATOM     28  C   UNL     1       0.441   0.365  -1.029  1.00  0.00     0.032 C 
ATOM     29  C   UNL     1       0.920   0.028   0.374  1.00  0.00     0.009 C 
ENDBRANCH  23  28
ENDBRANCH  21  22
ENDBRANCH   9  21
BRANCH  19  30
ATOM     30  C   UNL     1       6.378  -6.521  -5.871  1.00  0.00     0.079 C 
ATOM     31  C   UNL     1       7.830  -6.140  -5.880  1.00  0.00     0.014 C 
ATOM     32  C   UNL     1       7.206  -6.676  -4.617  1.00  0.00     0.014 C 
ENDBRANCH  19  30
ENDBRANCH   5   8
ENDBRANCH   3   4
ENDBRANCH   2   3
ENDBRANCH   1   2
BRANCH   1  33
ATOM     33  C   UNL     1      10.109  -0.651  -3.724  1.00  0.00     0.002 C 
BRANCH  33  34
ATOM     34  C   UNL     1       9.845  -1.595  -4.900  1.00  0.00     0.021 C 
BRANCH  34  35
ATOM     35  C   UNL     1      10.221  -1.034  -6.267  1.00  0.00     0.116 C 
BRANCH  35  36
ATOM     36  N   UNL     1      11.625  -0.655  -6.339  1.00  0.00    -0.352 N 
ATOM     37  C   UNL     1      12.598  -1.067  -7.218  1.00  0.00     0.251 C 
ATOM     38  H   UNL     1      11.921  -0.009  -5.658  1.00  0.00     0.163 HD
ATOM     39  O   UNL     1      13.774  -0.809  -7.015  1.00  0.00    -0.269 OA
BRANCH  37  40
ATOM     40  C   UNL     1      12.203  -1.841  -8.412  1.00  0.00     0.039 A 
ATOM     41  C   UNL     1      12.902  -3.006  -8.737  1.00  0.00     0.014 A 
ATOM     42  C   UNL     1      11.130  -1.414  -9.197  1.00  0.00     0.014 A 
ATOM     43  C   UNL     1      12.478  -3.785  -9.816  1.00  0.00     0.010 A 
ATOM     44  C   UNL     1      10.665  -2.227 -10.222  1.00  0.00     0.010 A 
ATOM     45  C   UNL     1      11.334  -3.420 -10.542  1.00  0.00    -0.014 A 
BRANCH  45  46
ATOM     46  C   UNL     1      10.808  -4.246 -11.657  1.00  0.00     0.031 A 
ATOM     47  C   UNL     1      10.755  -3.662 -13.042  1.00  0.00     0.074 A 
ATOM     48  C   UNL     1      10.277  -5.458 -11.405  1.00  0.00     0.049 A 
ATOM     49  N   UNL     1      10.165  -4.124 -14.114  1.00  0.00    -0.248 NA
ATOM     50  C   UNL     1      11.428  -2.367 -13.239  1.00  0.00     0.031 C 
ATOM     51  C   UNL     1      10.248  -6.117 -10.098  1.00  0.00     0.029 A 
ATOM     52  N   UNL     1       9.628  -6.340 -12.234  1.00  0.00    -0.354 N 
ATOM     53  C   UNL     1      10.362  -3.162 -15.096  1.00  0.00     0.074 A 
ATOM     54  C   UNL     1      11.099  -2.076 -14.489  1.00  0.00     0.031 C 
ATOM     55  C   UNL     1       9.617  -7.297 -10.213  1.00  0.00     0.029 A 
ATOM     56  C   UNL     1       9.148  -7.455 -11.586  1.00  0.00     0.049 A 
ATOM     57  H   UNL     1       9.517  -6.189 -13.200  1.00  0.00     0.167 HD
ATOM     58  C   UNL     1       9.971  -3.192 -16.391  1.00  0.00     0.037 A 
ATOM     59  C   UNL     1       8.389  -8.469 -12.045  1.00  0.00     0.037 A 
ATOM     60  C   UNL     1       9.280  -4.299 -16.997  1.00  0.00     0.049 A 
ATOM     61  C   UNL     1       7.958  -8.464 -13.491  1.00  0.00     0.074 A 
ATOM     62  C   UNL     1       8.917  -4.463 -18.321  1.00  0.00     0.029 A 
ATOM     63  N   UNL     1       8.847  -5.426 -16.317  1.00  0.00    -0.354 N 
ATOM     64  N   UNL     1       8.218  -7.587 -14.430  1.00  0.00    -0.248 NA
ATOM     65  C   UNL     1       7.126  -9.590 -13.942  1.00  0.00     0.031 C 
ATOM     66  C   UNL     1       8.207  -5.660 -18.432  1.00  0.00     0.029 A 
ATOM     67  C   UNL     1       8.190  -6.276 -17.191  1.00  0.00     0.049 A 
ATOM     68  H   UNL     1       8.985  -5.597 -15.357  1.00  0.00     0.167 HD
ATOM     69  C   UNL     1       7.627  -8.080 -15.587  1.00  0.00     0.074 A 
ATOM     70  C   UNL     1       6.997  -9.333 -15.236  1.00  0.00     0.031 C 
ATOM     71  C   UNL     1       7.609  -7.543 -16.831  1.00  0.00     0.037 A 
BRANCH  58  72
ATOM     72  C   UNL     1      10.268  -2.001 -17.252  1.00  0.00     0.064 A 
ATOM     73  C   UNL     1      11.572  -1.694 -17.668  1.00  0.00     0.173 A 
ATOM     74  C   UNL     1       9.219  -1.206 -17.739  1.00  0.00     0.173 A 
ATOM     75  F   UNL     1      12.611  -2.416 -17.222  1.00  0.00    -0.203 F 
ATOM     76  C   UNL     1      11.815  -0.629 -18.531  1.00  0.00     0.198 A 
ATOM     77  C   UNL     1       9.463  -0.161 -18.626  1.00  0.00     0.198 A 
ATOM     78  F   UNL     1       7.953  -1.459 -17.376  1.00  0.00    -0.203 F 
ATOM     79  F   UNL     1      13.072  -0.334 -18.891  1.00  0.00    -0.200 F 
ATOM     80  C   UNL     1      10.760   0.128 -19.019  1.00  0.00     0.200 A 
ATOM     81  F   UNL     1       8.440   0.558 -19.109  1.00  0.00    -0.200 F 
ATOM     82  F   UNL     1      10.995   1.138 -19.868  1.00  0.00    -0.200 F 
ENDBRANCH  58  72
BRANCH  59  83
ATOM     83  C   UNL     1       7.973  -9.576 -11.140  1.00  0.00     0.064 A 
ATOM     84  C   UNL     1       8.415 -10.889 -11.359  1.00  0.00     0.173 A 
ATOM     85  C   UNL     1       7.088  -9.360 -10.073  1.00  0.00     0.173 A 
ATOM     86  F   UNL     1       9.252 -11.153 -12.373  1.00  0.00    -0.203 F 
ATOM     87  C   UNL     1       7.952 -11.947 -10.579  1.00  0.00     0.198 A 
ATOM     88  C   UNL     1       6.655 -10.413  -9.269  1.00  0.00     0.198 A 
ATOM     89  F   UNL     1       6.645  -8.123  -9.806  1.00  0.00    -0.203 F 
ATOM     90  F   UNL     1       8.336 -13.200 -10.860  1.00  0.00    -0.200 F 
ATOM     91  C   UNL     1       7.073 -11.708  -9.534  1.00  0.00     0.200 A 
ATOM     92  F   UNL     1       5.826 -10.175  -8.244  1.00  0.00    -0.200 F 
ATOM     93  F   UNL     1       6.622 -12.727  -8.790  1.00  0.00    -0.200 F 
ENDBRANCH  59  83
BRANCH  71  94
ATOM     94  C   UNL     1       6.961  -8.335 -17.929  1.00  0.00     0.064 A 
ATOM     95  C   UNL     1       5.570  -8.481 -18.017  1.00  0.00     0.173 A 
ATOM     96  C   UNL     1       7.748  -8.879 -18.957  1.00  0.00     0.173 A 
ATOM     97  F   UNL     1       4.777  -7.990 -17.053  1.00  0.00    -0.203 F 
ATOM     98  C   UNL     1       4.990  -9.155 -19.089  1.00  0.00     0.198 A 
ATOM     99  C   UNL     1       7.163  -9.522 -20.043  1.00  0.00     0.198 A 
ATOM    100  F   UNL     1       9.083  -8.758 -18.923  1.00  0.00    -0.203 F 
ATOM    101  F   UNL     1       3.661  -9.314 -19.137  1.00  0.00    -0.200 F 
ATOM    102  C   UNL     1       5.785  -9.663 -20.106  1.00  0.00     0.200 A 
ATOM    103  F   UNL     1       7.932  -9.994 -21.034  1.00  0.00    -0.200 F 
ATOM    104  F   UNL     1       5.223 -10.289 -21.149  1.00  0.00    -0.200 F 
ENDBRANCH  71  94
ENDBRANCH  45  46
ENDBRANCH  37  40
ENDBRANCH  35  36
ENDBRANCH  34  35
ENDBRANCH  33  34
ENDBRANCH   1  33
TORSDOF 17
