REMARK SMILES O=C(NCCCCCCNC(=O)c1ccc(F)cc1-c1ccc(F)c(Cl)c1)c1ccc(-c2c3nc(c(-c4c(F)c(F)c(F)c(F)c4F)c4ccc([nH]4)c(-c4c(F)c(F)c(F)c(F)c4F)c4nc(c(-c5c(F)c(F)c(F)c(F)c5F)c5ccc2[nH]5)C=C4)C=C3)cc1
REMARK SMILES IDX 6 1 5 2 4 3 3 4 1 5 2 6 28 8 29 9 90 10 30 11 89 12 31 13
REMARK SMILES IDX 32 14 33 15 83 16 34 17 88 18 82 19 84 20 35 21 87 22 81 23
REMARK SMILES IDX 80 24 36 26 68 27 48 28 67 29 49 30 52 31 66 32 85 33 50 34
REMARK SMILES IDX 51 35 65 37 86 38 53 39 37 40 38 41 46 42 39 43 40 44 44 45
REMARK SMILES IDX 47 46 41 47 42 48 45 49 43 50 69 51 70 52 78 53 71 54 72 55
REMARK SMILES IDX 76 56 79 57 73 58 74 59 77 60 75 61 54 62 55 63 63 64 56 65
REMARK SMILES IDX 57 66 61 67 64 68 58 69 59 70 62 71 60 72 7 73 8 74 9 75
REMARK SMILES IDX 10 76 11 77 12 79 13 80 14 81 19 82 15 83 18 84 16 85 17 86
REMARK SMILES IDX 20 87 21 88 27 89 22 90 25 91 23 92 26 93 24 94
REMARK H PARENT 3 7 84 25 52 36 10 78
REMARK Flexibility Score: inf
ROOT
ATOM      1  C   UNL     1       4.250  -1.574  -3.495  1.00  0.00     0.002 C 
ENDROOT
BRANCH   1   2
ATOM      2  C   UNL     1       4.710  -1.647  -2.039  1.00  0.00     0.021 C 
BRANCH   2   3
ATOM      3  C   UNL     1       4.458  -0.392  -1.215  1.00  0.00     0.116 C 
BRANCH   3   4
ATOM      4  N   UNL     1       3.045  -0.111  -1.030  1.00  0.00    -0.352 N 
ATOM      5  O   UNL     1       1.121   0.183   0.113  1.00  0.00    -0.269 OA
ATOM      6  C   UNL     1       2.345   0.100   0.133  1.00  0.00     0.251 C 
ATOM      7  H   UNL     1       2.512  -0.067  -1.857  1.00  0.00     0.163 HD
BRANCH   6   8
ATOM      8  C   UNL     1       3.067   0.204   1.421  1.00  0.00     0.039 A 
ATOM      9  C   UNL     1       4.225   0.977   1.532  1.00  0.00     0.014 A 
ATOM     10  C   UNL     1       2.566  -0.473   2.537  1.00  0.00     0.014 A 
ATOM     11  C   UNL     1       4.952   0.967   2.717  1.00  0.00     0.010 A 
ATOM     12  C   UNL     1       3.254  -0.415   3.753  1.00  0.00     0.010 A 
ATOM     13  C   UNL     1       4.467   0.285   3.845  1.00  0.00    -0.014 A 
BRANCH  13  14
ATOM     14  C   UNL     1       5.206   0.385   5.129  1.00  0.00     0.031 A 
ATOM     15  C   UNL     1       5.856  -0.817   5.752  1.00  0.00     0.074 A 
ATOM     16  C   UNL     1       5.311   1.592   5.717  1.00  0.00     0.049 A 
ATOM     17  N   UNL     1       6.553  -0.894   6.859  1.00  0.00    -0.248 NA
ATOM     18  C   UNL     1       5.705  -2.100   5.049  1.00  0.00     0.031 C 
ATOM     19  C   UNL     1       4.713   2.827   5.205  1.00  0.00     0.029 A 
ATOM     20  N   UNL     1       5.967   1.987   6.855  1.00  0.00    -0.354 N 
ATOM     21  C   UNL     1       6.911  -2.229   6.992  1.00  0.00     0.074 A 
ATOM     22  C   UNL     1       6.336  -2.934   5.867  1.00  0.00     0.031 C 
ATOM     23  C   UNL     1       5.071   3.849   5.995  1.00  0.00     0.029 A 
ATOM     24  C   UNL     1       5.869   3.334   7.103  1.00  0.00     0.049 A 
ATOM     25  H   UNL     1       6.460   1.365   7.437  1.00  0.00     0.167 HD
ATOM     26  C   UNL     1       7.661  -2.805   7.962  1.00  0.00     0.037 A 
ATOM     27  C   UNL     1       6.353   4.074   8.117  1.00  0.00     0.037 A 
ATOM     28  C   UNL     1       8.243  -2.092   9.071  1.00  0.00     0.049 A 
ATOM     29  C   UNL     1       7.154   3.402   9.194  1.00  0.00     0.074 A 
ATOM     30  C   UNL     1       9.044  -2.586  10.086  1.00  0.00     0.029 A 
ATOM     31  N   UNL     1       8.084  -0.735   9.313  1.00  0.00    -0.354 N 
ATOM     32  N   UNL     1       7.504   2.144   9.296  1.00  0.00    -0.248 NA
ATOM     33  C   UNL     1       7.619   4.249  10.300  1.00  0.00     0.031 C 
ATOM     34  C   UNL     1       9.331  -1.538  10.967  1.00  0.00     0.029 A 
ATOM     35  C   UNL     1       8.752  -0.380  10.474  1.00  0.00     0.049 A 
ATOM     36  H   UNL     1       7.571  -0.116   8.744  1.00  0.00     0.167 HD
ATOM     37  C   UNL     1       8.238   2.047  10.469  1.00  0.00     0.074 A 
ATOM     38  C   UNL     1       8.300   3.379  11.034  1.00  0.00     0.031 C 
ATOM     39  C   UNL     1       8.804   0.950  11.026  1.00  0.00     0.037 A 
BRANCH  26  40
ATOM     40  C   UNL     1       7.902  -4.285   7.883  1.00  0.00     0.064 A 
ATOM     41  C   UNL     1       7.317  -5.151   8.820  1.00  0.00     0.173 A 
ATOM     42  C   UNL     1       8.780  -4.836   6.940  1.00  0.00     0.173 A 
ATOM     43  F   UNL     1       6.476  -4.673   9.749  1.00  0.00    -0.203 F 
ATOM     44  C   UNL     1       7.616  -6.511   8.825  1.00  0.00     0.198 A 
ATOM     45  C   UNL     1       9.058  -6.201   6.931  1.00  0.00     0.198 A 
ATOM     46  F   UNL     1       9.358  -4.053   6.016  1.00  0.00    -0.203 F 
ATOM     47  F   UNL     1       7.072  -7.312   9.751  1.00  0.00    -0.200 F 
ATOM     48  C   UNL     1       8.485  -7.035   7.880  1.00  0.00     0.200 A 
ATOM     49  F   UNL     1       9.882  -6.710   6.005  1.00  0.00    -0.200 F 
ATOM     50  F   UNL     1       8.769  -8.345   7.882  1.00  0.00    -0.200 F 
ENDBRANCH  26  40
BRANCH  27  51
ATOM     51  C   UNL     1       6.093   5.536   8.140  1.00  0.00     0.064 A 
ATOM     52  C   UNL     1       4.800   6.041   8.346  1.00  0.00     0.173 A 
ATOM     53  C   UNL     1       7.123   6.454   7.903  1.00  0.00     0.173 A 
ATOM     54  F   UNL     1       3.779   5.201   8.571  1.00  0.00    -0.203 F 
ATOM     55  C   UNL     1       4.544   7.408   8.285  1.00  0.00     0.198 A 
ATOM     56  C   UNL     1       6.871   7.824   7.870  1.00  0.00     0.198 A 
ATOM     57  F   UNL     1       8.378   6.019   7.717  1.00  0.00    -0.203 F 
ATOM     58  F   UNL     1       3.292   7.861   8.440  1.00  0.00    -0.200 F 
ATOM     59  C   UNL     1       5.580   8.299   8.050  1.00  0.00     0.200 A 
ATOM     60  F   UNL     1       7.878   8.683   7.663  1.00  0.00    -0.200 F 
ATOM     61  F   UNL     1       5.335   9.615   7.997  1.00  0.00    -0.200 F 
ENDBRANCH  27  51
BRANCH  39  62
ATOM     62  C   UNL     1       9.554   1.138  12.311  1.00  0.00     0.064 A 
ATOM     63  C   UNL     1      10.953   1.032  12.340  1.00  0.00     0.173 A 
ATOM     64  C   UNL     1       8.884   1.355  13.524  1.00  0.00     0.173 A 
ATOM     65  F   UNL     1      11.638   0.818  11.207  1.00  0.00    -0.203 F 
ATOM     66  C   UNL     1      11.652   1.121  13.540  1.00  0.00     0.198 A 
ATOM     67  C   UNL     1       9.590   1.470  14.718  1.00  0.00     0.198 A 
ATOM     68  F   UNL     1       7.549   1.478  13.544  1.00  0.00    -0.203 F 
ATOM     69  F   UNL     1      12.986   0.985  13.548  1.00  0.00    -0.200 F 
ATOM     70  C   UNL     1      10.971   1.344  14.726  1.00  0.00     0.200 A 
ATOM     71  F   UNL     1       8.933   1.710  15.861  1.00  0.00    -0.200 F 
ATOM     72  F   UNL     1      11.647   1.440  15.880  1.00  0.00    -0.200 F 
ENDBRANCH  39  62
ENDBRANCH  13  14
ENDBRANCH   6   8
ENDBRANCH   3   4
ENDBRANCH   2   3
ENDBRANCH   1   2
BRANCH   1  73
ATOM     73  C   UNL     1       4.804  -0.403  -4.312  1.00  0.00     0.002 C 
BRANCH  73  74
ATOM     74  C   UNL     1       6.327  -0.238  -4.307  1.00  0.00     0.021 C 
BRANCH  74  75
ATOM     75  C   UNL     1       7.128  -1.475  -4.704  1.00  0.00     0.116 C 
BRANCH  75  76
ATOM     76  N   UNL     1       6.814  -1.940  -6.043  1.00  0.00    -0.352 N 
ATOM     77  C   UNL     1       7.659  -2.216  -7.089  1.00  0.00     0.251 C 
ATOM     78  H   UNL     1       5.857  -2.076  -6.228  1.00  0.00     0.163 HD
ATOM     79  O   UNL     1       7.211  -2.596  -8.165  1.00  0.00    -0.269 OA
BRANCH  77  80
ATOM     80  C   UNL     1       9.119  -2.060  -6.903  1.00  0.00     0.047 A 
ATOM     81  C   UNL     1       9.751  -2.869  -5.942  1.00  0.00     0.017 A 
ATOM     82  C   UNL     1       9.861  -1.162  -7.700  1.00  0.00    -0.003 A 
ATOM     83  C   UNL     1      11.120  -2.744  -5.718  1.00  0.00     0.040 A 
ATOM     84  C   UNL     1      11.242  -1.054  -7.451  1.00  0.00     0.048 A 
ATOM     85  C   UNL     1      11.849  -1.831  -6.467  1.00  0.00     0.123 A 
ATOM     86  F   UNL     1      13.164  -1.703  -6.246  1.00  0.00    -0.207 F 
BRANCH  82  87
ATOM     87  C   UNL     1       9.262  -0.369  -8.786  1.00  0.00    -0.016 A 
ATOM     88  C   UNL     1       8.366   0.681  -8.523  1.00  0.00     0.012 A 
ATOM     89  C   UNL     1       9.570  -0.670 -10.126  1.00  0.00     0.032 A 
ATOM     90  C   UNL     1       7.784   1.401  -9.570  1.00  0.00     0.041 A 
ATOM     91  C   UNL     1       8.988   0.050 -11.170  1.00  0.00     0.077 A 
ATOM     92  C   UNL     1       8.097   1.079 -10.887  1.00  0.00     0.141 A 
ATOM     93  Cl  UNL     1       9.385  -0.350 -12.797  1.00  0.00    -0.081 Cl
ATOM     94  F   UNL     1       7.524   1.783 -11.876  1.00  0.00    -0.205 F 
ENDBRANCH  82  87
ENDBRANCH  77  80
ENDBRANCH  75  76
ENDBRANCH  74  75
ENDBRANCH  73  74
ENDBRANCH   1  73
TORSDOF 14
