REMARK SMILES Cc1cc(NC[C@H](C)[NH+](C)C)cc(C(=O)NCCCCCCNC(=O)c2ccc(-c3c4nc(c(-c5c(F)c(F)c(F)c(F)c5F)c5ccc([nH]5)c(-c5c(F)c(F)c(F)c(F)c5F)c5nc(c(-c6c(F)c(F)c(F)c(F)c6F)c6ccc3[nH]6)C=C5)C=C4)cc2)c1N
REMARK SMILES IDX 18 1 17 2 16 3 14 4 15 5 13 7 1 8 2 9 3 10 89 11 4 12 12 13
REMARK SMILES IDX 90 14 5 17 6 19 7 20 8 21 9 22 10 23 11 24 19 26 20 27 21 28
REMARK SMILES IDX 22 29 23 30 24 31 25 33 26 34 27 35 88 36 28 37 87 38 29 39
REMARK SMILES IDX 30 40 31 41 81 42 32 43 86 44 80 45 82 46 33 47 85 48 79 49
REMARK SMILES IDX 78 50 34 52 66 53 46 54 65 55 47 56 50 57 64 58 83 59 48 60
REMARK SMILES IDX 49 61 63 63 84 64 51 65 35 66 36 67 44 68 37 69 38 70 42 71
REMARK SMILES IDX 45 72 39 73 40 74 43 75 41 76 67 77 68 78 76 79 69 80 70 81
REMARK SMILES IDX 74 82 77 83 71 84 72 85 75 86 73 87 52 88 53 89 61 90 54 91
REMARK SMILES IDX 55 92 59 93 62 94 56 95 57 96 60 97 58 98
REMARK H PARENT 16 6 90 15 90 16 5 18 9 25 23 32 82 51 50 62
REMARK Flexibility Score: inf
ROOT
ATOM      1  C   UNL     1      -5.931   5.596  -1.615  1.00  0.00     0.021 C 
ENDROOT
BRANCH   1   2
ATOM      2  C   UNL     1      -4.810   6.114  -0.707  1.00  0.00     0.116 C 
BRANCH   2   3
ATOM      3  N   UNL     1      -5.210   7.373  -0.106  1.00  0.00    -0.352 N 
ATOM      4  C   UNL     1      -5.734   7.720   1.117  1.00  0.00     0.253 C 
ATOM      5  O   UNL     1      -6.032   8.909   1.260  1.00  0.00    -0.269 OA
ATOM      6  H   UNL     1      -5.078   8.145  -0.703  1.00  0.00     0.163 HD
BRANCH   4   7
ATOM      7  C   UNL     1      -5.903   6.763   2.261  1.00  0.00     0.065 A 
ATOM      8  C   UNL     1      -6.060   6.786   6.085  1.00  0.00     0.046 C 
ATOM      9  C   UNL     1      -6.002   6.324   4.653  1.00  0.00    -0.025 A 
ATOM     10  C   UNL     1      -6.018   4.942   4.381  1.00  0.00     0.031 A 
ATOM     11  C   UNL     1      -5.927   7.250   3.590  1.00  0.00     0.047 A 
ATOM     12  C   UNL     1      -6.012   4.455   3.075  1.00  0.00     0.035 A 
ATOM     13  C   UNL     1      -6.069   5.391   2.042  1.00  0.00     0.041 A 
BRANCH  11  14
ATOM     14  N   UNL     1      -5.733   8.607   3.870  1.00  0.00    -0.398 N 
ATOM     15  H   UNL     1      -5.753   8.926   4.801  1.00  0.00     0.156 HD
ATOM     16  H   UNL     1      -5.575   9.244   3.135  1.00  0.00     0.156 HD
ENDBRANCH  11  14
BRANCH  12  17
ATOM     17  N   UNL     1      -5.961   3.087   2.836  1.00  0.00    -0.379 N 
ATOM     18  H   UNL     1      -6.211   2.460   3.552  1.00  0.00     0.160 HD
BRANCH  17  19
ATOM     19  C   UNL     1      -5.540   2.565   1.534  1.00  0.00     0.177 C 
BRANCH  19  20
ATOM     20  C   UNL     1      -5.369   1.018   1.509  1.00  0.00     0.199 C 
ATOM     21  C   UNL     1      -4.463   0.644   0.319  1.00  0.00     0.077 C 
BRANCH  20  22
ATOM     22  N   UNL     1      -6.601   0.192   1.490  1.00  0.00    -0.336 N 
ATOM     23  C   UNL     1      -7.402   0.348   2.703  1.00  0.00     0.332 C 
ATOM     24  C   UNL     1      -7.446   0.376   0.311  1.00  0.00     0.332 C 
ATOM     25  H   UNL     1      -6.244  -0.763   1.447  1.00  0.00     0.347 HD
ENDBRANCH  20  22
ENDBRANCH  19  20
ENDBRANCH  17  19
ENDBRANCH  12  17
ENDBRANCH   4   7
ENDBRANCH   2   3
ENDBRANCH   1   2
BRANCH   1  26
ATOM     26  C   UNL     1      -5.934   6.263  -2.998  1.00  0.00     0.002 C 
BRANCH  26  27
ATOM     27  C   UNL     1      -4.692   5.970  -3.849  1.00  0.00     0.002 C 
BRANCH  27  28
ATOM     28  C   UNL     1      -4.407   4.483  -4.078  1.00  0.00     0.021 C 
BRANCH  28  29
ATOM     29  C   UNL     1      -5.513   3.744  -4.823  1.00  0.00     0.116 C 
BRANCH  29  30
ATOM     30  N   UNL     1      -5.669   4.244  -6.180  1.00  0.00    -0.352 N 
ATOM     31  C   UNL     1      -5.579   3.569  -7.371  1.00  0.00     0.251 C 
ATOM     32  H   UNL     1      -5.869   5.205  -6.255  1.00  0.00     0.163 HD
ATOM     33  O   UNL     1      -5.496   4.184  -8.428  1.00  0.00    -0.269 OA
BRANCH  31  34
ATOM     34  C   UNL     1      -5.574   2.091  -7.376  1.00  0.00     0.039 A 
ATOM     35  C   UNL     1      -4.668   1.420  -8.201  1.00  0.00     0.014 A 
ATOM     36  C   UNL     1      -6.477   1.373  -6.588  1.00  0.00     0.014 A 
ATOM     37  C   UNL     1      -4.634   0.025  -8.196  1.00  0.00     0.010 A 
ATOM     38  C   UNL     1      -6.394  -0.015  -6.531  1.00  0.00     0.010 A 
ATOM     39  C   UNL     1      -5.477  -0.703  -7.340  1.00  0.00    -0.014 A 
BRANCH  39  40
ATOM     40  C   UNL     1      -5.420  -2.185  -7.283  1.00  0.00     0.031 A 
ATOM     41  C   UNL     1      -6.607  -3.002  -7.713  1.00  0.00     0.074 A 
ATOM     42  C   UNL     1      -4.325  -2.789  -6.784  1.00  0.00     0.049 A 
ATOM     43  N   UNL     1      -6.780  -4.298  -7.668  1.00  0.00    -0.248 NA
ATOM     44  C   UNL     1      -7.764  -2.261  -8.241  1.00  0.00     0.031 C 
ATOM     45  C   UNL     1      -3.130  -2.102  -6.293  1.00  0.00     0.029 A 
ATOM     46  N   UNL     1      -4.044  -4.119  -6.596  1.00  0.00    -0.354 N 
ATOM     47  C   UNL     1      -8.065  -4.525  -8.144  1.00  0.00     0.074 A 
ATOM     48  C   UNL     1      -8.647  -3.231  -8.425  1.00  0.00     0.031 C 
ATOM     49  C   UNL     1      -2.237  -3.014  -5.878  1.00  0.00     0.029 A 
ATOM     50  C   UNL     1      -2.810  -4.347  -6.035  1.00  0.00     0.049 A 
ATOM     51  H   UNL     1      -4.667  -4.842  -6.839  1.00  0.00     0.167 HD
ATOM     52  C   UNL     1      -8.692  -5.708  -8.350  1.00  0.00     0.037 A 
ATOM     53  C   UNL     1      -2.215  -5.502  -5.681  1.00  0.00     0.037 A 
ATOM     54  C   UNL     1      -8.096  -6.993  -8.095  1.00  0.00     0.049 A 
ATOM     55  C   UNL     1      -2.938  -6.801  -5.917  1.00  0.00     0.074 A 
ATOM     56  C   UNL     1      -8.626  -8.250  -8.329  1.00  0.00     0.029 A 
ATOM     57  N   UNL     1      -6.836  -7.185  -7.549  1.00  0.00    -0.354 N 
ATOM     58  N   UNL     1      -4.125  -7.006  -6.434  1.00  0.00    -0.248 NA
ATOM     59  C   UNL     1      -2.234  -8.030  -5.527  1.00  0.00     0.031 C 
ATOM     60  C   UNL     1      -7.705  -9.203  -7.879  1.00  0.00     0.029 A 
ATOM     61  C   UNL     1      -6.580  -8.540  -7.417  1.00  0.00     0.049 A 
ATOM     62  H   UNL     1      -6.215  -6.465  -7.293  1.00  0.00     0.167 HD
ATOM     63  C   UNL     1      -4.296  -8.383  -6.462  1.00  0.00     0.074 A 
ATOM     64  C   UNL     1      -3.085  -8.966  -5.923  1.00  0.00     0.031 C 
ATOM     65  C   UNL     1      -5.362  -9.102  -6.893  1.00  0.00     0.037 A 
BRANCH  52  66
ATOM     66  C   UNL     1     -10.095  -5.672  -8.882  1.00  0.00     0.064 A 
ATOM     67  C   UNL     1     -10.372  -5.279 -10.200  1.00  0.00     0.173 A 
ATOM     68  C   UNL     1     -11.171  -6.085  -8.082  1.00  0.00     0.173 A 
ATOM     69  F   UNL     1      -9.381  -4.864 -11.004  1.00  0.00    -0.203 F 
ATOM     70  C   UNL     1     -11.676  -5.280 -10.690  1.00  0.00     0.198 A 
ATOM     71  C   UNL     1     -12.469  -6.114  -8.584  1.00  0.00     0.198 A 
ATOM     72  F   UNL     1     -10.962  -6.476  -6.816  1.00  0.00    -0.203 F 
ATOM     73  F   UNL     1     -11.921  -4.860 -11.939  1.00  0.00    -0.200 F 
ATOM     74  C   UNL     1     -12.722  -5.706  -9.885  1.00  0.00     0.200 A 
ATOM     75  F   UNL     1     -13.477  -6.539  -7.809  1.00  0.00    -0.200 F 
ATOM     76  F   UNL     1     -13.974  -5.718 -10.362  1.00  0.00    -0.200 F 
ENDBRANCH  52  66
BRANCH  53  77
ATOM     77  C   UNL     1      -0.855  -5.487  -5.081  1.00  0.00     0.064 A 
ATOM     78  C   UNL     1       0.245  -6.006  -5.779  1.00  0.00     0.173 A 
ATOM     79  C   UNL     1      -0.627  -4.972  -3.796  1.00  0.00     0.173 A 
ATOM     80  F   UNL     1       0.076  -6.527  -7.003  1.00  0.00    -0.203 F 
ATOM     81  C   UNL     1       1.514  -6.037  -5.204  1.00  0.00     0.198 A 
ATOM     82  C   UNL     1       0.647  -4.976  -3.234  1.00  0.00     0.198 A 
ATOM     83  F   UNL     1      -1.644  -4.457  -3.089  1.00  0.00    -0.203 F 
ATOM     84  F   UNL     1       2.536  -6.589  -5.871  1.00  0.00    -0.200 F 
ATOM     85  C   UNL     1       1.715  -5.518  -3.934  1.00  0.00     0.200 A 
ATOM     86  F   UNL     1       0.840  -4.458  -2.014  1.00  0.00    -0.200 F 
ATOM     87  F   UNL     1       2.935  -5.548  -3.381  1.00  0.00    -0.200 F 
ENDBRANCH  53  77
BRANCH  65  88
ATOM     88  C   UNL     1      -5.249 -10.598  -6.842  1.00  0.00     0.064 A 
ATOM     89  C   UNL     1      -5.276 -11.300  -5.628  1.00  0.00     0.173 A 
ATOM     90  C   UNL     1      -5.154 -11.341  -8.029  1.00  0.00     0.173 A 
ATOM     91  F   UNL     1      -5.351 -10.635  -4.466  1.00  0.00    -0.203 F 
ATOM     92  C   UNL     1      -5.186 -12.689  -5.604  1.00  0.00     0.198 A 
ATOM     93  C   UNL     1      -5.097 -12.731  -8.002  1.00  0.00     0.198 A 
ATOM     94  F   UNL     1      -5.132 -10.719  -9.217  1.00  0.00    -0.203 F 
ATOM     95  F   UNL     1      -5.164 -13.336  -4.430  1.00  0.00    -0.200 F 
ATOM     96  C   UNL     1      -5.104 -13.404  -6.790  1.00  0.00     0.200 A 
ATOM     97  F   UNL     1      -5.033 -13.421  -9.150  1.00  0.00    -0.200 F 
ATOM     98  F   UNL     1      -5.026 -14.741  -6.763  1.00  0.00    -0.200 F 
ENDBRANCH  65  88
ENDBRANCH  39  40
ENDBRANCH  31  34
ENDBRANCH  29  30
ENDBRANCH  28  29
ENDBRANCH  27  28
ENDBRANCH  26  27
ENDBRANCH   1  26
TORSDOF 18
