REMARK SMILES CCCCCCNC(=O)Oc1cccc(-c2ccc([C@@H](C)C(=O)NCCCCCCNC(=O)c3ccc(-c4c5nc(c(-c6c(F)c(F)c(F)c(F)c6F)c6ccc([nH]6)c(-c6c(F)c(F)c(F)c(F)c6F)c6nc(c(-c7c(F)c(F)c(F)c(F)c7F)c7ccc4[nH]7)C=C6)C=C5)cc3)cc2C(F)(F)F)c1
REMARK SMILES IDX 22 1 23 2 24 3 20 5 21 6 19 7 16 8 17 9 98 10 18 11 97 12
REMARK SMILES IDX 15 13 11 14 12 15 103 16 13 17 14 18 10 19 8 20 7 21 9 23
REMARK SMILES IDX 6 24 5 25 4 26 3 27 2 28 1 29 99 30 100 31 101 32 102 33
REMARK SMILES IDX 25 34 26 35 27 36 28 37 29 38 30 39 31 40 32 41 33 43 34 44
REMARK SMILES IDX 35 45 96 46 36 47 95 48 37 49 38 50 39 51 89 52 40 53 94 54
REMARK SMILES IDX 88 55 90 56 41 57 93 58 87 59 86 60 42 62 74 63 54 64 73 65
REMARK SMILES IDX 55 66 58 67 72 68 91 69 56 70 57 71 71 73 92 74 59 75 43 76
REMARK SMILES IDX 44 77 52 78 45 79 46 80 50 81 53 82 47 83 48 84 51 85 49 86
REMARK SMILES IDX 75 87 76 88 84 89 77 90 78 91 82 92 85 93 79 94 80 95 83 96
REMARK SMILES IDX 81 97 60 98 61 99 69 100 62 101 63 102 67 103 70 104 64 105
REMARK SMILES IDX 65 106 68 107 66 108
REMARK H PARENT 24 4 7 22 31 42 90 61 58 72
REMARK Flexibility Score: inf
ROOT
ATOM      1  C   UNL     1      -3.921   3.068  13.996  1.00  0.00     0.227 C 
ATOM      2  O   UNL     1      -2.978   3.863  13.900  1.00  0.00    -0.274 OA
ATOM      3  N   UNL     1      -3.773   2.070  14.908  1.00  0.00    -0.356 N 
ATOM      4  H   UNL     1      -2.962   2.148  15.460  1.00  0.00     0.163 HD
ENDROOT
BRANCH   1   5
ATOM      5  C   UNL     1      -5.172   3.261  13.126  1.00  0.00     0.105 C 
ATOM      6  C   UNL     1      -6.467   3.451  13.915  1.00  0.00     0.023 C 
BRANCH   5   7
ATOM      7  C   UNL     1      -5.268   2.307  11.944  1.00  0.00    -0.035 A 
ATOM      8  C   UNL     1      -5.318   0.542   9.680  1.00  0.00    -0.006 A 
ATOM      9  C   UNL     1      -5.774   0.152  10.955  1.00  0.00     0.009 A 
ATOM     10  C   UNL     1      -4.891   1.879   9.533  1.00  0.00     0.064 A 
ATOM     11  C   UNL     1      -5.798   1.026  12.043  1.00  0.00     0.005 A 
ATOM     12  C   UNL     1      -4.821   2.717  10.678  1.00  0.00     0.018 A 
BRANCH   8  13
ATOM     13  C   UNL     1      -5.342  -0.472   8.602  1.00  0.00    -0.014 A 
ATOM     14  C   UNL     1      -4.314  -1.657   6.750  1.00  0.00     0.133 A 
ATOM     15  C   UNL     1      -5.455  -2.433   6.565  1.00  0.00     0.047 A 
ATOM     16  C   UNL     1      -4.236  -0.705   7.769  1.00  0.00     0.056 A 
ATOM     17  C   UNL     1      -6.543  -2.249   7.408  1.00  0.00     0.004 A 
ATOM     18  C   UNL     1      -6.491  -1.268   8.401  1.00  0.00     0.009 A 
BRANCH  14  19
ATOM     19  O   UNL     1      -3.333  -1.758   5.746  1.00  0.00    -0.410 OA
BRANCH  19  20
ATOM     20  C   UNL     1      -1.985  -1.770   6.065  1.00  0.00     0.412 C 
ATOM     21  N   UNL     1      -1.183  -1.636   4.964  1.00  0.00    -0.321 N 
ATOM     22  H   UNL     1      -0.212  -1.688   5.115  1.00  0.00     0.167 HD
ATOM     23  O   UNL     1      -1.515  -1.897   7.188  1.00  0.00    -0.224 OA
BRANCH  21  24
ATOM     24  C   UNL     1      -1.622  -1.424   3.598  1.00  0.00     0.119 C 
BRANCH  24  25
ATOM     25  C   UNL     1      -1.043  -0.141   3.001  1.00  0.00     0.021 C 
BRANCH  25  26
ATOM     26  C   UNL     1       0.485  -0.126   2.865  1.00  0.00     0.002 C 
BRANCH  26  27
ATOM     27  C   UNL     1       1.082  -1.258   2.023  1.00  0.00    -0.000 C 
BRANCH  27  28
ATOM     28  C   UNL     1       0.588  -1.332   0.576  1.00  0.00    -0.003 C 
ATOM     29  C   UNL     1       0.950  -0.104  -0.246  1.00  0.00     0.004 C 
ENDBRANCH  27  28
ENDBRANCH  26  27
ENDBRANCH  25  26
ENDBRANCH  24  25
ENDBRANCH  21  24
ENDBRANCH  19  20
ENDBRANCH  14  19
ENDBRANCH   8  13
BRANCH  10  30
ATOM     30  C   UNL     1      -4.532   2.535   8.215  1.00  0.00     0.417 C 
ATOM     31  F   UNL     1      -5.152   3.746   8.072  1.00  0.00    -0.166 F 
ATOM     32  F   UNL     1      -3.198   2.801   8.118  1.00  0.00    -0.166 F 
ATOM     33  F   UNL     1      -4.860   1.848   7.090  1.00  0.00    -0.166 F 
ENDBRANCH  10  30
ENDBRANCH   5   7
ENDBRANCH   1   5
BRANCH   3  34
ATOM     34  C   UNL     1      -4.588   0.915  15.217  1.00  0.00     0.116 C 
BRANCH  34  35
ATOM     35  C   UNL     1      -4.035  -0.353  14.561  1.00  0.00     0.021 C 
BRANCH  35  36
ATOM     36  C   UNL     1      -3.041  -1.120  15.438  1.00  0.00     0.002 C 
BRANCH  36  37
ATOM     37  C   UNL     1      -3.627  -1.690  16.736  1.00  0.00     0.002 C 
BRANCH  37  38
ATOM     38  C   UNL     1      -4.856  -2.589  16.564  1.00  0.00     0.021 C 
BRANCH  38  39
ATOM     39  C   UNL     1      -4.623  -3.829  15.705  1.00  0.00     0.116 C 
BRANCH  39  40
ATOM     40  N   UNL     1      -3.647  -4.725  16.304  1.00  0.00    -0.352 N 
ATOM     41  C   UNL     1      -3.789  -6.026  16.716  1.00  0.00     0.251 C 
ATOM     42  H   UNL     1      -2.750  -4.341  16.433  1.00  0.00     0.163 HD
ATOM     43  O   UNL     1      -2.926  -6.551  17.412  1.00  0.00    -0.269 OA
BRANCH  41  44
ATOM     44  C   UNL     1      -4.987  -6.800  16.328  1.00  0.00     0.039 A 
ATOM     45  C   UNL     1      -5.615  -7.601  17.285  1.00  0.00     0.014 A 
ATOM     46  C   UNL     1      -5.465  -6.768  15.015  1.00  0.00     0.014 A 
ATOM     47  C   UNL     1      -6.756  -8.330  16.939  1.00  0.00     0.010 A 
ATOM     48  C   UNL     1      -6.638  -7.443  14.687  1.00  0.00     0.010 A 
ATOM     49  C   UNL     1      -7.291  -8.236  15.644  1.00  0.00    -0.014 A 
BRANCH  49  50
ATOM     50  C   UNL     1      -8.520  -8.975  15.261  1.00  0.00     0.031 A 
ATOM     51  C   UNL     1      -8.448 -10.064  14.226  1.00  0.00     0.074 A 
ATOM     52  C   UNL     1      -9.705  -8.628  15.798  1.00  0.00     0.049 A 
ATOM     53  N   UNL     1      -9.417 -10.755  13.681  1.00  0.00    -0.248 NA
ATOM     54  C   UNL     1      -7.109 -10.405  13.718  1.00  0.00     0.031 C 
ATOM     55  C   UNL     1      -9.907  -7.572  16.791  1.00  0.00     0.029 A 
ATOM     56  N   UNL     1     -10.967  -9.119  15.575  1.00  0.00    -0.354 N 
ATOM     57  C   UNL     1      -8.807 -11.602  12.765  1.00  0.00     0.074 A 
ATOM     58  C   UNL     1      -7.392 -11.303  12.787  1.00  0.00     0.031 C 
ATOM     59  C   UNL     1     -11.212  -7.507  17.104  1.00  0.00     0.029 A 
ATOM     60  C   UNL     1     -11.943  -8.486  16.306  1.00  0.00     0.049 A 
ATOM     61  H   UNL     1     -11.155  -9.856  14.950  1.00  0.00     0.167 HD
ATOM     62  C   UNL     1      -9.374 -12.561  11.994  1.00  0.00     0.037 A 
ATOM     63  C   UNL     1     -13.277  -8.670  16.321  1.00  0.00     0.037 A 
ATOM     64  C   UNL     1     -10.779 -12.872  11.990  1.00  0.00     0.049 A 
ATOM     65  C   UNL     1     -13.881  -9.726  15.433  1.00  0.00     0.074 A 
ATOM     66  C   UNL     1     -11.447 -13.841  11.261  1.00  0.00     0.029 A 
ATOM     67  N   UNL     1     -11.732 -12.221  12.759  1.00  0.00    -0.354 N 
ATOM     68  N   UNL     1     -13.289 -10.547  14.601  1.00  0.00    -0.248 NA
ATOM     69  C   UNL     1     -15.342  -9.882  15.491  1.00  0.00     0.031 C 
ATOM     70  C   UNL     1     -12.809 -13.755  11.566  1.00  0.00     0.029 A 
ATOM     71  C   UNL     1     -12.983 -12.762  12.516  1.00  0.00     0.049 A 
ATOM     72  H   UNL     1     -11.546 -11.484  13.385  1.00  0.00     0.167 HD
ATOM     73  C   UNL     1     -14.296 -11.341  14.068  1.00  0.00     0.074 A 
ATOM     74  C   UNL     1     -15.536 -10.909  14.677  1.00  0.00     0.031 C 
ATOM     75  C   UNL     1     -14.202 -12.338  13.155  1.00  0.00     0.037 A 
BRANCH  62  76
ATOM     76  C   UNL     1      -8.470 -13.358  11.099  1.00  0.00     0.064 A 
ATOM     77  C   UNL     1      -7.572 -14.301  11.621  1.00  0.00     0.173 A 
ATOM     78  C   UNL     1      -8.536 -13.216   9.705  1.00  0.00     0.173 A 
ATOM     79  F   UNL     1      -7.463 -14.466  12.948  1.00  0.00    -0.203 F 
ATOM     80  C   UNL     1      -6.758 -15.057  10.782  1.00  0.00     0.198 A 
ATOM     81  C   UNL     1      -7.741 -13.995   8.867  1.00  0.00     0.198 A 
ATOM     82  F   UNL     1      -9.381 -12.332   9.154  1.00  0.00    -0.203 F 
ATOM     83  F   UNL     1      -5.880 -15.923  11.306  1.00  0.00    -0.200 F 
ATOM     84  C   UNL     1      -6.850 -14.910   9.406  1.00  0.00     0.200 A 
ATOM     85  F   UNL     1      -7.840 -13.861   7.537  1.00  0.00    -0.200 F 
ATOM     86  F   UNL     1      -6.075 -15.648   8.600  1.00  0.00    -0.200 F 
ENDBRANCH  62  76
BRANCH  63  87
ATOM     87  C   UNL     1     -14.138  -7.854  17.216  1.00  0.00     0.064 A 
ATOM     88  C   UNL     1     -14.804  -8.440  18.302  1.00  0.00     0.173 A 
ATOM     89  C   UNL     1     -14.341  -6.485  16.989  1.00  0.00     0.173 A 
ATOM     90  F   UNL     1     -14.658  -9.751  18.547  1.00  0.00    -0.203 F 
ATOM     91  C   UNL     1     -15.665  -7.697  19.106  1.00  0.00     0.198 A 
ATOM     92  C   UNL     1     -15.179  -5.736  17.812  1.00  0.00     0.198 A 
ATOM     93  F   UNL     1     -13.724  -5.874  15.966  1.00  0.00    -0.203 F 
ATOM     94  F   UNL     1     -16.333  -8.296  20.101  1.00  0.00    -0.200 F 
ATOM     95  C   UNL     1     -15.849  -6.344  18.863  1.00  0.00     0.200 A 
ATOM     96  F   UNL     1     -15.344  -4.426  17.582  1.00  0.00    -0.200 F 
ATOM     97  F   UNL     1     -16.681  -5.630  19.633  1.00  0.00    -0.200 F 
ENDBRANCH  63  87
BRANCH  75  98
ATOM     98  C   UNL     1     -15.464 -13.069  12.801  1.00  0.00     0.064 A 
ATOM     99  C   UNL     1     -16.462 -12.480  12.013  1.00  0.00     0.173 A 
ATOM    100  C   UNL     1     -15.654 -14.394  13.224  1.00  0.00     0.173 A 
ATOM    101  F   UNL     1     -16.333 -11.211  11.598  1.00  0.00    -0.203 F 
ATOM    102  C   UNL     1     -17.617 -13.182  11.680  1.00  0.00     0.198 A 
ATOM    103  C   UNL     1     -16.797 -15.102  12.866  1.00  0.00     0.198 A 
ATOM    104  F   UNL     1     -14.725 -15.004  13.975  1.00  0.00    -0.203 F 
ATOM    105  F   UNL     1     -18.579 -12.584  10.964  1.00  0.00    -0.200 F 
ATOM    106  C   UNL     1     -17.780 -14.494  12.100  1.00  0.00     0.200 A 
ATOM    107  F   UNL     1     -16.947 -16.374  13.261  1.00  0.00    -0.200 F 
ATOM    108  F   UNL     1     -18.889 -15.171  11.772  1.00  0.00    -0.200 F 
ENDBRANCH  75  98
ENDBRANCH  49  50
ENDBRANCH  41  44
ENDBRANCH  39  40
ENDBRANCH  38  39
ENDBRANCH  37  38
ENDBRANCH  36  37
ENDBRANCH  35  36
ENDBRANCH  34  35
ENDBRANCH   3  34
TORSDOF 23
