REMARK SMILES Cc1nc(CN(C)C(=O)NCc2ccc(C(=O)NCCCCCCNC(=O)c3ccc(-c4c5nc(c(-c6c(F)c(F)c(F)c(F)c6F)c6ccc([nH]6)c(-c6c(F)c(F)c(F)c(F)c6F)c6nc(c(-c7c(F)c(F)c(F)c(F)c7F)c7ccc4[nH]7)C=C6)C=C5)cc3)o2)n[nH]1
REMARK SMILES IDX 20 1 19 2 18 3 16 4 17 5 15 7 12 8 13 9 91 10 14 11 11 12
REMARK SMILES IDX 10 13 8 14 9 15 6 17 7 18 5 19 4 20 1 21 2 22 3 23 93 24
REMARK SMILES IDX 92 25 21 27 22 28 23 29 24 30 25 31 26 32 27 34 28 35 29 36
REMARK SMILES IDX 90 37 30 38 89 39 31 40 32 41 33 42 83 43 34 44 88 45 82 46
REMARK SMILES IDX 84 47 35 48 87 49 81 50 80 51 36 53 68 54 48 55 67 56 49 57
REMARK SMILES IDX 52 58 66 59 85 60 50 61 51 62 65 64 86 65 53 66 37 67 38 68
REMARK SMILES IDX 46 69 39 70 40 71 44 72 47 73 41 74 42 75 45 76 43 77 69 78
REMARK SMILES IDX 70 79 78 80 71 81 72 82 76 83 79 84 73 85 74 86 77 87 75 88
REMARK SMILES IDX 54 89 55 90 63 91 56 92 57 93 61 94 64 95 58 96 59 97 62 98
REMARK SMILES IDX 60 99
REMARK H PARENT 18 6 10 16 93 26 25 33 84 52 52 63
REMARK Flexibility Score: inf
ROOT
ATOM      1  C   UNL     1       7.848   6.439   7.390  1.00  0.00     0.021 C 
ENDROOT
BRANCH   1   2
ATOM      2  C   UNL     1       8.437   5.780   6.143  1.00  0.00     0.116 C 
BRANCH   2   3
ATOM      3  N   UNL     1       8.806   4.408   6.404  1.00  0.00    -0.349 N 
ATOM      4  C   UNL     1       8.225   3.209   6.066  1.00  0.00     0.286 C 
ATOM      5  O   UNL     1       8.832   2.211   6.463  1.00  0.00    -0.266 OA
ATOM      6  H   UNL     1       9.636   4.314   6.924  1.00  0.00     0.163 HD
BRANCH   4   7
ATOM      7  C   UNL     1       6.998   3.121   5.291  1.00  0.00     0.191 A 
ATOM      8  C   UNL     1       5.455   1.931   4.221  1.00  0.00     0.124 A 
ATOM      9  C   UNL     1       5.090   3.250   4.088  1.00  0.00     0.048 A 
ATOM     10  O   UNL     1       6.613   1.848   4.929  1.00  0.00    -0.454 OA
ATOM     11  C   UNL     1       6.049   4.004   4.804  1.00  0.00     0.056 A 
BRANCH   8  12
ATOM     12  C   UNL     1       4.847   0.643   3.801  1.00  0.00     0.193 C 
BRANCH  12  13
ATOM     13  N   UNL     1       3.446   0.864   3.522  1.00  0.00    -0.331 N 
ATOM     14  C   UNL     1       2.741   1.303   2.466  1.00  0.00     0.317 C 
ATOM     15  O   UNL     1       1.602   1.695   2.736  1.00  0.00    -0.249 OA
ATOM     16  H   UNL     1       2.871   0.638   4.289  1.00  0.00     0.165 HD
BRANCH  14  17
ATOM     17  N   UNL     1       3.240   1.330   1.195  1.00  0.00    -0.320 N 
ATOM     18  C   UNL     1       4.514   0.809   0.743  1.00  0.00     0.149 C 
BRANCH  17  19
ATOM     19  C   UNL     1       2.300   1.746   0.142  1.00  0.00     0.200 C 
BRANCH  19  20
ATOM     20  C   UNL     1       1.203   0.741  -0.059  1.00  0.00     0.170 A 
ATOM     21  C   UNL     1      -2.231  -0.212  -0.095  1.00  0.00     0.089 C 
ATOM     22  C   UNL     1      -0.769  -0.012  -0.132  1.00  0.00     0.121 A 
ATOM     23  N   UNL     1      -0.115   1.126  -0.144  1.00  0.00    -0.215 NA
ATOM     24  N   UNL     1       0.131  -1.039  -0.118  1.00  0.00    -0.263 N 
ATOM     25  N   UNL     1       1.396  -0.588  -0.122  1.00  0.00    -0.157 NA
ATOM     26  H   UNL     1      -0.117  -1.992  -0.105  1.00  0.00     0.192 HD
ENDBRANCH  19  20
ENDBRANCH  17  19
ENDBRANCH  14  17
ENDBRANCH  12  13
ENDBRANCH   8  12
ENDBRANCH   4   7
ENDBRANCH   2   3
ENDBRANCH   1   2
BRANCH   1  27
ATOM     27  C   UNL     1       8.916   6.975   8.355  1.00  0.00     0.002 C 
BRANCH  27  28
ATOM     28  C   UNL     1       9.849   8.043   7.766  1.00  0.00     0.002 C 
BRANCH  28  29
ATOM     29  C   UNL     1       9.146   9.234   7.109  1.00  0.00     0.021 C 
BRANCH  29  30
ATOM     30  C   UNL     1       8.254  10.038   8.050  1.00  0.00     0.116 C 
BRANCH  30  31
ATOM     31  N   UNL     1       9.020  10.670   9.113  1.00  0.00    -0.352 N 
ATOM     32  C   UNL     1       9.129  11.997   9.445  1.00  0.00     0.251 C 
ATOM     33  H   UNL     1       9.538  10.053   9.679  1.00  0.00     0.163 HD
ATOM     34  O   UNL     1       9.992  12.368  10.233  1.00  0.00    -0.269 OA
BRANCH  32  35
ATOM     35  C   UNL     1       8.214  12.987   8.839  1.00  0.00     0.039 A 
ATOM     36  C   UNL     1       8.742  14.190   8.363  1.00  0.00     0.014 A 
ATOM     37  C   UNL     1       6.842  12.739   8.755  1.00  0.00     0.014 A 
ATOM     38  C   UNL     1       7.903  15.115   7.739  1.00  0.00     0.010 A 
ATOM     39  C   UNL     1       6.016  13.633   8.078  1.00  0.00     0.010 A 
ATOM     40  C   UNL     1       6.541  14.826   7.559  1.00  0.00    -0.014 A 
BRANCH  40  41
ATOM     41  C   UNL     1       5.655  15.743   6.799  1.00  0.00     0.031 A 
ATOM     42  C   UNL     1       4.519  16.445   7.484  1.00  0.00     0.074 A 
ATOM     43  C   UNL     1       5.834  15.882   5.472  1.00  0.00     0.049 A 
ATOM     44  N   UNL     1       3.598  17.222   6.973  1.00  0.00    -0.248 NA
ATOM     45  C   UNL     1       4.385  16.227   8.933  1.00  0.00     0.031 C 
ATOM     46  C   UNL     1       6.875  15.215   4.687  1.00  0.00     0.029 A 
ATOM     47  N   UNL     1       5.138  16.616   4.545  1.00  0.00    -0.354 N 
ATOM     48  C   UNL     1       2.771  17.576   8.031  1.00  0.00     0.074 A 
ATOM     49  C   UNL     1       3.271  16.891   9.204  1.00  0.00     0.031 C 
ATOM     50  C   UNL     1       6.760  15.584   3.402  1.00  0.00     0.029 A 
ATOM     51  C   UNL     1       5.615  16.479   3.265  1.00  0.00     0.049 A 
ATOM     52  H   UNL     1       4.369  17.186   4.776  1.00  0.00     0.167 HD
ATOM     53  C   UNL     1       1.706  18.412   8.026  1.00  0.00     0.037 A 
ATOM     54  C   UNL     1       5.172  17.007   2.108  1.00  0.00     0.037 A 
ATOM     55  C   UNL     1       1.225  19.105   6.859  1.00  0.00     0.049 A 
ATOM     56  C   UNL     1       3.973  17.913   2.126  1.00  0.00     0.074 A 
ATOM     57  C   UNL     1       0.200  20.031   6.766  1.00  0.00     0.029 A 
ATOM     58  N   UNL     1       1.732  18.940   5.578  1.00  0.00    -0.354 N 
ATOM     59  N   UNL     1       3.245  18.300   3.145  1.00  0.00    -0.248 NA
ATOM     60  C   UNL     1       3.533  18.454   0.833  1.00  0.00     0.031 C 
ATOM     61  C   UNL     1       0.054  20.388   5.421  1.00  0.00     0.029 A 
ATOM     62  C   UNL     1       1.019  19.722   4.682  1.00  0.00     0.049 A 
ATOM     63  H   UNL     1       2.487  18.355   5.340  1.00  0.00     0.167 HD
ATOM     64  C   UNL     1       2.273  19.142   2.622  1.00  0.00     0.074 A 
ATOM     65  C   UNL     1       2.517  19.225   1.196  1.00  0.00     0.031 C 
ATOM     66  C   UNL     1       1.269  19.787   3.264  1.00  0.00     0.037 A 
BRANCH  53  67
ATOM     67  C   UNL     1       0.985  18.624   9.325  1.00  0.00     0.064 A 
ATOM     68  C   UNL     1       1.567  19.342  10.381  1.00  0.00     0.173 A 
ATOM     69  C   UNL     1      -0.318  18.135   9.506  1.00  0.00     0.173 A 
ATOM     70  F   UNL     1       2.814  19.823  10.264  1.00  0.00    -0.203 F 
ATOM     71  C   UNL     1       0.885  19.534  11.580  1.00  0.00     0.198 A 
ATOM     72  C   UNL     1      -1.008  18.355  10.695  1.00  0.00     0.198 A 
ATOM     73  F   UNL     1      -0.925  17.448   8.526  1.00  0.00    -0.203 F 
ATOM     74  F   UNL     1       1.481  20.180  12.592  1.00  0.00    -0.200 F 
ATOM     75  C   UNL     1      -0.404  19.047  11.733  1.00  0.00     0.200 A 
ATOM     76  F   UNL     1      -2.259  17.894  10.837  1.00  0.00    -0.200 F 
ATOM     77  F   UNL     1      -1.061  19.238  12.886  1.00  0.00    -0.200 F 
ENDBRANCH  53  67
BRANCH  54  78
ATOM     78  C   UNL     1       5.880  16.701   0.839  1.00  0.00     0.064 A 
ATOM     79  C   UNL     1       6.629  17.686   0.180  1.00  0.00     0.173 A 
ATOM     80  C   UNL     1       5.834  15.422   0.265  1.00  0.00     0.173 A 
ATOM     81  F   UNL     1       6.686  18.929   0.679  1.00  0.00    -0.203 F 
ATOM     82  C   UNL     1       7.294  17.407  -1.012  1.00  0.00     0.198 A 
ATOM     83  C   UNL     1       6.521  15.137  -0.913  1.00  0.00     0.198 A 
ATOM     84  F   UNL     1       5.135  14.444   0.860  1.00  0.00    -0.203 F 
ATOM     85  F   UNL     1       7.973  18.376  -1.641  1.00  0.00    -0.200 F 
ATOM     86  C   UNL     1       7.245  16.131  -1.554  1.00  0.00     0.200 A 
ATOM     87  F   UNL     1       6.484  13.899  -1.425  1.00  0.00    -0.200 F 
ATOM     88  F   UNL     1       7.893  15.860  -2.695  1.00  0.00    -0.200 F 
ENDBRANCH  54  78
BRANCH  66  89
ATOM     89  C   UNL     1       0.363  20.645   2.432  1.00  0.00     0.064 A 
ATOM     90  C   UNL     1      -0.581  20.083   1.560  1.00  0.00     0.173 A 
ATOM     91  C   UNL     1       0.411  22.044   2.536  1.00  0.00     0.173 A 
ATOM     92  F   UNL     1      -0.654  18.751   1.413  1.00  0.00    -0.203 F 
ATOM     93  C   UNL     1      -1.430  20.890   0.808  1.00  0.00     0.198 A 
ATOM     94  C   UNL     1      -0.458  22.847   1.803  1.00  0.00     0.198 A 
ATOM     95  F   UNL     1       1.294  22.631   3.358  1.00  0.00    -0.203 F 
ATOM     96  F   UNL     1      -2.294  20.332  -0.051  1.00  0.00    -0.200 F 
ATOM     97  C   UNL     1      -1.373  22.270   0.935  1.00  0.00     0.200 A 
ATOM     98  F   UNL     1      -0.410  24.179   1.937  1.00  0.00    -0.200 F 
ATOM     99  F   UNL     1      -2.196  23.045   0.216  1.00  0.00    -0.200 F 
ENDBRANCH  66  89
ENDBRANCH  40  41
ENDBRANCH  32  35
ENDBRANCH  30  31
ENDBRANCH  29  30
ENDBRANCH  28  29
ENDBRANCH  27  28
ENDBRANCH   1  27
TORSDOF 18
