REMARK SMILES O=C(C[C@@H](C(=O)NCCCCCCNC(=O)c1ccc(-c2c3nc(c(-c4c(F)c(F)c(F)c(F)c4F)c4ccc([nH]4)c(-c4c(F)c(F)c(F)c(F)c4F)c4nc(c(-c5c(F)c(F)c(F)c(F)c5F)c5ccc2[nH]5)C=C4)C=C3)cc1)c1ccccc1)Nc1cc(C(F)(F)F)ccc1-n1cncn1
REMARK SMILES IDX 9 1 8 2 7 3 5 4 6 5 4 7 3 8 2 9 1 10 86 11 87 13 88 14 96 15
REMARK SMILES IDX 89 16 95 17 94 18 97 19 98 20 101 21 99 22 100 23 90 24
REMARK SMILES IDX 91 25 92 26 93 27 80 28 81 29 85 30 82 31 84 32 83 33 10 34
REMARK SMILES IDX 11 35 12 36 13 37 14 38 15 39 16 41 17 42 18 43 79 44 19 45
REMARK SMILES IDX 78 46 20 47 21 48 22 49 72 50 23 51 77 52 71 53 73 54 24 55
REMARK SMILES IDX 76 56 70 57 69 58 25 60 57 61 37 62 56 63 38 64 41 65 55 66
REMARK SMILES IDX 74 67 39 68 40 69 54 71 75 72 42 73 26 74 27 75 35 76 28 77
REMARK SMILES IDX 29 78 33 79 36 80 30 81 31 82 34 83 32 84 58 85 59 86 67 87
REMARK SMILES IDX 60 88 61 89 65 90 68 91 62 92 63 93 66 94 64 95 43 96 44 97
REMARK SMILES IDX 52 98 45 99 46 100 50 101 53 102 47 103 48 104 51 105 49 106
REMARK H PARENT 7 6 86 12 14 40 73 59 41 70
REMARK Flexibility Score: inf
ROOT
ATOM      1  C   UNL     1       4.506   1.340   2.827  1.00  0.00     0.021 C 
ENDROOT
BRANCH   1   2
ATOM      2  C   UNL     1       4.108   2.442   1.849  1.00  0.00     0.116 C 
BRANCH   2   3
ATOM      3  N   UNL     1       4.942   2.300   0.646  1.00  0.00    -0.356 N 
ATOM      4  C   UNL     1       4.813   1.229  -0.206  1.00  0.00     0.228 C 
ATOM      5  O   UNL     1       5.633   0.311  -0.151  1.00  0.00    -0.274 OA
ATOM      6  H   UNL     1       5.612   2.993   0.445  1.00  0.00     0.163 HD
BRANCH   4   7
ATOM      7  C   UNL     1       3.690   1.274  -1.249  1.00  0.00     0.118 C 
BRANCH   7   8
ATOM      8  C   UNL     1       2.842  -0.008  -1.151  1.00  0.00     0.118 C 
BRANCH   8   9
ATOM      9  C   UNL     1       1.938  -0.061   0.084  1.00  0.00     0.225 C 
ATOM     10  O   UNL     1       1.014   0.716   0.260  1.00  0.00    -0.275 OA
ATOM     11  N   UNL     1       2.315  -1.061   0.970  1.00  0.00    -0.324 N 
ATOM     12  H   UNL     1       3.169  -1.515   0.782  1.00  0.00     0.170 HD
BRANCH  11  13
ATOM     13  C   UNL     1       1.605  -1.498   2.113  1.00  0.00     0.067 A 
ATOM     14  C   UNL     1       2.253  -1.347   3.330  1.00  0.00     0.041 A 
ATOM     15  C   UNL     1       0.516  -2.370   2.076  1.00  0.00     0.090 A 
ATOM     16  C   UNL     1       1.988  -2.137   4.450  1.00  0.00     0.058 A 
ATOM     17  C   UNL     1       0.125  -3.085   3.229  1.00  0.00     0.031 A 
ATOM     18  C   UNL     1       0.897  -3.002   4.397  1.00  0.00     0.015 A 
BRANCH  15  19
ATOM     19  N   UNL     1       0.003  -2.784   0.843  1.00  0.00    -0.219 N 
ATOM     20  C   UNL     1       0.692  -3.430  -0.150  1.00  0.00     0.226 A 
ATOM     21  N   UNL     1      -1.252  -2.514   0.440  1.00  0.00    -0.155 NA
ATOM     22  N   UNL     1      -0.024  -3.456  -1.247  1.00  0.00    -0.223 NA
ATOM     23  C   UNL     1      -1.184  -2.848  -0.853  1.00  0.00     0.246 A 
ENDBRANCH  15  19
BRANCH  16  24
ATOM     24  C   UNL     1       3.007  -2.130   5.569  1.00  0.00     0.416 C 
ATOM     25  F   UNL     1       4.215  -2.579   5.124  1.00  0.00    -0.166 F 
ATOM     26  F   UNL     1       3.264  -0.892   6.066  1.00  0.00    -0.166 F 
ATOM     27  F   UNL     1       2.670  -2.909   6.624  1.00  0.00    -0.166 F 
ENDBRANCH  16  24
ENDBRANCH  11  13
ENDBRANCH   8   9
ENDBRANCH   7   8
BRANCH   7  28
ATOM     28  C   UNL     1       4.375   1.450  -2.622  1.00  0.00    -0.035 A 
ATOM     29  C   UNL     1       4.937   0.368  -3.326  1.00  0.00     0.004 A 
ATOM     30  C   UNL     1       4.607   2.744  -3.120  1.00  0.00     0.004 A 
ATOM     31  C   UNL     1       5.717   0.574  -4.470  1.00  0.00     0.000 A 
ATOM     32  C   UNL     1       5.389   2.948  -4.264  1.00  0.00     0.000 A 
ATOM     33  C   UNL     1       5.951   1.865  -4.934  1.00  0.00     0.000 A 
ENDBRANCH   7  28
ENDBRANCH   4   7
ENDBRANCH   2   3
ENDBRANCH   1   2
BRANCH   1  34
ATOM     34  C   UNL     1       4.265   1.441   4.350  1.00  0.00     0.002 C 
BRANCH  34  35
ATOM     35  C   UNL     1       3.161   2.247   5.063  1.00  0.00     0.002 C 
BRANCH  35  36
ATOM     36  C   UNL     1       1.646   1.944   5.122  1.00  0.00     0.021 C 
BRANCH  36  37
ATOM     37  C   UNL     1       0.908   0.897   6.009  1.00  0.00     0.116 C 
BRANCH  37  38
ATOM     38  N   UNL     1       1.514   0.396   7.228  1.00  0.00    -0.352 N 
ATOM     39  C   UNL     1       0.935  -0.401   8.201  1.00  0.00     0.251 C 
ATOM     40  H   UNL     1       2.451   0.653   7.382  1.00  0.00     0.163 HD
ATOM     41  O   UNL     1       1.624  -0.890   9.102  1.00  0.00    -0.269 OA
BRANCH  39  42
ATOM     42  C   UNL     1      -0.524  -0.668   8.213  1.00  0.00     0.039 A 
ATOM     43  C   UNL     1      -1.279  -0.214   9.299  1.00  0.00     0.014 A 
ATOM     44  C   UNL     1      -1.149  -1.403   7.203  1.00  0.00     0.014 A 
ATOM     45  C   UNL     1      -2.667  -0.403   9.317  1.00  0.00     0.010 A 
ATOM     46  C   UNL     1      -2.541  -1.564   7.203  1.00  0.00     0.010 A 
ATOM     47  C   UNL     1      -3.320  -1.034   8.243  1.00  0.00    -0.014 A 
BRANCH  47  48
ATOM     48  C   UNL     1      -4.809  -1.042   8.167  1.00  0.00     0.031 A 
ATOM     49  C   UNL     1      -5.599  -2.317   8.262  1.00  0.00     0.074 A 
ATOM     50  C   UNL     1      -5.449   0.130   7.968  1.00  0.00     0.049 A 
ATOM     51  N   UNL     1      -6.898  -2.492   8.229  1.00  0.00    -0.248 NA
ATOM     52  C   UNL     1      -4.831  -3.563   8.391  1.00  0.00     0.031 C 
ATOM     53  C   UNL     1      -4.789   1.425   7.798  1.00  0.00     0.029 A 
ATOM     54  N   UNL     1      -6.787   0.428   7.875  1.00  0.00    -0.354 N 
ATOM     55  C   UNL     1      -7.103  -3.863   8.332  1.00  0.00     0.074 A 
ATOM     56  C   UNL     1      -5.792  -4.477   8.375  1.00  0.00     0.031 C 
ATOM     57  C   UNL     1      -5.719   2.382   7.660  1.00  0.00     0.029 A 
ATOM     58  C   UNL     1      -7.042   1.767   7.691  1.00  0.00     0.049 A 
ATOM     59  H   UNL     1      -7.496  -0.252   7.935  1.00  0.00     0.167 HD
ATOM     60  C   UNL     1      -8.275  -4.542   8.404  1.00  0.00     0.037 A 
ATOM     61  C   UNL     1      -8.209   2.427   7.563  1.00  0.00     0.037 A 
ATOM     62  C   UNL     1      -9.575  -3.917   8.364  1.00  0.00     0.049 A 
ATOM     63  C   UNL     1      -9.495   1.650   7.644  1.00  0.00     0.074 A 
ATOM     64  C   UNL     1     -10.823  -4.506   8.479  1.00  0.00     0.029 A 
ATOM     65  N   UNL     1      -9.793  -2.558   8.183  1.00  0.00    -0.354 N 
ATOM     66  N   UNL     1      -9.674   0.364   7.826  1.00  0.00    -0.248 NA
ATOM     67  C   UNL     1     -10.742   2.416   7.513  1.00  0.00     0.031 C 
ATOM     68  C   UNL     1     -11.794  -3.513   8.314  1.00  0.00     0.029 A 
ATOM     69  C   UNL     1     -11.154  -2.294   8.159  1.00  0.00     0.049 A 
ATOM     70  H   UNL     1      -9.085  -1.881   8.086  1.00  0.00     0.167 HD
ATOM     71  C   UNL     1     -11.047   0.169   7.857  1.00  0.00     0.074 A 
ATOM     72  C   UNL     1     -11.656   1.474   7.697  1.00  0.00     0.031 C 
ATOM     73  C   UNL     1     -11.742  -0.986   8.003  1.00  0.00     0.037 A 
BRANCH  60  74
ATOM     74  C   UNL     1      -8.210  -6.040   8.533  1.00  0.00     0.064 A 
ATOM     75  C   UNL     1      -7.718  -6.659   9.694  1.00  0.00     0.173 A 
ATOM     76  C   UNL     1      -8.677  -6.870   7.502  1.00  0.00     0.173 A 
ATOM     77  F   UNL     1      -7.257  -5.917  10.711  1.00  0.00    -0.203 F 
ATOM     78  C   UNL     1      -7.659  -8.047   9.800  1.00  0.00     0.198 A 
ATOM     79  C   UNL     1      -8.647  -8.258   7.625  1.00  0.00     0.198 A 
ATOM     80  F   UNL     1      -9.171  -6.337   6.374  1.00  0.00    -0.203 F 
ATOM     81  F   UNL     1      -7.131  -8.612  10.895  1.00  0.00    -0.200 F 
ATOM     82  C   UNL     1      -8.128  -8.845   8.768  1.00  0.00     0.200 A 
ATOM     83  F   UNL     1      -9.117  -9.028   6.633  1.00  0.00    -0.200 F 
ATOM     84  F   UNL     1      -8.073 -10.181   8.872  1.00  0.00    -0.200 F 
ENDBRANCH  60  74
BRANCH  61  85
ATOM     85  C   UNL     1      -8.215   3.904   7.373  1.00  0.00     0.064 A 
ATOM     86  C   UNL     1      -8.714   4.760   8.367  1.00  0.00     0.173 A 
ATOM     87  C   UNL     1      -7.723   4.493   6.199  1.00  0.00     0.173 A 
ATOM     88  F   UNL     1      -9.214   4.248   9.501  1.00  0.00    -0.203 F 
ATOM     89  C   UNL     1      -8.740   6.142   8.184  1.00  0.00     0.198 A 
ATOM     90  C   UNL     1      -7.719   5.877   6.031  1.00  0.00     0.198 A 
ATOM     91  F   UNL     1      -7.228   3.723   5.218  1.00  0.00    -0.203 F 
ATOM     92  F   UNL     1      -9.268   6.931   9.130  1.00  0.00    -0.200 F 
ATOM     93  C   UNL     1      -8.236   6.699   7.019  1.00  0.00     0.200 A 
ATOM     94  F   UNL     1      -7.213   6.412   4.911  1.00  0.00    -0.200 F 
ATOM     95  F   UNL     1      -8.255   8.028   6.847  1.00  0.00    -0.200 F 
ENDBRANCH  61  85
BRANCH  73  96
ATOM     96  C   UNL     1     -13.241  -0.886   8.031  1.00  0.00     0.064 A 
ATOM     97  C   UNL     1     -13.982  -0.569   6.883  1.00  0.00     0.173 A 
ATOM     98  C   UNL     1     -13.947  -1.148   9.216  1.00  0.00     0.173 A 
ATOM     99  F   UNL     1     -13.356  -0.295   5.729  1.00  0.00    -0.203 F 
ATOM    100  C   UNL     1     -15.372  -0.489   6.927  1.00  0.00     0.198 A 
ATOM    101  C   UNL     1     -15.337  -1.101   9.248  1.00  0.00     0.198 A 
ATOM    102  F   UNL     1     -13.287  -1.462  10.341  1.00  0.00    -0.203 F 
ATOM    103  F   UNL     1     -16.056  -0.132   5.832  1.00  0.00    -0.200 F 
ATOM    104  C   UNL     1     -16.048  -0.764   8.107  1.00  0.00     0.200 A 
ATOM    105  F   UNL     1     -15.990  -1.383  10.384  1.00  0.00    -0.200 F 
ATOM    106  F   UNL     1     -17.386  -0.696   8.145  1.00  0.00    -0.200 F 
ENDBRANCH  73  96
ENDBRANCH  47  48
ENDBRANCH  39  42
ENDBRANCH  37  38
ENDBRANCH  36  37
ENDBRANCH  35  36
ENDBRANCH  34  35
ENDBRANCH   1  34
TORSDOF 19
