REMARK SMILES Cc1cccc(-c2ccc(Cl)c(C(=O)NCCCCCCNC(=O)c3ccc(-c4c5nc(c(-c6c(F)c(F)c(F)c(F)c6F)c6ccc([nH]6)c(-c6c(F)c(F)c(F)c(F)c6F)c6nc(c(-c7c(F)c(F)c(F)c(F)c7F)c7ccc4[nH]7)C=C6)C=C5)cc3)c2)c1
REMARK SMILES IDX 19 1 18 2 17 3 16 4 15 5 13 6 14 7 12 9 7 10 8 11 88 12 9 13
REMARK SMILES IDX 10 14 11 15 6 16 1 17 2 18 3 19 89 20 4 21 5 22 20 23 21 24
REMARK SMILES IDX 22 25 23 26 24 28 25 29 26 30 87 31 27 32 86 33 28 34 29 35
REMARK SMILES IDX 30 36 80 37 31 38 85 39 79 40 81 41 32 42 84 43 78 44 77 45
REMARK SMILES IDX 33 47 65 48 45 49 64 50 46 51 49 52 63 53 82 54 47 55 48 56
REMARK SMILES IDX 62 58 83 59 50 60 34 61 35 62 43 63 36 64 37 65 41 66 44 67
REMARK SMILES IDX 38 68 39 69 42 70 40 71 66 72 67 73 75 74 68 75 69 76 73 77
REMARK SMILES IDX 76 78 70 79 71 80 74 81 72 82 51 83 52 84 60 85 53 86 54 87
REMARK SMILES IDX 58 88 61 89 55 90 56 91 59 92 57 93
REMARK H PARENT 15 8 22 27 81 46 49 57
REMARK Flexibility Score: inf
ROOT
ATOM      1  C   UNL     1      -6.639   8.758   2.498  1.00  0.00     0.002 C 
ENDROOT
BRANCH   1   2
ATOM      2  C   UNL     1      -7.450   7.585   1.925  1.00  0.00     0.002 C 
BRANCH   2   3
ATOM      3  C   UNL     1      -6.877   6.767   0.758  1.00  0.00     0.021 C 
BRANCH   3   4
ATOM      4  C   UNL     1      -5.403   6.367   0.807  1.00  0.00     0.116 C 
BRANCH   4   5
ATOM      5  N   UNL     1      -5.004   5.528   1.915  1.00  0.00    -0.352 N 
ATOM      6  C   UNL     1      -3.917   4.687   2.045  1.00  0.00     0.252 C 
ATOM      7  O   UNL     1      -3.735   4.148   3.138  1.00  0.00    -0.269 OA
ATOM      8  H   UNL     1      -5.600   5.561   2.698  1.00  0.00     0.163 HD
BRANCH   6   9
ATOM      9  C   UNL     1      -3.017   4.316   0.914  1.00  0.00     0.059 A 
ATOM     10  C   UNL     1      -1.755   2.475  -0.139  1.00  0.00    -0.017 A 
ATOM     11  C   UNL     1      -1.352   3.366  -1.143  1.00  0.00     0.010 A 
ATOM     12  C   UNL     1      -2.643   2.951   0.844  1.00  0.00     0.024 A 
ATOM     13  C   UNL     1      -1.665   4.719  -1.059  1.00  0.00     0.022 A 
ATOM     14  C   UNL     1      -2.420   5.206   0.014  1.00  0.00     0.053 A 
ATOM     15  Cl  UNL     1      -2.350   6.918   0.237  1.00  0.00    -0.083 Cl
BRANCH  10  16
ATOM     16  C   UNL     1      -1.127   1.143  -0.063  1.00  0.00    -0.018 A 
ATOM     17  C   UNL     1       2.451  -0.227   0.035  1.00  0.00     0.044 C 
ATOM     18  C   UNL     1       0.952  -0.173   0.025  1.00  0.00    -0.051 A 
ATOM     19  C   UNL     1       0.196  -1.345   0.067  1.00  0.00     0.003 A 
ATOM     20  C   UNL     1       0.282   1.055  -0.039  1.00  0.00     0.012 A 
ATOM     21  C   UNL     1      -1.199  -1.282   0.057  1.00  0.00     0.001 A 
ATOM     22  C   UNL     1      -1.858  -0.048  -0.004  1.00  0.00     0.009 A 
ENDBRANCH  10  16
ENDBRANCH   6   9
ENDBRANCH   4   5
ENDBRANCH   3   4
ENDBRANCH   2   3
ENDBRANCH   1   2
BRANCH   1  23
ATOM     23  C   UNL     1      -6.044   9.775   1.524  1.00  0.00     0.021 C 
BRANCH  23  24
ATOM     24  C   UNL     1      -7.046  10.577   0.705  1.00  0.00     0.116 C 
BRANCH  24  25
ATOM     25  N   UNL     1      -7.272  11.939   1.183  1.00  0.00    -0.352 N 
ATOM     26  C   UNL     1      -8.048  12.932   0.600  1.00  0.00     0.251 C 
ATOM     27  H   UNL     1      -6.818  12.183   2.023  1.00  0.00     0.163 HD
ATOM     28  O   UNL     1      -8.194  14.023   1.119  1.00  0.00    -0.269 OA
BRANCH  26  29
ATOM     29  C   UNL     1      -8.796  12.578  -0.629  1.00  0.00     0.039 A 
ATOM     30  C   UNL     1     -10.190  12.559  -0.552  1.00  0.00     0.014 A 
ATOM     31  C   UNL     1      -8.125  11.981  -1.693  1.00  0.00     0.014 A 
ATOM     32  C   UNL     1     -10.895  11.706  -1.395  1.00  0.00     0.010 A 
ATOM     33  C   UNL     1      -8.813  11.071  -2.474  1.00  0.00     0.010 A 
ATOM     34  C   UNL     1     -10.183  10.875  -2.265  1.00  0.00    -0.014 A 
BRANCH  34  35
ATOM     35  C   UNL     1     -10.781   9.676  -2.841  1.00  0.00     0.031 A 
ATOM     36  C   UNL     1     -11.192   9.633  -4.256  1.00  0.00     0.074 A 
ATOM     37  C   UNL     1     -10.970   8.581  -2.068  1.00  0.00     0.049 A 
ATOM     38  N   UNL     1     -12.226   8.988  -4.685  1.00  0.00    -0.248 NA
ATOM     39  C   UNL     1     -10.465  10.334  -5.305  1.00  0.00     0.031 C 
ATOM     40  C   UNL     1     -11.410   7.261  -2.511  1.00  0.00     0.029 A 
ATOM     41  N   UNL     1     -10.997   8.508  -0.664  1.00  0.00    -0.354 N 
ATOM     42  C   UNL     1     -12.146   8.949  -6.058  1.00  0.00     0.074 A 
ATOM     43  C   UNL     1     -11.077   9.864  -6.397  1.00  0.00     0.031 C 
ATOM     44  C   UNL     1     -11.956   6.618  -1.468  1.00  0.00     0.029 A 
ATOM     45  C   UNL     1     -11.975   7.540  -0.347  1.00  0.00     0.049 A 
ATOM     46  H   UNL     1     -10.447   9.025  -0.032  1.00  0.00     0.167 HD
ATOM     47  C   UNL     1     -12.880   8.034  -6.757  1.00  0.00     0.037 A 
ATOM     48  C   UNL     1     -13.072   7.845   0.400  1.00  0.00     0.037 A 
ATOM     49  C   UNL     1     -13.687   7.197  -5.873  1.00  0.00     0.049 A 
ATOM     50  C   UNL     1     -14.385   7.615  -0.306  1.00  0.00     0.074 A 
ATOM     51  C   UNL     1     -13.486   5.922  -5.367  1.00  0.00     0.029 A 
ATOM     52  N   UNL     1     -14.725   7.753  -5.131  1.00  0.00    -0.354 N 
ATOM     53  N   UNL     1     -14.496   7.459  -1.595  1.00  0.00    -0.248 NA
ATOM     54  C   UNL     1     -15.677   7.583   0.373  1.00  0.00     0.031 C 
ATOM     55  C   UNL     1     -14.390   5.720  -4.300  1.00  0.00     0.029 A 
ATOM     56  C   UNL     1     -15.146   6.869  -4.155  1.00  0.00     0.049 A 
ATOM     57  H   UNL     1     -15.105   8.649  -5.280  1.00  0.00     0.167 HD
ATOM     58  C   UNL     1     -15.821   7.337  -1.931  1.00  0.00     0.074 A 
ATOM     59  C   UNL     1     -16.518   7.396  -0.660  1.00  0.00     0.031 C 
ATOM     60  C   UNL     1     -16.219   7.204  -3.231  1.00  0.00     0.037 A 
BRANCH  47  61
ATOM     61  C   UNL     1     -12.575   7.692  -8.199  1.00  0.00     0.064 A 
ATOM     62  C   UNL     1     -12.661   6.367  -8.679  1.00  0.00     0.173 A 
ATOM     63  C   UNL     1     -12.119   8.632  -9.141  1.00  0.00     0.173 A 
ATOM     64  F   UNL     1     -13.208   5.388  -7.949  1.00  0.00    -0.203 F 
ATOM     65  C   UNL     1     -12.177   5.992  -9.934  1.00  0.00     0.198 A 
ATOM     66  C   UNL     1     -11.585   8.251 -10.377  1.00  0.00     0.198 A 
ATOM     67  F   UNL     1     -12.204   9.947  -8.896  1.00  0.00    -0.203 F 
ATOM     68  F   UNL     1     -12.258   4.711 -10.322  1.00  0.00    -0.200 F 
ATOM     69  C   UNL     1     -11.594   6.926 -10.764  1.00  0.00     0.200 A 
ATOM     70  F   UNL     1     -11.046   9.177 -11.183  1.00  0.00    -0.200 F 
ATOM     71  F   UNL     1     -11.066   6.555 -11.938  1.00  0.00    -0.200 F 
ENDBRANCH  47  61
BRANCH  48  72
ATOM     72  C   UNL     1     -12.818   8.874   1.436  1.00  0.00     0.064 A 
ATOM     73  C   UNL     1     -11.951   8.544   2.495  1.00  0.00     0.173 A 
ATOM     74  C   UNL     1     -13.095  10.228   1.223  1.00  0.00     0.173 A 
ATOM     75  F   UNL     1     -11.652   7.258   2.739  1.00  0.00    -0.203 F 
ATOM     76  C   UNL     1     -11.305   9.529   3.237  1.00  0.00     0.198 A 
ATOM     77  C   UNL     1     -12.456  11.214   1.979  1.00  0.00     0.198 A 
ATOM     78  F   UNL     1     -13.899  10.604   0.218  1.00  0.00    -0.203 F 
ATOM     79  F   UNL     1     -10.405   9.182   4.168  1.00  0.00    -0.200 F 
ATOM     80  C   UNL     1     -11.537  10.865   2.959  1.00  0.00     0.200 A 
ATOM     81  F   UNL     1     -12.671  12.508   1.703  1.00  0.00    -0.200 F 
ATOM     82  F   UNL     1     -10.851  11.814   3.612  1.00  0.00    -0.200 F 
ENDBRANCH  48  72
BRANCH  60  83
ATOM     83  C   UNL     1     -17.640   7.243  -3.748  1.00  0.00     0.064 A 
ATOM     84  C   UNL     1     -18.692   7.926  -3.117  1.00  0.00     0.173 A 
ATOM     85  C   UNL     1     -17.958   6.672  -5.007  1.00  0.00     0.173 A 
ATOM     86  F   UNL     1     -18.497   8.618  -1.988  1.00  0.00    -0.203 F 
ATOM     87  C   UNL     1     -19.980   7.970  -3.663  1.00  0.00     0.198 A 
ATOM     88  C   UNL     1     -19.228   6.769  -5.575  1.00  0.00     0.198 A 
ATOM     89  F   UNL     1     -17.040   6.022  -5.737  1.00  0.00    -0.203 F 
ATOM     90  F   UNL     1     -20.961   8.594  -2.996  1.00  0.00    -0.200 F 
ATOM     91  C   UNL     1     -20.245   7.401  -4.894  1.00  0.00     0.200 A 
ATOM     92  F   UNL     1     -19.452   6.259  -6.795  1.00  0.00    -0.200 F 
ATOM     93  F   UNL     1     -21.470   7.483  -5.432  1.00  0.00    -0.200 F 
ENDBRANCH  60  83
ENDBRANCH  34  35
ENDBRANCH  26  29
ENDBRANCH  24  25
ENDBRANCH  23  24
ENDBRANCH   1  23
TORSDOF 14
