REMARK SMILES COc1ccc(C(=O)C2=C(NCCCCCCNC(=O)c3ccc(-c4c5nc(c(-c6c(F)c(F)c(F)c(F)c6F)c6ccc([nH]6)c(-c6c(F)c(F)c(F)c(F)c6F)c6nc(c(-c7c(F)c(F)c(F)c(F)c7F)c7ccc4[nH]7)C=C6)C=C5)cc3)C(=O)N(CC(=O)[O-])[C@H]2c2ccccc2)cc1
REMARK SMILES IDX 14 1 13 2 12 3 11 4 10 6 9 7 91 8 84 9 86 10 85 11 7 12 8 13
REMARK SMILES IDX 6 14 3 15 4 16 99 17 5 18 98 19 2 20 1 21 92 22 93 23 97 24
REMARK SMILES IDX 94 25 96 26 95 27 87 28 88 29 89 30 90 31 15 32 16 33 17 34
REMARK SMILES IDX 18 35 19 36 20 38 21 39 22 40 83 41 23 42 82 43 24 44 25 45
REMARK SMILES IDX 26 46 76 47 27 48 81 49 75 50 77 51 28 52 80 53 74 54 73 55
REMARK SMILES IDX 29 57 61 58 41 59 60 60 42 61 45 62 59 63 78 64 43 65 44 66
REMARK SMILES IDX 58 68 79 69 46 70 30 71 31 72 39 73 32 74 33 75 37 76 40 77
REMARK SMILES IDX 34 78 35 79 38 80 36 81 62 82 63 83 71 84 64 85 65 86 69 87
REMARK SMILES IDX 72 88 66 89 67 90 70 91 68 92 47 93 48 94 56 95 49 96 50 97
REMARK SMILES IDX 54 98 57 99 51 100 52 101 55 102 53 103
REMARK H PARENT 11 5 18 37 77 56 45 67
REMARK Flexibility Score: inf
ROOT
ATOM      1  C   UNL     1       1.353   1.743   9.157  1.00  0.00     0.002 C 
ENDROOT
BRANCH   1   2
ATOM      2  C   UNL     1       1.060   2.096   7.694  1.00  0.00     0.021 C 
BRANCH   2   3
ATOM      3  C   UNL     1       1.514   3.494   7.274  1.00  0.00     0.113 C 
BRANCH   3   4
ATOM      4  N   UNL     1       2.953   3.562   7.289  1.00  0.00    -0.380 N 
ATOM      5  H   UNL     1       3.372   3.313   8.145  1.00  0.00     0.160 HD
BRANCH   4   6
ATOM      6  C   UNL     1       3.827   3.918   6.299  1.00  0.00     0.110 C 
ATOM      7  C   UNL     1       3.742   4.318   5.024  1.00  0.00     0.056 C 
ATOM      8  C   UNL     1       5.060   4.664   4.393  1.00  0.00     0.153 C 
ATOM      9  C   UNL     1       5.295   3.955   6.609  1.00  0.00     0.271 C 
ATOM     10  N   UNL     1       5.953   4.424   5.502  1.00  0.00    -0.320 N 
ATOM     11  O   UNL     1       5.784   3.622   7.677  1.00  0.00    -0.267 OA
BRANCH   7  12
ATOM     12  C   UNL     1       2.468   4.615   4.350  1.00  0.00     0.193 C 
ATOM     13  O   UNL     1       1.954   5.721   4.496  1.00  0.00    -0.289 OA
BRANCH  12  14
ATOM     14  C   UNL     1       1.822   3.593   3.472  1.00  0.00     0.023 A 
ATOM     15  C   UNL     1       0.669   1.852   1.575  1.00  0.00     0.118 A 
ATOM     16  C   UNL     1       0.037   3.050   1.913  1.00  0.00     0.047 A 
ATOM     17  C   UNL     1       1.833   1.490   2.248  1.00  0.00     0.047 A 
ATOM     18  C   UNL     1       0.613   3.921   2.845  1.00  0.00     0.016 A 
ATOM     19  C   UNL     1       2.383   2.341   3.215  1.00  0.00     0.016 A 
BRANCH  15  20
ATOM     20  O   UNL     1       0.056   1.128   0.591  1.00  0.00    -0.497 OA
ATOM     21  C   UNL     1       0.779   0.018   0.071  1.00  0.00     0.278 C 
ENDBRANCH  15  20
ENDBRANCH  12  14
ENDBRANCH   7  12
BRANCH   8  22
ATOM     22  C   UNL     1       5.406   3.794   3.194  1.00  0.00    -0.021 A 
ATOM     23  C   UNL     1       5.804   2.450   3.346  1.00  0.00     0.006 A 
ATOM     24  C   UNL     1       5.279   4.309   1.896  1.00  0.00     0.006 A 
ATOM     25  C   UNL     1       6.032   1.639   2.236  1.00  0.00     0.000 A 
ATOM     26  C   UNL     1       5.523   3.497   0.785  1.00  0.00     0.000 A 
ATOM     27  C   UNL     1       5.889   2.163   0.955  1.00  0.00     0.000 A 
ENDBRANCH   8  22
BRANCH  10  28
ATOM     28  C   UNL     1       7.396   4.613   5.455  1.00  0.00     0.173 C 
BRANCH  28  29
ATOM     29  C   UNL     1       7.904   5.822   6.226  1.00  0.00     0.061 C 
ATOM     30  O   UNL     1       9.081   6.061   6.458  1.00  0.00    -0.548 OA
ATOM     31  O   UNL     1       6.956   6.712   6.578  1.00  0.00    -0.548 OA
ENDBRANCH  28  29
ENDBRANCH  10  28
ENDBRANCH   4   6
ENDBRANCH   3   4
ENDBRANCH   2   3
ENDBRANCH   1   2
BRANCH   1  32
ATOM     32  C   UNL     1       0.751   2.698  10.193  1.00  0.00     0.002 C 
BRANCH  32  33
ATOM     33  C   UNL     1      -0.753   2.945  10.054  1.00  0.00     0.021 C 
BRANCH  33  34
ATOM     34  C   UNL     1      -1.613   1.687  10.081  1.00  0.00     0.116 C 
BRANCH  34  35
ATOM     35  N   UNL     1      -1.525   0.982  11.349  1.00  0.00    -0.352 N 
ATOM     36  C   UNL     1      -2.533   0.558  12.179  1.00  0.00     0.251 C 
ATOM     37  H   UNL     1      -0.612   0.781  11.657  1.00  0.00     0.163 HD
ATOM     38  O   UNL     1      -2.275   0.131  13.299  1.00  0.00    -0.269 OA
BRANCH  36  39
ATOM     39  C   UNL     1      -3.939   0.637  11.729  1.00  0.00     0.039 A 
ATOM     40  C   UNL     1      -4.901   1.136  12.610  1.00  0.00     0.014 A 
ATOM     41  C   UNL     1      -4.309   0.218  10.448  1.00  0.00     0.014 A 
ATOM     42  C   UNL     1      -6.224   1.271  12.187  1.00  0.00     0.010 A 
ATOM     43  C   UNL     1      -5.612   0.423  10.002  1.00  0.00     0.010 A 
ATOM     44  C   UNL     1      -6.584   0.948  10.868  1.00  0.00    -0.014 A 
BRANCH  44  45
ATOM     45  C   UNL     1      -7.971   1.155  10.377  1.00  0.00     0.031 A 
ATOM     46  C   UNL     1      -8.805  -0.019   9.947  1.00  0.00     0.074 A 
ATOM     47  C   UNL     1      -8.457   2.406  10.263  1.00  0.00     0.049 A 
ATOM     48  N   UNL     1     -10.009  -0.037   9.433  1.00  0.00    -0.248 NA
ATOM     49  C   UNL     1      -8.195  -1.350  10.091  1.00  0.00     0.031 C 
ATOM     50  C   UNL     1      -7.729   3.630  10.604  1.00  0.00     0.029 A 
ATOM     51  N   UNL     1      -9.674   2.858   9.816  1.00  0.00    -0.354 N 
ATOM     52  C   UNL     1     -10.293  -1.372   9.182  1.00  0.00     0.074 A 
ATOM     53  C   UNL     1      -9.117  -2.131   9.546  1.00  0.00     0.031 C 
ATOM     54  C   UNL     1      -8.521   4.690  10.377  1.00  0.00     0.029 A 
ATOM     55  C   UNL     1      -9.794   4.226   9.834  1.00  0.00     0.049 A 
ATOM     56  H   UNL     1     -10.392   2.258   9.511  1.00  0.00     0.167 HD
ATOM     57  C   UNL     1     -11.441  -1.918   8.711  1.00  0.00     0.037 A 
ATOM     58  C   UNL     1     -10.813   5.018   9.448  1.00  0.00     0.037 A 
ATOM     59  C   UNL     1     -12.616  -1.161   8.368  1.00  0.00     0.049 A 
ATOM     60  C   UNL     1     -12.070   4.386   8.912  1.00  0.00     0.074 A 
ATOM     61  C   UNL     1     -13.846  -1.625   7.937  1.00  0.00     0.029 A 
ATOM     62  N   UNL     1     -12.704   0.224   8.410  1.00  0.00    -0.354 N 
ATOM     63  N   UNL     1     -12.354   3.117   8.746  1.00  0.00    -0.248 NA
ATOM     64  C   UNL     1     -13.152   5.298   8.517  1.00  0.00     0.031 C 
ATOM     65  C   UNL     1     -14.661  -0.521   7.667  1.00  0.00     0.029 A 
ATOM     66  C   UNL     1     -13.960   0.631   7.988  1.00  0.00     0.049 A 
ATOM     67  H   UNL     1     -11.981   0.827   8.698  1.00  0.00     0.167 HD
ATOM     68  C   UNL     1     -13.653   3.077   8.257  1.00  0.00     0.074 A 
ATOM     69  C   UNL     1     -14.108   4.449   8.169  1.00  0.00     0.031 C 
ATOM     70  C   UNL     1     -14.402   2.000   7.913  1.00  0.00     0.037 A 
BRANCH  57  71
ATOM     71  C   UNL     1     -11.482  -3.410   8.540  1.00  0.00     0.064 A 
ATOM     72  C   UNL     1     -11.476  -4.279   9.643  1.00  0.00     0.173 A 
ATOM     73  C   UNL     1     -11.568  -3.978   7.260  1.00  0.00     0.173 A 
ATOM     74  F   UNL     1     -11.385  -3.789  10.889  1.00  0.00    -0.203 F 
ATOM     75  C   UNL     1     -11.523  -5.660   9.469  1.00  0.00     0.198 A 
ATOM     76  C   UNL     1     -11.649  -5.359   7.091  1.00  0.00     0.198 A 
ATOM     77  F   UNL     1     -11.584  -3.195   6.171  1.00  0.00    -0.203 F 
ATOM     78  F   UNL     1     -11.463  -6.471  10.534  1.00  0.00    -0.200 F 
ATOM     79  C   UNL     1     -11.617  -6.198   8.194  1.00  0.00     0.200 A 
ATOM     80  F   UNL     1     -11.755  -5.876   5.860  1.00  0.00    -0.200 F 
ATOM     81  F   UNL     1     -11.671  -7.527   8.028  1.00  0.00    -0.200 F 
ENDBRANCH  57  71
BRANCH  58  82
ATOM     82  C   UNL     1     -10.695   6.495   9.569  1.00  0.00     0.064 A 
ATOM     83  C   UNL     1     -11.477   7.206  10.491  1.00  0.00     0.173 A 
ATOM     84  C   UNL     1      -9.810   7.226   8.764  1.00  0.00     0.173 A 
ATOM     85  F   UNL     1     -12.354   6.554  11.269  1.00  0.00    -0.203 F 
ATOM     86  C   UNL     1     -11.396   8.594  10.585  1.00  0.00     0.198 A 
ATOM     87  C   UNL     1      -9.707   8.611   8.881  1.00  0.00     0.198 A 
ATOM     88  F   UNL     1      -9.036   6.594   7.870  1.00  0.00    -0.203 F 
ATOM     89  F   UNL     1     -12.193   9.253  11.437  1.00  0.00    -0.200 F 
ATOM     90  C   UNL     1     -10.507   9.295   9.784  1.00  0.00     0.200 A 
ATOM     91  F   UNL     1      -8.836   9.283   8.116  1.00  0.00    -0.200 F 
ATOM     92  F   UNL     1     -10.428  10.629   9.876  1.00  0.00    -0.200 F 
ENDBRANCH  58  82
BRANCH  70  93
ATOM     93  C   UNL     1     -15.806   2.258   7.447  1.00  0.00     0.064 A 
ATOM     94  C   UNL     1     -16.076   2.848   6.203  1.00  0.00     0.173 A 
ATOM     95  C   UNL     1     -16.898   1.871   8.240  1.00  0.00     0.173 A 
ATOM     96  F   UNL     1     -15.068   3.250   5.414  1.00  0.00    -0.203 F 
ATOM     97  C   UNL     1     -17.385   3.067   5.784  1.00  0.00     0.198 A 
ATOM     98  C   UNL     1     -18.205   2.060   7.803  1.00  0.00     0.198 A 
ATOM     99  F   UNL     1     -16.696   1.295   9.435  1.00  0.00    -0.203 F 
ATOM    100  F   UNL     1     -17.619   3.680   4.615  1.00  0.00    -0.200 F 
ATOM    101  C   UNL     1     -18.448   2.666   6.579  1.00  0.00     0.200 A 
ATOM    102  F   UNL     1     -19.231   1.657   8.566  1.00  0.00    -0.200 F 
ATOM    103  F   UNL     1     -19.708   2.869   6.170  1.00  0.00    -0.200 F 
ENDBRANCH  70  93
ENDBRANCH  44  45
ENDBRANCH  36  39
ENDBRANCH  34  35
ENDBRANCH  33  34
ENDBRANCH  32  33
ENDBRANCH   1  32
TORSDOF 19
