REMARK SMILES CSc1ncc(Cl)c(C(=O)Nc2ccsc2C(=O)NCCCCCCNC(=O)c2ccc(-c3c4nc(c(-c5c(F)c(F)c(F)c(F)c5F)c5ccc([nH]5)c(-c5c(F)c(F)c(F)c(F)c5F)c5nc(c(-c6c(F)c(F)c(F)c(F)c6F)c6ccc3[nH]6)C=C5)C=C4)cc2)n1
REMARK SMILES IDX 22 1 21 2 20 3 19 4 17 5 18 6 16 8 12 9 13 10 14 11 15 12
REMARK SMILES IDX 11 13 9 14 10 15 8 17 3 18 4 19 92 20 5 21 6 22 7 23 2 24
REMARK SMILES IDX 1 25 23 26 24 27 25 28 26 29 27 30 28 32 29 33 30 34 91 35
REMARK SMILES IDX 31 36 90 37 32 38 33 39 34 40 84 41 35 42 89 43 83 44 85 45
REMARK SMILES IDX 36 46 88 47 82 48 81 49 37 51 69 52 49 53 68 54 50 55 53 56
REMARK SMILES IDX 67 57 86 58 51 59 52 60 66 62 87 63 54 64 38 65 39 66 47 67
REMARK SMILES IDX 40 68 41 69 45 70 48 71 42 72 43 73 46 74 44 75 70 76 71 77
REMARK SMILES IDX 79 78 72 79 73 80 77 81 80 82 74 83 75 84 78 85 76 86 55 87
REMARK SMILES IDX 56 88 64 89 57 90 58 91 62 92 65 93 59 94 60 95 63 96 61 97
REMARK H PARENT 19 7 11 16 26 31 85 50 53 61
REMARK Flexibility Score: inf
ROOT
ATOM      1  C   UNL     1      -3.232  -9.106  -2.639  1.00  0.00     0.002 C 
ENDROOT
BRANCH   1   2
ATOM      2  C   UNL     1      -2.495  -7.789  -2.877  1.00  0.00     0.021 C 
BRANCH   2   3
ATOM      3  C   UNL     1      -1.003  -7.873  -3.170  1.00  0.00     0.116 C 
BRANCH   3   4
ATOM      4  N   UNL     1      -0.613  -8.558  -4.377  1.00  0.00    -0.351 N 
ATOM      5  C   UNL     1       0.541  -8.510  -5.137  1.00  0.00     0.263 C 
ATOM      6  O   UNL     1       0.528  -9.297  -6.093  1.00  0.00    -0.268 OA
ATOM      7  H   UNL     1      -1.296  -9.176  -4.724  1.00  0.00     0.163 HD
BRANCH   5   8
ATOM      8  C   UNL     1       1.669  -7.593  -4.891  1.00  0.00     0.115 A 
ATOM      9  C   UNL     1       2.163  -6.882  -3.798  1.00  0.00     0.065 A 
ATOM     10  C   UNL     1       3.269  -6.037  -4.127  1.00  0.00     0.038 A 
ATOM     11  C   UNL     1       3.613  -6.118  -5.453  1.00  0.00     0.068 A 
ATOM     12  S   UNL     1       2.621  -7.211  -6.298  1.00  0.00    -0.137 S 
BRANCH   9  13
ATOM     13  N   UNL     1       1.668  -7.004  -2.520  1.00  0.00    -0.319 N 
ATOM     14  C   UNL     1       1.270  -6.036  -1.620  1.00  0.00     0.276 C 
ATOM     15  O   UNL     1       0.786  -6.447  -0.559  1.00  0.00    -0.267 OA
ATOM     16  H   UNL     1       1.584  -7.930  -2.195  1.00  0.00     0.170 HD
BRANCH  14  17
ATOM     17  C   UNL     1       1.300  -4.553  -1.862  1.00  0.00     0.151 A 
ATOM     18  C   UNL     1       1.536  -2.539  -0.744  1.00  0.00     0.188 A 
ATOM     19  N   UNL     1       1.338  -1.825  -1.857  1.00  0.00    -0.230 NA
ATOM     20  N   UNL     1       1.586  -3.875  -0.714  1.00  0.00    -0.216 NA
ATOM     21  C   UNL     1       1.043  -2.521  -2.970  1.00  0.00     0.137 A 
ATOM     22  C   UNL     1       0.935  -3.894  -3.023  1.00  0.00     0.090 A 
ATOM     23  Cl  UNL     1       0.205  -4.541  -4.433  1.00  0.00    -0.080 Cl
BRANCH  18  24
ATOM     24  S   UNL     1       1.579  -1.698   0.816  1.00  0.00    -0.090 SA
ATOM     25  C   UNL     1       1.181  -0.012   0.286  1.00  0.00     0.094 C 
ENDBRANCH  18  24
ENDBRANCH  14  17
ENDBRANCH   9  13
ENDBRANCH   5   8
ENDBRANCH   3   4
ENDBRANCH   2   3
ENDBRANCH   1   2
BRANCH   1  26
ATOM     26  C   UNL     1      -2.584 -10.120  -1.693  1.00  0.00     0.002 C 
BRANCH  26  27
ATOM     27  C   UNL     1      -2.171  -9.636  -0.300  1.00  0.00     0.021 C 
BRANCH  27  28
ATOM     28  C   UNL     1      -3.223  -8.895   0.518  1.00  0.00     0.116 C 
BRANCH  28  29
ATOM     29  N   UNL     1      -4.439  -9.659   0.722  1.00  0.00    -0.352 N 
ATOM     30  C   UNL     1      -5.174  -9.873   1.859  1.00  0.00     0.251 C 
ATOM     31  H   UNL     1      -4.794 -10.093  -0.087  1.00  0.00     0.163 HD
ATOM     32  O   UNL     1      -6.138 -10.641   1.813  1.00  0.00    -0.269 OA
BRANCH  30  33
ATOM     33  C   UNL     1      -4.828  -9.227   3.148  1.00  0.00     0.039 A 
ATOM     34  C   UNL     1      -4.988  -9.972   4.323  1.00  0.00     0.014 A 
ATOM     35  C   UNL     1      -4.408  -7.896   3.232  1.00  0.00     0.014 A 
ATOM     36  C   UNL     1      -4.696  -9.402   5.565  1.00  0.00     0.010 A 
ATOM     37  C   UNL     1      -4.049  -7.349   4.466  1.00  0.00     0.010 A 
ATOM     38  C   UNL     1      -4.205  -8.089   5.647  1.00  0.00    -0.014 A 
BRANCH  38  39
ATOM     39  C   UNL     1      -3.886  -7.481   6.966  1.00  0.00     0.031 A 
ATOM     40  C   UNL     1      -4.691  -6.321   7.485  1.00  0.00     0.074 A 
ATOM     41  C   UNL     1      -2.855  -7.958   7.691  1.00  0.00     0.049 A 
ATOM     42  N   UNL     1      -4.567  -5.662   8.611  1.00  0.00    -0.248 NA
ATOM     43  C   UNL     1      -5.763  -5.817   6.614  1.00  0.00     0.031 C 
ATOM     44  C   UNL     1      -1.964  -9.044   7.279  1.00  0.00     0.029 A 
ATOM     45  N   UNL     1      -2.381  -7.589   8.926  1.00  0.00    -0.354 N 
ATOM     46  C   UNL     1      -5.533  -4.665   8.577  1.00  0.00     0.074 A 
ATOM     47  C   UNL     1      -6.200  -4.770   7.297  1.00  0.00     0.031 C 
ATOM     48  C   UNL     1      -1.070  -9.272   8.255  1.00  0.00     0.029 A 
ATOM     49  C   UNL     1      -1.307  -8.334   9.348  1.00  0.00     0.049 A 
ATOM     50  H   UNL     1      -2.774  -6.860   9.458  1.00  0.00     0.167 HD
ATOM     51  C   UNL     1      -5.854  -3.761   9.534  1.00  0.00     0.037 A 
ATOM     52  C   UNL     1      -0.598  -8.270  10.491  1.00  0.00     0.037 A 
ATOM     53  C   UNL     1      -5.208  -3.672  10.817  1.00  0.00     0.049 A 
ATOM     54  C   UNL     1      -0.987  -7.269  11.546  1.00  0.00     0.074 A 
ATOM     55  C   UNL     1      -5.498  -2.826  11.875  1.00  0.00     0.029 A 
ATOM     56  N   UNL     1      -4.139  -4.459  11.218  1.00  0.00    -0.354 N 
ATOM     57  N   UNL     1      -1.951  -6.382  11.531  1.00  0.00    -0.248 NA
ATOM     58  C   UNL     1      -0.195  -7.274  12.784  1.00  0.00     0.031 C 
ATOM     59  C   UNL     1      -4.579  -3.076  12.900  1.00  0.00     0.029 A 
ATOM     60  C   UNL     1      -3.747  -4.109  12.501  1.00  0.00     0.049 A 
ATOM     61  H   UNL     1      -3.720  -5.163  10.671  1.00  0.00     0.167 HD
ATOM     62  C   UNL     1      -1.900  -5.743  12.762  1.00  0.00     0.074 A 
ATOM     63  C   UNL     1      -0.822  -6.358  13.508  1.00  0.00     0.031 C 
ATOM     64  C   UNL     1      -2.676  -4.735  13.233  1.00  0.00     0.037 A 
BRANCH  51  65
ATOM     65  C   UNL     1      -6.964  -2.795   9.229  1.00  0.00     0.064 A 
ATOM     66  C   UNL     1      -8.300  -3.215   9.145  1.00  0.00     0.173 A 
ATOM     67  C   UNL     1      -6.694  -1.431   9.048  1.00  0.00     0.173 A 
ATOM     68  F   UNL     1      -8.612  -4.511   9.299  1.00  0.00    -0.203 F 
ATOM     69  C   UNL     1      -9.320  -2.311   8.860  1.00  0.00     0.198 A 
ATOM     70  C   UNL     1      -7.720  -0.524   8.793  1.00  0.00     0.198 A 
ATOM     71  F   UNL     1      -5.435  -0.974   9.125  1.00  0.00    -0.203 F 
ATOM     72  F   UNL     1     -10.582  -2.744   8.733  1.00  0.00    -0.200 F 
ATOM     73  C   UNL     1      -9.030  -0.966   8.690  1.00  0.00     0.200 A 
ATOM     74  F   UNL     1      -7.440   0.778   8.642  1.00  0.00    -0.200 F 
ATOM     75  F   UNL     1     -10.013  -0.096   8.421  1.00  0.00    -0.200 F 
ENDBRANCH  51  65
BRANCH  52  76
ATOM     76  C   UNL     1       0.528  -9.213  10.719  1.00  0.00     0.064 A 
ATOM     77  C   UNL     1       0.426 -10.237  11.671  1.00  0.00     0.173 A 
ATOM     78  C   UNL     1       1.727  -9.105  10.001  1.00  0.00     0.173 A 
ATOM     79  F   UNL     1      -0.693 -10.366  12.398  1.00  0.00    -0.203 F 
ATOM     80  C   UNL     1       1.490 -11.104  11.912  1.00  0.00     0.198 A 
ATOM     81  C   UNL     1       2.780  -9.990  10.224  1.00  0.00     0.198 A 
ATOM     82  F   UNL     1       1.873  -8.144   9.077  1.00  0.00    -0.203 F 
ATOM     83  F   UNL     1       1.383 -12.044  12.862  1.00  0.00    -0.200 F 
ATOM     84  C   UNL     1       2.664 -10.983  11.185  1.00  0.00     0.200 A 
ATOM     85  F   UNL     1       3.909  -9.878   9.511  1.00  0.00    -0.200 F 
ATOM     86  F   UNL     1       3.686 -11.818  11.416  1.00  0.00    -0.200 F 
ENDBRANCH  52  76
BRANCH  64  87
ATOM     87  C   UNL     1      -2.408  -4.261  14.632  1.00  0.00     0.064 A 
ATOM     88  C   UNL     1      -1.256  -3.528  14.953  1.00  0.00     0.173 A 
ATOM     89  C   UNL     1      -3.324  -4.528  15.660  1.00  0.00     0.173 A 
ATOM     90  F   UNL     1      -0.342  -3.259  14.009  1.00  0.00    -0.203 F 
ATOM     91  C   UNL     1      -1.015  -3.110  16.259  1.00  0.00     0.198 A 
ATOM     92  C   UNL     1      -3.095  -4.082  16.959  1.00  0.00     0.198 A 
ATOM     93  F   UNL     1      -4.446  -5.219  15.404  1.00  0.00    -0.203 F 
ATOM     94  F   UNL     1       0.119  -2.459  16.554  1.00  0.00    -0.200 F 
ATOM     95  C   UNL     1      -1.937  -3.382  17.259  1.00  0.00     0.200 A 
ATOM     96  F   UNL     1      -3.993  -4.336  17.921  1.00  0.00    -0.200 F 
ATOM     97  F   UNL     1      -1.703  -2.979  18.516  1.00  0.00    -0.200 F 
ENDBRANCH  64  87
ENDBRANCH  38  39
ENDBRANCH  30  33
ENDBRANCH  28  29
ENDBRANCH  27  28
ENDBRANCH  26  27
ENDBRANCH   1  26
TORSDOF 16
