REMARK SMILES O=C(/C=C/c1cc(F)cc(C[N@@H+]2CCC[C@H]2CO)c1)NCCCCCCNC(=O)c1ccc(-c2c3nc(c(-c4c(F)c(F)c(F)c(F)c4F)c4ccc([nH]4)c(-c4c(F)c(F)c(F)c(F)c4F)c4nc(c(-c5c(F)c(F)c(F)c(F)c5F)c5ccc2[nH]5)C=C4)C=C3)cc1
REMARK SMILES IDX 22 1 21 2 20 3 1 4 2 5 3 7 4 8 5 9 6 10 19 11 7 12 10 13
REMARK SMILES IDX 8 14 9 15 11 16 12 17 13 18 16 19 14 21 15 22 17 23 18 24
REMARK SMILES IDX 23 26 24 27 25 28 26 29 27 30 28 31 29 33 30 34 31 35 92 36
REMARK SMILES IDX 32 37 91 38 33 39 34 40 35 41 85 42 36 43 90 44 84 45 86 46
REMARK SMILES IDX 37 47 89 48 83 49 82 50 38 52 70 53 50 54 69 55 51 56 54 57
REMARK SMILES IDX 68 58 87 59 52 60 53 61 67 63 88 64 55 65 39 66 40 67 48 68
REMARK SMILES IDX 41 69 42 70 46 71 49 72 43 73 44 74 47 75 45 76 71 77 72 78
REMARK SMILES IDX 80 79 73 80 74 81 78 82 81 83 75 84 76 85 79 86 77 87 56 88
REMARK SMILES IDX 57 89 65 90 58 91 59 92 63 93 66 94 60 95 61 96 64 97 62 98
REMARK H PARENT 20 6 12 20 18 25 27 32 86 51 54 62
REMARK Flexibility Score: inf
ROOT
ATOM      1  C   UNL     1       2.722   3.057  -1.402  1.00  0.00     0.021 C 
ENDROOT
BRANCH   1   2
ATOM      2  C   UNL     1       2.169   1.671  -1.734  1.00  0.00     0.116 C 
BRANCH   2   3
ATOM      3  N   UNL     1       2.817   0.638  -0.956  1.00  0.00    -0.353 N 
ATOM      4  O   UNL     1       1.031   0.167   0.414  1.00  0.00    -0.270 OA
ATOM      5  C   UNL     1       2.200   0.006   0.093  1.00  0.00     0.243 C 
ATOM      6  H   UNL     1       3.738   0.378  -1.189  1.00  0.00     0.163 HD
BRANCH   5   7
ATOM      7  C   UNL     1       3.038  -0.984   0.816  1.00  0.00     0.072 C 
ATOM      8  C   UNL     1       4.369  -0.876   0.950  1.00  0.00     0.014 C 
BRANCH   8   9
ATOM      9  C   UNL     1       5.204  -1.853   1.659  1.00  0.00    -0.022 A 
ATOM     10  C   UNL     1       4.989  -3.230   1.548  1.00  0.00     0.047 A 
ATOM     11  C   UNL     1       6.305  -1.393   2.398  1.00  0.00     0.018 A 
ATOM     12  C   UNL     1       5.887  -4.115   2.130  1.00  0.00     0.124 A 
ATOM     13  C   UNL     1       7.195  -2.286   3.019  1.00  0.00     0.010 A 
ATOM     14  F   UNL     1       5.681  -5.433   2.015  1.00  0.00    -0.207 F 
ATOM     15  C   UNL     1       6.997  -3.659   2.831  1.00  0.00     0.048 A 
BRANCH  13  16
ATOM     16  C   UNL     1       8.338  -1.766   3.862  1.00  0.00     0.299 C 
BRANCH  16  17
ATOM     17  N   UNL     1       8.192  -1.824   5.322  1.00  0.00    -0.327 N 
ATOM     18  C   UNL     1       8.220  -3.169   5.899  1.00  0.00     0.263 C 
ATOM     19  C   UNL     1       7.015  -1.131   5.887  1.00  0.00     0.210 C 
ATOM     20  H   UNL     1       9.033  -1.314   5.594  1.00  0.00     0.348 HD
ATOM     21  C   UNL     1       6.780  -3.547   6.179  1.00  0.00     0.068 C 
ATOM     22  C   UNL     1       6.064  -2.226   6.383  1.00  0.00     0.073 C 
BRANCH  19  23
ATOM     23  C   UNL     1       7.462  -0.209   7.045  1.00  0.00     0.220 C 
BRANCH  23  24
ATOM     24  O   UNL     1       7.755   1.099   6.554  1.00  0.00    -0.390 OA
ATOM     25  H   UNL     1       8.473   1.047   5.904  1.00  0.00     0.210 HD
ENDBRANCH  23  24
ENDBRANCH  19  23
ENDBRANCH  16  17
ENDBRANCH  13  16
ENDBRANCH   8   9
ENDBRANCH   5   7
ENDBRANCH   2   3
ENDBRANCH   1   2
BRANCH   1  26
ATOM     26  C   UNL     1       4.228   3.224  -1.650  1.00  0.00     0.002 C 
BRANCH  26  27
ATOM     27  C   UNL     1       4.697   2.948  -3.082  1.00  0.00     0.002 C 
BRANCH  27  28
ATOM     28  C   UNL     1       4.020   3.789  -4.166  1.00  0.00     0.021 C 
BRANCH  28  29
ATOM     29  C   UNL     1       4.168   5.298  -3.998  1.00  0.00     0.116 C 
BRANCH  29  30
ATOM     30  N   UNL     1       5.550   5.740  -4.106  1.00  0.00    -0.352 N 
ATOM     31  C   UNL     1       6.107   6.689  -4.930  1.00  0.00     0.251 C 
ATOM     32  H   UNL     1       6.181   5.292  -3.497  1.00  0.00     0.163 HD
ATOM     33  O   UNL     1       7.324   6.810  -4.998  1.00  0.00    -0.269 OA
BRANCH  31  34
ATOM     34  C   UNL     1       5.236   7.548  -5.762  1.00  0.00     0.039 A 
ATOM     35  C   UNL     1       5.566   7.740  -7.106  1.00  0.00     0.014 A 
ATOM     36  C   UNL     1       4.096   8.152  -5.226  1.00  0.00     0.014 A 
ATOM     37  C   UNL     1       4.706   8.466  -7.934  1.00  0.00     0.010 A 
ATOM     38  C   UNL     1       3.204   8.814  -6.067  1.00  0.00     0.010 A 
ATOM     39  C   UNL     1       3.493   8.966  -7.431  1.00  0.00    -0.014 A 
BRANCH  39  40
ATOM     40  C   UNL     1       2.492   9.600  -8.328  1.00  0.00     0.031 A 
ATOM     41  C   UNL     1       2.105  11.039  -8.149  1.00  0.00     0.074 A 
ATOM     42  C   UNL     1       1.873   8.848  -9.258  1.00  0.00     0.049 A 
ATOM     43  N   UNL     1       1.200  11.736  -8.789  1.00  0.00    -0.248 NA
ATOM     44  C   UNL     1       2.808  11.788  -7.097  1.00  0.00     0.031 C 
ATOM     45  C   UNL     1       2.131   7.428  -9.500  1.00  0.00     0.029 A 
ATOM     46  N   UNL     1       0.893   9.166 -10.166  1.00  0.00    -0.354 N 
ATOM     47  C   UNL     1       1.218  12.998  -8.213  1.00  0.00     0.074 A 
ATOM     48  C   UNL     1       2.187  12.959  -7.139  1.00  0.00     0.031 C 
ATOM     49  C   UNL     1       1.353   7.005 -10.506  1.00  0.00     0.029 A 
ATOM     50  C   UNL     1       0.504   8.107 -10.950  1.00  0.00     0.049 A 
ATOM     51  H   UNL     1       0.506  10.068 -10.248  1.00  0.00     0.167 HD
ATOM     52  C   UNL     1       0.503  14.094  -8.563  1.00  0.00     0.037 A 
ATOM     53  C   UNL     1      -0.438   8.025 -11.909  1.00  0.00     0.037 A 
ATOM     54  C   UNL     1      -0.446  14.130  -9.646  1.00  0.00     0.049 A 
ATOM     55  C   UNL     1      -1.240   9.246 -12.262  1.00  0.00     0.074 A 
ATOM     56  C   UNL     1      -1.159  15.213 -10.127  1.00  0.00     0.029 A 
ATOM     57  N   UNL     1      -0.824  13.033 -10.407  1.00  0.00    -0.354 N 
ATOM     58  N   UNL     1      -1.164  10.454 -11.760  1.00  0.00    -0.248 NA
ATOM     59  C   UNL     1      -2.259   9.095 -13.310  1.00  0.00     0.031 C 
ATOM     60  C   UNL     1      -2.018  14.760 -11.131  1.00  0.00     0.029 A 
ATOM     61  C   UNL     1      -1.794  13.406 -11.325  1.00  0.00     0.049 A 
ATOM     62  H   UNL     1      -0.458  12.124 -10.310  1.00  0.00     0.167 HD
ATOM     63  C   UNL     1      -2.110  11.211 -12.437  1.00  0.00     0.074 A 
ATOM     64  C   UNL     1      -2.740  10.329 -13.397  1.00  0.00     0.031 C 
ATOM     65  C   UNL     1      -2.424  12.519 -12.272  1.00  0.00     0.037 A 
BRANCH  52  66
ATOM     66  C   UNL     1       0.713  15.352  -7.769  1.00  0.00     0.064 A 
ATOM     67  C   UNL     1      -0.323  15.873  -6.979  1.00  0.00     0.173 A 
ATOM     68  C   UNL     1       1.911  16.078  -7.839  1.00  0.00     0.173 A 
ATOM     69  F   UNL     1      -1.494  15.225  -6.883  1.00  0.00    -0.203 F 
ATOM     70  C   UNL     1      -0.169  17.076  -6.295  1.00  0.00     0.198 A 
ATOM     71  C   UNL     1       2.074  17.264  -7.127  1.00  0.00     0.198 A 
ATOM     72  F   UNL     1       2.936  15.621  -8.574  1.00  0.00    -0.203 F 
ATOM     73  F   UNL     1      -1.185  17.570  -5.573  1.00  0.00    -0.200 F 
ATOM     74  C   UNL     1       1.031  17.767  -6.364  1.00  0.00     0.200 A 
ATOM     75  F   UNL     1       3.244  17.916  -7.174  1.00  0.00    -0.200 F 
ATOM     76  F   UNL     1       1.184  18.916  -5.693  1.00  0.00    -0.200 F 
ENDBRANCH  52  66
BRANCH  53  77
ATOM     77  C   UNL     1      -0.638   6.733 -12.615  1.00  0.00     0.064 A 
ATOM     78  C   UNL     1      -1.183   5.619 -11.959  1.00  0.00     0.173 A 
ATOM     79  C   UNL     1      -0.215   6.569 -13.941  1.00  0.00     0.173 A 
ATOM     80  F   UNL     1      -1.596   5.724 -10.688  1.00  0.00    -0.203 F 
ATOM     81  C   UNL     1      -1.263   4.380 -12.592  1.00  0.00     0.198 A 
ATOM     82  C   UNL     1      -0.321   5.336 -14.581  1.00  0.00     0.198 A 
ATOM     83  F   UNL     1       0.294   7.610 -14.615  1.00  0.00    -0.203 F 
ATOM     84  F   UNL     1      -1.739   3.320 -11.925  1.00  0.00    -0.200 F 
ATOM     85  C   UNL     1      -0.833   4.240 -13.902  1.00  0.00     0.200 A 
ATOM     86  F   UNL     1       0.079   5.208 -15.854  1.00  0.00    -0.200 F 
ATOM     87  F   UNL     1      -0.906   3.047 -14.509  1.00  0.00    -0.200 F 
ENDBRANCH  53  77
BRANCH  65  88
ATOM     88  C   UNL     1      -3.498  13.098 -13.147  1.00  0.00     0.064 A 
ATOM     89  C   UNL     1      -3.182  14.054 -14.125  1.00  0.00     0.173 A 
ATOM     90  C   UNL     1      -4.851  12.786 -12.947  1.00  0.00     0.173 A 
ATOM     91  F   UNL     1      -1.904  14.393 -14.351  1.00  0.00    -0.203 F 
ATOM     92  C   UNL     1      -4.182  14.694 -14.852  1.00  0.00     0.198 A 
ATOM     93  C   UNL     1      -5.846  13.407 -13.697  1.00  0.00     0.198 A 
ATOM     94  F   UNL     1      -5.204  11.869 -12.034  1.00  0.00    -0.203 F 
ATOM     95  F   UNL     1      -3.858  15.638 -15.747  1.00  0.00    -0.200 F 
ATOM     96  C   UNL     1      -5.513  14.370 -14.638  1.00  0.00     0.200 A 
ATOM     97  F   UNL     1      -7.131  13.075 -13.507  1.00  0.00    -0.200 F 
ATOM     98  F   UNL     1      -6.474  14.986 -15.339  1.00  0.00    -0.200 F 
ENDBRANCH  65  88
ENDBRANCH  39  40
ENDBRANCH  31  34
ENDBRANCH  29  30
ENDBRANCH  28  29
ENDBRANCH  27  28
ENDBRANCH  26  27
ENDBRANCH   1  26
TORSDOF 18
