REMARK SMILES CC[C@]1(C(=O)NCCCCCCNC(=O)c2ccc(-c3c4nc(c(-c5c(F)c(F)c(F)c(F)c5F)c5ccc([nH]5)c(-c5c(F)c(F)c(F)c(F)c5F)c5nc(c(-c6c(F)c(F)c(F)c(F)c6F)c6ccc3[nH]6)C=C5)C=C4)cc2)CC[N@@H+](Cc2ccc(CC(C)C)cc2)C1
REMARK SMILES IDX 8 1 7 2 6 3 4 4 5 5 3 7 79 8 93 9 80 10 81 11 2 13 1 14
REMARK SMILES IDX 82 15 83 16 84 17 92 18 85 19 91 20 86 21 87 22 88 23 89 24
REMARK SMILES IDX 90 25 9 26 10 27 11 28 12 29 13 30 14 31 15 33 16 34 17 35
REMARK SMILES IDX 78 36 18 37 77 38 19 39 20 40 21 41 71 42 22 43 76 44 70 45
REMARK SMILES IDX 72 46 23 47 75 48 69 49 68 50 24 52 56 53 36 54 55 55 37 56
REMARK SMILES IDX 40 57 54 58 73 59 38 60 39 61 53 63 74 64 41 65 25 66 26 67
REMARK SMILES IDX 34 68 27 69 28 70 32 71 35 72 29 73 30 74 33 75 31 76 57 77
REMARK SMILES IDX 58 78 66 79 59 80 60 81 64 82 67 83 61 84 62 85 65 86 63 87
REMARK SMILES IDX 42 88 43 89 51 90 44 91 45 92 49 93 52 94 46 95 47 96 50 97
REMARK SMILES IDX 48 98
REMARK H PARENT 6 6 81 12 13 32 72 51 40 62
REMARK Flexibility Score: inf
ROOT
ATOM      1  C   UNL     1       1.172  -4.900   4.190  1.00  0.00     0.021 C 
ENDROOT
BRANCH   1   2
ATOM      2  C   UNL     1       0.240  -4.470   3.039  1.00  0.00     0.116 C 
BRANCH   2   3
ATOM      3  N   UNL     1       0.096  -3.031   2.788  1.00  0.00    -0.355 N 
ATOM      4  C   UNL     1       0.284  -2.104   1.801  1.00  0.00     0.232 C 
ATOM      5  O   UNL     1      -0.122  -0.987   2.167  1.00  0.00    -0.274 OA
ATOM      6  H   UNL     1      -0.250  -2.587   3.597  1.00  0.00     0.163 HD
BRANCH   4   7
ATOM      7  C   UNL     1       0.993  -2.232   0.376  1.00  0.00     0.103 C 
ATOM      8  C   UNL     1       2.406  -1.577   0.142  1.00  0.00     0.084 C 
ATOM      9  C   UNL     1       1.288  -3.687  -0.026  1.00  0.00     0.279 C 
ATOM     10  C   UNL     1       3.329  -2.665  -0.406  1.00  0.00     0.263 C 
ATOM     11  N   UNL     1       2.744  -3.907   0.047  1.00  0.00    -0.330 N 
ATOM     12  H   UNL     1       2.918  -4.726  -0.536  1.00  0.00     0.348 HD
BRANCH   7  13
ATOM     13  C   UNL     1       0.031  -1.484  -0.624  1.00  0.00     0.020 C 
ATOM     14  C   UNL     1       0.048   0.064  -0.552  1.00  0.00     0.005 C 
ENDBRANCH   7  13
BRANCH  11  15
ATOM     15  C   UNL     1       3.416  -4.504   1.217  1.00  0.00     0.299 C 
BRANCH  15  16
ATOM     16  C   UNL     1       3.963  -3.650   2.365  1.00  0.00     0.006 A 
ATOM     17  C   UNL     1       5.144  -3.948   3.046  1.00  0.00     0.010 A 
ATOM     18  C   UNL     1       3.221  -2.620   2.923  1.00  0.00     0.010 A 
ATOM     19  C   UNL     1       5.479  -3.275   4.248  1.00  0.00     0.004 A 
ATOM     20  C   UNL     1       3.512  -1.954   4.101  1.00  0.00     0.004 A 
ATOM     21  C   UNL     1       4.626  -2.319   4.822  1.00  0.00    -0.048 A 
BRANCH  21  22
ATOM     22  C   UNL     1       4.799  -1.683   6.180  1.00  0.00     0.038 C 
BRANCH  22  23
ATOM     23  C   UNL     1       4.730  -2.682   7.348  1.00  0.00    -0.013 C 
ATOM     24  C   UNL     1       6.039  -3.453   7.486  1.00  0.00     0.008 C 
ATOM     25  C   UNL     1       4.401  -1.968   8.661  1.00  0.00     0.008 C 
ENDBRANCH  22  23
ENDBRANCH  21  22
ENDBRANCH  15  16
ENDBRANCH  11  15
ENDBRANCH   4   7
ENDBRANCH   2   3
ENDBRANCH   1   2
BRANCH   1  26
ATOM     26  C   UNL     1       0.778  -4.506   5.616  1.00  0.00     0.002 C 
BRANCH  26  27
ATOM     27  C   UNL     1       0.519  -5.706   6.544  1.00  0.00     0.002 C 
BRANCH  27  28
ATOM     28  C   UNL     1       1.630  -6.763   6.657  1.00  0.00     0.021 C 
BRANCH  28  29
ATOM     29  C   UNL     1       2.989  -6.254   7.127  1.00  0.00     0.116 C 
BRANCH  29  30
ATOM     30  N   UNL     1       2.947  -5.808   8.513  1.00  0.00    -0.352 N 
ATOM     31  C   UNL     1       3.564  -6.349   9.611  1.00  0.00     0.251 C 
ATOM     32  H   UNL     1       2.401  -5.007   8.685  1.00  0.00     0.163 HD
ATOM     33  O   UNL     1       3.232  -6.011  10.749  1.00  0.00    -0.269 OA
BRANCH  31  34
ATOM     34  C   UNL     1       4.642  -7.342   9.435  1.00  0.00     0.039 A 
ATOM     35  C   UNL     1       4.597  -8.551  10.129  1.00  0.00     0.014 A 
ATOM     36  C   UNL     1       5.715  -7.059   8.587  1.00  0.00     0.014 A 
ATOM     37  C   UNL     1       5.603  -9.500   9.926  1.00  0.00     0.010 A 
ATOM     38  C   UNL     1       6.694  -8.018   8.350  1.00  0.00     0.010 A 
ATOM     39  C   UNL     1       6.644  -9.250   9.014  1.00  0.00    -0.014 A 
BRANCH  39  40
ATOM     40  C   UNL     1       7.661 -10.285   8.705  1.00  0.00     0.031 A 
ATOM     41  C   UNL     1       9.101 -10.081   9.075  1.00  0.00     0.074 A 
ATOM     42  C   UNL     1       7.288 -11.376   8.008  1.00  0.00     0.049 A 
ATOM     43  N   UNL     1      10.129 -10.863   8.859  1.00  0.00    -0.248 NA
ATOM     44  C   UNL     1       9.437  -8.821   9.755  1.00  0.00     0.031 C 
ATOM     45  C   UNL     1       5.931 -11.643   7.529  1.00  0.00     0.029 A 
ATOM     46  N   UNL     1       8.015 -12.453   7.569  1.00  0.00    -0.354 N 
ATOM     47  C   UNL     1      11.231 -10.191   9.371  1.00  0.00     0.074 A 
ATOM     48  C   UNL     1      10.755  -8.913   9.858  1.00  0.00     0.031 C 
ATOM     49  C   UNL     1       5.918 -12.817   6.879  1.00  0.00     0.029 A 
ATOM     50  C   UNL     1       7.270 -13.367   6.866  1.00  0.00     0.049 A 
ATOM     51  H   UNL     1       8.978 -12.559   7.742  1.00  0.00     0.167 HD
ATOM     52  C   UNL     1      12.517 -10.612   9.444  1.00  0.00     0.037 A 
ATOM     53  C   UNL     1       7.638 -14.518   6.271  1.00  0.00     0.037 A 
ATOM     54  C   UNL     1      12.977 -11.888   8.959  1.00  0.00     0.049 A 
ATOM     55  C   UNL     1       9.071 -14.965   6.368  1.00  0.00     0.074 A 
ATOM     56  C   UNL     1      14.240 -12.444   9.055  1.00  0.00     0.029 A 
ATOM     57  N   UNL     1      12.191 -12.802   8.270  1.00  0.00    -0.354 N 
ATOM     58  N   UNL     1      10.086 -14.370   6.947  1.00  0.00    -0.248 NA
ATOM     59  C   UNL     1       9.408 -16.248   5.738  1.00  0.00     0.031 C 
ATOM     60  C   UNL     1      14.236 -13.662   8.367  1.00  0.00     0.029 A 
ATOM     61  C   UNL     1      12.953 -13.900   7.902  1.00  0.00     0.049 A 
ATOM     62  H   UNL     1      11.233 -12.687   8.073  1.00  0.00     0.167 HD
ATOM     63  C   UNL     1      11.174 -15.214   6.774  1.00  0.00     0.074 A 
ATOM     64  C   UNL     1      10.690 -16.373   6.052  1.00  0.00     0.031 C 
ATOM     65  C   UNL     1      12.458 -15.045   7.177  1.00  0.00     0.037 A 
BRANCH  52  66
ATOM     66  C   UNL     1      13.522  -9.681  10.064  1.00  0.00     0.064 A 
ATOM     67  C   UNL     1      13.491  -9.361  11.431  1.00  0.00     0.173 A 
ATOM     68  C   UNL     1      14.553  -9.127   9.288  1.00  0.00     0.173 A 
ATOM     69  F   UNL     1      12.525  -9.857  12.218  1.00  0.00    -0.203 F 
ATOM     70  C   UNL     1      14.429  -8.496  11.988  1.00  0.00     0.198 A 
ATOM     71  C   UNL     1      15.510  -8.290   9.856  1.00  0.00     0.198 A 
ATOM     72  F   UNL     1      14.638  -9.404   7.978  1.00  0.00    -0.203 F 
ATOM     73  F   UNL     1      14.344  -8.163  13.284  1.00  0.00    -0.200 F 
ATOM     74  C   UNL     1      15.442  -7.967  11.203  1.00  0.00     0.200 A 
ATOM     75  F   UNL     1      16.498  -7.793   9.099  1.00  0.00    -0.200 F 
ATOM     76  F   UNL     1      16.348  -7.140  11.742  1.00  0.00    -0.200 F 
ENDBRANCH  52  66
BRANCH  53  77
ATOM     77  C   UNL     1       6.623 -15.334   5.555  1.00  0.00     0.064 A 
ATOM     78  C   UNL     1       6.206 -16.574   6.058  1.00  0.00     0.173 A 
ATOM     79  C   UNL     1       6.036 -14.883   4.363  1.00  0.00     0.173 A 
ATOM     80  F   UNL     1       6.750 -17.056   7.186  1.00  0.00    -0.203 F 
ATOM     81  C   UNL     1       5.255 -17.340   5.387  1.00  0.00     0.198 A 
ATOM     82  C   UNL     1       5.063 -15.636   3.710  1.00  0.00     0.198 A 
ATOM     83  F   UNL     1       6.393 -13.699   3.845  1.00  0.00    -0.203 F 
ATOM     84  F   UNL     1       4.906 -18.541   5.868  1.00  0.00    -0.200 F 
ATOM     85  C   UNL     1       4.679 -16.867   4.218  1.00  0.00     0.200 A 
ATOM     86  F   UNL     1       4.494 -15.165   2.592  1.00  0.00    -0.200 F 
ATOM     87  F   UNL     1       3.757 -17.600   3.579  1.00  0.00    -0.200 F 
ENDBRANCH  53  77
BRANCH  65  88
ATOM     88  C   UNL     1      13.427 -16.151   6.867  1.00  0.00     0.064 A 
ATOM     89  C   UNL     1      13.852 -16.415   5.556  1.00  0.00     0.173 A 
ATOM     90  C   UNL     1      13.966 -16.932   7.901  1.00  0.00     0.173 A 
ATOM     91  F   UNL     1      13.356 -15.707   4.530  1.00  0.00    -0.203 F 
ATOM     92  C   UNL     1      14.757 -17.439   5.289  1.00  0.00     0.198 A 
ATOM     93  C   UNL     1      14.898 -17.932   7.634  1.00  0.00     0.198 A 
ATOM     94  F   UNL     1      13.600 -16.717   9.173  1.00  0.00    -0.203 F 
ATOM     95  F   UNL     1      15.106 -17.709   4.024  1.00  0.00    -0.200 F 
ATOM     96  C   UNL     1      15.285 -18.191   6.328  1.00  0.00     0.200 A 
ATOM     97  F   UNL     1      15.420 -18.645   8.641  1.00  0.00    -0.200 F 
ATOM     98  F   UNL     1      16.163 -19.170   6.070  1.00  0.00    -0.200 F 
ENDBRANCH  65  88
ENDBRANCH  39  40
ENDBRANCH  31  34
ENDBRANCH  29  30
ENDBRANCH  28  29
ENDBRANCH  27  28
ENDBRANCH  26  27
ENDBRANCH   1  26
TORSDOF 18
