REMARK SMILES COc1cccc(-c2cc(OCC(=O)NCCCCCCNC(=O)c3ccc(-c4c5nc(c(-c6c(F)c(F)c(F)c(F)c6F)c6ccc([nH]6)c(-c6c(F)c(F)c(F)c(F)c6F)c6nc(c(-c7c(F)c(F)c(F)c(F)c7F)c7ccc4[nH]7)C=C6)C=C5)cc3)nc(Nc3ccccc3Br)n2)c1
REMARK SMILES IDX 17 1 16 2 15 3 13 4 14 5 12 7 11 8 10 9 8 10 9 11 98 12
REMARK SMILES IDX 89 13 88 14 7 15 3 16 4 17 99 18 5 19 6 20 2 21 1 22 90 23
REMARK SMILES IDX 91 25 92 26 96 27 93 28 95 29 97 30 94 31 18 32 19 33 20 34
REMARK SMILES IDX 21 35 22 36 23 37 24 39 25 40 26 41 87 42 27 43 86 44 28 45
REMARK SMILES IDX 29 46 30 47 80 48 31 49 85 50 79 51 81 52 32 53 84 54 78 55
REMARK SMILES IDX 77 56 33 58 65 59 45 60 64 61 46 62 49 63 63 64 82 65 47 66
REMARK SMILES IDX 48 67 62 69 83 70 50 71 34 72 35 73 43 74 36 75 37 76 41 77
REMARK SMILES IDX 44 78 38 79 39 80 42 81 40 82 66 83 67 84 75 85 68 86 69 87
REMARK SMILES IDX 73 88 76 89 70 90 71 91 74 92 72 93 51 94 52 95 60 96 53 97
REMARK SMILES IDX 54 98 58 99 61 100 55 101 56 102 59 103 57 104
REMARK H PARENT 15 6 90 24 22 38 81 57 49 68
REMARK Flexibility Score: inf
ROOT
ATOM      1  C   UNL     1       8.235  -1.462  -1.127  1.00  0.00     0.021 C 
ENDROOT
BRANCH   1   2
ATOM      2  C   UNL     1       8.388  -2.373   0.090  1.00  0.00     0.116 C 
BRANCH   2   3
ATOM      3  N   UNL     1       7.163  -2.450   0.859  1.00  0.00    -0.353 N 
ATOM      4  C   UNL     1       6.340  -3.521   1.035  1.00  0.00     0.258 C 
ATOM      5  O   UNL     1       5.321  -3.380   1.713  1.00  0.00    -0.271 OA
ATOM      6  H   UNL     1       6.889  -1.621   1.313  1.00  0.00     0.163 HD
BRANCH   4   7
ATOM      7  C   UNL     1       6.705  -4.875   0.412  1.00  0.00     0.331 C 
BRANCH   7   8
ATOM      8  O   UNL     1       6.888  -4.916  -0.993  1.00  0.00    -0.467 OA
BRANCH   8   9
ATOM      9  C   UNL     1       5.813  -4.645  -1.791  1.00  0.00     0.219 A 
ATOM     10  C   UNL     1       3.601  -4.105  -2.295  1.00  0.00     0.080 A 
ATOM     11  C   UNL     1       4.536  -4.430  -1.341  1.00  0.00     0.097 A 
ATOM     12  N   UNL     1       3.898  -4.048  -3.601  1.00  0.00    -0.212 NA
ATOM     13  C   UNL     1       5.167  -4.276  -3.962  1.00  0.00     0.231 A 
ATOM     14  N   UNL     1       6.139  -4.588  -3.094  1.00  0.00    -0.177 NA
BRANCH  10  15
ATOM     15  C   UNL     1       2.224  -3.777  -1.926  1.00  0.00     0.004 A 
ATOM     16  C   UNL     1       0.650  -2.411  -0.665  1.00  0.00     0.119 A 
ATOM     17  C   UNL     1      -0.394  -3.238  -1.075  1.00  0.00     0.046 A 
ATOM     18  C   UNL     1       1.954  -2.691  -1.072  1.00  0.00     0.056 A 
ATOM     19  C   UNL     1      -0.148  -4.303  -1.942  1.00  0.00     0.005 A 
ATOM     20  C   UNL     1       1.152  -4.562  -2.376  1.00  0.00     0.010 A 
BRANCH  16  21
ATOM     21  O   UNL     1       0.319  -1.396   0.191  1.00  0.00    -0.497 OA
ATOM     22  C   UNL     1       0.984  -0.165  -0.082  1.00  0.00     0.278 C 
ENDBRANCH  16  21
ENDBRANCH  10  15
BRANCH  13  23
ATOM     23  N   UNL     1       5.517  -4.238  -5.310  1.00  0.00    -0.323 N 
ATOM     24  H   UNL     1       6.443  -4.491  -5.524  1.00  0.00     0.170 HD
BRANCH  23  25
ATOM     25  C   UNL     1       4.707  -3.881  -6.397  1.00  0.00     0.055 A 
ATOM     26  C   UNL     1       4.485  -4.840  -7.399  1.00  0.00     0.027 A 
ATOM     27  C   UNL     1       4.019  -2.655  -6.493  1.00  0.00     0.041 A 
ATOM     28  C   UNL     1       3.584  -4.602  -8.442  1.00  0.00     0.002 A 
ATOM     29  C   UNL     1       3.118  -2.418  -7.539  1.00  0.00     0.018 A 
ATOM     30  Br  UNL     1       4.354  -1.200  -5.308  1.00  0.00    -0.049 Br
ATOM     31  C   UNL     1       2.894  -3.396  -8.506  1.00  0.00     0.001 A 
ENDBRANCH  23  25
ENDBRANCH  13  23
ENDBRANCH   8   9
ENDBRANCH   7   8
ENDBRANCH   4   7
ENDBRANCH   2   3
ENDBRANCH   1   2
BRANCH   1  32
ATOM     32  C   UNL     1       7.909   0.001  -0.794  1.00  0.00     0.002 C 
BRANCH  32  33
ATOM     33  C   UNL     1       8.871   0.686   0.182  1.00  0.00     0.002 C 
BRANCH  33  34
ATOM     34  C   UNL     1      10.347   0.641  -0.216  1.00  0.00     0.021 C 
BRANCH  34  35
ATOM     35  C   UNL     1      10.665   1.274  -1.566  1.00  0.00     0.116 C 
BRANCH  35  36
ATOM     36  N   UNL     1      10.406   2.705  -1.581  1.00  0.00    -0.352 N 
ATOM     37  C   UNL     1      11.239   3.737  -1.930  1.00  0.00     0.251 C 
ATOM     38  H   UNL     1       9.501   2.971  -1.300  1.00  0.00     0.163 HD
ATOM     39  O   UNL     1      10.909   4.901  -1.709  1.00  0.00    -0.269 OA
BRANCH  37  40
ATOM     40  C   UNL     1      12.552   3.454  -2.549  1.00  0.00     0.039 A 
ATOM     41  C   UNL     1      13.675   4.151  -2.098  1.00  0.00     0.014 A 
ATOM     42  C   UNL     1      12.678   2.508  -3.570  1.00  0.00     0.014 A 
ATOM     43  C   UNL     1      14.934   3.851  -2.623  1.00  0.00     0.010 A 
ATOM     44  C   UNL     1      13.941   2.157  -4.038  1.00  0.00     0.010 A 
ATOM     45  C   UNL     1      15.084   2.824  -3.570  1.00  0.00    -0.014 A 
BRANCH  45  46
ATOM     46  C   UNL     1      16.425   2.429  -4.072  1.00  0.00     0.031 A 
ATOM     47  C   UNL     1      16.768   2.592  -5.527  1.00  0.00     0.074 A 
ATOM     48  C   UNL     1      17.315   1.870  -3.227  1.00  0.00     0.049 A 
ATOM     49  N   UNL     1      17.855   2.238  -6.166  1.00  0.00    -0.248 NA
ATOM     50  C   UNL     1      15.747   3.216  -6.383  1.00  0.00     0.031 C 
ATOM     51  C   UNL     1      17.088   1.622  -1.802  1.00  0.00     0.029 A 
ATOM     52  N   UNL     1      18.586   1.399  -3.446  1.00  0.00    -0.354 N 
ATOM     53  C   UNL     1      17.646   2.591  -7.493  1.00  0.00     0.074 A 
ATOM     54  C   UNL     1      16.308   3.133  -7.581  1.00  0.00     0.031 C 
ATOM     55  C   UNL     1      18.187   1.063  -1.271  1.00  0.00     0.029 A 
ATOM     56  C   UNL     1      19.180   0.873  -2.324  1.00  0.00     0.049 A 
ATOM     57  H   UNL     1      19.030   1.435  -4.324  1.00  0.00     0.167 HD
ATOM     58  C   UNL     1      18.502   2.494  -8.538  1.00  0.00     0.037 A 
ATOM     59  C   UNL     1      20.384   0.288  -2.166  1.00  0.00     0.037 A 
ATOM     60  C   UNL     1      19.839   1.969  -8.446  1.00  0.00     0.049 A 
ATOM     61  C   UNL     1      21.301   0.166  -3.354  1.00  0.00     0.074 A 
ATOM     62  C   UNL     1      20.796   1.867  -9.441  1.00  0.00     0.029 A 
ATOM     63  N   UNL     1      20.408   1.456  -7.290  1.00  0.00    -0.354 N 
ATOM     64  N   UNL     1      21.114   0.561  -4.590  1.00  0.00    -0.248 NA
ATOM     65  C   UNL     1      22.602  -0.479  -3.123  1.00  0.00     0.031 C 
ATOM     66  C   UNL     1      21.926   1.247  -8.900  1.00  0.00     0.029 A 
ATOM     67  C   UNL     1      21.696   1.016  -7.553  1.00  0.00     0.049 A 
ATOM     68  H   UNL     1      19.963   1.410  -6.413  1.00  0.00     0.167 HD
ATOM     69  C   UNL     1      22.282   0.246  -5.272  1.00  0.00     0.074 A 
ATOM     70  C   UNL     1      23.179  -0.357  -4.309  1.00  0.00     0.031 C 
ATOM     71  C   UNL     1      22.584   0.435  -6.580  1.00  0.00     0.037 A 
BRANCH  58  72
ATOM     72  C   UNL     1      18.028   2.979  -9.878  1.00  0.00     0.064 A 
ATOM     73  C   UNL     1      17.840   4.345 -10.139  1.00  0.00     0.173 A 
ATOM     74  C   UNL     1      17.824   2.077 -10.934  1.00  0.00     0.173 A 
ATOM     75  F   UNL     1      18.011   5.249  -9.162  1.00  0.00    -0.203 F 
ATOM     76  C   UNL     1      17.447   4.788 -11.399  1.00  0.00     0.198 A 
ATOM     77  C   UNL     1      17.462   2.526 -12.201  1.00  0.00     0.198 A 
ATOM     78  F   UNL     1      17.997   0.761 -10.741  1.00  0.00    -0.203 F 
ATOM     79  F   UNL     1      17.237   6.094 -11.613  1.00  0.00    -0.200 F 
ATOM     80  C   UNL     1      17.269   3.880 -12.431  1.00  0.00     0.200 A 
ATOM     81  F   UNL     1      17.306   1.648 -13.202  1.00  0.00    -0.200 F 
ATOM     82  F   UNL     1      16.909   4.309 -13.649  1.00  0.00    -0.200 F 
ENDBRANCH  58  72
BRANCH  59  83
ATOM     83  C   UNL     1      20.802  -0.226  -0.833  1.00  0.00     0.064 A 
ATOM     84  C   UNL     1      21.875   0.353  -0.140  1.00  0.00     0.173 A 
ATOM     85  C   UNL     1      20.168  -1.330  -0.245  1.00  0.00     0.173 A 
ATOM     86  F   UNL     1      22.528   1.398  -0.669  1.00  0.00    -0.203 F 
ATOM     87  C   UNL     1      22.320  -0.175   1.070  1.00  0.00     0.198 A 
ATOM     88  C   UNL     1      20.592  -1.835   0.983  1.00  0.00     0.198 A 
ATOM     89  F   UNL     1      19.133  -1.919  -0.862  1.00  0.00    -0.203 F 
ATOM     90  F   UNL     1      23.390   0.357   1.677  1.00  0.00    -0.200 F 
ATOM     91  C   UNL     1      21.677  -1.266   1.633  1.00  0.00     0.200 A 
ATOM     92  F   UNL     1      19.956  -2.880   1.530  1.00  0.00    -0.200 F 
ATOM     93  F   UNL     1      22.109  -1.778   2.793  1.00  0.00    -0.200 F 
ENDBRANCH  59  83
BRANCH  71  94
ATOM     94  C   UNL     1      23.957   0.032  -7.037  1.00  0.00     0.064 A 
ATOM     95  C   UNL     1      24.337  -1.314  -7.137  1.00  0.00     0.173 A 
ATOM     96  C   UNL     1      24.891   1.008  -7.419  1.00  0.00     0.173 A 
ATOM     97  F   UNL     1      23.487  -2.285  -6.771  1.00  0.00    -0.203 F 
ATOM     98  C   UNL     1      25.612  -1.667  -7.574  1.00  0.00     0.198 A 
ATOM     99  C   UNL     1      26.151   0.651  -7.887  1.00  0.00     0.198 A 
ATOM    100  F   UNL     1      24.575   2.311  -7.350  1.00  0.00    -0.203 F 
ATOM    101  F   UNL     1      25.971  -2.957  -7.610  1.00  0.00    -0.200 F 
ATOM    102  C   UNL     1      26.514  -0.685  -7.956  1.00  0.00     0.200 A 
ATOM    103  F   UNL     1      27.016   1.600  -8.272  1.00  0.00    -0.200 F 
ATOM    104  F   UNL     1      27.737  -1.028  -8.384  1.00  0.00    -0.200 F 
ENDBRANCH  71  94
ENDBRANCH  45  46
ENDBRANCH  37  40
ENDBRANCH  35  36
ENDBRANCH  34  35
ENDBRANCH  33  34
ENDBRANCH  32  33
ENDBRANCH   1  32
TORSDOF 19
