REMARK SMILES O=C(C[C@@H]1C[N@@H+]([C@@H]2CCOc3ccccc32)CCO1)NCCCCCCNC(=O)c1ccc(-c2c3nc(c(-c4c(F)c(F)c(F)c(F)c4F)c4ccc([nH]4)c(-c4c(F)c(F)c(F)c(F)c4F)c4nc(c(-c5c(F)c(F)c(F)c(F)c5F)c5ccc2[nH]5)C=C4)C=C3)cc1
REMARK SMILES IDX 23 1 22 2 21 3 20 4 1 5 2 6 3 8 4 9 5 10 19 11 6 12 18 13
REMARK SMILES IDX 17 14 7 16 8 17 16 18 9 19 11 20 15 21 10 22 12 23 14 24
REMARK SMILES IDX 13 25 24 26 25 27 26 28 27 29 28 30 29 32 30 33 31 34 92 35
REMARK SMILES IDX 32 36 91 37 33 38 34 39 35 40 85 41 36 42 90 43 84 44 86 45
REMARK SMILES IDX 37 46 89 47 83 48 82 49 38 51 70 52 50 53 69 54 51 55 54 56
REMARK SMILES IDX 68 57 87 58 52 59 53 60 67 62 88 63 55 64 39 65 40 66 48 67
REMARK SMILES IDX 41 68 42 69 46 70 49 71 43 72 44 73 47 74 45 75 71 76 72 77
REMARK SMILES IDX 80 78 73 79 74 80 78 81 81 82 75 83 76 84 79 85 77 86 56 87
REMARK SMILES IDX 57 88 65 89 58 90 59 91 63 92 66 93 60 94 61 95 64 96 62 97
REMARK H PARENT 20 7 6 15 27 31 86 50 54 61
REMARK Flexibility Score: inf
ROOT
ATOM      1  C   UNL     1       4.079   2.964   2.118  1.00  0.00     0.002 C 
ENDROOT
BRANCH   1   2
ATOM      2  C   UNL     1       2.563   2.708   2.145  1.00  0.00     0.021 C 
BRANCH   2   3
ATOM      3  C   UNL     1       1.971   2.260   0.809  1.00  0.00     0.116 C 
BRANCH   3   4
ATOM      4  N   UNL     1       2.665   1.096   0.321  1.00  0.00    -0.356 N 
ATOM      5  O   UNL     1       1.008  -0.466   0.617  1.00  0.00    -0.275 OA
ATOM      6  C   UNL     1       2.160  -0.178   0.309  1.00  0.00     0.222 C 
ATOM      7  H   UNL     1       3.575   1.226  -0.032  1.00  0.00     0.163 HD
BRANCH   6   8
ATOM      8  C   UNL     1       3.203  -1.226  -0.032  1.00  0.00     0.138 C 
BRANCH   8   9
ATOM      9  C   UNL     1       3.951  -0.873  -1.318  1.00  0.00     0.182 C 
ATOM     10  C   UNL     1       4.877  -2.020  -1.751  1.00  0.00     0.295 C 
ATOM     11  O   UNL     1       4.754   0.313  -1.109  1.00  0.00    -0.366 OA
ATOM     12  N   UNL     1       5.670  -1.744  -2.967  1.00  0.00    -0.324 N 
ATOM     13  C   UNL     1       5.403   0.700  -2.330  1.00  0.00     0.222 C 
ATOM     14  C   UNL     1       6.301  -0.420  -2.883  1.00  0.00     0.291 C 
ATOM     15  H   UNL     1       6.423  -2.432  -2.974  1.00  0.00     0.348 HD
BRANCH  12  16
ATOM     16  C   UNL     1       5.041  -2.084  -4.263  1.00  0.00     0.222 C 
ATOM     17  C   UNL     1       4.000  -1.085  -4.798  1.00  0.00     0.112 C 
ATOM     18  C   UNL     1       4.526  -3.514  -4.290  1.00  0.00     0.051 A 
ATOM     19  C   UNL     1       3.029  -1.763  -5.746  1.00  0.00     0.236 C 
ATOM     20  C   UNL     1       3.199  -3.789  -4.634  1.00  0.00     0.128 A 
ATOM     21  C   UNL     1       5.365  -4.582  -3.929  1.00  0.00     0.014 A 
ATOM     22  O   UNL     1       2.337  -2.822  -5.077  1.00  0.00    -0.493 OA
ATOM     23  C   UNL     1       2.688  -5.080  -4.517  1.00  0.00     0.047 A 
ATOM     24  C   UNL     1       4.865  -5.882  -3.848  1.00  0.00     0.001 A 
ATOM     25  C   UNL     1       3.521  -6.127  -4.123  1.00  0.00     0.004 A 
ENDBRANCH  12  16
ENDBRANCH   8   9
ENDBRANCH   6   8
ENDBRANCH   3   4
ENDBRANCH   2   3
ENDBRANCH   1   2
BRANCH   1  26
ATOM     26  C   UNL     1       4.550   4.028   1.122  1.00  0.00     0.002 C 
BRANCH  26  27
ATOM     27  C   UNL     1       3.910   5.406   1.295  1.00  0.00     0.021 C 
BRANCH  27  28
ATOM     28  C   UNL     1       4.064   6.015   2.684  1.00  0.00     0.116 C 
BRANCH  28  29
ATOM     29  N   UNL     1       5.450   6.296   3.023  1.00  0.00    -0.352 N 
ATOM     30  C   UNL     1       6.009   7.450   3.514  1.00  0.00     0.251 C 
ATOM     31  H   UNL     1       6.078   5.552   2.880  1.00  0.00     0.163 HD
ATOM     32  O   UNL     1       7.231   7.561   3.592  1.00  0.00    -0.269 OA
BRANCH  30  33
ATOM     33  C   UNL     1       5.143   8.578   3.920  1.00  0.00     0.039 A 
ATOM     34  C   UNL     1       5.493   9.872   3.525  1.00  0.00     0.014 A 
ATOM     35  C   UNL     1       3.990   8.367   4.682  1.00  0.00     0.014 A 
ATOM     36  C   UNL     1       4.652  10.943   3.834  1.00  0.00     0.010 A 
ATOM     37  C   UNL     1       3.114   9.423   4.923  1.00  0.00     0.010 A 
ATOM     38  C   UNL     1       3.435  10.722   4.500  1.00  0.00    -0.014 A 
BRANCH  38  39
ATOM     39  C   UNL     1       2.481  11.836   4.742  1.00  0.00     0.031 A 
ATOM     40  C   UNL     1       2.135  12.255   6.143  1.00  0.00     0.074 A 
ATOM     41  C   UNL     1       1.880  12.433   3.694  1.00  0.00     0.049 A 
ATOM     42  N   UNL     1       1.296  13.175   6.549  1.00  0.00    -0.248 NA
ATOM     43  C   UNL     1       2.802  11.528   7.234  1.00  0.00     0.031 C 
ATOM     44  C   UNL     1       2.092  12.084   2.288  1.00  0.00     0.029 A 
ATOM     45  N   UNL     1       0.963  13.454   3.647  1.00  0.00    -0.354 N 
ATOM     46  C   UNL     1       1.327  13.130   7.937  1.00  0.00     0.074 A 
ATOM     47  C   UNL     1       2.223  12.054   8.303  1.00  0.00     0.031 C 
ATOM     48  C   UNL     1       1.350  12.894   1.517  1.00  0.00     0.029 A 
ATOM     49  C   UNL     1       0.579  13.791   2.372  1.00  0.00     0.049 A 
ATOM     50  H   UNL     1       0.614  13.902   4.452  1.00  0.00     0.167 HD
ATOM     51  C   UNL     1       0.685  13.928   8.824  1.00  0.00     0.037 A 
ATOM     52  C   UNL     1      -0.302  14.714   1.941  1.00  0.00     0.037 A 
ATOM     53  C   UNL     1      -0.196  15.005   8.454  1.00  0.00     0.049 A 
ATOM     54  C   UNL     1      -1.017  15.574   2.947  1.00  0.00     0.074 A 
ATOM     55  C   UNL     1      -0.847  15.909   9.277  1.00  0.00     0.029 A 
ATOM     56  N   UNL     1      -0.560  15.319   7.152  1.00  0.00    -0.354 N 
ATOM     57  N   UNL     1      -0.920  15.575   4.254  1.00  0.00    -0.248 NA
ATOM     58  C   UNL     1      -1.960  16.568   2.416  1.00  0.00     0.031 C 
ATOM     59  C   UNL     1      -1.649  16.730   8.478  1.00  0.00     0.029 A 
ATOM     60  C   UNL     1      -1.450  16.382   7.152  1.00  0.00     0.049 A 
ATOM     61  H   UNL     1      -0.234  14.854   6.348  1.00  0.00     0.167 HD
ATOM     62  C   UNL     1      -1.764  16.582   4.700  1.00  0.00     0.074 A 
ATOM     63  C   UNL     1      -2.353  17.184   3.521  1.00  0.00     0.031 C 
ATOM     64  C   UNL     1      -2.029  16.973   5.971  1.00  0.00     0.037 A 
BRANCH  51  65
ATOM     65  C   UNL     1       0.911  13.662  10.286  1.00  0.00     0.064 A 
ATOM     66  C   UNL     1       2.152  13.899  10.897  1.00  0.00     0.173 A 
ATOM     67  C   UNL     1      -0.137  13.196  11.095  1.00  0.00     0.173 A 
ATOM     68  F   UNL     1       3.191  14.338  10.168  1.00  0.00    -0.203 F 
ATOM     69  C   UNL     1       2.346  13.645  12.252  1.00  0.00     0.198 A 
ATOM     70  C   UNL     1       0.051  12.976  12.458  1.00  0.00     0.198 A 
ATOM     71  F   UNL     1      -1.347  12.960  10.567  1.00  0.00    -0.203 F 
ATOM     72  F   UNL     1       3.556  13.826  12.800  1.00  0.00    -0.200 F 
ATOM     73  C   UNL     1       1.294  13.191  13.033  1.00  0.00     0.200 A 
ATOM     74  F   UNL     1      -0.971  12.552  13.214  1.00  0.00    -0.200 F 
ATOM     75  F   UNL     1       1.481  12.954  14.338  1.00  0.00    -0.200 F 
ENDBRANCH  51  65
BRANCH  52  76
ATOM     76  C   UNL     1      -0.538  14.888   0.483  1.00  0.00     0.064 A 
ATOM     77  C   UNL     1      -0.120  16.050  -0.180  1.00  0.00     0.173 A 
ATOM     78  C   UNL     1      -1.185  13.901  -0.276  1.00  0.00     0.173 A 
ATOM     79  F   UNL     1       0.484  17.031   0.506  1.00  0.00    -0.203 F 
ATOM     80  C   UNL     1      -0.356  16.226  -1.542  1.00  0.00     0.198 A 
ATOM     81  C   UNL     1      -1.392  14.065  -1.644  1.00  0.00     0.198 A 
ATOM     82  F   UNL     1      -1.600  12.768   0.309  1.00  0.00    -0.203 F 
ATOM     83  F   UNL     1       0.014  17.367  -2.141  1.00  0.00    -0.200 F 
ATOM     84  C   UNL     1      -0.985  15.231  -2.274  1.00  0.00     0.200 A 
ATOM     85  F   UNL     1      -1.985  13.094  -2.350  1.00  0.00    -0.200 F 
ATOM     86  F   UNL     1      -1.205  15.398  -3.585  1.00  0.00    -0.200 F 
ENDBRANCH  52  76
BRANCH  64  87
ATOM     87  C   UNL     1      -2.972  18.129   6.155  1.00  0.00     0.064 A 
ATOM     88  C   UNL     1      -4.344  18.012   5.888  1.00  0.00     0.173 A 
ATOM     89  C   UNL     1      -2.500  19.360   6.636  1.00  0.00     0.173 A 
ATOM     90  F   UNL     1      -4.845  16.862   5.412  1.00  0.00    -0.203 F 
ATOM     91  C   UNL     1      -5.203  19.094   6.068  1.00  0.00     0.198 A 
ATOM     92  C   UNL     1      -3.367  20.428   6.847  1.00  0.00     0.198 A 
ATOM     93  F   UNL     1      -1.198  19.524   6.913  1.00  0.00    -0.203 F 
ATOM     94  F   UNL     1      -6.501  18.975   5.754  1.00  0.00    -0.200 F 
ATOM     95  C   UNL     1      -4.716  20.298   6.554  1.00  0.00     0.200 A 
ATOM     96  F   UNL     1      -2.896  21.586   7.332  1.00  0.00    -0.200 F 
ATOM     97  F   UNL     1      -5.545  21.335   6.733  1.00  0.00    -0.200 F 
ENDBRANCH  64  87
ENDBRANCH  38  39
ENDBRANCH  30  33
ENDBRANCH  28  29
ENDBRANCH  27  28
ENDBRANCH  26  27
ENDBRANCH   1  26
TORSDOF 15
