REMARK SMILES [NH3+][C@@]1(C(=O)NCCCCCCNC(=O)c2ccc(-c3c4nc(c(-c5c(F)c(F)c(F)c(F)c5F)c5ccc([nH]5)c(-c5c(F)c(F)c(F)c(F)c5F)c5nc(c(-c6c(F)c(F)c(F)c(F)c6F)c6ccc3[nH]6)C=C5)C=C4)cc2)CC[N@H+](Cc2ccc(OCC(=O)N3CCCCC3)cc2)C1
REMARK SMILES IDX 7 1 6 2 5 3 3 4 4 5 2 7 78 8 98 9 79 10 80 11 1 13 81 17
REMARK SMILES IDX 82 18 83 19 97 20 84 21 96 22 85 23 86 24 87 25 88 26 89 27
REMARK SMILES IDX 90 28 91 29 95 30 92 31 94 32 93 33 8 34 9 35 10 36 11 37
REMARK SMILES IDX 12 38 13 39 14 41 15 42 16 43 77 44 17 45 76 46 18 47 19 48
REMARK SMILES IDX 20 49 70 50 21 51 75 52 69 53 71 54 22 55 74 56 68 57 67 58
REMARK SMILES IDX 23 60 55 61 35 62 54 63 36 64 39 65 53 66 72 67 37 68 38 69
REMARK SMILES IDX 52 71 73 72 40 73 24 74 25 75 33 76 26 77 27 78 31 79 34 80
REMARK SMILES IDX 28 81 29 82 32 83 30 84 56 85 57 86 65 87 58 88 59 89 63 90
REMARK SMILES IDX 66 91 60 92 61 93 64 94 62 95 41 96 42 97 50 98 43 99 44 100
REMARK SMILES IDX 48 101 51 102 45 103 46 104 49 105 47 106
REMARK H PARENT 5 6 80 12 1 14 1 15 1 16 12 40 71 59 39 70
REMARK Flexibility Score: inf
ROOT
ATOM      1  C   UNL     1       0.260   0.626  -5.868  1.00  0.00     0.021 C 
ENDROOT
BRANCH   1   2
ATOM      2  C   UNL     1       0.891   0.026  -3.873  1.00  0.00     0.116 C 
BRANCH   2   3
ATOM      3  N   UNL     1       1.799   0.561  -2.770  1.00  0.00    -0.350 N 
ATOM      4  C   UNL     1       1.623   0.336  -1.427  1.00  0.00     0.287 C 
ATOM      5  O   UNL     1       2.608   0.563  -0.705  1.00  0.00    -0.268 OA
ATOM      6  H   UNL     1       2.570   1.109  -3.042  1.00  0.00     0.163 HD
BRANCH   4   7
ATOM      7  C   UNL     1       0.273  -0.253  -0.756  1.00  0.00     0.228 C 
ATOM      8  C   UNL     1       0.102  -1.762  -0.982  1.00  0.00     0.146 C 
ATOM      9  C   UNL     1      -1.097   0.328  -1.212  1.00  0.00     0.342 C 
ATOM     10  C   UNL     1      -1.120  -1.960  -1.884  1.00  0.00     0.270 C 
ATOM     11  N   UNL     1      -1.820  -0.688  -2.016  1.00  0.00    -0.325 N 
ATOM     12  H   UNL     1      -2.752  -0.752  -1.606  1.00  0.00     0.348 HD
BRANCH   7  13
ATOM     13  N   UNL     1       0.444   0.030   0.711  1.00  0.00    -0.340 N 
ATOM     14  H   UNL     1       1.338  -0.345   1.028  1.00  0.00     0.345 HD
ATOM     15  H   UNL     1      -0.313  -0.412   1.233  1.00  0.00     0.345 HD
ATOM     16  H   UNL     1       0.422   1.037   0.868  1.00  0.00     0.345 HD
ENDBRANCH   7  13
BRANCH  11  17
ATOM     17  C   UNL     1      -2.291  -0.341  -3.379  1.00  0.00     0.299 C 
BRANCH  17  18
ATOM     18  C   UNL     1      -1.180   0.014  -4.382  1.00  0.00     0.006 A 
ATOM     19  C   UNL     1      -0.470   1.653  -4.133  1.00  0.00     0.013 A 
ATOM     20  C   UNL     1      -0.152  -1.302  -5.102  1.00  0.00     0.013 A 
ATOM     21  C   UNL     1       1.226   1.999  -4.603  1.00  0.00     0.047 A 
ATOM     22  C   UNL     1       1.579  -0.962  -5.553  1.00  0.00     0.047 A 
ATOM     23  C   UNL     1       2.257   0.690  -5.280  1.00  0.00     0.120 A 
BRANCH  23  24
ATOM     24  O   UNL     1       3.491   1.142  -5.621  1.00  0.00    -0.484 OA
BRANCH  24  25
ATOM     25  C   UNL     1       4.409   0.220  -6.159  1.00  0.00     0.329 C 
BRANCH  25  26
ATOM     26  C   UNL     1       5.229  -0.441  -5.064  1.00  0.00     0.260 C 
ATOM     27  O   UNL     1       5.307  -1.673  -5.040  1.00  0.00    -0.271 OA
ATOM     28  N   UNL     1       5.889   0.374  -4.150  1.00  0.00    -0.340 N 
ATOM     29  C   UNL     1       6.670  -0.254  -3.095  1.00  0.00     0.119 C 
ATOM     30  C   UNL     1       5.816   1.838  -4.045  1.00  0.00     0.119 C 
ATOM     31  C   UNL     1       6.031   0.043  -1.745  1.00  0.00     0.022 C 
ATOM     32  C   UNL     1       5.232   2.263  -2.694  1.00  0.00     0.022 C 
ATOM     33  C   UNL     1       5.907   1.551  -1.519  1.00  0.00     0.004 C 
ENDBRANCH  25  26
ENDBRANCH  24  25
ENDBRANCH  23  24
ENDBRANCH  17  18
ENDBRANCH  11  17
ENDBRANCH   4   7
ENDBRANCH   2   3
ENDBRANCH   1   2
BRANCH   1  34
ATOM     34  C   UNL     1       1.038   0.707  -7.435  1.00  0.00     0.002 C 
BRANCH  34  35
ATOM     35  C   UNL     1       1.197  -0.558  -8.306  1.00  0.00     0.002 C 
BRANCH  35  36
ATOM     36  C   UNL     1      -0.112  -1.242  -8.678  1.00  0.00     0.021 C 
BRANCH  36  37
ATOM     37  C   UNL     1      -1.099  -0.288  -9.329  1.00  0.00     0.116 C 
BRANCH  37  38
ATOM     38  N   UNL     1      -0.478   0.432 -10.441  1.00  0.00    -0.352 N 
ATOM     39  C   UNL     1      -0.757   0.330 -11.776  1.00  0.00     0.251 C 
ATOM     40  H   UNL     1       0.231   1.071 -10.197  1.00  0.00     0.163 HD
ATOM     41  O   UNL     1       0.015   0.731 -12.636  1.00  0.00    -0.269 OA
BRANCH  39  42
ATOM     42  C   UNL     1      -2.044  -0.273 -12.132  1.00  0.00     0.039 A 
ATOM     43  C   UNL     1      -2.096  -1.326 -13.042  1.00  0.00     0.014 A 
ATOM     44  C   UNL     1      -3.183   0.170 -11.452  1.00  0.00     0.014 A 
ATOM     45  C   UNL     1      -3.312  -1.970 -13.246  1.00  0.00     0.010 A 
ATOM     46  C   UNL     1      -4.357  -0.544 -11.570  1.00  0.00     0.010 A 
ATOM     47  C   UNL     1      -4.439  -1.593 -12.496  1.00  0.00    -0.014 A 
BRANCH  47  48
ATOM     48  C   UNL     1      -5.759  -2.214 -12.715  1.00  0.00     0.031 A 
ATOM     49  C   UNL     1      -6.880  -1.348 -13.216  1.00  0.00     0.074 A 
ATOM     50  C   UNL     1      -5.955  -3.504 -12.392  1.00  0.00     0.049 A 
ATOM     51  N   UNL     1      -8.146  -1.635 -13.365  1.00  0.00    -0.248 NA
ATOM     52  C   UNL     1      -6.540   0.049 -13.543  1.00  0.00     0.031 C 
ATOM     53  C   UNL     1      -4.942  -4.407 -11.841  1.00  0.00     0.029 A 
ATOM     54  N   UNL     1      -7.082  -4.278 -12.475  1.00  0.00    -0.354 N 
ATOM     55  C   UNL     1      -8.747  -0.452 -13.775  1.00  0.00     0.074 A 
ATOM     56  C   UNL     1      -7.732   0.574 -13.770  1.00  0.00     0.031 C 
ATOM     57  C   UNL     1      -5.487  -5.622 -11.667  1.00  0.00     0.029 A 
ATOM     58  C   UNL     1      -6.890  -5.573 -12.062  1.00  0.00     0.049 A 
ATOM     59  H   UNL     1      -7.947  -3.938 -12.799  1.00  0.00     0.167 HD
ATOM     60  C   UNL     1     -10.026  -0.253 -14.166  1.00  0.00     0.037 A 
ATOM     61  C   UNL     1      -7.761  -6.597 -12.019  1.00  0.00     0.037 A 
ATOM     62  C   UNL     1     -11.008  -1.300 -14.214  1.00  0.00     0.049 A 
ATOM     63  C   UNL     1      -9.172  -6.356 -12.486  1.00  0.00     0.074 A 
ATOM     64  C   UNL     1     -12.322  -1.236 -14.635  1.00  0.00     0.029 A 
ATOM     65  N   UNL     1     -10.766  -2.614 -13.837  1.00  0.00    -0.354 N 
ATOM     66  N   UNL     1      -9.721  -5.249 -12.927  1.00  0.00    -0.248 NA
ATOM     67  C   UNL     1     -10.082  -7.508 -12.460  1.00  0.00     0.031 C 
ATOM     68  C   UNL     1     -12.884  -2.509 -14.489  1.00  0.00     0.029 A 
ATOM     69  C   UNL     1     -11.908  -3.373 -14.015  1.00  0.00     0.049 A 
ATOM     70  H   UNL     1      -9.908  -2.955 -13.494  1.00  0.00     0.167 HD
ATOM     71  C   UNL     1     -11.027  -5.577 -13.262  1.00  0.00     0.074 A 
ATOM     72  C   UNL     1     -11.183  -6.991 -12.986  1.00  0.00     0.031 C 
ATOM     73  C   UNL     1     -12.014  -4.784 -13.749  1.00  0.00     0.037 A 
BRANCH  60  74
ATOM     74  C   UNL     1     -10.410   1.133 -14.594  1.00  0.00     0.064 A 
ATOM     75  C   UNL     1      -9.895   1.706 -15.768  1.00  0.00     0.173 A 
ATOM     76  C   UNL     1     -11.299   1.900 -13.827  1.00  0.00     0.173 A 
ATOM     77  F   UNL     1      -9.024   1.023 -16.527  1.00  0.00    -0.203 F 
ATOM     78  C   UNL     1     -10.227   3.005 -16.140  1.00  0.00     0.198 A 
ATOM     79  C   UNL     1     -11.655   3.188 -14.220  1.00  0.00     0.198 A 
ATOM     80  F   UNL     1     -11.819   1.403 -12.695  1.00  0.00    -0.203 F 
ATOM     81  F   UNL     1      -9.673   3.551 -17.231  1.00  0.00    -0.200 F 
ATOM     82  C   UNL     1     -11.113   3.743 -15.369  1.00  0.00     0.200 A 
ATOM     83  F   UNL     1     -12.519   3.897 -13.479  1.00  0.00    -0.200 F 
ATOM     84  F   UNL     1     -11.435   4.993 -15.729  1.00  0.00    -0.200 F 
ENDBRANCH  60  74
BRANCH  61  85
ATOM     85  C   UNL     1      -7.317  -7.941 -11.569  1.00  0.00     0.064 A 
ATOM     86  C   UNL     1      -7.228  -9.006 -12.476  1.00  0.00     0.173 A 
ATOM     87  C   UNL     1      -6.982  -8.196 -10.231  1.00  0.00     0.173 A 
ATOM     88  F   UNL     1      -7.550  -8.816 -13.764  1.00  0.00    -0.203 F 
ATOM     89  C   UNL     1      -6.849 -10.281 -12.059  1.00  0.00     0.198 A 
ATOM     90  C   UNL     1      -6.577  -9.464  -9.820  1.00  0.00     0.198 A 
ATOM     91  F   UNL     1      -7.039  -7.210  -9.324  1.00  0.00    -0.203 F 
ATOM     92  F   UNL     1      -6.821 -11.290 -12.939  1.00  0.00    -0.200 F 
ATOM     93  C   UNL     1      -6.521 -10.508 -10.731  1.00  0.00     0.200 A 
ATOM     94  F   UNL     1      -6.244  -9.677  -8.539  1.00  0.00    -0.200 F 
ATOM     95  F   UNL     1      -6.158 -11.734 -10.329  1.00  0.00    -0.200 F 
ENDBRANCH  61  85
BRANCH  73  96
ATOM     96  C   UNL     1     -13.325  -5.441 -14.055  1.00  0.00     0.064 A 
ATOM     97  C   UNL     1     -14.197  -5.847 -13.035  1.00  0.00     0.173 A 
ATOM     98  C   UNL     1     -13.734  -5.617 -15.385  1.00  0.00     0.173 A 
ATOM     99  F   UNL     1     -13.841  -5.710 -11.748  1.00  0.00    -0.203 F 
ATOM    100  C   UNL     1     -15.423  -6.431 -13.337  1.00  0.00     0.198 A 
ATOM    101  C   UNL     1     -14.973  -6.173 -15.683  1.00  0.00     0.198 A 
ATOM    102  F   UNL     1     -12.936  -5.235 -16.394  1.00  0.00    -0.203 F 
ATOM    103  F   UNL     1     -16.222  -6.854 -12.349  1.00  0.00    -0.200 F 
ATOM    104  C   UNL     1     -15.813  -6.586 -14.660  1.00  0.00     0.200 A 
ATOM    105  F   UNL     1     -15.355  -6.309 -16.960  1.00  0.00    -0.200 F 
ATOM    106  F   UNL     1     -16.999  -7.140 -14.948  1.00  0.00    -0.200 F 
ENDBRANCH  73  96
ENDBRANCH  47  48
ENDBRANCH  39  42
ENDBRANCH  37  38
ENDBRANCH  36  37
ENDBRANCH  35  36
ENDBRANCH  34  35
ENDBRANCH   1  34
TORSDOF 19
