REMARK SMILES CC(C)(C)[NH2+]Cc1cc(C(=O)NCCCCCCNC(=O)c2ccc(-c3c4nc(c(-c5c(F)c(F)c(F)c(F)c5F)c5ccc([nH]5)c(-c5c(F)c(F)c(F)c(F)c5F)c5nc(c(-c6c(F)c(F)c(F)c(F)c6F)c6ccc3[nH]6)C=C5)C=C4)cc2)cs1
REMARK SMILES IDX 15 1 14 2 13 3 12 4 10 5 11 6 9 8 7 9 8 10 86 11 85 12 6 13
REMARK SMILES IDX 5 14 2 17 1 18 3 19 4 20 16 21 17 22 18 23 19 24 20 25 21 27
REMARK SMILES IDX 22 28 23 29 84 30 24 31 83 32 25 33 26 34 27 35 77 36 28 37
REMARK SMILES IDX 82 38 76 39 78 40 29 41 81 42 75 43 74 44 30 46 62 47 42 48
REMARK SMILES IDX 61 49 43 50 46 51 60 52 79 53 44 54 45 55 59 57 80 58 47 59
REMARK SMILES IDX 31 60 32 61 40 62 33 63 34 64 38 65 41 66 35 67 36 68 39 69
REMARK SMILES IDX 37 70 63 71 64 72 72 73 65 74 66 75 70 76 73 77 67 78 68 79
REMARK SMILES IDX 71 80 69 81 48 82 49 83 57 84 50 85 51 86 55 87 58 88 52 89
REMARK SMILES IDX 53 90 56 91 54 92
REMARK H PARENT 12 7 5 15 5 16 19 26 78 45 46 56
REMARK Flexibility Score: inf
ROOT
ATOM      1  C   UNL     1       0.991   7.169   5.101  1.00  0.00     0.002 C 
ENDROOT
BRANCH   1   2
ATOM      2  C   UNL     1       1.397   5.818   4.496  1.00  0.00     0.021 C 
BRANCH   2   3
ATOM      3  C   UNL     1       0.965   5.668   3.037  1.00  0.00     0.116 C 
BRANCH   3   4
ATOM      4  N   UNL     1       1.873   6.391   2.170  1.00  0.00    -0.352 N 
ATOM      5  C   UNL     1       2.962   5.997   1.432  1.00  0.00     0.252 C 
ATOM      6  O   UNL     1       3.546   6.870   0.796  1.00  0.00    -0.269 OA
ATOM      7  H   UNL     1       1.669   7.351   2.096  1.00  0.00     0.163 HD
BRANCH   5   8
ATOM      8  C   UNL     1       3.351   4.588   1.334  1.00  0.00     0.051 A 
ATOM      9  C   UNL     1       3.249   2.265   1.547  1.00  0.00     0.059 A 
ATOM     10  C   UNL     1       3.056   3.476   2.187  1.00  0.00     0.035 A 
ATOM     11  S   UNL     1       4.314   2.450   0.225  1.00  0.00    -0.142 S 
ATOM     12  C   UNL     1       4.139   4.150   0.278  1.00  0.00     0.079 A 
BRANCH   9  13
ATOM     13  C   UNL     1       2.639   0.941   1.887  1.00  0.00     0.308 C 
BRANCH  13  14
ATOM     14  N   UNL     1       1.169   0.993   1.884  1.00  0.00    -0.338 N 
ATOM     15  H   UNL     1       0.841   0.174   2.397  1.00  0.00     0.347 HD
ATOM     16  H   UNL     1       0.957   1.903   2.292  1.00  0.00     0.347 HD
BRANCH  14  17
ATOM     17  C   UNL     1       0.452   1.010   0.593  1.00  0.00     0.088 C 
ATOM     18  C   UNL     1       0.850  -0.170  -0.307  1.00  0.00     0.078 C 
ATOM     19  C   UNL     1       0.595   2.329  -0.187  1.00  0.00     0.078 C 
ATOM     20  C   UNL     1      -1.044   0.864   0.948  1.00  0.00     0.078 C 
ENDBRANCH  14  17
ENDBRANCH  13  14
ENDBRANCH   9  13
ENDBRANCH   5   8
ENDBRANCH   3   4
ENDBRANCH   2   3
ENDBRANCH   1   2
BRANCH   1  21
ATOM     21  C   UNL     1      -0.523   7.405   5.180  1.00  0.00     0.002 C 
BRANCH  21  22
ATOM     22  C   UNL     1      -1.304   6.330   5.940  1.00  0.00     0.021 C 
BRANCH  22  23
ATOM     23  C   UNL     1      -0.898   6.176   7.402  1.00  0.00     0.116 C 
BRANCH  23  24
ATOM     24  N   UNL     1      -1.170   7.383   8.164  1.00  0.00    -0.352 N 
ATOM     25  C   UNL     1      -1.878   7.543   9.325  1.00  0.00     0.251 C 
ATOM     26  H   UNL     1      -0.789   8.209   7.789  1.00  0.00     0.163 HD
ATOM     27  O   UNL     1      -2.197   8.668   9.697  1.00  0.00    -0.269 OA
BRANCH  25  28
ATOM     28  C   UNL     1      -2.263   6.367  10.136  1.00  0.00     0.039 A 
ATOM     29  C   UNL     1      -3.515   6.361  10.755  1.00  0.00     0.014 A 
ATOM     30  C   UNL     1      -1.377   5.305  10.340  1.00  0.00     0.014 A 
ATOM     31  C   UNL     1      -3.885   5.285  11.563  1.00  0.00     0.010 A 
ATOM     32  C   UNL     1      -1.776   4.196  11.081  1.00  0.00     0.010 A 
ATOM     33  C   UNL     1      -3.022   4.189  11.725  1.00  0.00    -0.014 A 
BRANCH  33  34
ATOM     34  C   UNL     1      -3.395   3.056  12.608  1.00  0.00     0.031 A 
ATOM     35  C   UNL     1      -2.607   2.783  13.860  1.00  0.00     0.074 A 
ATOM     36  C   UNL     1      -4.427   2.259  12.271  1.00  0.00     0.049 A 
ATOM     37  N   UNL     1      -2.776   1.847  14.760  1.00  0.00    -0.248 NA
ATOM     38  C   UNL     1      -1.456   3.662  14.122  1.00  0.00     0.031 C 
ATOM     39  C   UNL     1      -5.232   2.388  11.056  1.00  0.00     0.029 A 
ATOM     40  N   UNL     1      -4.975   1.183  12.922  1.00  0.00    -0.354 N 
ATOM     41  C   UNL     1      -1.751   2.018  15.682  1.00  0.00     0.074 A 
ATOM     42  C   UNL     1      -0.927   3.104  15.200  1.00  0.00     0.031 C 
ATOM     43  C   UNL     1      -6.191   1.449  11.064  1.00  0.00     0.029 A 
ATOM     44  C   UNL     1      -6.051   0.636  12.268  1.00  0.00     0.049 A 
ATOM     45  H   UNL     1      -4.629   0.836  13.776  1.00  0.00     0.167 HD
ATOM     46  C   UNL     1      -1.533   1.349  16.840  1.00  0.00     0.037 A 
ATOM     47  C   UNL     1      -6.840  -0.401  12.609  1.00  0.00     0.037 A 
ATOM     48  C   UNL     1      -2.371   0.285  17.328  1.00  0.00     0.049 A 
ATOM     49  C   UNL     1      -6.591  -1.112  13.912  1.00  0.00     0.074 A 
ATOM     50  C   UNL     1      -2.269  -0.423  18.512  1.00  0.00     0.029 A 
ATOM     51  N   UNL     1      -3.471  -0.224  16.651  1.00  0.00    -0.354 N 
ATOM     52  N   UNL     1      -5.662  -0.895  14.812  1.00  0.00    -0.248 NA
ATOM     53  C   UNL     1      -7.515  -2.200  14.255  1.00  0.00     0.031 C 
ATOM     54  C   UNL     1      -3.280  -1.391  18.532  1.00  0.00     0.029 A 
ATOM     55  C   UNL     1      -4.047  -1.247  17.387  1.00  0.00     0.049 A 
ATOM     56  H   UNL     1      -3.794   0.095  15.778  1.00  0.00     0.167 HD
ATOM     57  C   UNL     1      -5.909  -1.795  15.840  1.00  0.00     0.074 A 
ATOM     58  C   UNL     1      -7.087  -2.547  15.459  1.00  0.00     0.031 C 
ATOM     59  C   UNL     1      -5.224  -1.982  16.996  1.00  0.00     0.037 A 
BRANCH  46  60
ATOM     60  C   UNL     1      -0.339   1.755  17.658  1.00  0.00     0.064 A 
ATOM     61  C   UNL     1      -0.277   2.999  18.306  1.00  0.00     0.173 A 
ATOM     62  C   UNL     1       0.749   0.882  17.813  1.00  0.00     0.173 A 
ATOM     63  F   UNL     1      -1.284   3.876  18.182  1.00  0.00    -0.203 F 
ATOM     64  C   UNL     1       0.844   3.368  19.046  1.00  0.00     0.198 A 
ATOM     65  C   UNL     1       1.853   1.241  18.582  1.00  0.00     0.198 A 
ATOM     66  F   UNL     1       0.742  -0.321  17.220  1.00  0.00    -0.203 F 
ATOM     67  F   UNL     1       0.905   4.585  19.605  1.00  0.00    -0.200 F 
ATOM     68  C   UNL     1       1.905   2.487  19.189  1.00  0.00     0.200 A 
ATOM     69  F   UNL     1       2.873   0.383  18.730  1.00  0.00    -0.200 F 
ATOM     70  F   UNL     1       2.981   2.842  19.904  1.00  0.00    -0.200 F 
ENDBRANCH  46  60
BRANCH  47  71
ATOM     71  C   UNL     1      -7.967  -0.796  11.726  1.00  0.00     0.064 A 
ATOM     72  C   UNL     1      -9.297  -0.587  12.118  1.00  0.00     0.173 A 
ATOM     73  C   UNL     1      -7.742  -1.392  10.477  1.00  0.00     0.173 A 
ATOM     74  F   UNL     1      -9.564  -0.036  13.312  1.00  0.00    -0.203 F 
ATOM     75  C   UNL     1     -10.358  -0.981  11.306  1.00  0.00     0.198 A 
ATOM     76  C   UNL     1      -8.803  -1.759   9.653  1.00  0.00     0.198 A 
ATOM     77  F   UNL     1      -6.488  -1.606  10.052  1.00  0.00    -0.203 F 
ATOM     78  F   UNL     1     -11.619  -0.814  11.727  1.00  0.00    -0.200 F 
ATOM     79  C   UNL     1     -10.111  -1.562  10.072  1.00  0.00     0.200 A 
ATOM     80  F   UNL     1      -8.560  -2.305   8.454  1.00  0.00    -0.200 F 
ATOM     81  F   UNL     1     -11.131  -1.938   9.289  1.00  0.00    -0.200 F 
ENDBRANCH  47  71
BRANCH  59  82
ATOM     82  C   UNL     1      -5.761  -3.011  17.949  1.00  0.00     0.064 A 
ATOM     83  C   UNL     1      -5.711  -4.384  17.663  1.00  0.00     0.173 A 
ATOM     84  C   UNL     1      -6.326  -2.616  19.171  1.00  0.00     0.173 A 
ATOM     85  F   UNL     1      -5.192  -4.813  16.503  1.00  0.00    -0.203 F 
ATOM     86  C   UNL     1      -6.247  -5.318  18.545  1.00  0.00     0.198 A 
ATOM     87  C   UNL     1      -6.829  -3.555  20.067  1.00  0.00     0.198 A 
ATOM     88  F   UNL     1      -6.390  -1.316  19.499  1.00  0.00    -0.203 F 
ATOM     89  F   UNL     1      -6.248  -6.619  18.221  1.00  0.00    -0.200 F 
ATOM     90  C   UNL     1      -6.800  -4.904  19.748  1.00  0.00     0.200 A 
ATOM     91  F   UNL     1      -7.349  -3.155  21.235  1.00  0.00    -0.200 F 
ATOM     92  F   UNL     1      -7.317  -5.805  20.594  1.00  0.00    -0.200 F 
ENDBRANCH  59  82
ENDBRANCH  33  34
ENDBRANCH  25  28
ENDBRANCH  23  24
ENDBRANCH  22  23
ENDBRANCH  21  22
ENDBRANCH   1  21
TORSDOF 16
