REMARK SMILES Cc1ccc(N2C(=O)/C(=C3\C(=O)N(CC(=O)NCCCCCCNC(=O)c4ccc(-c5c6nc(c(-c7c(F)c(F)c(F)c(F)c7F)c7ccc([nH]7)c(-c7c(F)c(F)c(F)c(F)c7F)c7nc(c(-c8c(F)c(F)c(F)c(F)c8F)c8ccc5[nH]8)C=C7)C=C6)cc4)c4ccccc43)SC2=S)c(C)c1
REMARK SMILES IDX 20 1 19 2 18 3 17 4 15 5 16 6 14 8 13 9 6 10 7 11 97 12 8 13
REMARK SMILES IDX 9 14 96 15 98 16 10 17 11 18 95 19 12 20 90 21 94 22 91 23
REMARK SMILES IDX 93 24 92 25 5 26 1 27 2 28 3 29 101 30 4 31 99 32 100 33
REMARK SMILES IDX 21 34 22 35 23 36 24 37 25 38 26 40 27 41 28 42 89 43 29 44
REMARK SMILES IDX 88 45 30 46 31 47 32 48 82 49 33 50 87 51 81 52 83 53 34 54
REMARK SMILES IDX 86 55 80 56 79 57 35 59 67 60 47 61 66 62 48 63 51 64 65 65
REMARK SMILES IDX 84 66 49 67 50 68 64 70 85 71 52 72 36 73 37 74 45 75 38 76
REMARK SMILES IDX 39 77 43 78 46 79 40 80 41 81 44 82 42 83 68 84 69 85 77 86
REMARK SMILES IDX 70 87 71 88 75 89 78 90 72 91 73 92 76 93 74 94 53 95 54 96
REMARK SMILES IDX 62 97 55 98 56 99 60 100 63 101 57 102 58 103 61 104 59 105
REMARK H PARENT 17 7 24 39 83 58 51 69
REMARK Flexibility Score: inf
ROOT
ATOM      1  C   UNL     1      -9.614  -3.630  -3.842  1.00  0.00     0.002 C 
ENDROOT
BRANCH   1   2
ATOM      2  C   UNL     1      -8.536  -2.695  -3.277  1.00  0.00     0.021 C 
BRANCH   2   3
ATOM      3  C   UNL     1      -8.660  -1.246  -3.749  1.00  0.00     0.116 C 
BRANCH   3   4
ATOM      4  N   UNL     1      -9.832  -0.615  -3.179  1.00  0.00    -0.355 N 
ATOM      5  C   UNL     1      -9.906   0.288  -2.160  1.00  0.00     0.240 C 
ATOM      6  O   UNL     1     -11.022   0.687  -1.819  1.00  0.00    -0.273 OA
ATOM      7  H   UNL     1     -10.692  -0.871  -3.583  1.00  0.00     0.163 HD
BRANCH   5   8
ATOM      8  C   UNL     1      -8.634   0.847  -1.513  1.00  0.00     0.225 C 
BRANCH   8   9
ATOM      9  N   UNL     1      -7.808  -0.135  -0.837  1.00  0.00    -0.298 N 
ATOM     10  N   UNL     1      -2.479  -1.798  -0.014  1.00  0.00    -0.261 N 
ATOM     11  C   UNL     1      -3.562  -1.528  -0.855  1.00  0.00     0.271 C 
ATOM     12  C   UNL     1      -2.684  -2.796   0.926  1.00  0.00     0.152 C 
ATOM     13  O   UNL     1      -3.508  -1.049  -1.976  1.00  0.00    -0.268 OA
ATOM     14  C   UNL     1      -4.808  -2.038  -0.200  1.00  0.00     0.094 C 
ATOM     15  S   UNL     1      -4.331  -3.388   0.772  1.00  0.00    -0.053 SA
ATOM     16  S   UNL     1      -1.713  -3.365   2.163  1.00  0.00    -0.051 S 
ATOM     17  C   UNL     1      -6.026  -1.469  -0.209  1.00  0.00     0.069 C 
ATOM     18  C   UNL     1      -6.463  -0.349  -1.124  1.00  0.00     0.260 C 
ATOM     19  C   UNL     1      -7.182  -1.745   0.677  1.00  0.00     0.012 A 
ATOM     20  O   UNL     1      -5.800   0.249  -1.950  1.00  0.00    -0.269 OA
ATOM     21  C   UNL     1      -8.225  -0.913   0.252  1.00  0.00     0.053 A 
ATOM     22  C   UNL     1      -7.346  -2.506   1.827  1.00  0.00     0.011 A 
ATOM     23  C   UNL     1      -9.445  -0.863   0.910  1.00  0.00     0.027 A 
ATOM     24  C   UNL     1      -8.563  -2.455   2.512  1.00  0.00     0.001 A 
ATOM     25  C   UNL     1      -9.608  -1.647   2.052  1.00  0.00     0.002 A 
BRANCH  10  26
ATOM     26  C   UNL     1      -1.261  -1.062  -0.138  1.00  0.00     0.054 A 
ATOM     27  C   UNL     1       2.502   1.077  -0.053  1.00  0.00     0.044 C 
ATOM     28  C   UNL     1       1.207   0.324  -0.122  1.00  0.00    -0.051 A 
ATOM     29  C   UNL     1       1.183  -1.067  -0.169  1.00  0.00     0.005 A 
ATOM     30  C   UNL     1      -0.006   1.021  -0.122  1.00  0.00     0.009 A 
ATOM     31  C   UNL     1      -0.036  -1.749  -0.188  1.00  0.00     0.027 A 
ATOM     32  C   UNL     1      -1.246   0.350  -0.114  1.00  0.00    -0.027 A 
ATOM     33  C   UNL     1      -2.473   1.220  -0.030  1.00  0.00     0.046 C 
ENDBRANCH  10  26
ENDBRANCH   8   9
ENDBRANCH   5   8
ENDBRANCH   3   4
ENDBRANCH   2   3
ENDBRANCH   1   2
BRANCH   1  34
ATOM     34  C   UNL     1      -9.669  -3.717  -5.372  1.00  0.00     0.002 C 
BRANCH  34  35
ATOM     35  C   UNL     1      -8.342  -4.063  -6.045  1.00  0.00     0.021 C 
BRANCH  35  36
ATOM     36  C   UNL     1      -7.739  -5.388  -5.600  1.00  0.00     0.116 C 
BRANCH  36  37
ATOM     37  N   UNL     1      -8.541  -6.534  -6.004  1.00  0.00    -0.352 N 
ATOM     38  C   UNL     1      -8.180  -7.635  -6.744  1.00  0.00     0.251 C 
ATOM     39  H   UNL     1      -9.479  -6.518  -5.704  1.00  0.00     0.163 HD
ATOM     40  O   UNL     1      -9.031  -8.427  -7.137  1.00  0.00    -0.269 OA
BRANCH  38  41
ATOM     41  C   UNL     1      -6.758  -7.846  -7.093  1.00  0.00     0.039 A 
ATOM     42  C   UNL     1      -5.761  -7.628  -6.143  1.00  0.00     0.014 A 
ATOM     43  C   UNL     1      -6.416  -8.234  -8.391  1.00  0.00     0.014 A 
ATOM     44  C   UNL     1      -4.431  -7.603  -6.539  1.00  0.00     0.010 A 
ATOM     45  C   UNL     1      -5.068  -8.323  -8.757  1.00  0.00     0.010 A 
ATOM     46  C   UNL     1      -4.064  -7.957  -7.848  1.00  0.00    -0.014 A 
BRANCH  46  47
ATOM     47  C   UNL     1      -2.622  -7.948  -8.215  1.00  0.00     0.031 A 
ATOM     48  C   UNL     1      -2.091  -7.022  -9.275  1.00  0.00     0.074 A 
ATOM     49  C   UNL     1      -1.773  -8.732  -7.520  1.00  0.00     0.049 A 
ATOM     50  N   UNL     1      -0.851  -6.829  -9.653  1.00  0.00    -0.248 NA
ATOM     51  C   UNL     1      -3.070  -6.209 -10.014  1.00  0.00     0.031 C 
ATOM     52  C   UNL     1      -2.172  -9.674  -6.471  1.00  0.00     0.029 A 
ATOM     53  N   UNL     1      -0.406  -8.838  -7.555  1.00  0.00    -0.354 N 
ATOM     54  C   UNL     1      -0.902  -5.883 -10.669  1.00  0.00     0.074 A 
ATOM     55  C   UNL     1      -2.298  -5.572 -10.885  1.00  0.00     0.031 C 
ATOM     56  C   UNL     1      -1.075 -10.201  -5.912  1.00  0.00     0.029 A 
ATOM     57  C   UNL     1       0.103  -9.696  -6.610  1.00  0.00     0.049 A 
ATOM     58  H   UNL     1       0.157  -8.346  -8.196  1.00  0.00     0.167 HD
ATOM     59  C   UNL     1       0.125  -5.313 -11.344  1.00  0.00     0.037 A 
ATOM     60  C   UNL     1       1.373 -10.046  -6.335  1.00  0.00     0.037 A 
ATOM     61  C   UNL     1       1.514  -5.614 -11.112  1.00  0.00     0.049 A 
ATOM     62  C   UNL     1       2.488  -9.435  -7.135  1.00  0.00     0.074 A 
ATOM     63  C   UNL     1       2.626  -5.073 -11.734  1.00  0.00     0.029 A 
ATOM     64  N   UNL     1       1.983  -6.536 -10.187  1.00  0.00    -0.354 N 
ATOM     65  N   UNL     1       2.425  -8.521  -8.072  1.00  0.00    -0.248 NA
ATOM     66  C   UNL     1       3.850  -9.905  -6.846  1.00  0.00     0.031 C 
ATOM     67  C   UNL     1       3.763  -5.707 -11.228  1.00  0.00     0.029 A 
ATOM     68  C   UNL     1       3.366  -6.596 -10.242  1.00  0.00     0.049 A 
ATOM     69  H   UNL     1       1.417  -7.068  -9.582  1.00  0.00     0.167 HD
ATOM     70  C   UNL     1       3.734  -8.289  -8.468  1.00  0.00     0.074 A 
ATOM     71  C   UNL     1       4.574  -9.147  -7.659  1.00  0.00     0.031 C 
ATOM     72  C   UNL     1       4.194  -7.441  -9.419  1.00  0.00     0.037 A 
BRANCH  59  73
ATOM     73  C   UNL     1      -0.199  -4.295 -12.402  1.00  0.00     0.064 A 
ATOM     74  C   UNL     1      -0.678  -3.019 -12.070  1.00  0.00     0.173 A 
ATOM     75  C   UNL     1       0.069  -4.563 -13.754  1.00  0.00     0.173 A 
ATOM     76  F   UNL     1      -0.956  -2.713 -10.794  1.00  0.00    -0.203 F 
ATOM     77  C   UNL     1      -0.888  -2.054 -13.053  1.00  0.00     0.198 A 
ATOM     78  C   UNL     1      -0.113  -3.586 -14.730  1.00  0.00     0.198 A 
ATOM     79  F   UNL     1       0.539  -5.763 -14.126  1.00  0.00    -0.203 F 
ATOM     80  F   UNL     1      -1.373  -0.852 -12.715  1.00  0.00    -0.200 F 
ATOM     81  C   UNL     1      -0.593  -2.334 -14.379  1.00  0.00     0.200 A 
ATOM     82  F   UNL     1       0.192  -3.852 -16.008  1.00  0.00    -0.200 F 
ATOM     83  F   UNL     1      -0.772  -1.396 -15.319  1.00  0.00    -0.200 F 
ENDBRANCH  59  73
BRANCH  60  84
ATOM     84  C   UNL     1       1.648 -11.013  -5.239  1.00  0.00     0.064 A 
ATOM     85  C   UNL     1       2.308 -10.611  -4.070  1.00  0.00     0.173 A 
ATOM     86  C   UNL     1       1.226 -12.349  -5.323  1.00  0.00     0.173 A 
ATOM     87  F   UNL     1       2.745  -9.349  -3.948  1.00  0.00    -0.203 F 
ATOM     88  C   UNL     1       2.542 -11.509  -3.031  1.00  0.00     0.198 A 
ATOM     89  C   UNL     1       1.429 -13.237  -4.269  1.00  0.00     0.198 A 
ATOM     90  F   UNL     1       0.585 -12.784  -6.418  1.00  0.00    -0.203 F 
ATOM     91  F   UNL     1       3.206 -11.107  -1.939  1.00  0.00    -0.200 F 
ATOM     92  C   UNL     1       2.093 -12.818  -3.127  1.00  0.00     0.200 A 
ATOM     93  F   UNL     1       0.974 -14.494  -4.358  1.00  0.00    -0.200 F 
ATOM     94  F   UNL     1       2.302 -13.676  -2.119  1.00  0.00    -0.200 F 
ENDBRANCH  60  84
BRANCH  72  95
ATOM     95  C   UNL     1       5.678  -7.359  -9.630  1.00  0.00     0.064 A 
ATOM     96  C   UNL     1       6.387  -8.390 -10.261  1.00  0.00     0.173 A 
ATOM     97  C   UNL     1       6.376  -6.189  -9.292  1.00  0.00     0.173 A 
ATOM     98  F   UNL     1       5.768  -9.533 -10.591  1.00  0.00    -0.203 F 
ATOM     99  C   UNL     1       7.744  -8.253 -10.545  1.00  0.00     0.198 A 
ATOM    100  C   UNL     1       7.724  -6.044  -9.605  1.00  0.00     0.198 A 
ATOM    101  F   UNL     1       5.741  -5.171  -8.692  1.00  0.00    -0.203 F 
ATOM    102  F   UNL     1       8.409  -9.260 -11.128  1.00  0.00    -0.200 F 
ATOM    103  C   UNL     1       8.407  -7.076 -10.231  1.00  0.00     0.200 A 
ATOM    104  F   UNL     1       8.358  -4.899  -9.318  1.00  0.00    -0.200 F 
ATOM    105  F   UNL     1       9.705  -6.936 -10.532  1.00  0.00    -0.200 F 
ENDBRANCH  72  95
ENDBRANCH  46  47
ENDBRANCH  38  41
ENDBRANCH  36  37
ENDBRANCH  35  36
ENDBRANCH  34  35
ENDBRANCH   1  34
TORSDOF 15
