REMARK SMILES O=C(CSc1nc2ccc(Cl)cc2c(=O)n1CC1CCCCC1)NCCCCCCNC(=O)c1ccc(-c2c3nc(c(-c4c(F)c(F)c(F)c(F)c4F)c4ccc([nH]4)c(-c4c(F)c(F)c(F)c(F)c4F)c4nc(c(-c5c(F)c(F)c(F)c(F)c5F)c5ccc2[nH]5)C=C4)C=C3)cc1
REMARK SMILES IDX 26 1 25 2 24 3 1 4 2 5 3 7 4 8 5 9 6 10 16 11 7 12 14 13
REMARK SMILES IDX 8 14 13 15 15 16 9 17 12 18 10 19 11 20 17 21 18 22 19 23
REMARK SMILES IDX 23 24 20 25 22 26 21 27 27 28 28 29 29 30 30 31 31 32 32 33
REMARK SMILES IDX 33 35 34 36 35 37 96 38 36 39 95 40 37 41 38 42 39 43 89 44
REMARK SMILES IDX 40 45 94 46 88 47 90 48 41 49 93 50 87 51 86 52 42 54 74 55
REMARK SMILES IDX 54 56 73 57 55 58 58 59 72 60 91 61 56 62 57 63 71 65 92 66
REMARK SMILES IDX 59 67 43 68 44 69 52 70 45 71 46 72 50 73 53 74 47 75 48 76
REMARK SMILES IDX 51 77 49 78 75 79 76 80 84 81 77 82 78 83 82 84 85 85 79 86
REMARK SMILES IDX 80 87 83 88 81 89 60 90 61 91 69 92 62 93 63 94 67 95 70 96
REMARK SMILES IDX 64 97 65 98 68 99 66 100
REMARK H PARENT 24 6 31 34 90 53 58 64
REMARK Flexibility Score: inf
ROOT
ATOM      1  C   UNL     1       3.142  -3.416   1.059  1.00  0.00     0.021 C 
ENDROOT
BRANCH   1   2
ATOM      2  C   UNL     1       2.460  -2.055   0.992  1.00  0.00     0.116 C 
BRANCH   2   3
ATOM      3  N   UNL     1       3.124  -1.078   0.149  1.00  0.00    -0.355 N 
ATOM      4  O   UNL     1       1.276  -0.521  -1.101  1.00  0.00    -0.274 OA
ATOM      5  C   UNL     1       2.411  -0.256  -0.711  1.00  0.00     0.230 C 
ATOM      6  H   UNL     1       4.104  -0.997   0.188  1.00  0.00     0.163 HD
BRANCH   5   7
ATOM      7  C   UNL     1       3.101   1.049  -1.101  1.00  0.00     0.178 C 
BRANCH   7   8
ATOM      8  S   UNL     1       3.953   1.793   0.322  1.00  0.00    -0.078 SA
BRANCH   8   9
ATOM      9  C   UNL     1       2.852   3.045   0.877  1.00  0.00     0.171 A 
ATOM     10  N   UNL     1       3.255   4.253   0.641  1.00  0.00    -0.224 NA
ATOM     11  N   UNL     1       1.715   2.743   1.619  1.00  0.00    -0.287 N 
ATOM     12  C   UNL     1       2.575   5.318   1.241  1.00  0.00     0.079 A 
ATOM     13  C   UNL     1       0.867   3.770   2.032  1.00  0.00     0.262 A 
ATOM     14  C   UNL     1       3.133   6.598   1.206  1.00  0.00     0.031 A 
ATOM     15  C   UNL     1       1.398   5.132   1.956  1.00  0.00     0.067 A 
ATOM     16  O   UNL     1      -0.269   3.606   2.472  1.00  0.00    -0.269 OA
ATOM     17  C   UNL     1       2.535   7.655   1.902  1.00  0.00     0.023 A 
ATOM     18  C   UNL     1       0.781   6.178   2.651  1.00  0.00     0.036 A 
ATOM     19  C   UNL     1       1.366   7.437   2.630  1.00  0.00     0.042 A 
ATOM     20  Cl  UNL     1       0.663   8.721   3.532  1.00  0.00    -0.084 Cl
BRANCH  11  21
ATOM     21  C   UNL     1       1.270   1.403   1.994  1.00  0.00     0.131 C 
BRANCH  21  22
ATOM     22  C   UNL     1       1.677   0.929   3.407  1.00  0.00     0.009 C 
ATOM     23  C   UNL     1       3.180   1.057   3.692  1.00  0.00     0.005 C 
ATOM     24  C   UNL     1       0.863   1.593   4.524  1.00  0.00     0.005 C 
ATOM     25  C   UNL     1       3.545   0.494   5.062  1.00  0.00     0.000 C 
ATOM     26  C   UNL     1       1.213   0.990   5.883  1.00  0.00     0.000 C 
ATOM     27  C   UNL     1       2.706   1.112   6.174  1.00  0.00     0.000 C 
ENDBRANCH  21  22
ENDBRANCH  11  21
ENDBRANCH   8   9
ENDBRANCH   7   8
ENDBRANCH   5   7
ENDBRANCH   2   3
ENDBRANCH   1   2
BRANCH   1  28
ATOM     28  C   UNL     1       4.596  -3.417   1.541  1.00  0.00     0.002 C 
BRANCH  28  29
ATOM     29  C   UNL     1       4.876  -2.773   2.902  1.00  0.00     0.002 C 
BRANCH  29  30
ATOM     30  C   UNL     1       4.106  -3.333   4.098  1.00  0.00     0.021 C 
BRANCH  30  31
ATOM     31  C   UNL     1       4.216  -4.837   4.324  1.00  0.00     0.116 C 
BRANCH  31  32
ATOM     32  N   UNL     1       5.573  -5.299   4.571  1.00  0.00    -0.352 N 
ATOM     33  C   UNL     1       6.022  -6.265   5.446  1.00  0.00     0.251 C 
ATOM     34  H   UNL     1       6.271  -4.859   4.035  1.00  0.00     0.163 HD
ATOM     35  O   UNL     1       7.222  -6.469   5.575  1.00  0.00    -0.269 OA
BRANCH  33  36
ATOM     36  C   UNL     1       5.053  -7.025   6.273  1.00  0.00     0.039 A 
ATOM     37  C   UNL     1       3.869  -7.520   5.725  1.00  0.00     0.014 A 
ATOM     38  C   UNL     1       5.327  -7.220   7.631  1.00  0.00     0.014 A 
ATOM     39  C   UNL     1       2.886  -8.040   6.561  1.00  0.00     0.010 A 
ATOM     40  C   UNL     1       4.370  -7.822   8.457  1.00  0.00     0.010 A 
ATOM     41  C   UNL     1       3.118  -8.183   7.939  1.00  0.00    -0.014 A 
BRANCH  41  42
ATOM     42  C   UNL     1       2.023  -8.683   8.813  1.00  0.00     0.031 A 
ATOM     43  C   UNL     1       1.403  -7.791   9.857  1.00  0.00     0.074 A 
ATOM     44  C   UNL     1       1.529  -9.921   8.612  1.00  0.00     0.049 A 
ATOM     45  N   UNL     1       0.406  -8.040  10.670  1.00  0.00    -0.248 NA
ATOM     46  C   UNL     1       1.976  -6.444  10.012  1.00  0.00     0.031 C 
ATOM     47  C   UNL     1       2.035 -10.875   7.625  1.00  0.00     0.029 A 
ATOM     48  N   UNL     1       0.475 -10.575   9.199  1.00  0.00    -0.354 N 
ATOM     49  C   UNL     1       0.242  -6.893  11.436  1.00  0.00     0.074 A 
ATOM     50  C   UNL     1       1.262  -5.956  11.018  1.00  0.00     0.031 C 
ATOM     51  C   UNL     1       1.255 -11.966   7.630  1.00  0.00     0.029 A 
ATOM     52  C   UNL     1       0.232 -11.815   8.660  1.00  0.00     0.049 A 
ATOM     53  H   UNL     1      -0.055 -10.193   9.935  1.00  0.00     0.167 HD
ATOM     54  C   UNL     1      -0.686  -6.637  12.389  1.00  0.00     0.037 A 
ATOM     55  C   UNL     1      -0.706 -12.732   8.964  1.00  0.00     0.037 A 
ATOM     56  C   UNL     1      -1.720  -7.557  12.787  1.00  0.00     0.049 A 
ATOM     57  C   UNL     1      -1.695 -12.440  10.057  1.00  0.00     0.074 A 
ATOM     58  C   UNL     1      -2.720  -7.375  13.726  1.00  0.00     0.029 A 
ATOM     59  N   UNL     1      -1.888  -8.831  12.265  1.00  0.00    -0.354 N 
ATOM     60  N   UNL     1      -1.843 -11.347  10.765  1.00  0.00    -0.248 NA
ATOM     61  C   UNL     1      -2.640 -13.511  10.400  1.00  0.00     0.031 C 
ATOM     62  C   UNL     1      -3.468  -8.553  13.803  1.00  0.00     0.029 A 
ATOM     63  C   UNL     1      -2.962  -9.454  12.880  1.00  0.00     0.049 A 
ATOM     64  H   UNL     1      -1.327  -9.232  11.562  1.00  0.00     0.167 HD
ATOM     65  C   UNL     1      -2.897 -11.595  11.633  1.00  0.00     0.074 A 
ATOM     66  C   UNL     1      -3.370 -12.934  11.345  1.00  0.00     0.031 C 
ATOM     67  C   UNL     1      -3.419 -10.788  12.587  1.00  0.00     0.037 A 
BRANCH  54  68
ATOM     68  C   UNL     1      -0.638  -5.303  13.076  1.00  0.00     0.064 A 
ATOM     69  C   UNL     1      -1.044  -4.128  12.427  1.00  0.00     0.173 A 
ATOM     70  C   UNL     1      -0.257  -5.210  14.424  1.00  0.00     0.173 A 
ATOM     71  F   UNL     1      -1.407  -4.162  11.136  1.00  0.00    -0.203 F 
ATOM     72  C   UNL     1      -1.056  -2.907  13.097  1.00  0.00     0.198 A 
ATOM     73  C   UNL     1      -0.295  -3.992  15.098  1.00  0.00     0.198 A 
ATOM     74  F   UNL     1       0.132  -6.306  15.093  1.00  0.00    -0.203 F 
ATOM     75  F   UNL     1      -1.419  -1.792  12.447  1.00  0.00    -0.200 F 
ATOM     76  C   UNL     1      -0.691  -2.842  14.433  1.00  0.00     0.200 A 
ATOM     77  F   UNL     1       0.045  -3.933  16.393  1.00  0.00    -0.200 F 
ATOM     78  F   UNL     1      -0.720  -1.669  15.080  1.00  0.00    -0.200 F 
ENDBRANCH  54  68
BRANCH  55  79
ATOM     79  C   UNL     1      -0.752 -14.011   8.210  1.00  0.00     0.064 A 
ATOM     80  C   UNL     1      -1.802 -14.287   7.325  1.00  0.00     0.173 A 
ATOM     81  C   UNL     1       0.265 -14.969   8.337  1.00  0.00     0.173 A 
ATOM     82  F   UNL     1      -2.809 -13.412   7.186  1.00  0.00    -0.203 F 
ATOM     83  C   UNL     1      -1.834 -15.474   6.596  1.00  0.00     0.198 A 
ATOM     84  C   UNL     1       0.246 -16.142   7.587  1.00  0.00     0.198 A 
ATOM     85  F   UNL     1       1.292 -14.751   9.171  1.00  0.00    -0.203 F 
ATOM     86  F   UNL     1      -2.864 -15.727   5.776  1.00  0.00    -0.200 F 
ATOM     87  C   UNL     1      -0.805 -16.396   6.720  1.00  0.00     0.200 A 
ATOM     88  F   UNL     1       1.250 -17.022   7.699  1.00  0.00    -0.200 F 
ATOM     89  F   UNL     1      -0.829 -17.530   6.006  1.00  0.00    -0.200 F 
ENDBRANCH  55  79
BRANCH  67  90
ATOM     90  C   UNL     1      -4.563 -11.322  13.396  1.00  0.00     0.064 A 
ATOM     91  C   UNL     1      -4.362 -12.287  14.392  1.00  0.00     0.173 A 
ATOM     92  C   UNL     1      -5.859 -10.811  13.224  1.00  0.00     0.173 A 
ATOM     93  F   UNL     1      -3.143 -12.815  14.584  1.00  0.00    -0.203 F 
ATOM     94  C   UNL     1      -5.419 -12.730  15.182  1.00  0.00     0.198 A 
ATOM     95  C   UNL     1      -6.908 -11.238  14.033  1.00  0.00     0.198 A 
ATOM     96  F   UNL     1      -6.101  -9.881  12.289  1.00  0.00    -0.203 F 
ATOM     97  F   UNL     1      -5.210 -13.676  16.109  1.00  0.00    -0.200 F 
ATOM     98  C   UNL     1      -6.688 -12.199  15.008  1.00  0.00     0.200 A 
ATOM     99  F   UNL     1      -8.131 -10.714  13.873  1.00  0.00    -0.200 F 
ATOM    100  F   UNL     1      -7.701 -12.615  15.781  1.00  0.00    -0.200 F 
ENDBRANCH  67  90
ENDBRANCH  41  42
ENDBRANCH  33  36
ENDBRANCH  31  32
ENDBRANCH  30  31
ENDBRANCH  29  30
ENDBRANCH  28  29
ENDBRANCH   1  28
TORSDOF 17
