REMARK SMILES CCC(CC)COc1cc2c(cc1Cl)C=C(C(=O)NCCCCCCNC(=O)c1ccc(-c3c4nc(c(-c5c(F)c(F)c(F)c(F)c5F)c5ccc([nH]5)c(-c5c(F)c(F)c(F)c(F)c5F)c5nc(c(-c6c(F)c(F)c(F)c(F)c6F)c6ccc3[nH]6)C=C5)C=C4)cc1)[C@@H](C(F)(F)F)O2
REMARK SMILES IDX 21 1 20 2 19 3 17 4 18 5 16 7 8 8 9 9 13 10 10 11 12 12
REMARK SMILES IDX 14 13 11 14 97 15 15 16 92 17 7 18 6 19 3 20 2 21 1 22 4 23
REMARK SMILES IDX 5 24 93 25 94 26 95 27 96 28 22 29 23 30 24 31 25 32 26 33
REMARK SMILES IDX 27 34 28 36 29 37 30 38 91 39 31 40 90 41 32 42 33 43 34 44
REMARK SMILES IDX 84 45 35 46 89 47 83 48 85 49 36 50 88 51 82 52 81 53 37 55
REMARK SMILES IDX 69 56 49 57 68 58 50 59 53 60 67 61 86 62 51 63 52 64 66 66
REMARK SMILES IDX 87 67 54 68 38 69 39 70 47 71 40 72 41 73 45 74 48 75 42 76
REMARK SMILES IDX 43 77 46 78 44 79 70 80 71 81 79 82 72 83 73 84 77 85 80 86
REMARK SMILES IDX 74 87 75 88 78 89 76 90 55 91 56 92 64 93 57 94 58 95 62 96
REMARK SMILES IDX 65 97 59 98 60 99 63 100 61 101
REMARK H PARENT 19 6 26 35 85 54 53 65
REMARK Flexibility Score: inf
ROOT
ATOM      1  C   UNL     1      -2.862  -6.744  -7.856  1.00  0.00     0.021 C 
ENDROOT
BRANCH   1   2
ATOM      2  C   UNL     1      -1.438  -6.330  -7.497  1.00  0.00     0.116 C 
BRANCH   2   3
ATOM      3  N   UNL     1      -1.299  -4.887  -7.477  1.00  0.00    -0.352 N 
ATOM      4  C   UNL     1      -0.823  -3.957  -6.620  1.00  0.00     0.251 C 
ATOM      5  O   UNL     1      -0.844  -2.795  -7.040  1.00  0.00    -0.270 OA
ATOM      6  H   UNL     1      -1.641  -4.477  -8.305  1.00  0.00     0.163 HD
BRANCH   4   7
ATOM      7  C   UNL     1      -0.305  -4.233  -5.253  1.00  0.00     0.067 C 
ATOM      8  C   UNL     1       1.439  -3.671  -0.590  1.00  0.00     0.141 A 
ATOM      9  C   UNL     1       0.508  -4.540  -1.159  1.00  0.00     0.095 A 
ATOM     10  C   UNL     1       2.161  -2.783  -1.401  1.00  0.00     0.083 A 
ATOM     11  C   UNL     1       0.230  -4.429  -2.517  1.00  0.00     0.131 A 
ATOM     12  C   UNL     1       1.799  -2.608  -2.736  1.00  0.00     0.036 A 
ATOM     13  Cl  UNL     1       3.471  -1.844  -0.786  1.00  0.00    -0.080 Cl
ATOM     14  C   UNL     1       0.806  -3.413  -3.288  1.00  0.00     0.019 A 
ATOM     15  O   UNL     1      -0.634  -5.340  -3.068  1.00  0.00    -0.475 OA
ATOM     16  C   UNL     1       0.326  -3.209  -4.649  1.00  0.00     0.025 C 
ATOM     17  C   UNL     1      -0.447  -5.530  -4.506  1.00  0.00     0.314 C 
BRANCH   8  18
ATOM     18  O   UNL     1       1.650  -3.704   0.763  1.00  0.00    -0.492 OA
BRANCH  18  19
ATOM     19  C   UNL     1       0.578  -3.075   1.506  1.00  0.00     0.233 C 
BRANCH  19  20
ATOM     20  C   UNL     1       0.775  -1.542   1.606  1.00  0.00     0.026 C 
BRANCH  20  21
ATOM     21  C   UNL     1       0.050  -0.800   0.458  1.00  0.00     0.003 C 
ATOM     22  C   UNL     1       0.588   0.606   0.232  1.00  0.00     0.004 C 
ENDBRANCH  20  21
BRANCH  20  23
ATOM     23  C   UNL     1       0.374  -0.998   2.994  1.00  0.00     0.003 C 
ATOM     24  C   UNL     1      -1.114  -1.034   3.312  1.00  0.00     0.004 C 
ENDBRANCH  20  23
ENDBRANCH  19  20
ENDBRANCH  18  19
ENDBRANCH   8  18
BRANCH  17  25
ATOM     25  C   UNL     1       0.736  -6.486  -4.790  1.00  0.00     0.429 C 
ATOM     26  F   UNL     1       0.434  -7.750  -4.404  1.00  0.00    -0.167 F 
ATOM     27  F   UNL     1       1.032  -6.550  -6.112  1.00  0.00    -0.167 F 
ATOM     28  F   UNL     1       1.876  -6.130  -4.158  1.00  0.00    -0.167 F 
ENDBRANCH  17  25
ENDBRANCH   4   7
ENDBRANCH   2   3
ENDBRANCH   1   2
BRANCH   1  29
ATOM     29  C   UNL     1      -3.167  -6.713  -9.356  1.00  0.00     0.002 C 
BRANCH  29  30
ATOM     30  C   UNL     1      -2.260  -7.584 -10.235  1.00  0.00     0.002 C 
BRANCH  30  31
ATOM     31  C   UNL     1      -2.055  -9.022  -9.755  1.00  0.00     0.021 C 
BRANCH  31  32
ATOM     32  C   UNL     1      -3.335  -9.828  -9.573  1.00  0.00     0.116 C 
BRANCH  32  33
ATOM     33  N   UNL     1      -4.043 -10.053 -10.821  1.00  0.00    -0.352 N 
ATOM     34  C   UNL     1      -4.569 -11.224 -11.320  1.00  0.00     0.251 C 
ATOM     35  H   UNL     1      -4.165  -9.258 -11.389  1.00  0.00     0.163 HD
ATOM     36  O   UNL     1      -5.018 -11.271 -12.455  1.00  0.00    -0.269 OA
BRANCH  34  37
ATOM     37  C   UNL     1      -4.552 -12.441 -10.478  1.00  0.00     0.039 A 
ATOM     38  C   UNL     1      -4.946 -12.384  -9.141  1.00  0.00     0.014 A 
ATOM     39  C   UNL     1      -4.103 -13.645 -11.028  1.00  0.00     0.014 A 
ATOM     40  C   UNL     1      -4.731 -13.480  -8.315  1.00  0.00     0.010 A 
ATOM     41  C   UNL     1      -3.971 -14.774 -10.214  1.00  0.00     0.010 A 
ATOM     42  C   UNL     1      -4.235 -14.687  -8.839  1.00  0.00    -0.014 A 
BRANCH  42  43
ATOM     43  C   UNL     1      -4.001 -15.827  -7.914  1.00  0.00     0.031 A 
ATOM     44  C   UNL     1      -2.610 -16.333  -7.646  1.00  0.00     0.074 A 
ATOM     45  C   UNL     1      -5.048 -16.346  -7.245  1.00  0.00     0.049 A 
ATOM     46  N   UNL     1      -2.216 -17.240  -6.786  1.00  0.00    -0.248 NA
ATOM     47  C   UNL     1      -1.517 -15.753  -8.441  1.00  0.00     0.031 C 
ATOM     48  C   UNL     1      -6.442 -15.939  -7.426  1.00  0.00     0.029 A 
ATOM     49  N   UNL     1      -5.104 -17.289  -6.250  1.00  0.00    -0.354 N 
ATOM     50  C   UNL     1      -0.840 -17.346  -6.946  1.00  0.00     0.074 A 
ATOM     51  C   UNL     1      -0.467 -16.437  -8.007  1.00  0.00     0.031 C 
ATOM     52  C   UNL     1      -7.205 -16.568  -6.520  1.00  0.00     0.029 A 
ATOM     53  C   UNL     1      -6.364 -17.465  -5.732  1.00  0.00     0.049 A 
ATOM     54  H   UNL     1      -4.317 -17.791  -5.937  1.00  0.00     0.167 HD
ATOM     55  C   UNL     1       0.033 -18.117  -6.255  1.00  0.00     0.037 A 
ATOM     56  C   UNL     1      -6.797 -18.254  -4.731  1.00  0.00     0.037 A 
ATOM     57  C   UNL     1      -0.337 -18.999  -5.180  1.00  0.00     0.049 A 
ATOM     58  C   UNL     1      -5.811 -19.120  -4.002  1.00  0.00     0.074 A 
ATOM     59  C   UNL     1       0.483 -19.793  -4.397  1.00  0.00     0.029 A 
ATOM     60  N   UNL     1      -1.635 -19.200  -4.734  1.00  0.00    -0.354 N 
ATOM     61  N   UNL     1      -4.510 -19.186  -4.144  1.00  0.00    -0.248 NA
ATOM     62  C   UNL     1      -6.352 -20.030  -2.982  1.00  0.00     0.031 C 
ATOM     63  C   UNL     1      -0.322 -20.507  -3.505  1.00  0.00     0.029 A 
ATOM     64  C   UNL     1      -1.640 -20.126  -3.703  1.00  0.00     0.049 A 
ATOM     65  H   UNL     1      -2.433 -18.752  -5.095  1.00  0.00     0.167 HD
ATOM     66  C   UNL     1      -4.075 -20.136  -3.231  1.00  0.00     0.074 A 
ATOM     67  C   UNL     1      -5.248 -20.606  -2.524  1.00  0.00     0.031 C 
ATOM     68  C   UNL     1      -2.816 -20.581  -3.007  1.00  0.00     0.037 A 
BRANCH  55  69
ATOM     69  C   UNL     1       1.484 -18.047  -6.630  1.00  0.00     0.064 A 
ATOM     70  C   UNL     1       2.274 -16.939  -6.295  1.00  0.00     0.173 A 
ATOM     71  C   UNL     1       2.110 -19.135  -7.257  1.00  0.00     0.173 A 
ATOM     72  F   UNL     1       1.721 -15.870  -5.702  1.00  0.00    -0.203 F 
ATOM     73  C   UNL     1       3.636 -16.917  -6.583  1.00  0.00     0.198 A 
ATOM     74  C   UNL     1       3.477 -19.120  -7.523  1.00  0.00     0.198 A 
ATOM     75  F   UNL     1       1.400 -20.224  -7.591  1.00  0.00    -0.203 F 
ATOM     76  F   UNL     1       4.367 -15.836  -6.277  1.00  0.00    -0.200 F 
ATOM     77  C   UNL     1       4.238 -18.010  -7.188  1.00  0.00     0.200 A 
ATOM     78  F   UNL     1       4.060 -20.183  -8.095  1.00  0.00    -0.200 F 
ATOM     79  F   UNL     1       5.553 -17.994  -7.449  1.00  0.00    -0.200 F 
ENDBRANCH  55  69
BRANCH  56  80
ATOM     80  C   UNL     1      -8.233 -18.234  -4.353  1.00  0.00     0.064 A 
ATOM     81  C   UNL     1      -8.648 -17.667  -3.141  1.00  0.00     0.173 A 
ATOM     82  C   UNL     1      -9.221 -18.737  -5.212  1.00  0.00     0.173 A 
ATOM     83  F   UNL     1      -7.739 -17.188  -2.279  1.00  0.00    -0.203 F 
ATOM     84  C   UNL     1      -9.999 -17.605  -2.802  1.00  0.00     0.198 A 
ATOM     85  C   UNL     1     -10.572 -18.651  -4.885  1.00  0.00     0.198 A 
ATOM     86  F   UNL     1      -8.874 -19.285  -6.386  1.00  0.00    -0.203 F 
ATOM     87  F   UNL     1     -10.369 -17.078  -1.627  1.00  0.00    -0.200 F 
ATOM     88  C   UNL     1     -10.959 -18.087  -3.679  1.00  0.00     0.200 A 
ATOM     89  F   UNL     1     -11.497 -19.102  -5.742  1.00  0.00    -0.200 F 
ATOM     90  F   UNL     1     -12.259 -18.010  -3.361  1.00  0.00    -0.200 F 
ENDBRANCH  56  80
BRANCH  68  91
ATOM     91  C   UNL     1      -2.626 -21.632  -1.956  1.00  0.00     0.064 A 
ATOM     92  C   UNL     1      -2.966 -22.970  -2.197  1.00  0.00     0.173 A 
ATOM     93  C   UNL     1      -2.007 -21.316  -0.737  1.00  0.00     0.173 A 
ATOM     94  F   UNL     1      -3.571 -23.316  -3.344  1.00  0.00    -0.203 F 
ATOM     95  C   UNL     1      -2.694 -23.956  -1.254  1.00  0.00     0.198 A 
ATOM     96  C   UNL     1      -1.716 -22.308   0.194  1.00  0.00     0.198 A 
ATOM     97  F   UNL     1      -1.657 -20.050  -0.465  1.00  0.00    -0.203 F 
ATOM     98  F   UNL     1      -3.043 -25.227  -1.496  1.00  0.00    -0.200 F 
ATOM     99  C   UNL     1      -2.059 -23.627  -0.065  1.00  0.00     0.200 A 
ATOM    100  F   UNL     1      -1.091 -21.991   1.337  1.00  0.00    -0.200 F 
ATOM    101  F   UNL     1      -1.778 -24.582   0.832  1.00  0.00    -0.200 F 
ENDBRANCH  68  91
ENDBRANCH  42  43
ENDBRANCH  34  37
ENDBRANCH  32  33
ENDBRANCH  31  32
ENDBRANCH  30  31
ENDBRANCH  29  30
ENDBRANCH   1  29
TORSDOF 19
