REMARK SMILES O=C(NCCCCCCNC(=O)[C@@H]1C[N@@H+](CC(=O)c2ccc[nH]2)CC[NH2+]1)c1ccc(-c2c3nc(c(-c4c(F)c(F)c(F)c(F)c4F)c4ccc([nH]4)c(-c4c(F)c(F)c(F)c(F)c4F)c4nc(c(-c5c(F)c(F)c(F)c(F)c5F)c5ccc2[nH]5)C=C4)C=C3)cc1
REMARK SMILES IDX 7 1 6 2 5 3 4 4 3 5 1 6 2 7 27 9 28 10 89 11 29 12 88 13
REMARK SMILES IDX 30 14 31 15 32 16 82 17 33 18 87 19 81 20 83 21 34 22 86 23
REMARK SMILES IDX 80 24 79 25 35 27 67 28 47 29 66 30 48 31 51 32 65 33 84 34
REMARK SMILES IDX 49 35 50 36 64 38 85 39 52 40 36 41 37 42 45 43 38 44 39 45
REMARK SMILES IDX 43 46 46 47 40 48 41 49 44 50 42 51 68 52 69 53 77 54 70 55
REMARK SMILES IDX 71 56 75 57 78 58 72 59 73 60 76 61 74 62 53 63 54 64 62 65
REMARK SMILES IDX 55 66 56 67 60 68 63 69 57 70 58 71 61 72 59 73 8 74 9 75
REMARK SMILES IDX 10 76 11 77 12 79 13 80 14 81 26 82 15 83 25 84 24 87 16 89
REMARK SMILES IDX 17 90 18 91 19 92 20 93 23 94 21 95 22 96
REMARK H PARENT 3 8 83 26 51 37 10 78 26 85 26 86 15 88 23 97
REMARK Flexibility Score: inf
ROOT
ATOM      1  C   UNL     1       4.414  -3.997  -1.458  1.00  0.00     0.002 C 
ENDROOT
BRANCH   1   2
ATOM      2  C   UNL     1       3.989  -3.580  -0.045  1.00  0.00     0.002 C 
BRANCH   2   3
ATOM      3  C   UNL     1       4.643  -2.299   0.475  1.00  0.00     0.021 C 
BRANCH   3   4
ATOM      4  C   UNL     1       4.500  -1.097  -0.460  1.00  0.00     0.116 C 
BRANCH   4   5
ATOM      5  N   UNL     1       3.148  -0.591  -0.600  1.00  0.00    -0.352 N 
ATOM      6  O   UNL     1       1.211   0.430  -0.119  1.00  0.00    -0.269 OA
ATOM      7  C   UNL     1       2.308   0.030   0.284  1.00  0.00     0.251 C 
ATOM      8  H   UNL     1       2.764  -0.717  -1.498  1.00  0.00     0.163 HD
BRANCH   7   9
ATOM      9  C   UNL     1       2.636   0.161   1.721  1.00  0.00     0.039 A 
ATOM     10  C   UNL     1       3.927   0.423   2.186  1.00  0.00     0.014 A 
ATOM     11  C   UNL     1       1.580   0.039   2.640  1.00  0.00     0.014 A 
ATOM     12  C   UNL     1       4.186   0.461   3.547  1.00  0.00     0.010 A 
ATOM     13  C   UNL     1       1.821   0.133   4.010  1.00  0.00     0.010 A 
ATOM     14  C   UNL     1       3.128   0.356   4.458  1.00  0.00    -0.014 A 
BRANCH  14  15
ATOM     15  C   UNL     1       3.395   0.887   5.814  1.00  0.00     0.031 A 
ATOM     16  C   UNL     1       3.419   2.448   5.758  1.00  0.00     0.074 A 
ATOM     17  C   UNL     1       3.639  -0.022   6.812  1.00  0.00     0.049 A 
ATOM     18  N   UNL     1       4.042   3.311   6.503  1.00  0.00    -0.248 NA
ATOM     19  C   UNL     1       2.693   3.152   4.654  1.00  0.00     0.031 C 
ATOM     20  C   UNL     1       3.515  -1.492   6.673  1.00  0.00     0.029 A 
ATOM     21  N   UNL     1       4.045   0.080   8.132  1.00  0.00    -0.354 N 
ATOM     22  C   UNL     1       3.604   4.606   6.120  1.00  0.00     0.074 A 
ATOM     23  C   UNL     1       2.895   4.448   4.894  1.00  0.00     0.031 C 
ATOM     24  C   UNL     1       3.915  -2.129   7.800  1.00  0.00     0.029 A 
ATOM     25  C   UNL     1       4.321  -1.155   8.796  1.00  0.00     0.049 A 
ATOM     26  H   UNL     1       4.137   0.950   8.585  1.00  0.00     0.167 HD
ATOM     27  C   UNL     1       3.700   5.693   6.945  1.00  0.00     0.037 A 
ATOM     28  C   UNL     1       4.876  -1.365  10.038  1.00  0.00     0.037 A 
ATOM     29  C   UNL     1       4.411   5.322   8.117  1.00  0.00     0.049 A 
ATOM     30  C   UNL     1       4.921  -0.028  10.638  1.00  0.00     0.074 A 
ATOM     31  C   UNL     1       5.728   5.039   8.350  1.00  0.00     0.029 A 
ATOM     32  N   UNL     1       3.648   4.857   9.157  1.00  0.00    -0.354 N 
ATOM     33  N   UNL     1       3.881   0.608  11.084  1.00  0.00    -0.248 NA
ATOM     34  C   UNL     1       6.202   0.687  10.667  1.00  0.00     0.031 C 
ATOM     35  C   UNL     1       5.659   3.979   9.274  1.00  0.00     0.029 A 
ATOM     36  C   UNL     1       4.350   3.847   9.752  1.00  0.00     0.049 A 
ATOM     37  H   UNL     1       2.760   5.188   9.424  1.00  0.00     0.167 HD
ATOM     38  C   UNL     1       4.338   1.900  11.111  1.00  0.00     0.074 A 
ATOM     39  C   UNL     1       5.781   1.835  11.189  1.00  0.00     0.031 C 
ATOM     40  C   UNL     1       3.608   2.869  10.505  1.00  0.00     0.037 A 
BRANCH  27  41
ATOM     41  C   UNL     1       2.955   7.007   7.010  1.00  0.00     0.064 A 
ATOM     42  C   UNL     1       3.390   7.948   7.984  1.00  0.00     0.173 A 
ATOM     43  C   UNL     1       1.647   7.173   6.542  1.00  0.00     0.173 A 
ATOM     44  F   UNL     1       4.656   7.939   8.433  1.00  0.00    -0.203 F 
ATOM     45  C   UNL     1       2.506   8.820   8.613  1.00  0.00     0.198 A 
ATOM     46  C   UNL     1       0.780   8.100   7.131  1.00  0.00     0.198 A 
ATOM     47  F   UNL     1       1.141   6.384   5.588  1.00  0.00    -0.203 F 
ATOM     48  F   UNL     1       2.911   9.533   9.673  1.00  0.00    -0.200 F 
ATOM     49  C   UNL     1       1.190   8.873   8.205  1.00  0.00     0.200 A 
ATOM     50  F   UNL     1      -0.491   8.172   6.712  1.00  0.00    -0.200 F 
ATOM     51  F   UNL     1       0.309   9.636   8.866  1.00  0.00    -0.200 F 
ENDBRANCH  27  41
BRANCH  28  52
ATOM     52  C   UNL     1       5.474  -2.473  10.895  1.00  0.00     0.064 A 
ATOM     53  C   UNL     1       5.441  -3.845  10.627  1.00  0.00     0.173 A 
ATOM     54  C   UNL     1       6.240  -2.138  12.058  1.00  0.00     0.173 A 
ATOM     55  F   UNL     1       4.656  -4.335   9.662  1.00  0.00    -0.203 F 
ATOM     56  C   UNL     1       6.216  -4.770  11.366  1.00  0.00     0.198 A 
ATOM     57  C   UNL     1       7.058  -3.037  12.743  1.00  0.00     0.198 A 
ATOM     58  F   UNL     1       6.227  -0.907  12.586  1.00  0.00    -0.203 F 
ATOM     59  F   UNL     1       6.154  -6.076  11.071  1.00  0.00    -0.200 F 
ATOM     60  C   UNL     1       7.063  -4.358  12.383  1.00  0.00     0.200 A 
ATOM     61  F   UNL     1       7.848  -2.595  13.733  1.00  0.00    -0.200 F 
ATOM     62  F   UNL     1       7.862  -5.225  13.019  1.00  0.00    -0.200 F 
ENDBRANCH  28  52
BRANCH  40  63
ATOM     63  C   UNL     1       2.125   2.559  10.387  1.00  0.00     0.064 A 
ATOM     64  C   UNL     1       1.361   2.380  11.549  1.00  0.00     0.173 A 
ATOM     65  C   UNL     1       1.456   2.324   9.174  1.00  0.00     0.173 A 
ATOM     66  F   UNL     1       1.911   2.613  12.750  1.00  0.00    -0.203 F 
ATOM     67  C   UNL     1       0.025   1.968  11.498  1.00  0.00     0.198 A 
ATOM     68  C   UNL     1       0.122   1.909   9.117  1.00  0.00     0.198 A 
ATOM     69  F   UNL     1       2.077   2.504   8.011  1.00  0.00    -0.203 F 
ATOM     70  F   UNL     1      -0.668   1.815  12.635  1.00  0.00    -0.200 F 
ATOM     71  C   UNL     1      -0.593   1.727  10.283  1.00  0.00     0.200 A 
ATOM     72  F   UNL     1      -0.468   1.701   7.929  1.00  0.00    -0.200 F 
ATOM     73  F   UNL     1      -1.877   1.342  10.236  1.00  0.00    -0.200 F 
ENDBRANCH  40  63
ENDBRANCH  14  15
ENDBRANCH   7   9
ENDBRANCH   4   5
ENDBRANCH   3   4
ENDBRANCH   2   3
ENDBRANCH   1   2
BRANCH   1  74
ATOM     74  C   UNL     1       5.930  -4.091  -1.661  1.00  0.00     0.021 C 
BRANCH  74  75
ATOM     75  C   UNL     1       6.540  -5.281  -0.924  1.00  0.00     0.116 C 
BRANCH  75  76
ATOM     76  N   UNL     1       6.476  -6.466  -1.755  1.00  0.00    -0.351 N 
ATOM     77  C   UNL     1       7.437  -7.279  -2.281  1.00  0.00     0.284 C 
ATOM     78  H   UNL     1       5.559  -6.738  -1.985  1.00  0.00     0.163 HD
ATOM     79  O   UNL     1       7.050  -8.085  -3.135  1.00  0.00    -0.268 OA
BRANCH  77  80
ATOM     80  C   UNL     1       8.896  -7.264  -1.761  1.00  0.00     0.328 C 
ATOM     81  C   UNL     1       9.656  -5.943  -1.972  1.00  0.00     0.339 C 
ATOM     82  N   UNL     1       9.669  -8.384  -2.372  1.00  0.00    -0.327 N 
ATOM     83  N   UNL     1      10.987  -5.919  -1.341  1.00  0.00    -0.318 N 
ATOM     84  C   UNL     1      11.059  -8.411  -1.888  1.00  0.00     0.323 C 
ATOM     85  H   UNL     1       9.674  -8.270  -3.386  1.00  0.00     0.347 HD
ATOM     86  H   UNL     1       9.222  -9.262  -2.108  1.00  0.00     0.347 HD
ATOM     87  C   UNL     1      11.790  -7.044  -1.840  1.00  0.00     0.324 C 
ATOM     88  H   UNL     1      11.451  -5.061  -1.640  1.00  0.00     0.348 HD
BRANCH  83  89
ATOM     89  C   UNL     1      11.008  -5.699   0.128  1.00  0.00     0.346 C 
BRANCH  89  90
ATOM     90  C   UNL     1      10.932  -6.927   1.056  1.00  0.00     0.232 C 
ATOM     91  O   UNL     1      11.937  -7.611   1.263  1.00  0.00    -0.286 OA
BRANCH  90  92
ATOM     92  C   UNL     1       9.661  -7.283   1.678  1.00  0.00     0.088 A 
ATOM     93  C   UNL     1       8.418  -6.675   1.665  1.00  0.00     0.031 A 
ATOM     94  N   UNL     1       9.506  -8.438   2.421  1.00  0.00    -0.359 N 
ATOM     95  C   UNL     1       7.470  -7.595   2.173  1.00  0.00     0.020 A 
ATOM     96  C   UNL     1       8.177  -8.666   2.662  1.00  0.00     0.083 A 
ATOM     97  H   UNL     1      10.243  -9.012   2.732  1.00  0.00     0.166 HD
ENDBRANCH  90  92
ENDBRANCH  89  90
ENDBRANCH  83  89
ENDBRANCH  77  80
ENDBRANCH  75  76
ENDBRANCH  74  75
ENDBRANCH   1  74
TORSDOF 16
