REMARK SMILES CC(=O)Nc1cccc(-c2cc(F)ccc2C(=O)NCCCCCCNC(=O)c2ccc(-c3c4nc(c(-c5c(F)c(F)c(F)c(F)c5F)c5ccc([nH]5)c(-c5c(F)c(F)c(F)c(F)c5F)c5nc(c(-c6c(F)c(F)c(F)c(F)c6F)c6ccc3[nH]6)C=C5)C=C4)cc2)c1
REMARK SMILES IDX 22 1 21 2 20 3 19 4 17 5 18 6 16 8 10 9 11 10 12 11 15 12
REMARK SMILES IDX 13 13 14 14 9 15 5 16 6 17 92 18 7 19 8 20 4 21 1 22 2 23
REMARK SMILES IDX 3 24 23 26 24 27 25 28 26 29 27 30 28 32 29 33 30 34 91 35
REMARK SMILES IDX 31 36 90 37 32 38 33 39 34 40 84 41 35 42 89 43 83 44 85 45
REMARK SMILES IDX 36 46 88 47 82 48 81 49 37 51 69 52 49 53 68 54 50 55 53 56
REMARK SMILES IDX 67 57 86 58 51 59 52 60 66 62 87 63 54 64 38 65 39 66 47 67
REMARK SMILES IDX 40 68 41 69 45 70 48 71 42 72 43 73 46 74 44 75 70 76 71 77
REMARK SMILES IDX 79 78 72 79 73 80 77 81 80 82 74 83 75 84 78 85 76 86 55 87
REMARK SMILES IDX 56 88 64 89 57 90 58 91 62 92 65 93 59 94 60 95 63 96 61 97
REMARK H PARENT 19 7 4 25 26 31 85 50 53 61
REMARK Flexibility Score: inf
ROOT
ATOM      1  C   UNL     1       2.529   5.843   0.416  1.00  0.00     0.002 C 
ENDROOT
BRANCH   1   2
ATOM      2  C   UNL     1       3.373   5.271   1.562  1.00  0.00     0.021 C 
BRANCH   2   3
ATOM      3  C   UNL     1       3.693   3.780   1.560  1.00  0.00     0.116 C 
BRANCH   3   4
ATOM      4  N   UNL     1       4.544   3.305   0.500  1.00  0.00    -0.352 N 
ATOM      5  C   UNL     1       5.356   2.200   0.407  1.00  0.00     0.251 C 
ATOM      6  O   UNL     1       5.846   1.988  -0.708  1.00  0.00    -0.269 OA
ATOM      7  H   UNL     1       4.544   3.874  -0.303  1.00  0.00     0.163 HD
BRANCH   5   8
ATOM      8  C   UNL     1       5.770   1.277   1.524  1.00  0.00     0.047 A 
ATOM      9  C   UNL     1       4.991   0.712   2.565  1.00  0.00    -0.003 A 
ATOM     10  C   UNL     1       5.608  -0.229   3.433  1.00  0.00     0.048 A 
ATOM     11  C   UNL     1       6.934  -0.608   3.283  1.00  0.00     0.123 A 
ATOM     12  C   UNL     1       7.125   0.860   1.406  1.00  0.00     0.017 A 
ATOM     13  F   UNL     1       7.463  -1.512   4.118  1.00  0.00    -0.207 F 
ATOM     14  C   UNL     1       7.703  -0.070   2.273  1.00  0.00     0.040 A 
BRANCH   9  15
ATOM     15  C   UNL     1       3.572   0.981   2.840  1.00  0.00    -0.015 A 
ATOM     16  C   UNL     1       1.235   1.040   2.152  1.00  0.00     0.041 A 
ATOM     17  C   UNL     1       0.904   1.636   3.378  1.00  0.00     0.026 A 
ATOM     18  C   UNL     1       2.567   0.694   1.901  1.00  0.00     0.034 A 
ATOM     19  C   UNL     1       1.877   1.876   4.344  1.00  0.00     0.003 A 
ATOM     20  C   UNL     1       3.201   1.547   4.077  1.00  0.00     0.009 A 
BRANCH  16  21
ATOM     21  N   UNL     1       0.204   0.965   1.202  1.00  0.00    -0.326 N 
ATOM     22  C   UNL     1       1.021  -0.784  -0.377  1.00  0.00     0.114 C 
ATOM     23  C   UNL     1       0.089   0.329   0.003  1.00  0.00     0.221 C 
ATOM     24  O   UNL     1      -0.838   0.658  -0.742  1.00  0.00    -0.275 OA
ATOM     25  H   UNL     1      -0.599   1.476   1.453  1.00  0.00     0.169 HD
ENDBRANCH  16  21
ENDBRANCH   9  15
ENDBRANCH   5   8
ENDBRANCH   3   4
ENDBRANCH   2   3
ENDBRANCH   1   2
BRANCH   1  26
ATOM     26  C   UNL     1       1.217   5.153   0.020  1.00  0.00     0.002 C 
BRANCH  26  27
ATOM     27  C   UNL     1       0.253   4.711   1.123  1.00  0.00     0.021 C 
BRANCH  27  28
ATOM     28  C   UNL     1      -0.204   5.753   2.137  1.00  0.00     0.116 C 
BRANCH  28  29
ATOM     29  N   UNL     1      -1.070   6.768   1.573  1.00  0.00    -0.352 N 
ATOM     30  C   UNL     1      -2.332   7.185   1.922  1.00  0.00     0.251 C 
ATOM     31  H   UNL     1      -0.686   7.243   0.800  1.00  0.00     0.163 HD
ATOM     32  O   UNL     1      -2.892   8.017   1.211  1.00  0.00    -0.269 OA
BRANCH  30  33
ATOM     33  C   UNL     1      -3.055   6.666   3.116  1.00  0.00     0.039 A 
ATOM     34  C   UNL     1      -4.449   6.538   3.029  1.00  0.00     0.014 A 
ATOM     35  C   UNL     1      -2.429   6.399   4.336  1.00  0.00     0.014 A 
ATOM     36  C   UNL     1      -5.201   6.128   4.137  1.00  0.00     0.010 A 
ATOM     37  C   UNL     1      -3.172   5.928   5.427  1.00  0.00     0.010 A 
ATOM     38  C   UNL     1      -4.568   5.809   5.347  1.00  0.00    -0.014 A 
BRANCH  38  39
ATOM     39  C   UNL     1      -5.364   5.402   6.539  1.00  0.00     0.031 A 
ATOM     40  C   UNL     1      -5.424   6.289   7.755  1.00  0.00     0.074 A 
ATOM     41  C   UNL     1      -6.009   4.220   6.554  1.00  0.00     0.049 A 
ATOM     42  N   UNL     1      -6.034   6.093   8.898  1.00  0.00    -0.248 NA
ATOM     43  C   UNL     1      -4.678   7.554   7.684  1.00  0.00     0.031 C 
ATOM     44  C   UNL     1      -6.001   3.241   5.468  1.00  0.00     0.029 A 
ATOM     45  N   UNL     1      -6.788   3.637   7.525  1.00  0.00    -0.354 N 
ATOM     46  C   UNL     1      -5.727   7.195   9.687  1.00  0.00     0.074 A 
ATOM     47  C   UNL     1      -4.843   8.035   8.908  1.00  0.00     0.031 C 
ATOM     48  C   UNL     1      -6.744   2.181   5.829  1.00  0.00     0.029 A 
ATOM     49  C   UNL     1      -7.264   2.397   7.177  1.00  0.00     0.049 A 
ATOM     50  H   UNL     1      -6.986   4.068   8.387  1.00  0.00     0.167 HD
ATOM     51  C   UNL     1      -6.157   7.492  10.938  1.00  0.00     0.037 A 
ATOM     52  C   UNL     1      -8.031   1.529   7.865  1.00  0.00     0.037 A 
ATOM     53  C   UNL     1      -7.069   6.683  11.703  1.00  0.00     0.049 A 
ATOM     54  C   UNL     1      -8.532   1.897   9.235  1.00  0.00     0.074 A 
ATOM     55  C   UNL     1      -7.623   6.944  12.945  1.00  0.00     0.029 A 
ATOM     56  N   UNL     1      -7.563   5.452  11.298  1.00  0.00    -0.354 N 
ATOM     57  N   UNL     1      -8.293   2.975   9.939  1.00  0.00    -0.248 NA
ATOM     58  C   UNL     1      -9.422   0.932   9.898  1.00  0.00     0.031 C 
ATOM     59  C   UNL     1      -8.424   5.854  13.307  1.00  0.00     0.029 A 
ATOM     60  C   UNL     1      -8.399   4.932  12.274  1.00  0.00     0.049 A 
ATOM     61  H   UNL     1      -7.351   5.012  10.443  1.00  0.00     0.167 HD
ATOM     62  C   UNL     1      -9.013   2.829  11.117  1.00  0.00     0.074 A 
ATOM     63  C   UNL     1      -9.711   1.564  11.028  1.00  0.00     0.031 C 
ATOM     64  C   UNL     1      -9.087   3.671  12.178  1.00  0.00     0.037 A 
BRANCH  51  65
ATOM     65  C   UNL     1      -5.637   8.754  11.562  1.00  0.00     0.064 A 
ATOM     66  C   UNL     1      -6.049  10.020  11.118  1.00  0.00     0.173 A 
ATOM     67  C   UNL     1      -4.730   8.697  12.631  1.00  0.00     0.173 A 
ATOM     68  F   UNL     1      -6.907  10.129  10.092  1.00  0.00    -0.203 F 
ATOM     69  C   UNL     1      -5.542  11.181  11.695  1.00  0.00     0.198 A 
ATOM     70  C   UNL     1      -4.247   9.860  13.225  1.00  0.00     0.198 A 
ATOM     71  F   UNL     1      -4.310   7.512  13.099  1.00  0.00    -0.203 F 
ATOM     72  F   UNL     1      -5.907  12.379  11.217  1.00  0.00    -0.200 F 
ATOM     73  C   UNL     1      -4.646  11.101  12.750  1.00  0.00     0.200 A 
ATOM     74  F   UNL     1      -3.389   9.781  14.251  1.00  0.00    -0.200 F 
ATOM     75  F   UNL     1      -4.158  12.220  13.303  1.00  0.00    -0.200 F 
ENDBRANCH  51  65
BRANCH  52  76
ATOM     76  C   UNL     1      -8.393   0.229   7.247  1.00  0.00     0.064 A 
ATOM     77  C   UNL     1      -9.689  -0.007   6.768  1.00  0.00     0.173 A 
ATOM     78  C   UNL     1      -7.444  -0.793   7.102  1.00  0.00     0.173 A 
ATOM     79  F   UNL     1     -10.634   0.933   6.906  1.00  0.00    -0.203 F 
ATOM     80  C   UNL     1     -10.025  -1.222   6.173  1.00  0.00     0.198 A 
ATOM     81  C   UNL     1      -7.775  -1.999   6.487  1.00  0.00     0.198 A 
ATOM     82  F   UNL     1      -6.191  -0.613   7.542  1.00  0.00    -0.203 F 
ATOM     83  F   UNL     1     -11.278  -1.434   5.750  1.00  0.00    -0.200 F 
ATOM     84  C   UNL     1      -9.066  -2.213   6.026  1.00  0.00     0.200 A 
ATOM     85  F   UNL     1      -6.844  -2.950   6.337  1.00  0.00    -0.200 F 
ATOM     86  F   UNL     1      -9.387  -3.377   5.445  1.00  0.00    -0.200 F 
ENDBRANCH  52  76
BRANCH  64  87
ATOM     87  C   UNL     1      -9.965   3.260  13.323  1.00  0.00     0.064 A 
ATOM     88  C   UNL     1      -9.582   2.244  14.211  1.00  0.00     0.173 A 
ATOM     89  C   UNL     1     -11.184   3.914  13.557  1.00  0.00     0.173 A 
ATOM     90  F   UNL     1      -8.432   1.579  14.021  1.00  0.00    -0.203 F 
ATOM     91  C   UNL     1     -10.398   1.884  15.281  1.00  0.00     0.198 A 
ATOM     92  C   UNL     1     -11.986   3.567  14.641  1.00  0.00     0.198 A 
ATOM     93  F   UNL     1     -11.592   4.895  12.739  1.00  0.00    -0.203 F 
ATOM     94  F   UNL     1     -10.031   0.884  16.095  1.00  0.00    -0.200 F 
ATOM     95  C   UNL     1     -11.595   2.550  15.499  1.00  0.00     0.200 A 
ATOM     96  F   UNL     1     -13.138   4.217  14.856  1.00  0.00    -0.200 F 
ATOM     97  F   UNL     1     -12.377   2.205  16.531  1.00  0.00    -0.200 F 
ENDBRANCH  64  87
ENDBRANCH  38  39
ENDBRANCH  30  33
ENDBRANCH  28  29
ENDBRANCH  27  28
ENDBRANCH  26  27
ENDBRANCH   1  26
TORSDOF 15
