REMARK SMILES COC(=O)c1c(NC(=O)[C@@H]2[C@H]3CC[C@H](CC3)[C@H]2C(=O)NCCCCCCNC(=O)c2ccc(-c3c4nc(c(-c5c(F)c(F)c(F)c(F)c5F)c5ccc([nH]5)c(-c5c(F)c(F)c(F)c(F)c5F)c5nc(c(-c6c(F)c(F)c(F)c(F)c6F)c6ccc3[nH]6)C=C5)C=C4)cc2)sc(C)c1-c1ccc(C)cc1
REMARK SMILES IDX 22 1 21 2 20 3 18 4 19 5 17 7 10 8 11 9 16 10 12 11 14 12
REMARK SMILES IDX 15 13 13 14 8 15 7 16 9 18 6 19 5 20 96 21 93 22 94 23 95 24
REMARK SMILES IDX 3 25 4 26 2 27 1 28 97 29 98 30 103 31 99 32 102 33 100 34
REMARK SMILES IDX 101 35 23 36 24 37 25 38 26 39 27 40 28 41 29 43 30 44 31 45
REMARK SMILES IDX 92 46 32 47 91 48 33 49 34 50 35 51 85 52 36 53 90 54 84 55
REMARK SMILES IDX 86 56 37 57 89 58 83 59 82 60 38 62 70 63 50 64 69 65 51 66
REMARK SMILES IDX 54 67 68 68 87 69 52 70 53 71 67 73 88 74 55 75 39 76 40 77
REMARK SMILES IDX 48 78 41 79 42 80 46 81 49 82 43 83 44 84 47 85 45 86 71 87
REMARK SMILES IDX 72 88 80 89 73 90 74 91 78 92 81 93 75 94 76 95 79 96 77 97
REMARK SMILES IDX 56 98 57 99 65 100 58 101 59 102 63 103 66 104 60 105 61 106
REMARK SMILES IDX 64 107 62 108
REMARK H PARENT 20 6 7 17 27 42 86 61 54 72
REMARK Flexibility Score: inf
ROOT
ATOM      1  C   UNL     1       6.138  -1.760   5.086  1.00  0.00     0.021 C 
ENDROOT
BRANCH   1   2
ATOM      2  C   UNL     1       5.708  -1.198   6.434  1.00  0.00     0.116 C 
BRANCH   2   3
ATOM      3  N   UNL     1       4.777  -0.102   6.371  1.00  0.00    -0.356 N 
ATOM      4  C   UNL     1       3.637   0.138   7.074  1.00  0.00     0.224 C 
ATOM      5  O   UNL     1       3.172   1.279   6.961  1.00  0.00    -0.275 OA
ATOM      6  H   UNL     1       5.003   0.591   5.708  1.00  0.00     0.163 HD
BRANCH   4   7
ATOM      7  C   UNL     1       2.909  -0.889   7.968  1.00  0.00     0.094 C 
ATOM      8  C   UNL     1       2.665  -2.276   7.327  1.00  0.00     0.094 C 
ATOM      9  C   UNL     1       2.945  -3.395   8.379  1.00  0.00     0.002 C 
ATOM     10  C   UNL     1       4.406  -3.341   8.874  1.00  0.00     0.005 C 
ATOM     11  C   UNL     1       2.083  -3.168   9.639  1.00  0.00     0.005 C 
ATOM     12  C   UNL     1       3.462  -1.055   9.408  1.00  0.00     0.002 C 
ATOM     13  C   UNL     1       4.705  -1.960   9.483  1.00  0.00     0.005 C 
ATOM     14  C   UNL     1       2.361  -1.773  10.229  1.00  0.00     0.005 C 
BRANCH   8  15
ATOM     15  C   UNL     1       1.242  -2.426   6.775  1.00  0.00     0.229 C 
ATOM     16  N   UNL     1       0.916  -3.138   5.657  1.00  0.00    -0.317 N 
ATOM     17  H   UNL     1      -0.057  -3.191   5.518  1.00  0.00     0.170 HD
ATOM     18  O   UNL     1       0.288  -1.921   7.383  1.00  0.00    -0.274 OA
BRANCH  16  19
ATOM     19  C   UNL     1       1.627  -3.804   4.671  1.00  0.00     0.111 A 
ATOM     20  C   UNL     1       1.093  -4.431   3.549  1.00  0.00     0.102 A 
ATOM     21  C   UNL     1       2.146  -4.873   2.646  1.00  0.00     0.012 A 
ATOM     22  S   UNL     1       3.299  -4.001   4.734  1.00  0.00    -0.122 S 
ATOM     23  C   UNL     1       3.405  -4.572   3.140  1.00  0.00     0.012 A 
ATOM     24  C   UNL     1       4.762  -4.691   2.528  1.00  0.00     0.057 C 
BRANCH  20  25
ATOM     25  C   UNL     1      -0.350  -4.576   3.349  1.00  0.00     0.341 C 
ATOM     26  O   UNL     1      -1.170  -3.823   3.859  1.00  0.00    -0.246 OA
BRANCH  25  27
ATOM     27  O   UNL     1      -0.671  -5.663   2.594  1.00  0.00    -0.465 OA
ATOM     28  C   UNL     1      -2.066  -5.874   2.385  1.00  0.00     0.282 C 
ENDBRANCH  25  27
ENDBRANCH  20  25
BRANCH  21  29
ATOM     29  C   UNL     1       1.988  -5.516   1.346  1.00  0.00    -0.016 A 
ATOM     30  C   UNL     1       1.308  -4.879   0.304  1.00  0.00     0.009 A 
ATOM     31  C   UNL     1       2.498  -6.805   1.151  1.00  0.00     0.009 A 
ATOM     32  C   UNL     1       1.128  -5.535  -0.917  1.00  0.00     0.004 A 
ATOM     33  C   UNL     1       2.331  -7.452  -0.073  1.00  0.00     0.004 A 
ATOM     34  C   UNL     1       1.640  -6.825  -1.114  1.00  0.00    -0.051 A 
ATOM     35  C   UNL     1       1.418  -7.532  -2.418  1.00  0.00     0.044 C 
ENDBRANCH  21  29
ENDBRANCH  16  19
ENDBRANCH   8  15
ENDBRANCH   4   7
ENDBRANCH   2   3
ENDBRANCH   1   2
BRANCH   1  36
ATOM     36  C   UNL     1       7.407  -1.144   4.506  1.00  0.00     0.002 C 
BRANCH  36  37
ATOM     37  C   UNL     1       8.618  -1.115   5.445  1.00  0.00     0.002 C 
BRANCH  37  38
ATOM     38  C   UNL     1       9.005  -2.453   6.087  1.00  0.00     0.021 C 
BRANCH  38  39
ATOM     39  C   UNL     1       9.290  -3.590   5.109  1.00  0.00     0.116 C 
BRANCH  39  40
ATOM     40  N   UNL     1      10.263  -3.212   4.099  1.00  0.00    -0.352 N 
ATOM     41  C   UNL     1      11.448  -3.793   3.740  1.00  0.00     0.251 C 
ATOM     42  H   UNL     1      10.030  -2.403   3.587  1.00  0.00     0.163 HD
ATOM     43  O   UNL     1      12.222  -3.185   3.005  1.00  0.00    -0.269 OA
BRANCH  41  44
ATOM     44  C   UNL     1      11.814  -5.139   4.229  1.00  0.00     0.039 A 
ATOM     45  C   UNL     1      13.149  -5.383   4.561  1.00  0.00     0.014 A 
ATOM     46  C   UNL     1      10.876  -6.172   4.310  1.00  0.00     0.014 A 
ATOM     47  C   UNL     1      13.533  -6.646   5.011  1.00  0.00     0.010 A 
ATOM     48  C   UNL     1      11.245  -7.411   4.834  1.00  0.00     0.010 A 
ATOM     49  C   UNL     1      12.579  -7.663   5.182  1.00  0.00    -0.014 A 
BRANCH  49  50
ATOM     50  C   UNL     1      12.979  -8.980   5.743  1.00  0.00     0.031 A 
ATOM     51  C   UNL     1      12.863 -10.235   4.921  1.00  0.00     0.074 A 
ATOM     52  C   UNL     1      13.429  -9.041   7.012  1.00  0.00     0.049 A 
ATOM     53  N   UNL     1      13.181 -11.465   5.243  1.00  0.00    -0.248 NA
ATOM     54  C   UNL     1      12.296 -10.101   3.569  1.00  0.00     0.031 C 
ATOM     55  C   UNL     1      13.531  -7.902   7.927  1.00  0.00     0.029 A 
ATOM     56  N   UNL     1      13.888 -10.101   7.753  1.00  0.00    -0.354 N 
ATOM     57  C   UNL     1      12.848 -12.245   4.143  1.00  0.00     0.074 A 
ATOM     58  C   UNL     1      12.256 -11.363   3.162  1.00  0.00     0.031 C 
ATOM     59  C   UNL     1      14.053  -8.316   9.091  1.00  0.00     0.029 A 
ATOM     60  C   UNL     1      14.284  -9.755   9.023  1.00  0.00     0.049 A 
ATOM     61  H   UNL     1      13.930 -11.022   7.408  1.00  0.00     0.167 HD
ATOM     62  C   UNL     1      13.040 -13.574   3.962  1.00  0.00     0.037 A 
ATOM     63  C   UNL     1      14.774 -10.514  10.021  1.00  0.00     0.037 A 
ATOM     64  C   UNL     1      13.656 -14.443   4.932  1.00  0.00     0.049 A 
ATOM     65  C   UNL     1      14.978 -11.987   9.783  1.00  0.00     0.074 A 
ATOM     66  C   UNL     1      13.961 -15.788   4.812  1.00  0.00     0.029 A 
ATOM     67  N   UNL     1      14.053 -14.056   6.204  1.00  0.00    -0.354 N 
ATOM     68  N   UNL     1      14.747 -12.693   8.703  1.00  0.00    -0.248 NA
ATOM     69  C   UNL     1      15.524 -12.766  10.902  1.00  0.00     0.031 C 
ATOM     70  C   UNL     1      14.483 -16.230   6.032  1.00  0.00     0.029 A 
ATOM     71  C   UNL     1      14.569 -15.145   6.889  1.00  0.00     0.049 A 
ATOM     72  H   UNL     1      13.979 -13.144   6.566  1.00  0.00     0.167 HD
ATOM     73  C   UNL     1      15.147 -13.989   9.002  1.00  0.00     0.074 A 
ATOM     74  C   UNL     1      15.665 -13.963  10.354  1.00  0.00     0.031 C 
ATOM     75  C   UNL     1      15.085 -15.103   8.232  1.00  0.00     0.037 A 
BRANCH  62  76
ATOM     76  C   UNL     1      12.589 -14.186   2.667  1.00  0.00     0.064 A 
ATOM     77  C   UNL     1      13.254 -13.930   1.458  1.00  0.00     0.173 A 
ATOM     78  C   UNL     1      11.535 -15.113   2.651  1.00  0.00     0.173 A 
ATOM     79  F   UNL     1      14.261 -13.045   1.415  1.00  0.00    -0.203 F 
ATOM     80  C   UNL     1      12.873 -14.571   0.281  1.00  0.00     0.198 A 
ATOM     81  C   UNL     1      11.178 -15.774   1.479  1.00  0.00     0.198 A 
ATOM     82  F   UNL     1      10.868 -15.398   3.779  1.00  0.00    -0.203 F 
ATOM     83  F   UNL     1      13.503 -14.287  -0.868  1.00  0.00    -0.200 F 
ATOM     84  C   UNL     1      11.845 -15.501   0.295  1.00  0.00     0.200 A 
ATOM     85  F   UNL     1      10.194 -16.684   1.498  1.00  0.00    -0.200 F 
ATOM     86  F   UNL     1      11.496 -16.134  -0.834  1.00  0.00    -0.200 F 
ENDBRANCH  62  76
BRANCH  63  87
ATOM     87  C   UNL     1      15.112  -9.906  11.337  1.00  0.00     0.064 A 
ATOM     88  C   UNL     1      16.433  -9.881  11.808  1.00  0.00     0.173 A 
ATOM     89  C   UNL     1      14.115  -9.385  12.175  1.00  0.00     0.173 A 
ATOM     90  F   UNL     1      17.422 -10.382  11.053  1.00  0.00    -0.203 F 
ATOM     91  C   UNL     1      16.737  -9.404  13.081  1.00  0.00     0.198 A 
ATOM     92  C   UNL     1      14.425  -8.871  13.433  1.00  0.00     0.198 A 
ATOM     93  F   UNL     1      12.836  -9.375  11.773  1.00  0.00    -0.203 F 
ATOM     94  F   UNL     1      17.996  -9.465  13.534  1.00  0.00    -0.200 F 
ATOM     95  C   UNL     1      15.733  -8.897  13.892  1.00  0.00     0.200 A 
ATOM     96  F   UNL     1      13.454  -8.365  14.204  1.00  0.00    -0.200 F 
ATOM     97  F   UNL     1      16.023  -8.447  15.120  1.00  0.00    -0.200 F 
ENDBRANCH  63  87
BRANCH  75  98
ATOM     98  C   UNL     1      15.627 -16.374   8.824  1.00  0.00     0.064 A 
ATOM     99  C   UNL     1      14.999 -17.015   9.903  1.00  0.00     0.173 A 
ATOM    100  C   UNL     1      16.790 -16.961   8.301  1.00  0.00     0.173 A 
ATOM    101  F   UNL     1      13.891 -16.490  10.449  1.00  0.00    -0.203 F 
ATOM    102  C   UNL     1      15.542 -18.166  10.467  1.00  0.00     0.198 A 
ATOM    103  C   UNL     1      17.307 -18.135   8.842  1.00  0.00     0.198 A 
ATOM    104  F   UNL     1      17.425 -16.398   7.262  1.00  0.00    -0.203 F 
ATOM    105  F   UNL     1      14.966 -18.717  11.545  1.00  0.00    -0.200 F 
ATOM    106  C   UNL     1      16.691 -18.728   9.933  1.00  0.00     0.200 A 
ATOM    107  F   UNL     1      18.407 -18.688   8.311  1.00  0.00    -0.200 F 
ATOM    108  F   UNL     1      17.213 -19.836  10.478  1.00  0.00    -0.200 F 
ENDBRANCH  75  98
ENDBRANCH  49  50
ENDBRANCH  41  44
ENDBRANCH  39  40
ENDBRANCH  38  39
ENDBRANCH  37  38
ENDBRANCH  36  37
ENDBRANCH   1  36
TORSDOF 18
