REMARK SMILES O=C(CCCc1nc2cc(Cl)ccc2[nH]1)NCCCCCCNC(=O)c1ccc(-c2c3nc(c(-c4c(F)c(F)c(F)c(F)c4F)c4ccc([nH]4)c(-c4c(F)c(F)c(F)c(F)c4F)c4nc(c(-c5c(F)c(F)c(F)c(F)c5F)c5ccc2[nH]5)C=C4)C=C3)cc1
REMARK SMILES IDX 19 1 18 2 17 3 16 4 1 5 2 6 3 8 4 9 5 10 6 11 7 12 15 13
REMARK SMILES IDX 8 14 14 15 9 17 13 18 10 19 12 20 11 21 20 22 21 23 22 24
REMARK SMILES IDX 23 25 24 26 25 28 26 29 27 30 88 31 28 32 87 33 29 34 30 35
REMARK SMILES IDX 31 36 81 37 32 38 86 39 80 40 82 41 33 42 85 43 79 44 78 45
REMARK SMILES IDX 34 47 66 48 46 49 65 50 47 51 50 52 64 53 83 54 48 55 49 56
REMARK SMILES IDX 63 58 84 59 51 60 35 61 36 62 44 63 37 64 38 65 42 66 45 67
REMARK SMILES IDX 39 68 40 69 43 70 41 71 67 72 68 73 76 74 69 75 70 76 74 77
REMARK SMILES IDX 77 78 71 79 72 80 75 81 73 82 52 83 53 84 61 85 54 86 55 87
REMARK SMILES IDX 59 88 62 89 56 90 57 91 60 92 58 93
REMARK H PARENT 16 7 15 16 23 27 82 46 50 57
REMARK Flexibility Score: inf
ROOT
ATOM      1  C   UNL     1       4.097   2.997  -2.225  1.00  0.00     0.002 C 
ENDROOT
BRANCH   1   2
ATOM      2  C   UNL     1       2.598   2.852  -1.932  1.00  0.00     0.021 C 
BRANCH   2   3
ATOM      3  C   UNL     1       2.050   1.423  -1.980  1.00  0.00     0.116 C 
BRANCH   3   4
ATOM      4  N   UNL     1       2.738   0.547  -1.046  1.00  0.00    -0.356 N 
ATOM      5  O   UNL     1       0.897   0.089   0.223  1.00  0.00    -0.275 OA
ATOM      6  C   UNL     1       2.099  -0.052   0.013  1.00  0.00     0.220 C 
ATOM      7  H   UNL     1       3.698   0.377  -1.178  1.00  0.00     0.163 HD
BRANCH   6   8
ATOM      8  C   UNL     1       2.983  -0.792   1.006  1.00  0.00     0.100 C 
BRANCH   8   9
ATOM      9  C   UNL     1       3.952  -1.850   0.472  1.00  0.00     0.018 C 
BRANCH   9  10
ATOM     10  C   UNL     1       5.263  -1.383  -0.170  1.00  0.00     0.076 C 
BRANCH  10  11
ATOM     11  C   UNL     1       6.021  -0.376   0.626  1.00  0.00     0.107 A 
ATOM     12  N   UNL     1       7.072  -0.597   1.388  1.00  0.00    -0.233 NA
ATOM     13  N   UNL     1       5.705   0.960   0.622  1.00  0.00    -0.342 N 
ATOM     14  C   UNL     1       7.443   0.632   1.884  1.00  0.00     0.090 A 
ATOM     15  C   UNL     1       6.606   1.630   1.403  1.00  0.00     0.066 A 
ATOM     16  H   UNL     1       4.953   1.369   0.137  1.00  0.00     0.168 HD
ATOM     17  C   UNL     1       8.483   0.973   2.757  1.00  0.00     0.051 A 
ATOM     18  C   UNL     1       6.740   2.981   1.725  1.00  0.00     0.030 A 
ATOM     19  C   UNL     1       8.632   2.320   3.106  1.00  0.00     0.043 A 
ATOM     20  C   UNL     1       7.783   3.307   2.597  1.00  0.00     0.023 A 
ATOM     21  Cl  UNL     1       9.889   2.774   4.193  1.00  0.00    -0.084 Cl
ENDBRANCH  10  11
ENDBRANCH   9  10
ENDBRANCH   8   9
ENDBRANCH   6   8
ENDBRANCH   3   4
ENDBRANCH   2   3
ENDBRANCH   1   2
BRANCH   1  22
ATOM     22  C   UNL     1       4.587   2.387  -3.539  1.00  0.00     0.002 C 
BRANCH  22  23
ATOM     23  C   UNL     1       3.952   2.975  -4.796  1.00  0.00     0.021 C 
BRANCH  23  24
ATOM     24  C   UNL     1       4.114   4.484  -4.952  1.00  0.00     0.116 C 
BRANCH  24  25
ATOM     25  N   UNL     1       5.505   4.896  -5.070  1.00  0.00    -0.352 N 
ATOM     26  C   UNL     1       6.083   5.738  -5.989  1.00  0.00     0.251 C 
ATOM     27  H   UNL     1       6.117   4.519  -4.397  1.00  0.00     0.163 HD
ATOM     28  O   UNL     1       7.301   5.878  -6.029  1.00  0.00    -0.269 OA
BRANCH  26  29
ATOM     29  C   UNL     1       5.226   6.449  -6.961  1.00  0.00     0.039 A 
ATOM     30  C   UNL     1       5.561   6.404  -8.316  1.00  0.00     0.014 A 
ATOM     31  C   UNL     1       4.076   7.121  -6.539  1.00  0.00     0.014 A 
ATOM     32  C   UNL     1       4.695   6.961  -9.259  1.00  0.00     0.010 A 
ATOM     33  C   UNL     1       3.180   7.611  -7.483  1.00  0.00     0.010 A 
ATOM     34  C   UNL     1       3.475   7.526  -8.852  1.00  0.00    -0.014 A 
BRANCH  34  35
ATOM     35  C   UNL     1       2.479   8.006  -9.843  1.00  0.00     0.031 A 
ATOM     36  C   UNL     1       2.097   9.457  -9.893  1.00  0.00     0.074 A 
ATOM     37  C   UNL     1       1.852   7.116 -10.637  1.00  0.00     0.049 A 
ATOM     38  N   UNL     1       1.184  10.049 -10.620  1.00  0.00    -0.248 NA
ATOM     39  C   UNL     1       2.818  10.358  -8.982  1.00  0.00     0.031 C 
ATOM     40  C   UNL     1       2.093   5.672 -10.641  1.00  0.00     0.029 A 
ATOM     41  N   UNL     1       0.869   7.291 -11.579  1.00  0.00    -0.354 N 
ATOM     42  C   UNL     1       1.214  11.386 -10.248  1.00  0.00     0.074 A 
ATOM     43  C   UNL     1       2.194  11.508  -9.190  1.00  0.00     0.031 C 
ATOM     44  C   UNL     1       1.286   5.095 -11.546  1.00  0.00     0.029 A 
ATOM     45  C   UNL     1       0.446   6.120 -12.157  1.00  0.00     0.049 A 
ATOM     46  H   UNL     1       0.502   8.173 -11.816  1.00  0.00     0.167 HD
ATOM     47  C   UNL     1       0.504  12.421 -10.758  1.00  0.00     0.037 A 
ATOM     48  C   UNL     1      -0.522   5.894 -13.066  1.00  0.00     0.037 A 
ATOM     49  C   UNL     1      -0.460  12.296 -11.820  1.00  0.00     0.049 A 
ATOM     50  C   UNL     1      -1.303   7.057 -13.613  1.00  0.00     0.074 A 
ATOM     51  C   UNL     1      -1.182  13.293 -12.452  1.00  0.00     0.029 A 
ATOM     52  N   UNL     1      -0.845  11.095 -12.400  1.00  0.00    -0.354 N 
ATOM     53  N   UNL     1      -1.211   8.329 -13.310  1.00  0.00    -0.248 NA
ATOM     54  C   UNL     1      -2.317   6.754 -14.632  1.00  0.00     0.031 C 
ATOM     55  C   UNL     1      -2.039  12.691 -13.380  1.00  0.00     0.029 A 
ATOM     56  C   UNL     1      -1.815  11.324 -13.363  1.00  0.00     0.049 A 
ATOM     57  H   UNL     1      -0.482  10.212 -12.163  1.00  0.00     0.167 HD
ATOM     58  C   UNL     1      -2.139   8.980 -14.111  1.00  0.00     0.074 A 
ATOM     59  C   UNL     1      -2.771   7.965 -14.927  1.00  0.00     0.031 C 
ATOM     60  C   UNL     1      -2.440  10.301 -14.164  1.00  0.00     0.037 A 
BRANCH  47  61
ATOM     61  C   UNL     1       0.747  13.780 -10.168  1.00  0.00     0.064 A 
ATOM     62  C   UNL     1       1.961  14.459 -10.357  1.00  0.00     0.173 A 
ATOM     63  C   UNL     1      -0.251  14.422  -9.419  1.00  0.00     0.173 A 
ATOM     64  F   UNL     1       2.953  13.886 -11.056  1.00  0.00    -0.203 F 
ATOM     65  C   UNL     1       2.181  15.710  -9.787  1.00  0.00     0.198 A 
ATOM     66  C   UNL     1      -0.040  15.688  -8.878  1.00  0.00     0.198 A 
ATOM     67  F   UNL     1      -1.433  13.822  -9.213  1.00  0.00    -0.203 F 
ATOM     68  F   UNL     1       3.370  16.311  -9.932  1.00  0.00    -0.200 F 
ATOM     69  C   UNL     1       1.179  16.326  -9.053  1.00  0.00     0.200 A 
ATOM     70  F   UNL     1      -1.014  16.287  -8.180  1.00  0.00    -0.200 F 
ATOM     71  F   UNL     1       1.391  17.530  -8.506  1.00  0.00    -0.200 F 
ENDBRANCH  47  61
BRANCH  48  72
ATOM     72  C   UNL     1      -0.795   4.505 -13.518  1.00  0.00     0.064 A 
ATOM     73  C   UNL     1      -0.460   4.088 -14.813  1.00  0.00     0.173 A 
ATOM     74  C   UNL     1      -1.380   3.562 -12.660  1.00  0.00     0.173 A 
ATOM     75  F   UNL     1       0.083   4.959 -15.677  1.00  0.00    -0.203 F 
ATOM     76  C   UNL     1      -0.710   2.785 -15.237  1.00  0.00     0.198 A 
ATOM     77  C   UNL     1      -1.604   2.252 -13.075  1.00  0.00     0.198 A 
ATOM     78  F   UNL     1      -1.713   3.910 -11.408  1.00  0.00    -0.203 F 
ATOM     79  F   UNL     1      -0.413   2.422 -16.493  1.00  0.00    -0.200 F 
ATOM     80  C   UNL     1      -1.275   1.866 -14.366  1.00  0.00     0.200 A 
ATOM     81  F   UNL     1      -2.135   1.363 -12.225  1.00  0.00    -0.200 F 
ATOM     82  F   UNL     1      -1.506   0.609 -14.770  1.00  0.00    -0.200 F 
ENDBRANCH  48  72
BRANCH  60  83
ATOM     83  C   UNL     1      -3.491  10.728 -15.147  1.00  0.00     0.064 A 
ATOM     84  C   UNL     1      -4.848  10.442 -14.942  1.00  0.00     0.173 A 
ATOM     85  C   UNL     1      -3.140  11.472 -16.285  1.00  0.00     0.173 A 
ATOM     86  F   UNL     1      -5.233   9.720 -13.879  1.00  0.00    -0.203 F 
ATOM     87  C   UNL     1      -5.814  10.867 -15.851  1.00  0.00     0.198 A 
ATOM     88  C   UNL     1      -4.112  11.920 -17.175  1.00  0.00     0.198 A 
ATOM     89  F   UNL     1      -1.856  11.776 -16.524  1.00  0.00    -0.203 F 
ATOM     90  F   UNL     1      -7.101  10.545 -15.658  1.00  0.00    -0.200 F 
ATOM     91  C   UNL     1      -5.447  11.612 -16.961  1.00  0.00     0.200 A 
ATOM     92  F   UNL     1      -3.756  12.651 -18.240  1.00  0.00    -0.200 F 
ATOM     93  F   UNL     1      -6.379  12.028 -17.829  1.00  0.00    -0.200 F 
ENDBRANCH  60  83
ENDBRANCH  34  35
ENDBRANCH  26  29
ENDBRANCH  24  25
ENDBRANCH  23  24
ENDBRANCH  22  23
ENDBRANCH   1  22
TORSDOF 16
