REMARK SMILES O=C(NCCCCCCNC(=O)c1cc(F)ccc1NS(=O)(=O)c1ccc(Cl)s1)c1ccc(-c2c3nc(c(-c4c(F)c(F)c(F)c(F)c4F)c4ccc([nH]4)c(-c4c(F)c(F)c(F)c(F)c4F)c4nc(c(-c5c(F)c(F)c(F)c(F)c5F)c5ccc2[nH]5)C=C4)C=C3)cc1
REMARK SMILES IDX 7 1 6 2 5 3 4 4 3 5 1 6 2 7 30 9 31 10 92 11 32 12 91 13
REMARK SMILES IDX 33 14 34 15 35 16 85 17 36 18 90 19 84 20 86 21 37 22 89 23
REMARK SMILES IDX 83 24 82 25 38 27 70 28 50 29 69 30 51 31 54 32 68 33 87 34
REMARK SMILES IDX 52 35 53 36 67 38 88 39 55 40 39 41 40 42 48 43 41 44 42 45
REMARK SMILES IDX 46 46 49 47 43 48 44 49 47 50 45 51 71 52 72 53 80 54 73 55
REMARK SMILES IDX 74 56 78 57 81 58 75 59 76 60 79 61 77 62 56 63 57 64 65 65
REMARK SMILES IDX 58 66 59 67 63 68 66 69 60 70 61 71 64 72 62 73 8 74 9 75
REMARK SMILES IDX 10 76 11 77 12 79 13 80 14 81 19 82 15 83 18 84 16 85 17 86
REMARK SMILES IDX 20 87 21 89 22 90 23 91 24 92 25 93 29 94 26 95 27 96 28 97
REMARK H PARENT 3 8 86 26 54 37 10 78 20 88
REMARK Flexibility Score: inf
ROOT
ATOM      1  C   UNL     1       4.858  -4.258   0.843  1.00  0.00     0.002 C 
ENDROOT
BRANCH   1   2
ATOM      2  C   UNL     1       4.256  -3.412   1.968  1.00  0.00     0.002 C 
BRANCH   2   3
ATOM      3  C   UNL     1       4.691  -1.946   2.000  1.00  0.00     0.021 C 
BRANCH   3   4
ATOM      4  C   UNL     1       4.490  -1.174   0.701  1.00  0.00     0.116 C 
BRANCH   4   5
ATOM      5  N   UNL     1       3.095  -1.061   0.319  1.00  0.00    -0.352 N 
ATOM      6  O   UNL     1       1.192  -0.017  -0.293  1.00  0.00    -0.269 OA
ATOM      7  C   UNL     1       2.406   0.040  -0.126  1.00  0.00     0.251 C 
ATOM      8  H   UNL     1       2.568  -1.890   0.389  1.00  0.00     0.163 HD
BRANCH   7   9
ATOM      9  C   UNL     1       3.121   1.311  -0.379  1.00  0.00     0.039 A 
ATOM     10  C   UNL     1       4.317   1.339  -1.102  1.00  0.00     0.014 A 
ATOM     11  C   UNL     1       2.563   2.501   0.098  1.00  0.00     0.014 A 
ATOM     12  C   UNL     1       5.008   2.539  -1.254  1.00  0.00     0.010 A 
ATOM     13  C   UNL     1       3.228   3.713  -0.104  1.00  0.00     0.010 A 
ATOM     14  C   UNL     1       4.466   3.738  -0.761  1.00  0.00    -0.014 A 
BRANCH  14  15
ATOM     15  C   UNL     1       5.183   5.016  -0.990  1.00  0.00     0.031 A 
ATOM     16  C   UNL     1       5.824   5.756   0.147  1.00  0.00     0.074 A 
ATOM     17  C   UNL     1       5.269   5.497  -2.244  1.00  0.00     0.049 A 
ATOM     18  N   UNL     1       6.497   6.880   0.123  1.00  0.00    -0.248 NA
ATOM     19  C   UNL     1       5.695   5.163   1.487  1.00  0.00     0.031 C 
ATOM     20  C   UNL     1       4.681   4.867  -3.427  1.00  0.00     0.029 A 
ATOM     21  N   UNL     1       5.896   6.613  -2.735  1.00  0.00    -0.354 N 
ATOM     22  C   UNL     1       6.857   7.136   1.438  1.00  0.00     0.074 A 
ATOM     23  C   UNL     1       6.316   6.060   2.242  1.00  0.00     0.031 C 
ATOM     24  C   UNL     1       5.009   5.583  -4.513  1.00  0.00     0.029 A 
ATOM     25  C   UNL     1       5.791   6.743  -4.098  1.00  0.00     0.049 A 
ATOM     26  H   UNL     1       6.373   7.259  -2.166  1.00  0.00     0.167 HD
ATOM     27  C   UNL     1       7.579   8.172   1.927  1.00  0.00     0.037 A 
ATOM     28  C   UNL     1       6.268   7.694  -4.922  1.00  0.00     0.037 A 
ATOM     29  C   UNL     1       8.131   9.233   1.125  1.00  0.00     0.049 A 
ATOM     30  C   UNL     1       7.052   8.839  -4.352  1.00  0.00     0.074 A 
ATOM     31  C   UNL     1       8.901  10.310   1.531  1.00  0.00     0.029 A 
ATOM     32  N   UNL     1       7.973   9.349  -0.247  1.00  0.00    -0.354 N 
ATOM     33  N   UNL     1       7.394   9.063  -3.107  1.00  0.00    -0.248 NA
ATOM     34  C   UNL     1       7.506   9.868  -5.297  1.00  0.00     0.031 C 
ATOM     35  C   UNL     1       9.185  11.094   0.407  1.00  0.00     0.029 A 
ATOM     36  C   UNL     1       8.618  10.488  -0.702  1.00  0.00     0.049 A 
ATOM     37  H   UNL     1       7.476   8.717  -0.815  1.00  0.00     0.167 HD
ATOM     38  C   UNL     1       8.105  10.253  -3.117  1.00  0.00     0.074 A 
ATOM     39  C   UNL     1       8.161  10.697  -4.495  1.00  0.00     0.031 C 
ATOM     40  C   UNL     1       8.658  10.919  -2.075  1.00  0.00     0.037 A 
BRANCH  27  41
ATOM     41  C   UNL     1       7.816   8.220   3.405  1.00  0.00     0.064 A 
ATOM     42  C   UNL     1       7.133   9.148   4.206  1.00  0.00     0.173 A 
ATOM     43  C   UNL     1       8.770   7.396   4.019  1.00  0.00     0.173 A 
ATOM     44  F   UNL     1       6.214   9.961   3.663  1.00  0.00    -0.203 F 
ATOM     45  C   UNL     1       7.403   9.254   5.567  1.00  0.00     0.198 A 
ATOM     46  C   UNL     1       9.025   7.492   5.384  1.00  0.00     0.198 A 
ATOM     47  F   UNL     1       9.440   6.486   3.296  1.00  0.00    -0.203 F 
ATOM     48  F   UNL     1       6.753  10.161   6.310  1.00  0.00    -0.200 F 
ATOM     49  C   UNL     1       8.347   8.425   6.155  1.00  0.00     0.200 A 
ATOM     50  F   UNL     1       9.925   6.680   5.955  1.00  0.00    -0.200 F 
ATOM     51  F   UNL     1       8.602   8.524   7.467  1.00  0.00    -0.200 F 
ENDBRANCH  27  41
BRANCH  28  52
ATOM     52  C   UNL     1       6.023   7.578  -6.379  1.00  0.00     0.064 A 
ATOM     53  C   UNL     1       4.750   7.799  -6.923  1.00  0.00     0.173 A 
ATOM     54  C   UNL     1       7.051   7.188  -7.247  1.00  0.00     0.173 A 
ATOM     55  F   UNL     1       3.736   8.169  -6.127  1.00  0.00    -0.203 F 
ATOM     56  C   UNL     1       4.508   7.612  -8.281  1.00  0.00     0.198 A 
ATOM     57  C   UNL     1       6.812   7.021  -8.609  1.00  0.00     0.198 A 
ATOM     58  F   UNL     1       8.287   6.982  -6.771  1.00  0.00    -0.203 F 
ATOM     59  F   UNL     1       3.276   7.797  -8.772  1.00  0.00    -0.200 F 
ATOM     60  C   UNL     1       5.540   7.224  -9.123  1.00  0.00     0.200 A 
ATOM     61  F   UNL     1       7.814   6.661  -9.423  1.00  0.00    -0.200 F 
ATOM     62  F   UNL     1       5.307   7.046 -10.431  1.00  0.00    -0.200 F 
ENDBRANCH  28  52
BRANCH  40  63
ATOM     63  C   UNL     1       9.372  12.199  -2.380  1.00  0.00     0.064 A 
ATOM     64  C   UNL     1      10.773  12.252  -2.374  1.00  0.00     0.173 A 
ATOM     65  C   UNL     1       8.664  13.385  -2.620  1.00  0.00     0.173 A 
ATOM     66  F   UNL     1      11.491  11.143  -2.145  1.00  0.00    -0.203 F 
ATOM     67  C   UNL     1      11.441  13.454  -2.588  1.00  0.00     0.198 A 
ATOM     68  C   UNL     1       9.336  14.581  -2.852  1.00  0.00     0.198 A 
ATOM     69  F   UNL     1       7.323  13.376  -2.649  1.00  0.00    -0.203 F 
ATOM     70  F   UNL     1      12.781  13.489  -2.559  1.00  0.00    -0.200 F 
ATOM     71  C   UNL     1      10.723  14.616  -2.829  1.00  0.00     0.200 A 
ATOM     72  F   UNL     1       8.643  15.700  -3.102  1.00  0.00    -0.200 F 
ATOM     73  F   UNL     1      11.369  15.771  -3.043  1.00  0.00    -0.200 F 
ENDBRANCH  40  63
ENDBRANCH  14  15
ENDBRANCH   7   9
ENDBRANCH   4   5
ENDBRANCH   3   4
ENDBRANCH   2   3
ENDBRANCH   1   2
BRANCH   1  74
ATOM     74  C   UNL     1       6.388  -4.235   0.733  1.00  0.00     0.021 C 
BRANCH  74  75
ATOM     75  C   UNL     1       7.143  -4.624   2.004  1.00  0.00     0.116 C 
BRANCH  75  76
ATOM     76  N   UNL     1       6.844  -5.987   2.398  1.00  0.00    -0.352 N 
ATOM     77  C   UNL     1       7.705  -7.007   2.691  1.00  0.00     0.253 C 
ATOM     78  H   UNL     1       5.887  -6.208   2.464  1.00  0.00     0.163 HD
ATOM     79  O   UNL     1       7.305  -8.169   2.668  1.00  0.00    -0.269 OA
BRANCH  77  80
ATOM     80  C   UNL     1       9.123  -6.748   3.020  1.00  0.00     0.066 A 
ATOM     81  C   UNL     1       9.434  -5.751   3.955  1.00  0.00     0.055 A 
ATOM     82  C   UNL     1      10.126  -7.590   2.488  1.00  0.00     0.062 A 
ATOM     83  C   UNL     1      10.755  -5.556   4.326  1.00  0.00     0.124 A 
ATOM     84  C   UNL     1      11.448  -7.368   2.897  1.00  0.00     0.030 A 
ATOM     85  F   UNL     1      11.062  -4.585   5.193  1.00  0.00    -0.207 F 
ATOM     86  C   UNL     1      11.761  -6.359   3.813  1.00  0.00     0.041 A 
BRANCH  82  87
ATOM     87  N   UNL     1       9.786  -8.459   1.382  1.00  0.00    -0.278 N 
ATOM     88  H   UNL     1       9.000  -8.240   0.831  1.00  0.00     0.180 HD
BRANCH  87  89
ATOM     89  S   UNL     1      10.687  -9.834   1.002  1.00  0.00     0.271 S 
ATOM     90  O   UNL     1      10.953 -10.552   2.227  1.00  0.00    -0.200 OA
ATOM     91  O   UNL     1      10.037 -10.454  -0.133  1.00  0.00    -0.200 OA
BRANCH  89  92
ATOM     92  C   UNL     1      12.259  -9.292   0.364  1.00  0.00     0.141 A 
ATOM     93  C   UNL     1      12.641  -8.147  -0.318  1.00  0.00     0.036 A 
ATOM     94  S   UNL     1      13.600 -10.314   0.674  1.00  0.00    -0.110 S 
ATOM     95  C   UNL     1      14.057  -8.065  -0.479  1.00  0.00     0.034 A 
ATOM     96  C   UNL     1      14.674  -9.175   0.038  1.00  0.00     0.094 A 
ATOM     97  Cl  UNL     1      16.364  -9.473   0.098  1.00  0.00    -0.072 Cl
ENDBRANCH  89  92
ENDBRANCH  87  89
ENDBRANCH  82  87
ENDBRANCH  77  80
ENDBRANCH  75  76
ENDBRANCH  74  75
ENDBRANCH   1  74
TORSDOF 16
