REMARK SMILES CC(C)(C(=O)NCCCCCCNC(=O)c1ccc(-c2c3nc(c(-c4c(F)c(F)c(F)c(F)c4F)c4ccc([nH]4)c(-c4c(F)c(F)c(F)c(F)c4F)c4nc(c(-c5c(F)c(F)c(F)c(F)c5F)c5ccc2[nH]5)C=C4)C=C3)cc1)N1C(=O)/C(=C/c2ccc(C=O)cc2)SC1=S
REMARK SMILES IDX 9 1 8 2 7 3 6 4 4 5 5 6 2 8 1 9 3 10 79 11 80 12 93 13 81 14
REMARK SMILES IDX 82 15 92 16 94 17 83 18 84 19 85 20 91 21 86 22 90 23 87 24
REMARK SMILES IDX 88 25 89 26 10 27 11 28 12 29 13 30 14 31 15 33 16 34 17 35
REMARK SMILES IDX 78 36 18 37 77 38 19 39 20 40 21 41 71 42 22 43 76 44 70 45
REMARK SMILES IDX 72 46 23 47 75 48 69 49 68 50 24 52 56 53 36 54 55 55 37 56
REMARK SMILES IDX 40 57 54 58 73 59 38 60 39 61 53 63 74 64 41 65 25 66 26 67
REMARK SMILES IDX 34 68 27 69 28 70 32 71 35 72 29 73 30 74 33 75 31 76 57 77
REMARK SMILES IDX 58 78 66 79 59 80 60 81 64 82 67 83 61 84 62 85 65 86 63 87
REMARK SMILES IDX 42 88 43 89 51 90 44 91 45 92 49 93 52 94 46 95 47 96 50 97
REMARK SMILES IDX 48 98
REMARK H PARENT 6 7 13 32 72 51 40 62
REMARK Flexibility Score: inf
ROOT
ATOM      1  C   UNL     1      -3.212   2.643  -0.710  1.00  0.00     0.002 C 
ENDROOT
BRANCH   1   2
ATOM      2  C   UNL     1      -1.705   2.367  -0.725  1.00  0.00     0.021 C 
BRANCH   2   3
ATOM      3  C   UNL     1      -1.124   2.063   0.649  1.00  0.00     0.116 C 
BRANCH   3   4
ATOM      4  N   UNL     1      -1.605   0.802   1.176  1.00  0.00    -0.354 N 
ATOM      5  C   UNL     1      -0.943  -0.294   1.639  1.00  0.00     0.245 C 
ATOM      6  O   UNL     1      -1.613  -1.067   2.336  1.00  0.00    -0.272 OA
ATOM      7  H   UNL     1      -2.586   0.724   1.204  1.00  0.00     0.163 HD
BRANCH   5   8
ATOM      8  C   UNL     1       0.592  -0.502   1.445  1.00  0.00     0.122 C 
ATOM      9  C   UNL     1       1.153  -0.212   0.041  1.00  0.00     0.046 C 
ATOM     10  C   UNL     1       1.200   0.496   2.471  1.00  0.00     0.046 C 
BRANCH   8  11
ATOM     11  N   UNL     1       0.916  -1.946   1.771  1.00  0.00    -0.278 N 
ATOM     12  C   UNL     1       2.066  -2.252   2.484  1.00  0.00     0.267 C 
ATOM     13  C   UNL     1       0.307  -3.052   1.181  1.00  0.00     0.149 C 
ATOM     14  O   UNL     1       2.937  -1.476   2.858  1.00  0.00    -0.268 OA
ATOM     15  C   UNL     1       2.227  -3.714   2.651  1.00  0.00     0.081 C 
ATOM     16  S   UNL     1       0.959  -4.541   1.865  1.00  0.00    -0.054 SA
ATOM     17  S   UNL     1      -0.832  -3.145  -0.043  1.00  0.00    -0.052 S 
ATOM     18  C   UNL     1       3.282  -4.218   3.304  1.00  0.00     0.029 C 
BRANCH  18  19
ATOM     19  C   UNL     1       3.581  -5.639   3.478  1.00  0.00    -0.024 A 
ATOM     20  C   UNL     1       3.696  -6.159   4.772  1.00  0.00     0.009 A 
ATOM     21  C   UNL     1       3.781  -6.476   2.372  1.00  0.00     0.009 A 
ATOM     22  C   UNL     1       3.968  -7.515   4.958  1.00  0.00     0.012 A 
ATOM     23  C   UNL     1       4.046  -7.833   2.554  1.00  0.00     0.012 A 
ATOM     24  C   UNL     1       4.131  -8.349   3.849  1.00  0.00     0.014 A 
BRANCH  24  25
ATOM     25  C   UNL     1       4.390  -9.789   4.033  1.00  0.00     0.260 C 
ATOM     26  O   UNL     1       4.498 -10.295   5.143  1.00  0.00    -0.298 OA
ENDBRANCH  24  25
ENDBRANCH  18  19
ENDBRANCH   8  11
ENDBRANCH   5   8
ENDBRANCH   3   4
ENDBRANCH   2   3
ENDBRANCH   1   2
BRANCH   1  27
ATOM     27  C   UNL     1      -3.663   3.727   0.277  1.00  0.00     0.002 C 
BRANCH  27  28
ATOM     28  C   UNL     1      -2.925   5.062   0.156  1.00  0.00     0.021 C 
BRANCH  28  29
ATOM     29  C   UNL     1      -3.003   5.700  -1.224  1.00  0.00     0.116 C 
BRANCH  29  30
ATOM     30  N   UNL     1      -4.370   6.031  -1.593  1.00  0.00    -0.352 N 
ATOM     31  C   UNL     1      -4.886   7.230  -2.010  1.00  0.00     0.251 C 
ATOM     32  H   UNL     1      -5.015   5.289  -1.536  1.00  0.00     0.163 HD
ATOM     33  O   UNL     1      -6.101   7.390  -2.086  1.00  0.00    -0.269 OA
BRANCH  31  34
ATOM     34  C   UNL     1      -3.973   8.340  -2.349  1.00  0.00     0.039 A 
ATOM     35  C   UNL     1      -4.263   9.622  -1.881  1.00  0.00     0.014 A 
ATOM     36  C   UNL     1      -2.834   8.114  -3.128  1.00  0.00     0.014 A 
ATOM     37  C   UNL     1      -3.381  10.670  -2.148  1.00  0.00     0.010 A 
ATOM     38  C   UNL     1      -1.917   9.140  -3.325  1.00  0.00     0.010 A 
ATOM     39  C   UNL     1      -2.185  10.431  -2.845  1.00  0.00    -0.014 A 
BRANCH  39  40
ATOM     40  C   UNL     1      -1.209  11.522  -3.095  1.00  0.00     0.031 A 
ATOM     41  C   UNL     1      -0.897  11.944  -4.504  1.00  0.00     0.074 A 
ATOM     42  C   UNL     1      -0.561  12.088  -2.059  1.00  0.00     0.049 A 
ATOM     43  N   UNL     1      -0.024  12.819  -4.933  1.00  0.00    -0.248 NA
ATOM     44  C   UNL     1      -1.649  11.272  -5.577  1.00  0.00     0.031 C 
ATOM     45  C   UNL     1      -0.747  11.736  -0.651  1.00  0.00     0.029 A 
ATOM     46  N   UNL     1       0.395  13.073  -2.031  1.00  0.00    -0.354 N 
ATOM     47  C   UNL     1      -0.112  12.793  -6.319  1.00  0.00     0.074 A 
ATOM     48  C   UNL     1      -1.080  11.775  -6.663  1.00  0.00     0.031 C 
ATOM     49  C   UNL     1       0.051  12.508   0.104  1.00  0.00     0.029 A 
ATOM     50  C   UNL     1       0.837  13.377  -0.766  1.00  0.00     0.049 A 
ATOM     51  H   UNL     1       0.732  13.520  -2.841  1.00  0.00     0.167 HD
ATOM     52  C   UNL     1       0.537  13.567  -7.221  1.00  0.00     0.037 A 
ATOM     53  C   UNL     1       1.778  14.248  -0.358  1.00  0.00     0.037 A 
ATOM     54  C   UNL     1       1.484  14.593  -6.872  1.00  0.00     0.049 A 
ATOM     55  C   UNL     1       2.501  15.080  -1.385  1.00  0.00     0.074 A 
ATOM     56  C   UNL     1       2.155  15.467  -7.708  1.00  0.00     0.029 A 
ATOM     57  N   UNL     1       1.897  14.880  -5.579  1.00  0.00    -0.354 N 
ATOM     58  N   UNL     1       2.361  15.094  -2.688  1.00  0.00    -0.248 NA
ATOM     59  C   UNL     1       3.510  16.022  -0.881  1.00  0.00     0.031 C 
ATOM     60  C   UNL     1       3.018  16.243  -6.928  1.00  0.00     0.029 A 
ATOM     61  C   UNL     1       2.835  15.899  -5.598  1.00  0.00     0.049 A 
ATOM     62  H   UNL     1       1.571  14.426  -4.768  1.00  0.00     0.167 HD
ATOM     63  C   UNL     1       3.233  16.068  -3.156  1.00  0.00     0.074 A 
ATOM     64  C   UNL     1       3.889  16.632  -1.995  1.00  0.00     0.031 C 
ATOM     65  C   UNL     1       3.469  16.461  -4.432  1.00  0.00     0.037 A 
BRANCH  52  66
ATOM     66  C   UNL     1       0.247  13.333  -8.677  1.00  0.00     0.064 A 
ATOM     67  C   UNL     1      -0.998  13.650  -9.242  1.00  0.00     0.173 A 
ATOM     68  C   UNL     1       1.242  12.827  -9.528  1.00  0.00     0.173 A 
ATOM     69  F   UNL     1      -1.988  14.126  -8.472  1.00  0.00    -0.203 F 
ATOM     70  C   UNL     1      -1.246  13.441 -10.596  1.00  0.00     0.198 A 
ATOM     71  C   UNL     1       1.001  12.653 -10.889  1.00  0.00     0.198 A 
ATOM     72  F   UNL     1       2.452  12.513  -9.043  1.00  0.00    -0.203 F 
ATOM     73  F   UNL     1      -2.459  13.703 -11.102  1.00  0.00    -0.200 F 
ATOM     74  C   UNL     1      -0.244  12.952 -11.420  1.00  0.00     0.200 A 
ATOM     75  F   UNL     1       1.976  12.194 -11.686  1.00  0.00    -0.200 F 
ATOM     76  F   UNL     1      -0.480  12.762 -12.725  1.00  0.00    -0.200 F 
ENDBRANCH  52  66
BRANCH  53  77
ATOM     77  C   UNL     1       2.085  14.393   1.091  1.00  0.00     0.064 A 
ATOM     78  C   UNL     1       1.785  15.578   1.777  1.00  0.00     0.173 A 
ATOM     79  C   UNL     1       2.700  13.361   1.814  1.00  0.00     0.173 A 
ATOM     80  F   UNL     1       1.214  16.602   1.126  1.00  0.00    -0.203 F 
ATOM     81  C   UNL     1       2.116  15.737   3.121  1.00  0.00     0.198 A 
ATOM     82  C   UNL     1       3.000  13.507   3.166  1.00  0.00     0.198 A 
ATOM     83  F   UNL     1       3.003  12.203   1.208  1.00  0.00    -0.203 F 
ATOM     84  F   UNL     1       1.871  16.902   3.736  1.00  0.00    -0.200 F 
ATOM     85  C   UNL     1       2.719  14.699   3.816  1.00  0.00     0.200 A 
ATOM     86  F   UNL     1       3.567  12.496   3.838  1.00  0.00    -0.200 F 
ATOM     87  F   UNL     1       3.037  14.852   5.109  1.00  0.00    -0.200 F 
ENDBRANCH  53  77
BRANCH  65  88
ATOM     88  C   UNL     1       4.440  17.588  -4.641  1.00  0.00     0.064 A 
ATOM     89  C   UNL     1       5.817  17.429  -4.428  1.00  0.00     0.173 A 
ATOM     90  C   UNL     1       3.987  18.833  -5.106  1.00  0.00     0.173 A 
ATOM     91  F   UNL     1       6.300  16.264  -3.971  1.00  0.00    -0.203 F 
ATOM     92  C   UNL     1       6.701  18.483  -4.645  1.00  0.00     0.198 A 
ATOM     93  C   UNL     1       4.878  19.873  -5.356  1.00  0.00     0.198 A 
ATOM     94  F   UNL     1       2.681  19.035  -5.334  1.00  0.00    -0.203 F 
ATOM     95  F   UNL     1       8.006  18.325  -4.384  1.00  0.00    -0.200 F 
ATOM     96  C   UNL     1       6.232  19.700  -5.117  1.00  0.00     0.200 A 
ATOM     97  F   UNL     1       4.424  21.042  -5.829  1.00  0.00    -0.200 F 
ATOM     98  F   UNL     1       7.086  20.709  -5.336  1.00  0.00    -0.200 F 
ENDBRANCH  65  88
ENDBRANCH  39  40
ENDBRANCH  31  34
ENDBRANCH  29  30
ENDBRANCH  28  29
ENDBRANCH  27  28
ENDBRANCH   1  27
TORSDOF 16
