REMARK SMILES Cc1ncccc1NC(=O)NC[C@H]1CCC[C@H]1C(=O)NCCCCCCNC(=O)c1ccc(-c2c3nc(c(-c4c(F)c(F)c(F)c(F)c4F)c4ccc([nH]4)c(-c4c(F)c(F)c(F)c(F)c4F)c4nc(c(-c5c(F)c(F)c(F)c(F)c5F)c5ccc2[nH]5)C=C4)C=C3)cc1
REMARK SMILES IDX 23 1 22 2 21 3 20 4 18 5 19 6 17 8 13 9 14 10 15 11 16 12
REMARK SMILES IDX 12 13 11 14 8 15 9 16 10 18 7 20 1 21 2 22 3 23 4 24 6 25
REMARK SMILES IDX 5 26 24 27 25 28 26 29 27 30 28 31 29 33 30 34 31 35 92 36
REMARK SMILES IDX 32 37 91 38 33 39 34 40 35 41 85 42 36 43 90 44 84 45 86 46
REMARK SMILES IDX 37 47 89 48 83 49 82 50 38 52 70 53 50 54 69 55 51 56 54 57
REMARK SMILES IDX 68 58 87 59 52 60 53 61 67 63 88 64 55 65 39 66 40 67 48 68
REMARK SMILES IDX 41 69 42 70 46 71 49 72 43 73 44 74 47 75 45 76 71 77 72 78
REMARK SMILES IDX 80 79 73 80 74 81 78 82 81 83 75 84 76 85 79 86 77 87 56 88
REMARK SMILES IDX 57 89 65 90 58 91 59 92 63 93 66 94 60 95 61 96 64 97 62 98
REMARK H PARENT 20 7 8 17 11 19 27 32 86 51 54 62
REMARK Flexibility Score: inf
ROOT
ATOM      1  C   UNL     1      -7.267   1.434   0.040  1.00  0.00     0.002 C 
ENDROOT
BRANCH   1   2
ATOM      2  C   UNL     1      -6.039   0.604  -0.344  1.00  0.00     0.021 C 
BRANCH   2   3
ATOM      3  C   UNL     1      -5.203   1.183  -1.501  1.00  0.00     0.116 C 
BRANCH   3   4
ATOM      4  N   UNL     1      -3.797   1.299  -1.123  1.00  0.00    -0.356 N 
ATOM      5  C   UNL     1      -2.632   0.646  -1.277  1.00  0.00     0.223 C 
ATOM      6  O   UNL     1      -1.681   1.184  -0.685  1.00  0.00    -0.275 OA
ATOM      7  H   UNL     1      -3.659   2.112  -0.586  1.00  0.00     0.163 HD
BRANCH   5   8
ATOM      8  C   UNL     1      -2.341  -0.656  -2.018  1.00  0.00     0.083 C 
ATOM      9  C   UNL     1      -2.558  -1.992  -1.272  1.00  0.00     0.021 C 
ATOM     10  C   UNL     1      -2.075  -2.974  -2.349  1.00  0.00     0.006 C 
ATOM     11  C   UNL     1      -2.605  -2.415  -3.673  1.00  0.00     0.001 C 
ATOM     12  C   UNL     1      -2.770  -0.896  -3.465  1.00  0.00     0.014 C 
BRANCH   9  13
ATOM     13  C   UNL     1      -3.983  -2.286  -0.764  1.00  0.00     0.122 C 
BRANCH  13  14
ATOM     14  N   UNL     1      -4.979  -2.104  -1.802  1.00  0.00    -0.338 N 
ATOM     15  N   UNL     1      -6.423  -3.879  -2.512  1.00  0.00    -0.306 N 
ATOM     16  C   UNL     1      -5.955  -2.644  -2.495  1.00  0.00     0.319 C 
ATOM     17  H   UNL     1      -7.244  -3.920  -3.054  1.00  0.00     0.171 HD
ATOM     18  O   UNL     1      -6.550  -1.841  -3.231  1.00  0.00    -0.249 OA
ATOM     19  H   UNL     1      -4.880  -1.181  -2.128  1.00  0.00     0.165 HD
BRANCH  15  20
ATOM     20  C   UNL     1      -6.122  -5.146  -2.005  1.00  0.00     0.064 A 
ATOM     21  C   UNL     1      -8.311  -6.042  -2.977  1.00  0.00     0.069 C 
ATOM     22  C   UNL     1      -7.054  -6.191  -2.161  1.00  0.00     0.061 A 
ATOM     23  N   UNL     1      -6.855  -7.443  -1.667  1.00  0.00    -0.259 NA
ATOM     24  C   UNL     1      -5.700  -7.685  -1.020  1.00  0.00     0.111 A 
ATOM     25  C   UNL     1      -4.924  -5.471  -1.393  1.00  0.00     0.030 A 
ATOM     26  C   UNL     1      -4.706  -6.743  -0.872  1.00  0.00     0.022 A 
ENDBRANCH  15  20
ENDBRANCH  13  14
ENDBRANCH   9  13
ENDBRANCH   5   8
ENDBRANCH   3   4
ENDBRANCH   2   3
ENDBRANCH   1   2
BRANCH   1  27
ATOM     27  C   UNL     1      -8.377   1.482  -1.013  1.00  0.00     0.002 C 
BRANCH  27  28
ATOM     28  C   UNL     1      -9.068   0.149  -1.323  1.00  0.00     0.021 C 
BRANCH  28  29
ATOM     29  C   UNL     1      -9.669  -0.586  -0.126  1.00  0.00     0.116 C 
BRANCH  29  30
ATOM     30  N   UNL     1     -10.633   0.227   0.600  1.00  0.00    -0.352 N 
ATOM     31  C   UNL     1     -11.993   0.097   0.734  1.00  0.00     0.251 C 
ATOM     32  H   UNL     1     -10.246   0.999   1.072  1.00  0.00     0.163 HD
ATOM     33  O   UNL     1     -12.649   1.016   1.214  1.00  0.00    -0.269 OA
BRANCH  31  34
ATOM     34  C   UNL     1     -12.682  -1.141   0.308  1.00  0.00     0.039 A 
ATOM     35  C   UNL     1     -13.910  -1.038  -0.354  1.00  0.00     0.014 A 
ATOM     36  C   UNL     1     -12.163  -2.400   0.620  1.00  0.00     0.014 A 
ATOM     37  C   UNL     1     -14.592  -2.193  -0.747  1.00  0.00     0.010 A 
ATOM     38  C   UNL     1     -12.809  -3.549   0.169  1.00  0.00     0.010 A 
ATOM     39  C   UNL     1     -14.035  -3.458  -0.508  1.00  0.00    -0.014 A 
BRANCH  39  40
ATOM     40  C   UNL     1     -14.727  -4.705  -0.926  1.00  0.00     0.031 A 
ATOM     41  C   UNL     1     -15.204  -5.681   0.114  1.00  0.00     0.074 A 
ATOM     42  C   UNL     1     -14.855  -4.997  -2.233  1.00  0.00     0.049 A 
ATOM     43  N   UNL     1     -15.715  -6.877  -0.040  1.00  0.00    -0.248 NA
ATOM     44  C   UNL     1     -15.059  -5.266   1.517  1.00  0.00     0.031 C 
ATOM     45  C   UNL     1     -14.406  -4.148  -3.337  1.00  0.00     0.029 A 
ATOM     46  N   UNL     1     -15.382  -6.102  -2.855  1.00  0.00    -0.354 N 
ATOM     47  C   UNL     1     -15.926  -7.365   1.243  1.00  0.00     0.074 A 
ATOM     48  C   UNL     1     -15.444  -6.357   2.162  1.00  0.00     0.031 C 
ATOM     49  C   UNL     1     -14.682  -4.759  -4.500  1.00  0.00     0.029 A 
ATOM     50  C   UNL     1     -15.290  -6.058  -4.225  1.00  0.00     0.049 A 
ATOM     51  H   UNL     1     -15.787  -6.854  -2.366  1.00  0.00     0.167 HD
ATOM     52  C   UNL     1     -16.487  -8.539   1.620  1.00  0.00     0.037 A 
ATOM     53  C   UNL     1     -15.642  -6.969  -5.152  1.00  0.00     0.037 A 
ATOM     54  C   UNL     1     -16.987  -9.528   0.700  1.00  0.00     0.049 A 
ATOM     55  C   UNL     1     -16.260  -8.268  -4.711  1.00  0.00     0.074 A 
ATOM     56  C   UNL     1     -17.624 -10.724   0.980  1.00  0.00     0.029 A 
ATOM     57  N   UNL     1     -16.903  -9.433  -0.682  1.00  0.00    -0.354 N 
ATOM     58  N   UNL     1     -16.506  -8.698  -3.497  1.00  0.00    -0.248 NA
ATOM     59  C   UNL     1     -16.655  -9.207  -5.770  1.00  0.00     0.031 C 
ATOM     60  C   UNL     1     -17.884 -11.374  -0.231  1.00  0.00     0.029 A 
ATOM     61  C   UNL     1     -17.459 -10.559  -1.268  1.00  0.00     0.049 A 
ATOM     62  H   UNL     1     -16.507  -8.678  -1.173  1.00  0.00     0.167 HD
ATOM     63  C   UNL     1     -17.111  -9.938  -3.645  1.00  0.00     0.074 A 
ATOM     64  C   UNL     1     -17.203 -10.190  -5.069  1.00  0.00     0.031 C 
ATOM     65  C   UNL     1     -17.555 -10.789  -2.688  1.00  0.00     0.037 A 
BRANCH  52  66
ATOM     66  C   UNL     1     -16.580  -8.819   3.093  1.00  0.00     0.064 A 
ATOM     67  C   UNL     1     -17.436  -8.086   3.931  1.00  0.00     0.173 A 
ATOM     68  C   UNL     1     -15.814  -9.840   3.674  1.00  0.00     0.173 A 
ATOM     69  F   UNL     1     -18.184  -7.092   3.429  1.00  0.00    -0.203 F 
ATOM     70  C   UNL     1     -17.489  -8.338   5.300  1.00  0.00     0.198 A 
ATOM     71  C   UNL     1     -15.895 -10.112   5.038  1.00  0.00     0.198 A 
ATOM     72  F   UNL     1     -14.986 -10.578   2.920  1.00  0.00    -0.203 F 
ATOM     73  F   UNL     1     -18.267  -7.583   6.088  1.00  0.00    -0.200 F 
ATOM     74  C   UNL     1     -16.723  -9.353   5.851  1.00  0.00     0.200 A 
ATOM     75  F   UNL     1     -15.165 -11.104   5.567  1.00  0.00    -0.200 F 
ATOM     76  F   UNL     1     -16.775  -9.594   7.168  1.00  0.00    -0.200 F 
ENDBRANCH  52  66
BRANCH  53  77
ATOM     77  C   UNL     1     -15.437  -6.668  -6.593  1.00  0.00     0.064 A 
ATOM     78  C   UNL     1     -16.527  -6.417  -7.436  1.00  0.00     0.173 A 
ATOM     79  C   UNL     1     -14.151  -6.609  -7.151  1.00  0.00     0.173 A 
ATOM     80  F   UNL     1     -17.776  -6.482  -6.952  1.00  0.00    -0.203 F 
ATOM     81  C   UNL     1     -16.341  -6.130  -8.787  1.00  0.00     0.198 A 
ATOM     82  C   UNL     1     -13.966  -6.295  -8.496  1.00  0.00     0.198 A 
ATOM     83  F   UNL     1     -13.074  -6.836  -6.385  1.00  0.00    -0.203 F 
ATOM     84  F   UNL     1     -17.404  -5.929  -9.579  1.00  0.00    -0.200 F 
ATOM     85  C   UNL     1     -15.061  -6.062  -9.314  1.00  0.00     0.200 A 
ATOM     86  F   UNL     1     -12.726  -6.216  -8.998  1.00  0.00    -0.200 F 
ATOM     87  F   UNL     1     -14.882  -5.777 -10.611  1.00  0.00    -0.200 F 
ENDBRANCH  53  77
BRANCH  65  88
ATOM     88  C   UNL     1     -18.222 -12.055  -3.142  1.00  0.00     0.064 A 
ATOM     89  C   UNL     1     -17.495 -13.112  -3.708  1.00  0.00     0.173 A 
ATOM     90  C   UNL     1     -19.603 -12.229  -2.960  1.00  0.00     0.173 A 
ATOM     91  F   UNL     1     -16.176 -12.989  -3.917  1.00  0.00    -0.203 F 
ATOM     92  C   UNL     1     -18.130 -14.291  -4.092  1.00  0.00     0.198 A 
ATOM     93  C   UNL     1     -20.229 -13.420  -3.318  1.00  0.00     0.198 A 
ATOM     94  F   UNL     1     -20.343 -11.250  -2.417  1.00  0.00    -0.203 F 
ATOM     95  F   UNL     1     -17.423 -15.273  -4.669  1.00  0.00    -0.200 F 
ATOM     96  C   UNL     1     -19.493 -14.447  -3.889  1.00  0.00     0.200 A 
ATOM     97  F   UNL     1     -21.543 -13.574  -3.107  1.00  0.00    -0.200 F 
ATOM     98  F   UNL     1     -20.100 -15.587  -4.249  1.00  0.00    -0.200 F 
ENDBRANCH  65  88
ENDBRANCH  39  40
ENDBRANCH  31  34
ENDBRANCH  29  30
ENDBRANCH  28  29
ENDBRANCH  27  28
ENDBRANCH   1  27
TORSDOF 16
