REMARK SMILES COc1ccc2c(c1)c(CC(=O)NCCCCCCNC(=O)c1ccc(-c3c4nc(c(-c5c(F)c(F)c(F)c(F)c5F)c5ccc([nH]5)c(-c5c(F)c(F)c(F)c(F)c5F)c5nc(c(-c6c(F)c(F)c(F)c(F)c6F)c6ccc3[nH]6)C=C5)C=C4)cc1)c(C)n2C(=O)c1ccc(Cl)cc1
REMARK SMILES IDX 16 1 15 2 14 3 13 4 11 5 12 6 10 8 9 9 3 10 4 11 8 12 5 13
REMARK SMILES IDX 7 14 6 15 88 16 86 17 87 18 2 19 1 20 89 21 90 22 91 23
REMARK SMILES IDX 92 24 97 25 93 26 96 27 94 28 95 29 17 30 18 31 19 32 20 33
REMARK SMILES IDX 21 34 22 36 23 37 24 38 85 39 25 40 84 41 26 42 27 43 28 44
REMARK SMILES IDX 78 45 29 46 83 47 77 48 79 49 30 50 82 51 76 52 75 53 31 55
REMARK SMILES IDX 63 56 43 57 62 58 44 59 47 60 61 61 80 62 45 63 46 64 60 66
REMARK SMILES IDX 81 67 48 68 32 69 33 70 41 71 34 72 35 73 39 74 42 75 36 76
REMARK SMILES IDX 37 77 40 78 38 79 64 80 65 81 73 82 66 83 67 84 71 85 74 86
REMARK SMILES IDX 68 87 69 88 72 89 70 90 49 91 50 92 58 93 51 94 52 95 56 96
REMARK SMILES IDX 59 97 53 98 54 99 57 100 55 101
REMARK H PARENT 13 7 20 35 79 54 47 65
REMARK Flexibility Score: inf
ROOT
ATOM      1  C   UNL     1       0.652   3.940   7.211  1.00  0.00     0.002 C 
ENDROOT
BRANCH   1   2
ATOM      2  C   UNL     1       0.592   2.410   7.254  1.00  0.00     0.021 C 
BRANCH   2   3
ATOM      3  C   UNL     1      -0.772   1.870   7.679  1.00  0.00     0.116 C 
BRANCH   3   4
ATOM      4  N   UNL     1      -1.742   1.982   6.611  1.00  0.00    -0.356 N 
ATOM      5  C   UNL     1      -2.277   0.989   5.842  1.00  0.00     0.224 C 
ATOM      6  O   UNL     1      -3.071   1.302   4.952  1.00  0.00    -0.275 OA
ATOM      7  H   UNL     1      -2.058   2.893   6.413  1.00  0.00     0.163 HD
BRANCH   5   8
ATOM      8  C   UNL     1      -1.944  -0.467   6.133  1.00  0.00     0.138 C 
BRANCH   8   9
ATOM      9  C   UNL     1      -0.503  -0.826   5.892  1.00  0.00    -0.009 A 
ATOM     10  C   UNL     1       0.741  -0.124   2.349  1.00  0.00     0.119 A 
ATOM     11  C   UNL     1       1.990  -0.701   2.514  1.00  0.00     0.048 A 
ATOM     12  C   UNL     1      -0.153  -0.101   3.420  1.00  0.00     0.057 A 
ATOM     13  C   UNL     1       2.366  -1.253   3.744  1.00  0.00     0.031 A 
ATOM     14  C   UNL     1       0.207  -0.645   4.674  1.00  0.00     0.008 A 
ATOM     15  C   UNL     1       1.489  -1.177   4.846  1.00  0.00     0.057 A 
ATOM     16  N   UNL     1       1.637  -1.509   6.204  1.00  0.00    -0.280 N 
ATOM     17  C   UNL     1       0.360  -1.453   6.784  1.00  0.00     0.028 A 
ATOM     18  C   UNL     1       0.023  -1.959   8.154  1.00  0.00     0.065 C 
BRANCH  10  19
ATOM     19  O   UNL     1       0.293   0.466   1.199  1.00  0.00    -0.497 OA
ATOM     20  C   UNL     1       0.853  -0.034  -0.009  1.00  0.00     0.278 C 
ENDBRANCH  10  19
BRANCH  16  21
ATOM     21  C   UNL     1       2.856  -1.821   6.880  1.00  0.00     0.262 C 
ATOM     22  O   UNL     1       2.841  -2.018   8.087  1.00  0.00    -0.268 OA
BRANCH  21  23
ATOM     23  C   UNL     1       4.179  -1.908   6.236  1.00  0.00     0.040 A 
ATOM     24  C   UNL     1       4.814  -0.760   5.747  1.00  0.00     0.015 A 
ATOM     25  C   UNL     1       4.769  -3.169   6.097  1.00  0.00     0.015 A 
ATOM     26  C   UNL     1       6.005  -0.894   5.029  1.00  0.00     0.021 A 
ATOM     27  C   UNL     1       5.965  -3.293   5.389  1.00  0.00     0.021 A 
ATOM     28  C   UNL     1       6.566  -2.159   4.840  1.00  0.00     0.041 A 
ATOM     29  Cl  UNL     1       7.996  -2.326   3.900  1.00  0.00    -0.084 Cl
ENDBRANCH  21  23
ENDBRANCH  16  21
ENDBRANCH   8   9
ENDBRANCH   5   8
ENDBRANCH   3   4
ENDBRANCH   2   3
ENDBRANCH   1   2
BRANCH   1  30
ATOM     30  C   UNL     1       0.400   4.632   8.557  1.00  0.00     0.002 C 
BRANCH  30  31
ATOM     31  C   UNL     1       1.337   4.206   9.696  1.00  0.00     0.021 C 
BRANCH  31  32
ATOM     32  C   UNL     1       2.822   4.381   9.379  1.00  0.00     0.116 C 
BRANCH  32  33
ATOM     33  N   UNL     1       3.169   5.731   8.989  1.00  0.00    -0.352 N 
ATOM     34  C   UNL     1       3.494   6.879   9.650  1.00  0.00     0.251 C 
ATOM     35  H   UNL     1       3.171   5.849   8.011  1.00  0.00     0.163 HD
ATOM     36  O   UNL     1       3.802   7.842   8.942  1.00  0.00    -0.269 OA
BRANCH  34  37
ATOM     37  C   UNL     1       3.435   7.071  11.124  1.00  0.00     0.039 A 
ATOM     38  C   UNL     1       3.179   6.080  12.072  1.00  0.00     0.014 A 
ATOM     39  C   UNL     1       3.601   8.398  11.566  1.00  0.00     0.014 A 
ATOM     40  C   UNL     1       2.974   6.422  13.406  1.00  0.00     0.010 A 
ATOM     41  C   UNL     1       3.419   8.742  12.897  1.00  0.00     0.010 A 
ATOM     42  C   UNL     1       3.045   7.759  13.804  1.00  0.00    -0.014 A 
BRANCH  42  43
ATOM     43  C   UNL     1       2.815   8.078  15.210  1.00  0.00     0.031 A 
ATOM     44  C   UNL     1       3.801   7.469  16.149  1.00  0.00     0.074 A 
ATOM     45  C   UNL     1       1.860   8.941  15.614  1.00  0.00     0.049 A 
ATOM     46  N   UNL     1       3.578   6.657  17.132  1.00  0.00    -0.248 NA
ATOM     47  C   UNL     1       5.231   7.711  15.890  1.00  0.00     0.031 C 
ATOM     48  C   UNL     1       1.007   9.799  14.785  1.00  0.00     0.029 A 
ATOM     49  N   UNL     1       1.505   9.302  16.880  1.00  0.00    -0.354 N 
ATOM     50  C   UNL     1       4.819   6.406  17.716  1.00  0.00     0.074 A 
ATOM     51  C   UNL     1       5.809   6.976  16.840  1.00  0.00     0.031 C 
ATOM     52  C   UNL     1       0.409  10.729  15.565  1.00  0.00     0.029 A 
ATOM     53  C   UNL     1       0.720  10.448  16.954  1.00  0.00     0.049 A 
ATOM     54  H   UNL     1       1.782   8.793  17.676  1.00  0.00     0.167 HD
ATOM     55  C   UNL     1       4.930   5.921  18.983  1.00  0.00     0.037 A 
ATOM     56  C   UNL     1       0.403  11.138  18.079  1.00  0.00     0.037 A 
ATOM     57  C   UNL     1       3.707   5.315  19.427  1.00  0.00     0.049 A 
ATOM     58  C   UNL     1       0.619  10.228  19.229  1.00  0.00     0.074 A 
ATOM     59  C   UNL     1       2.980   4.203  19.056  1.00  0.00     0.029 A 
ATOM     60  N   UNL     1       2.865   6.078  20.193  1.00  0.00    -0.354 N 
ATOM     61  N   UNL     1      -0.105   9.173  19.470  1.00  0.00    -0.248 NA
ATOM     62  C   UNL     1       1.921  10.260  19.876  1.00  0.00     0.031 C 
ATOM     63  C   UNL     1       1.615   4.580  19.225  1.00  0.00     0.029 A 
ATOM     64  C   UNL     1       1.589   5.876  19.740  1.00  0.00     0.049 A 
ATOM     65  H   UNL     1       3.131   6.667  20.936  1.00  0.00     0.167 HD
ATOM     66  C   UNL     1       0.798   8.229  19.933  1.00  0.00     0.074 A 
ATOM     67  C   UNL     1       2.008   8.982  20.252  1.00  0.00     0.031 C 
ATOM     68  C   UNL     1       0.569   6.898  19.744  1.00  0.00     0.037 A 
BRANCH  55  69
ATOM     69  C   UNL     1       6.028   6.307  19.941  1.00  0.00     0.064 A 
ATOM     70  C   UNL     1       6.176   5.609  21.156  1.00  0.00     0.173 A 
ATOM     71  C   UNL     1       6.742   7.521  19.844  1.00  0.00     0.173 A 
ATOM     72  F   UNL     1       5.513   4.463  21.370  1.00  0.00    -0.203 F 
ATOM     73  C   UNL     1       6.939   6.119  22.211  1.00  0.00     0.198 A 
ATOM     74  C   UNL     1       7.543   8.001  20.878  1.00  0.00     0.198 A 
ATOM     75  F   UNL     1       6.600   8.343  18.797  1.00  0.00    -0.203 F 
ATOM     76  F   UNL     1       6.960   5.479  23.388  1.00  0.00    -0.200 F 
ATOM     77  C   UNL     1       7.620   7.314  22.072  1.00  0.00     0.200 A 
ATOM     78  F   UNL     1       8.172   9.175  20.733  1.00  0.00    -0.200 F 
ATOM     79  F   UNL     1       8.308   7.832  23.098  1.00  0.00    -0.200 F 
ENDBRANCH  55  69
BRANCH  56  80
ATOM     80  C   UNL     1       0.271  12.606  18.270  1.00  0.00     0.064 A 
ATOM     81  C   UNL     1      -0.302  13.131  19.442  1.00  0.00     0.173 A 
ATOM     82  C   UNL     1       0.985  13.513  17.464  1.00  0.00     0.173 A 
ATOM     83  F   UNL     1      -0.964  12.328  20.287  1.00  0.00    -0.203 F 
ATOM     84  C   UNL     1      -0.132  14.471  19.807  1.00  0.00     0.198 A 
ATOM     85  C   UNL     1       1.149  14.852  17.827  1.00  0.00     0.198 A 
ATOM     86  F   UNL     1       1.627  13.097  16.363  1.00  0.00    -0.203 F 
ATOM     87  F   UNL     1      -0.628  14.916  20.971  1.00  0.00    -0.200 F 
ATOM     88  C   UNL     1       0.606  15.326  19.007  1.00  0.00     0.200 A 
ATOM     89  F   UNL     1       1.897  15.660  17.063  1.00  0.00    -0.200 F 
ATOM     90  F   UNL     1       0.833  16.590  19.392  1.00  0.00    -0.200 F 
ENDBRANCH  56  80
BRANCH  68  91
ATOM     91  C   UNL     1      -0.801   6.487  19.282  1.00  0.00     0.064 A 
ATOM     92  C   UNL     1      -1.343   6.821  18.029  1.00  0.00     0.173 A 
ATOM     93  C   UNL     1      -1.526   5.595  20.081  1.00  0.00     0.173 A 
ATOM     94  F   UNL     1      -0.670   7.595  17.169  1.00  0.00    -0.203 F 
ATOM     95  C   UNL     1      -2.571   6.307  17.613  1.00  0.00     0.198 A 
ATOM     96  C   UNL     1      -2.733   5.054  19.648  1.00  0.00     0.198 A 
ATOM     97  F   UNL     1      -1.032   5.201  21.266  1.00  0.00    -0.203 F 
ATOM     98  F   UNL     1      -3.070   6.642  16.413  1.00  0.00    -0.200 F 
ATOM     99  C   UNL     1      -3.259   5.415  18.419  1.00  0.00     0.200 A 
ATOM    100  F   UNL     1      -3.370   4.154  20.410  1.00  0.00    -0.200 F 
ATOM    101  F   UNL     1      -4.414   4.880  17.998  1.00  0.00    -0.200 F 
ENDBRANCH  68  91
ENDBRANCH  42  43
ENDBRANCH  34  37
ENDBRANCH  32  33
ENDBRANCH  31  32
ENDBRANCH  30  31
ENDBRANCH   1  30
TORSDOF 17
