REMARK SMILES CC1(C)[C@H](C(=O)NCCCCCCNC(=O)c2ccc(-c3c4nc(c(-c5c(F)c(F)c(F)c(F)c5F)c5ccc([nH]5)c(-c5c(F)c(F)c(F)c(F)c5F)c5nc(c(-c6c(F)c(F)c(F)c(F)c6F)c6ccc3[nH]6)C=C5)C=C4)cc2)[C@H]1C(=O)Nc1ccccc1C(=O)Nc1nccs1
REMARK SMILES IDX 9 1 8 2 7 3 5 4 6 5 4 7 1 8 2 9 3 10 80 11 81 12 82 13 83 14
REMARK SMILES IDX 84 16 85 17 89 18 86 19 88 20 87 21 90 22 91 23 92 24 93 26
REMARK SMILES IDX 94 27 97 28 95 29 96 30 10 31 11 32 12 33 13 34 14 35 15 36
REMARK SMILES IDX 16 38 17 39 18 40 79 41 19 42 78 43 20 44 21 45 22 46 72 47
REMARK SMILES IDX 23 48 77 49 71 50 73 51 24 52 76 53 70 54 69 55 25 57 57 58
REMARK SMILES IDX 37 59 56 60 38 61 41 62 55 63 74 64 39 65 40 66 54 68 75 69
REMARK SMILES IDX 42 70 26 71 27 72 35 73 28 74 29 75 33 76 36 77 30 78 31 79
REMARK SMILES IDX 34 80 32 81 58 82 59 83 67 84 60 85 61 86 65 87 68 88 62 89
REMARK SMILES IDX 63 90 66 91 64 92 43 93 44 94 52 95 45 96 46 97 50 98 53 99
REMARK SMILES IDX 47 100 48 101 51 102 49 103
REMARK H PARENT 7 6 83 15 92 25 14 37 73 56 41 67
REMARK Flexibility Score: inf
ROOT
ATOM      1  C   UNL     1      -0.408   4.120  -0.980  1.00  0.00     0.021 C 
ENDROOT
BRANCH   1   2
ATOM      2  C   UNL     1      -1.507   3.234  -0.400  1.00  0.00     0.116 C 
BRANCH   2   3
ATOM      3  N   UNL     1      -2.084   2.453  -1.452  1.00  0.00    -0.356 N 
ATOM      4  C   UNL     1      -1.713   1.252  -1.962  1.00  0.00     0.224 C 
ATOM      5  O   UNL     1      -2.133   0.967  -3.077  1.00  0.00    -0.275 OA
ATOM      6  H   UNL     1      -2.879   2.853  -1.874  1.00  0.00     0.163 HD
BRANCH   4   7
ATOM      7  C   UNL     1      -0.938   0.230  -1.246  1.00  0.00     0.098 C 
ATOM      8  C   UNL     1       1.301  -0.826  -1.381  1.00  0.00     0.013 C 
ATOM      9  C   UNL     1       0.422   0.161  -0.642  1.00  0.00    -0.011 C 
ATOM     10  C   UNL     1       1.286   1.319  -0.162  1.00  0.00     0.013 C 
ATOM     11  C   UNL     1      -0.838  -0.023   0.245  1.00  0.00     0.098 C 
BRANCH  11  12
ATOM     12  C   UNL     1      -1.981  -0.883   0.625  1.00  0.00     0.228 C 
ATOM     13  O   UNL     1      -3.001  -0.310   1.013  1.00  0.00    -0.274 OA
ATOM     14  N   UNL     1      -2.032  -2.232   0.508  1.00  0.00    -0.325 N 
ATOM     15  H   UNL     1      -2.916  -2.616   0.707  1.00  0.00     0.169 HD
BRANCH  14  16
ATOM     16  C   UNL     1      -1.073  -3.179   0.160  1.00  0.00     0.054 A 
ATOM     17  C   UNL     1      -1.575  -4.139  -0.740  1.00  0.00     0.027 A 
ATOM     18  C   UNL     1       0.271  -3.215   0.554  1.00  0.00     0.063 A 
ATOM     19  C   UNL     1      -0.719  -4.982  -1.433  1.00  0.00     0.002 A 
ATOM     20  C   UNL     1       1.124  -4.071  -0.176  1.00  0.00     0.016 A 
ATOM     21  C   UNL     1       0.643  -4.911  -1.187  1.00  0.00     0.001 A 
BRANCH  18  22
ATOM     22  C   UNL     1       0.943  -2.392   1.620  1.00  0.00     0.259 C 
ATOM     23  O   UNL     1       2.150  -2.150   1.506  1.00  0.00    -0.269 OA
ATOM     24  N   UNL     1       0.310  -1.813   2.686  1.00  0.00    -0.298 N 
ATOM     25  H   UNL     1       0.748  -1.017   3.066  1.00  0.00     0.172 HD
BRANCH  24  26
ATOM     26  C   UNL     1      -0.847  -2.198   3.284  1.00  0.00     0.189 A 
ATOM     27  N   UNL     1      -1.519  -3.312   3.155  1.00  0.00    -0.229 NA
ATOM     28  S   UNL     1      -1.510  -1.011   4.319  1.00  0.00    -0.105 S 
ATOM     29  C   UNL     1      -2.710  -3.191   3.846  1.00  0.00     0.125 A 
ATOM     30  C   UNL     1      -2.914  -1.983   4.480  1.00  0.00     0.088 A 
ENDBRANCH  24  26
ENDBRANCH  18  22
ENDBRANCH  14  16
ENDBRANCH  11  12
ENDBRANCH   4   7
ENDBRANCH   2   3
ENDBRANCH   1   2
BRANCH   1  31
ATOM     31  C   UNL     1      -0.961   5.297  -1.787  1.00  0.00     0.002 C 
BRANCH  31  32
ATOM     32  C   UNL     1      -1.912   6.198  -0.997  1.00  0.00     0.002 C 
BRANCH  32  33
ATOM     33  C   UNL     1      -1.341   6.689   0.336  1.00  0.00     0.021 C 
BRANCH  33  34
ATOM     34  C   UNL     1      -0.031   7.453   0.194  1.00  0.00     0.116 C 
BRANCH  34  35
ATOM     35  N   UNL     1      -0.195   8.629  -0.645  1.00  0.00    -0.352 N 
ATOM     36  C   UNL     1      -0.004   9.947  -0.330  1.00  0.00     0.251 C 
ATOM     37  H   UNL     1      -0.486   8.452  -1.569  1.00  0.00     0.163 HD
ATOM     38  O   UNL     1      -0.451  10.830  -1.053  1.00  0.00    -0.269 OA
BRANCH  36  39
ATOM     39  C   UNL     1       0.747  10.297   0.890  1.00  0.00     0.039 A 
ATOM     40  C   UNL     1       0.279  11.335   1.697  1.00  0.00     0.014 A 
ATOM     41  C   UNL     1       1.920   9.612   1.224  1.00  0.00     0.014 A 
ATOM     42  C   UNL     1       0.970  11.661   2.864  1.00  0.00     0.010 A 
ATOM     43  C   UNL     1       2.558   9.882   2.429  1.00  0.00     0.010 A 
ATOM     44  C   UNL     1       2.099  10.920   3.252  1.00  0.00    -0.014 A 
BRANCH  44  45
ATOM     45  C   UNL     1       2.820  11.232   4.509  1.00  0.00     0.031 A 
ATOM     46  C   UNL     1       4.247  11.706   4.463  1.00  0.00     0.074 A 
ATOM     47  C   UNL     1       2.204  11.044   5.691  1.00  0.00     0.049 A 
ATOM     48  N   UNL     1       5.056  11.991   5.452  1.00  0.00    -0.248 NA
ATOM     49  C   UNL     1       4.854  11.853   3.131  1.00  0.00     0.031 C 
ATOM     50  C   UNL     1       0.839  10.543   5.862  1.00  0.00     0.029 A 
ATOM     51  N   UNL     1       2.646  11.247   6.974  1.00  0.00    -0.354 N 
ATOM     52  C   UNL     1       6.264  12.339   4.862  1.00  0.00     0.074 A 
ATOM     53  C   UNL     1       6.104  12.170   3.435  1.00  0.00     0.031 C 
ATOM     54  C   UNL     1       0.545  10.505   7.171  1.00  0.00     0.029 A 
ATOM     55  C   UNL     1       1.713  10.937   7.933  1.00  0.00     0.049 A 
ATOM     56  H   UNL     1       3.546  11.583   7.187  1.00  0.00     0.167 HD
ATOM     57  C   UNL     1       7.397  12.784   5.457  1.00  0.00     0.037 A 
ATOM     58  C   UNL     1       1.795  10.989   9.276  1.00  0.00     0.037 A 
ATOM     59  C   UNL     1       7.543  12.966   6.878  1.00  0.00     0.049 A 
ATOM     60  C   UNL     1       3.070  11.476   9.910  1.00  0.00     0.074 A 
ATOM     61  C   UNL     1       8.629  13.463   7.576  1.00  0.00     0.029 A 
ATOM     62  N   UNL     1       6.572  12.652   7.818  1.00  0.00    -0.354 N 
ATOM     63  N   UNL     1       4.182  11.873   9.340  1.00  0.00    -0.248 NA
ATOM     64  C   UNL     1       3.097  11.533  11.378  1.00  0.00     0.031 C 
ATOM     65  C   UNL     1       8.338  13.394   8.942  1.00  0.00     0.029 A 
ATOM     66  C   UNL     1       7.045  12.920   9.093  1.00  0.00     0.049 A 
ATOM     67  H   UNL     1       5.679  12.293   7.611  1.00  0.00     0.167 HD
ATOM     68  C   UNL     1       5.026  12.257  10.373  1.00  0.00     0.074 A 
ATOM     69  C   UNL     1       4.290  12.063  11.605  1.00  0.00     0.031 C 
ATOM     70  C   UNL     1       6.295  12.729  10.309  1.00  0.00     0.037 A 
BRANCH  57  71
ATOM     71  C   UNL     1       8.569  13.104   4.574  1.00  0.00     0.064 A 
ATOM     72  C   UNL     1       8.553  14.194   3.690  1.00  0.00     0.173 A 
ATOM     73  C   UNL     1       9.742  12.335   4.642  1.00  0.00     0.173 A 
ATOM     74  F   UNL     1       7.454  14.955   3.576  1.00  0.00    -0.203 F 
ATOM     75  C   UNL     1       9.654  14.484   2.887  1.00  0.00     0.198 A 
ATOM     76  C   UNL     1      10.853  12.650   3.864  1.00  0.00     0.198 A 
ATOM     77  F   UNL     1       9.815  11.285   5.473  1.00  0.00    -0.203 F 
ATOM     78  F   UNL     1       9.595  15.499   2.014  1.00  0.00    -0.200 F 
ATOM     79  C   UNL     1      10.806  13.718   2.982  1.00  0.00     0.200 A 
ATOM     80  F   UNL     1      11.971  11.918   3.969  1.00  0.00    -0.200 F 
ATOM     81  F   UNL     1      11.868  14.006   2.218  1.00  0.00    -0.200 F 
ENDBRANCH  57  71
BRANCH  58  82
ATOM     82  C   UNL     1       0.631  10.589  10.110  1.00  0.00     0.064 A 
ATOM     83  C   UNL     1      -0.064  11.531  10.881  1.00  0.00     0.173 A 
ATOM     84  C   UNL     1       0.199   9.256  10.167  1.00  0.00     0.173 A 
ATOM     85  F   UNL     1       0.321  12.816  10.875  1.00  0.00    -0.203 F 
ATOM     86  C   UNL     1      -1.125  11.152  11.700  1.00  0.00     0.198 A 
ATOM     87  C   UNL     1      -0.885   8.883  10.960  1.00  0.00     0.198 A 
ATOM     88  F   UNL     1       0.823   8.315   9.443  1.00  0.00    -0.203 F 
ATOM     89  F   UNL     1      -1.733  12.064  12.471  1.00  0.00    -0.200 F 
ATOM     90  C   UNL     1      -1.538   9.828  11.735  1.00  0.00     0.200 A 
ATOM     91  F   UNL     1      -1.291   7.606  10.976  1.00  0.00    -0.200 F 
ATOM     92  F   UNL     1      -2.559   9.463  12.522  1.00  0.00    -0.200 F 
ENDBRANCH  58  82
BRANCH  70  93
ATOM     93  C   UNL     1       6.953  13.114  11.605  1.00  0.00     0.064 A 
ATOM     94  C   UNL     1       7.327  12.157  12.560  1.00  0.00     0.173 A 
ATOM     95  C   UNL     1       7.237  14.461  11.880  1.00  0.00     0.173 A 
ATOM     96  F   UNL     1       7.066  10.858  12.352  1.00  0.00    -0.203 F 
ATOM     97  C   UNL     1       7.927  12.538  13.757  1.00  0.00     0.198 A 
ATOM     98  C   UNL     1       7.872  14.834  13.061  1.00  0.00     0.198 A 
ATOM     99  F   UNL     1       6.910  15.416  10.997  1.00  0.00    -0.203 F 
ATOM    100  F   UNL     1       8.220  11.612  14.681  1.00  0.00    -0.200 F 
ATOM    101  C   UNL     1       8.206  13.874  14.003  1.00  0.00     0.200 A 
ATOM    102  F   UNL     1       8.157  16.124  13.288  1.00  0.00    -0.200 F 
ATOM    103  F   UNL     1       8.789  14.237  15.154  1.00  0.00    -0.200 F 
ENDBRANCH  70  93
ENDBRANCH  44  45
ENDBRANCH  36  39
ENDBRANCH  34  35
ENDBRANCH  33  34
ENDBRANCH  32  33
ENDBRANCH  31  32
ENDBRANCH   1  31
TORSDOF 17
