REMARK SMILES O=C(NCCCCCCNC(=O)c1ccccc1[C@@H]1SCC(=O)N1NC(=S)Nc1ccccc1)c1ccc(-c2c3nc(c(-c4c(F)c(F)c(F)c(F)c4F)c4ccc([nH]4)c(-c4c(F)c(F)c(F)c(F)c4F)c4nc(c(-c5c(F)c(F)c(F)c(F)c5F)c5ccc2[nH]5)C=C4)C=C3)cc1
REMARK SMILES IDX 8 1 7 2 6 3 5 4 4 5 3 6 1 7 2 8 35 10 36 11 97 12 37 13
REMARK SMILES IDX 96 14 38 15 39 16 40 17 90 18 41 19 95 20 89 21 91 22 42 23
REMARK SMILES IDX 94 24 88 25 87 26 43 28 75 29 55 30 74 31 56 32 59 33 73 34
REMARK SMILES IDX 92 35 57 36 58 37 72 39 93 40 60 41 44 42 45 43 53 44 46 45
REMARK SMILES IDX 47 46 51 47 54 48 48 49 49 50 52 51 50 52 76 53 77 54 85 55
REMARK SMILES IDX 78 56 79 57 83 58 86 59 80 60 81 61 84 62 82 63 61 64 62 65
REMARK SMILES IDX 70 66 63 67 64 68 68 69 71 70 65 71 66 72 69 73 67 74 9 75
REMARK SMILES IDX 10 76 11 77 12 79 13 80 14 81 18 82 15 83 17 84 16 85 19 86
REMARK SMILES IDX 20 87 24 88 21 89 22 90 23 91 25 92 26 94 27 95 28 96 29 98
REMARK SMILES IDX 30 99 34 100 31 101 33 102 32 103
REMARK H PARENT 3 9 91 27 59 38 10 78 25 93 28 97
REMARK Flexibility Score: inf
ROOT
ATOM      1  C   UNL     1       5.923   2.956   4.082  1.00  0.00     0.021 C 
ENDROOT
BRANCH   1   2
ATOM      2  C   UNL     1       4.391   3.138   4.069  1.00  0.00     0.002 C 
BRANCH   2   3
ATOM      3  C   UNL     1       3.533   2.903   2.803  1.00  0.00     0.002 C 
BRANCH   3   4
ATOM      4  C   UNL     1       4.019   1.938   1.719  1.00  0.00     0.021 C 
BRANCH   4   5
ATOM      5  C   UNL     1       3.735   0.450   1.906  1.00  0.00     0.116 C 
BRANCH   5   6
ATOM      6  N   UNL     1       2.437   0.043   1.382  1.00  0.00    -0.352 N 
ATOM      7  O   UNL     1       0.855  -0.745   0.018  1.00  0.00    -0.269 OA
ATOM      8  C   UNL     1       2.057  -0.696   0.283  1.00  0.00     0.251 C 
ATOM      9  H   UNL     1       1.678   0.361   1.923  1.00  0.00     0.163 HD
BRANCH   8  10
ATOM     10  C   UNL     1       3.001  -1.459  -0.588  1.00  0.00     0.039 A 
ATOM     11  C   UNL     1       4.172  -2.049  -0.113  1.00  0.00     0.014 A 
ATOM     12  C   UNL     1       2.605  -1.741  -1.909  1.00  0.00     0.014 A 
ATOM     13  C   UNL     1       4.960  -2.853  -0.945  1.00  0.00     0.010 A 
ATOM     14  C   UNL     1       3.346  -2.618  -2.720  1.00  0.00     0.010 A 
ATOM     15  C   UNL     1       4.521  -3.201  -2.234  1.00  0.00    -0.014 A 
BRANCH  15  16
ATOM     16  C   UNL     1       5.173  -4.343  -2.933  1.00  0.00     0.031 A 
ATOM     17  C   UNL     1       5.957  -4.176  -4.201  1.00  0.00     0.074 A 
ATOM     18  C   UNL     1       5.031  -5.570  -2.389  1.00  0.00     0.049 A 
ATOM     19  N   UNL     1       6.591  -5.087  -4.900  1.00  0.00    -0.248 NA
ATOM     20  C   UNL     1       6.035  -2.824  -4.769  1.00  0.00     0.031 C 
ATOM     21  C   UNL     1       4.247  -5.865  -1.185  1.00  0.00     0.029 A 
ATOM     22  N   UNL     1       5.540  -6.791  -2.754  1.00  0.00    -0.354 N 
ATOM     23  C   UNL     1       7.129  -4.426  -5.995  1.00  0.00     0.074 A 
ATOM     24  C   UNL     1       6.740  -3.035  -5.875  1.00  0.00     0.031 C 
ATOM     25  C   UNL     1       4.365  -7.166  -0.886  1.00  0.00     0.029 A 
ATOM     26  C   UNL     1       5.181  -7.812  -1.906  1.00  0.00     0.049 A 
ATOM     27  H   UNL     1       6.108  -6.924  -3.548  1.00  0.00     0.167 HD
ATOM     28  C   UNL     1       7.879  -4.938  -7.002  1.00  0.00     0.037 A 
ATOM     29  C   UNL     1       5.459  -9.128  -1.949  1.00  0.00     0.037 A 
ATOM     30  C   UNL     1       8.282  -6.319  -7.102  1.00  0.00     0.049 A 
ATOM     31  C   UNL     1       6.298  -9.659  -3.072  1.00  0.00     0.074 A 
ATOM     32  C   UNL     1       9.110  -6.911  -8.043  1.00  0.00     0.029 A 
ATOM     33  N   UNL     1       7.880  -7.327  -6.238  1.00  0.00    -0.354 N 
ATOM     34  N   UNL     1       6.854  -9.008  -4.063  1.00  0.00    -0.248 NA
ATOM     35  C   UNL     1       6.538 -11.108  -3.093  1.00  0.00     0.031 C 
ATOM     36  C   UNL     1       9.173  -8.283  -7.774  1.00  0.00     0.029 A 
ATOM     37  C   UNL     1       8.414  -8.541  -6.644  1.00  0.00     0.049 A 
ATOM     38  H   UNL     1       7.301  -7.199  -5.452  1.00  0.00     0.167 HD
ATOM     39  C   UNL     1       7.499  -9.963  -4.831  1.00  0.00     0.074 A 
ATOM     40  C   UNL     1       7.299 -11.237  -4.171  1.00  0.00     0.031 C 
ATOM     41  C   UNL     1       8.183  -9.802  -5.989  1.00  0.00     0.037 A 
BRANCH  28  42
ATOM     42  C   UNL     1       8.316  -4.012  -8.098  1.00  0.00     0.064 A 
ATOM     43  C   UNL     1       9.368  -3.104  -7.918  1.00  0.00     0.173 A 
ATOM     44  C   UNL     1       7.738  -4.104  -9.374  1.00  0.00     0.173 A 
ATOM     45  F   UNL     1       9.954  -2.979  -6.718  1.00  0.00    -0.203 F 
ATOM     46  C   UNL     1       9.820  -2.313  -8.973  1.00  0.00     0.198 A 
ATOM     47  C   UNL     1       8.204  -3.325 -10.431  1.00  0.00     0.198 A 
ATOM     48  F   UNL     1       6.737  -4.967  -9.602  1.00  0.00    -0.203 F 
ATOM     49  F   UNL     1      10.818  -1.440  -8.775  1.00  0.00    -0.200 F 
ATOM     50  C   UNL     1       9.244  -2.430 -10.229  1.00  0.00     0.200 A 
ATOM     51  F   UNL     1       7.655  -3.449 -11.647  1.00  0.00    -0.200 F 
ATOM     52  F   UNL     1       9.691  -1.680 -11.246  1.00  0.00    -0.200 F 
ENDBRANCH  28  42
BRANCH  29  53
ATOM     53  C   UNL     1       4.911 -10.031  -0.904  1.00  0.00     0.064 A 
ATOM     54  C   UNL     1       5.748 -10.633   0.045  1.00  0.00     0.173 A 
ATOM     55  C   UNL     1       3.536 -10.298  -0.826  1.00  0.00     0.173 A 
ATOM     56  F   UNL     1       7.072 -10.427  -0.003  1.00  0.00    -0.203 F 
ATOM     57  C   UNL     1       5.230 -11.474   1.028  1.00  0.00     0.198 A 
ATOM     58  C   UNL     1       3.016 -11.115   0.174  1.00  0.00     0.198 A 
ATOM     59  F   UNL     1       2.693  -9.744  -1.710  1.00  0.00    -0.203 F 
ATOM     60  F   UNL     1       6.056 -12.067   1.901  1.00  0.00    -0.200 F 
ATOM     61  C   UNL     1       3.865 -11.708   1.097  1.00  0.00     0.200 A 
ATOM     62  F   UNL     1       1.695 -11.325   0.246  1.00  0.00    -0.200 F 
ATOM     63  F   UNL     1       3.367 -12.509   2.049  1.00  0.00    -0.200 F 
ENDBRANCH  29  53
BRANCH  41  64
ATOM     64  C   UNL     1       8.742 -11.040  -6.619  1.00  0.00     0.064 A 
ATOM     65  C   UNL     1       7.910 -11.948  -7.290  1.00  0.00     0.173 A 
ATOM     66  C   UNL     1      10.116 -11.316  -6.567  1.00  0.00     0.173 A 
ATOM     67  F   UNL     1       6.586 -11.736  -7.346  1.00  0.00    -0.203 F 
ATOM     68  C   UNL     1       8.432 -13.101  -7.870  1.00  0.00     0.198 A 
ATOM     69  C   UNL     1      10.637 -12.458  -7.168  1.00  0.00     0.198 A 
ATOM     70  F   UNL     1      10.951 -10.477  -5.936  1.00  0.00    -0.203 F 
ATOM     71  F   UNL     1       7.613 -13.977  -8.469  1.00  0.00    -0.200 F 
ATOM     72  C   UNL     1       9.795 -13.352  -7.813  1.00  0.00     0.200 A 
ATOM     73  F   UNL     1      11.954 -12.698  -7.117  1.00  0.00    -0.200 F 
ATOM     74  F   UNL     1      10.296 -14.462  -8.372  1.00  0.00    -0.200 F 
ENDBRANCH  41  64
ENDBRANCH  15  16
ENDBRANCH   8  10
ENDBRANCH   5   6
ENDBRANCH   4   5
ENDBRANCH   3   4
ENDBRANCH   2   3
ENDBRANCH   1   2
BRANCH   1  75
ATOM     75  C   UNL     1       6.848   3.995   3.427  1.00  0.00     0.116 C 
BRANCH  75  76
ATOM     76  N   UNL     1       6.770   5.363   3.905  1.00  0.00    -0.352 N 
ATOM     77  C   UNL     1       7.682   6.377   3.655  1.00  0.00     0.251 C 
ATOM     78  H   UNL     1       5.993   5.595   4.463  1.00  0.00     0.163 HD
ATOM     79  O   UNL     1       7.315   7.550   3.644  1.00  0.00    -0.269 OA
BRANCH  77  80
ATOM     80  C   UNL     1       9.137   6.109   3.508  1.00  0.00     0.046 A 
ATOM     81  C   UNL     1       9.779   5.836   4.731  1.00  0.00     0.014 A 
ATOM     82  C   UNL     1       9.908   6.345   2.338  1.00  0.00    -0.001 A 
ATOM     83  C   UNL     1      11.169   5.778   4.814  1.00  0.00     0.001 A 
ATOM     84  C   UNL     1      11.318   6.269   2.458  1.00  0.00     0.007 A 
ATOM     85  C   UNL     1      11.938   5.992   3.678  1.00  0.00     0.000 A 
BRANCH  82  86
ATOM     86  C   UNL     1       9.378   6.686   0.948  1.00  0.00     0.197 C 
ATOM     87  S   UNL     1       8.978   8.428   0.737  1.00  0.00    -0.120 SA
ATOM     88  N   UNL     1       8.210   5.928   0.561  1.00  0.00    -0.236 N 
ATOM     89  C   UNL     1       7.224   8.086   0.457  1.00  0.00     0.174 C 
ATOM     90  C   UNL     1       7.018   6.616   0.758  1.00  0.00     0.252 C 
ATOM     91  O   UNL     1       5.941   6.158   1.135  1.00  0.00    -0.272 OA
BRANCH  88  92
ATOM     92  N   UNL     1       8.436   4.546   0.379  1.00  0.00    -0.270 N 
ATOM     93  H   UNL     1       9.338   4.244   0.631  1.00  0.00     0.191 HD
BRANCH  92  94
ATOM     94  C   UNL     1       7.619   3.563  -0.085  1.00  0.00     0.189 C 
ATOM     95  S   UNL     1       8.252   2.010  -0.115  1.00  0.00    -0.039 S 
BRANCH  94  96
ATOM     96  N   UNL     1       6.291   3.742  -0.186  1.00  0.00    -0.331 N 
ATOM     97  H   UNL     1       5.758   3.254   0.482  1.00  0.00     0.169 HD
BRANCH  96  98
ATOM     98  C   UNL     1       5.539   4.507  -1.083  1.00  0.00     0.040 A 
ATOM     99  C   UNL     1       4.256   4.883  -0.653  1.00  0.00     0.026 A 
ATOM    100  C   UNL     1       6.013   4.935  -2.312  1.00  0.00     0.026 A 
ATOM    101  C   UNL     1       3.478   5.752  -1.401  1.00  0.00     0.002 A 
ATOM    102  C   UNL     1       5.207   5.772  -3.089  1.00  0.00     0.002 A 
ATOM    103  C   UNL     1       3.955   6.195  -2.626  1.00  0.00     0.000 A 
ENDBRANCH  96  98
ENDBRANCH  94  96
ENDBRANCH  92  94
ENDBRANCH  88  92
ENDBRANCH  82  86
ENDBRANCH  77  80
ENDBRANCH  75  76
ENDBRANCH   1  75
TORSDOF 18
