REMARK SMILES Cc1ccc(C(=O)NCCCCCCNC(=O)c2ccc(-c3c4nc(c(-c5c(F)c(F)c(F)c(F)c5F)c5ccc([nH]5)c(-c5c(F)c(F)c(F)c(F)c5F)c5nc(c(-c6c(F)c(F)c(F)c(F)c6F)c6ccc3[nH]6)C=C5)C=C4)cc2)cc1NC(=O)Cc1ccc2ccccc2c1
REMARK SMILES IDX 11 1 10 2 9 3 8 4 6 5 7 6 5 8 1 9 2 10 3 11 82 12 4 13 81 14
REMARK SMILES IDX 83 15 84 16 85 18 86 19 87 20 88 21 96 22 89 23 95 24 90 25
REMARK SMILES IDX 94 26 91 27 93 28 92 29 12 30 13 31 14 32 15 33 16 34 17 36
REMARK SMILES IDX 18 37 19 38 80 39 20 40 79 41 21 42 22 43 23 44 73 45 24 46
REMARK SMILES IDX 78 47 72 48 74 49 25 50 77 51 71 52 70 53 26 55 58 56 38 57
REMARK SMILES IDX 57 58 39 59 42 60 56 61 75 62 40 63 41 64 55 66 76 67 43 68
REMARK SMILES IDX 27 69 28 70 36 71 29 72 30 73 34 74 37 75 31 76 32 77 35 78
REMARK SMILES IDX 33 79 59 80 60 81 68 82 61 83 62 84 66 85 69 86 63 87 64 88
REMARK SMILES IDX 67 89 65 90 44 91 45 92 53 93 46 94 47 95 51 96 54 97 48 98
REMARK SMILES IDX 49 99 52 100 50 101
REMARK H PARENT 8 7 83 17 15 35 74 54 42 65
REMARK Flexibility Score: inf
ROOT
ATOM      1  C   UNL     1      -6.059   2.922  -1.540  1.00  0.00     0.002 C 
ENDROOT
BRANCH   1   2
ATOM      2  C   UNL     1      -4.534   2.949  -1.616  1.00  0.00     0.021 C 
BRANCH   2   3
ATOM      3  C   UNL     1      -3.735   2.344  -0.465  1.00  0.00     0.116 C 
BRANCH   3   4
ATOM      4  N   UNL     1      -3.950   0.937  -0.209  1.00  0.00    -0.352 N 
ATOM      5  C   UNL     1      -3.086  -0.093   0.093  1.00  0.00     0.251 C 
ATOM      6  O   UNL     1      -3.588  -1.188   0.352  1.00  0.00    -0.269 OA
ATOM      7  H   UNL     1      -4.894   0.663  -0.261  1.00  0.00     0.163 HD
BRANCH   5   8
ATOM      8  C   UNL     1      -1.593   0.019   0.071  1.00  0.00     0.041 A 
ATOM      9  C   UNL     1       2.735  -0.054  -0.120  1.00  0.00     0.046 C 
ATOM     10  C   UNL     1       1.233   0.081  -0.059  1.00  0.00    -0.027 A 
ATOM     11  C   UNL     1       0.514  -1.117  -0.258  1.00  0.00     0.006 A 
ATOM     12  C   UNL     1       0.532   1.274   0.237  1.00  0.00     0.044 A 
ATOM     13  C   UNL     1      -0.878  -1.142  -0.222  1.00  0.00     0.014 A 
ATOM     14  C   UNL     1      -0.869   1.183   0.374  1.00  0.00     0.040 A 
BRANCH  12  15
ATOM     15  N   UNL     1       1.266   2.492   0.353  1.00  0.00    -0.326 N 
ATOM     16  C   UNL     1       0.936   3.831   0.457  1.00  0.00     0.228 C 
ATOM     17  H   UNL     1       2.239   2.343   0.361  1.00  0.00     0.169 HD
ATOM     18  O   UNL     1       1.859   4.648   0.449  1.00  0.00    -0.274 OA
BRANCH  16  19
ATOM     19  C   UNL     1      -0.509   4.219   0.554  1.00  0.00     0.135 C 
BRANCH  19  20
ATOM     20  C   UNL     1      -1.039   5.630   0.662  1.00  0.00    -0.038 A 
ATOM     21  C   UNL     1      -2.425   5.709   0.887  1.00  0.00     0.005 A 
ATOM     22  C   UNL     1      -0.327   6.826   0.547  1.00  0.00     0.013 A 
ATOM     23  C   UNL     1      -3.090   6.923   0.981  1.00  0.00     0.009 A 
ATOM     24  C   UNL     1      -0.989   8.079   0.644  1.00  0.00    -0.018 A 
ATOM     25  C   UNL     1      -2.389   8.116   0.844  1.00  0.00    -0.018 A 
ATOM     26  C   UNL     1      -0.309   9.306   0.552  1.00  0.00     0.009 A 
ATOM     27  C   UNL     1      -3.071   9.341   0.900  1.00  0.00     0.009 A 
ATOM     28  C   UNL     1      -1.000  10.523   0.617  1.00  0.00     0.001 A 
ATOM     29  C   UNL     1      -2.382  10.540   0.772  1.00  0.00     0.001 A 
ENDBRANCH  19  20
ENDBRANCH  16  19
ENDBRANCH  12  15
ENDBRANCH   5   8
ENDBRANCH   3   4
ENDBRANCH   2   3
ENDBRANCH   1   2
BRANCH   1  30
ATOM     30  C   UNL     1      -6.730   3.408  -0.254  1.00  0.00     0.002 C 
BRANCH  30  31
ATOM     31  C   UNL     1      -6.357   4.790   0.286  1.00  0.00     0.021 C 
BRANCH  31  32
ATOM     32  C   UNL     1      -6.598   5.955  -0.675  1.00  0.00     0.116 C 
BRANCH  32  33
ATOM     33  N   UNL     1      -6.957   7.177   0.053  1.00  0.00    -0.352 N 
ATOM     34  C   UNL     1      -6.983   8.494  -0.371  1.00  0.00     0.251 C 
ATOM     35  H   UNL     1      -7.222   7.039   0.991  1.00  0.00     0.163 HD
ATOM     36  O   UNL     1      -7.546   9.354   0.274  1.00  0.00    -0.269 OA
BRANCH  34  37
ATOM     37  C   UNL     1      -6.340   8.830  -1.654  1.00  0.00     0.039 A 
ATOM     38  C   UNL     1      -7.074   9.474  -2.654  1.00  0.00     0.014 A 
ATOM     39  C   UNL     1      -5.044   8.386  -1.888  1.00  0.00     0.014 A 
ATOM     40  C   UNL     1      -6.581   9.463  -3.958  1.00  0.00     0.010 A 
ATOM     41  C   UNL     1      -4.559   8.357  -3.172  1.00  0.00     0.010 A 
ATOM     42  C   UNL     1      -5.368   8.817  -4.212  1.00  0.00    -0.014 A 
BRANCH  42  43
ATOM     43  C   UNL     1      -4.975   8.351  -5.529  1.00  0.00     0.031 A 
ATOM     44  C   UNL     1      -4.021   9.084  -6.366  1.00  0.00     0.074 A 
ATOM     45  C   UNL     1      -5.403   7.128  -5.910  1.00  0.00     0.049 A 
ATOM     46  N   UNL     1      -4.042   9.044  -7.656  1.00  0.00    -0.248 NA
ATOM     47  C   UNL     1      -2.954   9.912  -5.817  1.00  0.00     0.031 C 
ATOM     48  C   UNL     1      -4.938   6.327  -7.037  1.00  0.00     0.029 A 
ATOM     49  N   UNL     1      -6.509   6.422  -5.410  1.00  0.00    -0.354 N 
ATOM     50  C   UNL     1      -2.851   9.567  -8.088  1.00  0.00     0.074 A 
ATOM     51  C   UNL     1      -2.252  10.184  -6.923  1.00  0.00     0.031 C 
ATOM     52  C   UNL     1      -5.889   5.431  -7.345  1.00  0.00     0.029 A 
ATOM     53  C   UNL     1      -7.045   5.734  -6.518  1.00  0.00     0.049 A 
ATOM     54  H   UNL     1      -6.840   6.410  -4.483  1.00  0.00     0.167 HD
ATOM     55  C   UNL     1      -2.397   9.277  -9.339  1.00  0.00     0.037 A 
ATOM     56  C   UNL     1      -8.291   6.029  -6.987  1.00  0.00     0.037 A 
ATOM     57  C   UNL     1      -3.285   8.360 -10.045  1.00  0.00     0.049 A 
ATOM     58  C   UNL     1      -8.311   6.477  -8.429  1.00  0.00     0.074 A 
ATOM     59  C   UNL     1      -3.233   6.992 -10.265  1.00  0.00     0.029 A 
ATOM     60  N   UNL     1      -4.586   8.750 -10.353  1.00  0.00    -0.354 N 
ATOM     61  N   UNL     1      -7.272   6.936  -9.068  1.00  0.00    -0.248 NA
ATOM     62  C   UNL     1      -9.511   6.463  -9.255  1.00  0.00     0.031 C 
ATOM     63  C   UNL     1      -4.503   6.560 -10.716  1.00  0.00     0.029 A 
ATOM     64  C   UNL     1      -5.332   7.665 -10.774  1.00  0.00     0.049 A 
ATOM     65  H   UNL     1      -4.926   9.671 -10.281  1.00  0.00     0.167 HD
ATOM     66  C   UNL     1      -7.629   7.283 -10.350  1.00  0.00     0.074 A 
ATOM     67  C   UNL     1      -9.038   6.942 -10.419  1.00  0.00     0.031 C 
ATOM     68  C   UNL     1      -6.713   7.822 -11.216  1.00  0.00     0.037 A 
BRANCH  55  69
ATOM     69  C   UNL     1      -0.983   9.592  -9.750  1.00  0.00     0.064 A 
ATOM     70  C   UNL     1      -0.189   8.671 -10.462  1.00  0.00     0.173 A 
ATOM     71  C   UNL     1      -0.348  10.801  -9.410  1.00  0.00     0.173 A 
ATOM     72  F   UNL     1      -0.686   7.515 -10.913  1.00  0.00    -0.203 F 
ATOM     73  C   UNL     1       1.165   8.897 -10.716  1.00  0.00     0.198 A 
ATOM     74  C   UNL     1       1.018  11.008  -9.626  1.00  0.00     0.198 A 
ATOM     75  F   UNL     1      -1.042  11.806  -8.855  1.00  0.00    -0.203 F 
ATOM     76  F   UNL     1       1.879   7.974 -11.378  1.00  0.00    -0.200 F 
ATOM     77  C   UNL     1       1.777  10.050 -10.268  1.00  0.00     0.200 A 
ATOM     78  F   UNL     1       1.598  12.135  -9.189  1.00  0.00    -0.200 F 
ATOM     79  F   UNL     1       3.090  10.238 -10.462  1.00  0.00    -0.200 F 
ENDBRANCH  55  69
BRANCH  56  80
ATOM     80  C   UNL     1      -9.218   6.514  -5.928  1.00  0.00     0.064 A 
ATOM     81  C   UNL     1      -9.510   5.657  -4.848  1.00  0.00     0.173 A 
ATOM     82  C   UNL     1      -9.510   7.874  -5.770  1.00  0.00     0.173 A 
ATOM     83  F   UNL     1      -9.239   4.345  -4.940  1.00  0.00    -0.203 F 
ATOM     84  C   UNL     1      -9.963   6.153  -3.628  1.00  0.00     0.198 A 
ATOM     85  C   UNL     1      -9.984   8.365  -4.551  1.00  0.00     0.198 A 
ATOM     86  F   UNL     1      -9.238   8.745  -6.751  1.00  0.00    -0.203 F 
ATOM     87  F   UNL     1     -10.113   5.325  -2.583  1.00  0.00    -0.200 F 
ATOM     88  C   UNL     1     -10.178   7.511  -3.473  1.00  0.00     0.200 A 
ATOM     89  F   UNL     1     -10.167   9.683  -4.389  1.00  0.00    -0.200 F 
ATOM     90  F   UNL     1     -10.529   8.002  -2.277  1.00  0.00    -0.200 F 
ENDBRANCH  56  80
BRANCH  68  91
ATOM     91  C   UNL     1      -6.947   8.450 -12.584  1.00  0.00     0.064 A 
ATOM     92  C   UNL     1      -8.193   8.834 -13.101  1.00  0.00     0.173 A 
ATOM     93  C   UNL     1      -5.838   8.800 -13.407  1.00  0.00     0.173 A 
ATOM     94  F   UNL     1      -9.325   8.676 -12.410  1.00  0.00    -0.203 F 
ATOM     95  C   UNL     1      -8.327   9.463 -14.347  1.00  0.00     0.198 A 
ATOM     96  C   UNL     1      -5.969   9.483 -14.616  1.00  0.00     0.198 A 
ATOM     97  F   UNL     1      -4.574   8.517 -13.060  1.00  0.00    -0.203 F 
ATOM     98  F   UNL     1      -9.550   9.766 -14.805  1.00  0.00    -0.200 F 
ATOM     99  C   UNL     1      -7.217   9.802 -15.095  1.00  0.00     0.200 A 
ATOM    100  F   UNL     1      -4.873   9.842 -15.299  1.00  0.00    -0.200 F 
ATOM    101  F   UNL     1      -7.350  10.450 -16.259  1.00  0.00    -0.200 F 
ENDBRANCH  68  91
ENDBRANCH  42  43
ENDBRANCH  34  37
ENDBRANCH  32  33
ENDBRANCH  31  32
ENDBRANCH  30  31
ENDBRANCH   1  30
TORSDOF 16
