REMARK SMILES O=C(NCCCCCCNC(=O)c1cn(C2CN(C(=O)Nc3ccsc3)C2)nn1)c1ccc(-c2c3nc(c(-c4c(F)c(F)c(F)c(F)c4F)c4ccc([nH]4)c(-c4c(F)c(F)c(F)c(F)c4F)c4nc(c(-c5c(F)c(F)c(F)c(F)c5F)c5ccc2[nH]5)C=C4)C=C3)cc1
REMARK SMILES IDX 6 1 5 2 4 3 3 4 1 5 2 6 30 8 31 9 92 10 32 11 91 12 33 13
REMARK SMILES IDX 34 14 35 15 85 16 36 17 90 18 84 19 86 20 37 21 89 22 83 23
REMARK SMILES IDX 82 24 38 26 70 27 50 28 69 29 51 30 54 31 68 32 87 33 52 34
REMARK SMILES IDX 53 35 67 37 88 38 55 39 39 40 40 41 48 42 41 43 42 44 46 45
REMARK SMILES IDX 49 46 43 47 44 48 47 49 45 50 71 51 72 52 80 53 73 54 74 55
REMARK SMILES IDX 78 56 81 57 75 58 76 59 79 60 77 61 56 62 57 63 65 64 58 65
REMARK SMILES IDX 59 66 63 67 66 68 60 69 61 70 64 71 62 72 7 73 8 74 9 75
REMARK SMILES IDX 10 76 11 77 12 79 13 80 14 81 29 82 15 83 28 84 16 85 17 86
REMARK SMILES IDX 27 87 18 88 19 89 20 90 21 91 22 93 23 94 26 95 24 96 25 97
REMARK H PARENT 3 7 86 25 54 36 10 78 21 92
REMARK Flexibility Score: inf
ROOT
ATOM      1  C   UNL     1       4.200  -0.670  -3.573  1.00  0.00     0.002 C 
ENDROOT
BRANCH   1   2
ATOM      2  C   UNL     1       4.722  -0.814  -2.139  1.00  0.00     0.021 C 
BRANCH   2   3
ATOM      3  C   UNL     1       4.636   0.470  -1.314  1.00  0.00     0.116 C 
BRANCH   3   4
ATOM      4  N   UNL     1       3.291   0.963  -1.123  1.00  0.00    -0.352 N 
ATOM      5  O   UNL     1       1.259   1.330  -0.310  1.00  0.00    -0.269 OA
ATOM      6  C   UNL     1       2.278   0.639  -0.267  1.00  0.00     0.251 C 
ATOM      7  H   UNL     1       3.053   1.688  -1.744  1.00  0.00     0.163 HD
BRANCH   6   8
ATOM      8  C   UNL     1       2.303  -0.548   0.621  1.00  0.00     0.039 A 
ATOM      9  C   UNL     1       3.454  -1.218   1.046  1.00  0.00     0.014 A 
ATOM     10  C   UNL     1       1.046  -1.036   1.009  1.00  0.00     0.014 A 
ATOM     11  C   UNL     1       3.358  -2.438   1.695  1.00  0.00     0.010 A 
ATOM     12  C   UNL     1       0.942  -2.227   1.703  1.00  0.00     0.010 A 
ATOM     13  C   UNL     1       2.099  -2.955   1.981  1.00  0.00    -0.014 A 
BRANCH  13  14
ATOM     14  C   UNL     1       2.013  -4.228   2.683  1.00  0.00     0.031 A 
ATOM     15  C   UNL     1       2.503  -4.210   4.099  1.00  0.00     0.074 A 
ATOM     16  C   UNL     1       1.335  -5.248   2.119  1.00  0.00     0.049 A 
ATOM     17  N   UNL     1       3.253  -5.066   4.720  1.00  0.00    -0.248 NA
ATOM     18  C   UNL     1       2.166  -3.024   4.914  1.00  0.00     0.031 C 
ATOM     19  C   UNL     1       0.602  -5.245   0.847  1.00  0.00     0.029 A 
ATOM     20  N   UNL     1       1.034  -6.469   2.631  1.00  0.00    -0.354 N 
ATOM     21  C   UNL     1       3.343  -4.615   6.040  1.00  0.00     0.074 A 
ATOM     22  C   UNL     1       2.760  -3.301   6.072  1.00  0.00     0.031 C 
ATOM     23  C   UNL     1      -0.256  -6.288   0.823  1.00  0.00     0.029 A 
ATOM     24  C   UNL     1      -0.043  -7.090   2.014  1.00  0.00     0.049 A 
ATOM     25  H   UNL     1       1.534  -6.878   3.373  1.00  0.00     0.167 HD
ATOM     26  C   UNL     1       3.701  -5.432   7.068  1.00  0.00     0.037 A 
ATOM     27  C   UNL     1      -0.775  -8.112   2.521  1.00  0.00     0.037 A 
ATOM     28  C   UNL     1       4.461  -6.561   6.615  1.00  0.00     0.049 A 
ATOM     29  C   UNL     1       0.022  -8.728   3.613  1.00  0.00     0.074 A 
ATOM     30  C   UNL     1       5.689  -6.716   6.002  1.00  0.00     0.029 A 
ATOM     31  N   UNL     1       3.826  -7.767   6.470  1.00  0.00    -0.354 N 
ATOM     32  N   UNL     1       1.147  -9.362   3.419  1.00  0.00    -0.248 NA
ATOM     33  C   UNL     1      -0.186  -8.220   4.962  1.00  0.00     0.031 C 
ATOM     34  C   UNL     1       5.508  -7.798   5.091  1.00  0.00     0.029 A 
ATOM     35  C   UNL     1       4.202  -8.261   5.247  1.00  0.00     0.049 A 
ATOM     36  H   UNL     1       3.219  -8.195   7.116  1.00  0.00     0.167 HD
ATOM     37  C   UNL     1       1.954  -8.991   4.485  1.00  0.00     0.074 A 
ATOM     38  C   UNL     1       1.058  -8.332   5.433  1.00  0.00     0.031 C 
ATOM     39  C   UNL     1       3.315  -8.993   4.379  1.00  0.00     0.037 A 
BRANCH  26  40
ATOM     40  C   UNL     1       3.065  -5.380   8.435  1.00  0.00     0.064 A 
ATOM     41  C   UNL     1       3.606  -6.147   9.486  1.00  0.00     0.173 A 
ATOM     42  C   UNL     1       1.773  -4.857   8.664  1.00  0.00     0.173 A 
ATOM     43  F   UNL     1       4.819  -6.706   9.368  1.00  0.00    -0.203 F 
ATOM     44  C   UNL     1       2.873  -6.434  10.641  1.00  0.00     0.198 A 
ATOM     45  C   UNL     1       1.065  -5.104   9.839  1.00  0.00     0.198 A 
ATOM     46  F   UNL     1       1.100  -4.186   7.721  1.00  0.00    -0.203 F 
ATOM     47  F   UNL     1       3.377  -7.271  11.558  1.00  0.00    -0.200 F 
ATOM     48  C   UNL     1       1.600  -5.920  10.813  1.00  0.00     0.200 A 
ATOM     49  F   UNL     1      -0.174  -4.611   9.978  1.00  0.00    -0.200 F 
ATOM     50  F   UNL     1       0.871  -6.249  11.886  1.00  0.00    -0.200 F 
ENDBRANCH  26  40
BRANCH  27  51
ATOM     51  C   UNL     1      -2.244  -8.285   2.395  1.00  0.00     0.064 A 
ATOM     52  C   UNL     1      -2.858  -9.524   2.629  1.00  0.00     0.173 A 
ATOM     53  C   UNL     1      -3.105  -7.173   2.278  1.00  0.00     0.173 A 
ATOM     54  F   UNL     1      -2.109 -10.621   2.814  1.00  0.00    -0.203 F 
ATOM     55  C   UNL     1      -4.249  -9.644   2.735  1.00  0.00     0.198 A 
ATOM     56  C   UNL     1      -4.491  -7.295   2.373  1.00  0.00     0.198 A 
ATOM     57  F   UNL     1      -2.614  -5.931   2.159  1.00  0.00    -0.203 F 
ATOM     58  F   UNL     1      -4.800 -10.836   3.006  1.00  0.00    -0.200 F 
ATOM     59  C   UNL     1      -5.064  -8.529   2.610  1.00  0.00     0.200 A 
ATOM     60  F   UNL     1      -5.261  -6.201   2.290  1.00  0.00    -0.200 F 
ATOM     61  F   UNL     1      -6.391  -8.636   2.758  1.00  0.00    -0.200 F 
ENDBRANCH  27  51
BRANCH  39  62
ATOM     62  C   UNL     1       3.918  -9.571   3.130  1.00  0.00     0.064 A 
ATOM     63  C   UNL     1       3.760  -8.993   1.858  1.00  0.00     0.173 A 
ATOM     64  C   UNL     1       4.823 -10.632   3.244  1.00  0.00     0.173 A 
ATOM     65  F   UNL     1       3.006  -7.902   1.689  1.00  0.00    -0.203 F 
ATOM     66  C   UNL     1       4.440  -9.483   0.746  1.00  0.00     0.198 A 
ATOM     67  C   UNL     1       5.530 -11.099   2.138  1.00  0.00     0.198 A 
ATOM     68  F   UNL     1       5.068 -11.178   4.445  1.00  0.00    -0.203 F 
ATOM     69  F   UNL     1       4.268  -8.910  -0.455  1.00  0.00    -0.200 F 
ATOM     70  C   UNL     1       5.331 -10.531   0.889  1.00  0.00     0.200 A 
ATOM     71  F   UNL     1       6.434 -12.076   2.290  1.00  0.00    -0.200 F 
ATOM     72  F   UNL     1       6.026 -10.972  -0.170  1.00  0.00    -0.200 F 
ENDBRANCH  39  62
ENDBRANCH  13  14
ENDBRANCH   6   8
ENDBRANCH   3   4
ENDBRANCH   2   3
ENDBRANCH   1   2
BRANCH   1  73
ATOM     73  C   UNL     1       4.737   0.545  -4.337  1.00  0.00     0.002 C 
BRANCH  73  74
ATOM     74  C   UNL     1       6.262   0.660  -4.368  1.00  0.00     0.021 C 
BRANCH  74  75
ATOM     75  C   UNL     1       6.953  -0.522  -5.034  1.00  0.00     0.116 C 
BRANCH  75  76
ATOM     76  N   UNL     1       6.665  -0.570  -6.456  1.00  0.00    -0.351 N 
ATOM     77  C   UNL     1       7.529  -0.367  -7.504  1.00  0.00     0.273 C 
ATOM     78  H   UNL     1       5.733  -0.773  -6.699  1.00  0.00     0.163 HD
ATOM     79  O   UNL     1       7.074  -0.191  -8.634  1.00  0.00    -0.267 OA
BRANCH  77  80
ATOM     80  C   UNL     1       8.950  -0.388  -7.219  1.00  0.00     0.170 A 
ATOM     81  C   UNL     1       9.639  -1.315  -6.459  1.00  0.00     0.145 A 
ATOM     82  N   UNL     1       9.833   0.552  -7.680  1.00  0.00    -0.125 NA
ATOM     83  N   UNL     1      10.912  -0.836  -6.432  1.00  0.00    -0.245 N 
ATOM     84  N   UNL     1      11.028   0.277  -7.175  1.00  0.00    -0.066 NA
BRANCH  83  85
ATOM     85  C   UNL     1      12.050  -1.432  -5.816  1.00  0.00     0.148 C 
ATOM     86  C   UNL     1      11.886  -1.910  -4.360  1.00  0.00     0.150 C 
ATOM     87  C   UNL     1      12.156  -2.936  -6.156  1.00  0.00     0.150 C 
ATOM     88  N   UNL     1      12.651  -3.077  -4.806  1.00  0.00    -0.320 N 
ATOM     89  C   UNL     1      13.236  -4.031  -4.043  1.00  0.00     0.322 C 
ATOM     90  O   UNL     1      13.282  -3.912  -2.815  1.00  0.00    -0.248 OA
ATOM     91  N   UNL     1      13.662  -5.200  -4.589  1.00  0.00    -0.307 N 
ATOM     92  H   UNL     1      13.794  -5.929  -3.940  1.00  0.00     0.171 HD
BRANCH  91  93
ATOM     93  C   UNL     1      13.942  -5.544  -5.899  1.00  0.00     0.053 A 
ATOM     94  C   UNL     1      14.516  -4.727  -6.916  1.00  0.00     0.038 A 
ATOM     95  C   UNL     1      13.749  -6.831  -6.357  1.00  0.00     0.091 A 
ATOM     96  C   UNL     1      14.509  -5.340  -8.151  1.00  0.00     0.067 A 
ATOM     97  S   UNL     1      13.988  -6.964  -8.047  1.00  0.00    -0.150 S 
ENDBRANCH  91  93
ENDBRANCH  83  85
ENDBRANCH  77  80
ENDBRANCH  75  76
ENDBRANCH  74  75
ENDBRANCH  73  74
ENDBRANCH   1  73
TORSDOF 15
