REMARK SMILES CC(=O)N1C[C@@H]2C[N@H+](CC(=O)NCc3ccccc3)C[C@]2(C(=O)NCCCCCCNC(=O)c2ccc(-c3c4nc(c(-c5c(F)c(F)c(F)c(F)c5F)c5ccc([nH]5)c(-c5c(F)c(F)c(F)c(F)c5F)c5nc(c(-c6c(F)c(F)c(F)c(F)c6F)c6ccc3[nH]6)C=C5)C=C4)cc2)C1
REMARK SMILES IDX 26 1 25 2 24 3 22 4 23 5 21 7 4 8 5 9 97 10 6 11 7 12 20 13
REMARK SMILES IDX 8 14 2 16 1 17 3 18 9 19 10 20 11 21 12 22 13 24 14 25 15 26
REMARK SMILES IDX 19 27 16 28 18 29 17 30 27 31 28 32 29 33 30 34 31 35 32 36
REMARK SMILES IDX 33 38 34 39 35 40 96 41 36 42 95 43 37 44 38 45 39 46 89 47
REMARK SMILES IDX 40 48 94 49 88 50 90 51 41 52 93 53 87 54 86 55 42 57 74 58
REMARK SMILES IDX 54 59 73 60 55 61 58 62 72 63 91 64 56 65 57 66 71 68 92 69
REMARK SMILES IDX 59 70 43 71 44 72 52 73 45 74 46 75 50 76 53 77 47 78 48 79
REMARK SMILES IDX 51 80 49 81 75 82 76 83 84 84 77 85 78 86 82 87 85 88 79 89
REMARK SMILES IDX 80 90 83 91 81 92 60 93 61 94 69 95 62 96 63 97 67 98 70 99
REMARK SMILES IDX 64 100 65 101 68 102 66 103
REMARK H PARENT 24 6 8 15 12 23 31 37 90 56 58 67
REMARK Flexibility Score: inf
ROOT
ATOM      1  C   UNL     1       4.805  -6.758  -4.465  1.00  0.00     0.021 C 
ENDROOT
BRANCH   1   2
ATOM      2  C   UNL     1       4.213  -5.564  -3.712  1.00  0.00     0.116 C 
BRANCH   2   3
ATOM      3  N   UNL     1       4.171  -4.276  -4.428  1.00  0.00    -0.355 N 
ATOM      4  C   UNL     1       3.166  -3.331  -4.653  1.00  0.00     0.234 C 
ATOM      5  O   UNL     1       3.505  -2.353  -5.325  1.00  0.00    -0.274 OA
ATOM      6  H   UNL     1       5.034  -4.030  -4.833  1.00  0.00     0.163 HD
BRANCH   4   7
ATOM      7  C   UNL     1       1.682  -3.530  -4.086  1.00  0.00     0.125 C 
ATOM      8  N   UNL     1       0.360  -1.771  -2.849  1.00  0.00    -0.341 N 
ATOM      9  C   UNL     1      -0.661  -2.518  -3.471  1.00  0.00     0.130 C 
ATOM     10  C   UNL     1       1.609  -1.991  -3.576  1.00  0.00     0.143 C 
ATOM     11  C   UNL     1       0.090  -3.222  -4.578  1.00  0.00     0.087 C 
ATOM     12  C   UNL     1      -0.666  -4.523  -4.852  1.00  0.00     0.269 C 
ATOM     13  C   UNL     1       1.531  -4.687  -5.127  1.00  0.00     0.282 C 
ATOM     14  N   UNL     1       0.389  -5.494  -4.712  1.00  0.00    -0.326 N 
ATOM     15  H   UNL     1       0.246  -6.341  -5.261  1.00  0.00     0.348 HD
BRANCH   8  16
ATOM     16  C   UNL     1       0.188  -1.369  -1.541  1.00  0.00     0.219 C 
ATOM     17  C   UNL     1       0.724  -0.014  -1.189  1.00  0.00     0.114 C 
ATOM     18  O   UNL     1      -0.509  -1.991  -0.736  1.00  0.00    -0.275 OA
ENDBRANCH   8  16
BRANCH  14  19
ATOM     19  C   UNL     1       0.516  -6.136  -3.359  1.00  0.00     0.363 C 
BRANCH  19  20
ATOM     20  C   UNL     1       0.124  -5.339  -2.087  1.00  0.00     0.275 C 
ATOM     21  O   UNL     1      -1.068  -5.349  -1.748  1.00  0.00    -0.268 OA
ATOM     22  N   UNL     1       0.961  -4.616  -1.279  1.00  0.00    -0.347 N 
ATOM     23  H   UNL     1       0.477  -3.978  -0.706  1.00  0.00     0.164 HD
BRANCH  22  24
ATOM     24  C   UNL     1       2.402  -4.572  -1.071  1.00  0.00     0.151 C 
BRANCH  24  25
ATOM     25  C   UNL     1       3.003  -3.251  -0.615  1.00  0.00    -0.029 A 
ATOM     26  C   UNL     1       2.542  -2.569   0.514  1.00  0.00     0.005 A 
ATOM     27  C   UNL     1       4.086  -2.670  -1.313  1.00  0.00     0.005 A 
ATOM     28  C   UNL     1       3.066  -1.312   0.860  1.00  0.00     0.000 A 
ATOM     29  C   UNL     1       4.576  -1.397  -1.001  1.00  0.00     0.000 A 
ATOM     30  C   UNL     1       4.053  -0.709   0.083  1.00  0.00     0.000 A 
ENDBRANCH  24  25
ENDBRANCH  22  24
ENDBRANCH  19  20
ENDBRANCH  14  19
ENDBRANCH   4   7
ENDBRANCH   2   3
ENDBRANCH   1   2
BRANCH   1  31
ATOM     31  C   UNL     1       5.932  -7.452  -3.684  1.00  0.00     0.002 C 
BRANCH  31  32
ATOM     32  C   UNL     1       5.566  -8.040  -2.310  1.00  0.00     0.002 C 
BRANCH  32  33
ATOM     33  C   UNL     1       4.524  -9.160  -2.293  1.00  0.00     0.021 C 
BRANCH  33  34
ATOM     34  C   UNL     1       4.794 -10.325  -3.239  1.00  0.00     0.116 C 
BRANCH  34  35
ATOM     35  N   UNL     1       6.095 -10.941  -3.023  1.00  0.00    -0.352 N 
ATOM     36  C   UNL     1       6.426 -12.270  -3.002  1.00  0.00     0.251 C 
ATOM     37  H   UNL     1       6.841 -10.316  -2.872  1.00  0.00     0.163 HD
ATOM     38  O   UNL     1       7.561 -12.625  -2.671  1.00  0.00    -0.269 OA
BRANCH  36  39
ATOM     39  C   UNL     1       5.415 -13.284  -3.355  1.00  0.00     0.039 A 
ATOM     40  C   UNL     1       5.260 -14.404  -2.534  1.00  0.00     0.014 A 
ATOM     41  C   UNL     1       4.620 -13.125  -4.493  1.00  0.00     0.014 A 
ATOM     42  C   UNL     1       4.270 -15.342  -2.829  1.00  0.00     0.010 A 
ATOM     43  C   UNL     1       3.587 -14.021  -4.743  1.00  0.00     0.010 A 
ATOM     44  C   UNL     1       3.409 -15.143  -3.921  1.00  0.00    -0.014 A 
BRANCH  44  45
ATOM     45  C   UNL     1       2.335 -16.115  -4.240  1.00  0.00     0.031 A 
ATOM     46  C   UNL     1       2.386 -16.885  -5.530  1.00  0.00     0.074 A 
ATOM     47  C   UNL     1       1.292 -16.258  -3.400  1.00  0.00     0.049 A 
ATOM     48  N   UNL     1       1.514 -17.722  -6.032  1.00  0.00    -0.248 NA
ATOM     49  C   UNL     1       3.564 -16.664  -6.385  1.00  0.00     0.031 C 
ATOM     50  C   UNL     1       1.115 -15.533  -2.141  1.00  0.00     0.029 A 
ATOM     51  N   UNL     1       0.178 -17.055  -3.484  1.00  0.00    -0.354 N 
ATOM     52  C   UNL     1       2.030 -18.113  -7.260  1.00  0.00     0.074 A 
ATOM     53  C   UNL     1       3.260 -17.379  -7.458  1.00  0.00     0.031 C 
ATOM     54  C   UNL     1      -0.028 -15.933  -1.560  1.00  0.00     0.029 A 
ATOM     55  C   UNL     1      -0.683 -16.911  -2.424  1.00  0.00     0.049 A 
ATOM     56  H   UNL     1       0.011 -17.670  -4.234  1.00  0.00     0.167 HD
ATOM     57  C   UNL     1       1.535 -19.023  -8.132  1.00  0.00     0.037 A 
ATOM     58  C   UNL     1      -1.871 -17.498  -2.183  1.00  0.00     0.037 A 
ATOM     59  C   UNL     1       0.323 -19.767  -7.915  1.00  0.00     0.049 A 
ATOM     60  C   UNL     1      -2.404 -18.497  -3.176  1.00  0.00     0.074 A 
ATOM     61  C   UNL     1      -0.243 -20.747  -8.711  1.00  0.00     0.029 A 
ATOM     62  N   UNL     1      -0.513 -19.609  -6.818  1.00  0.00    -0.354 N 
ATOM     63  N   UNL     1      -1.876 -18.907  -4.304  1.00  0.00    -0.248 NA
ATOM     64  C   UNL     1      -3.696 -19.120  -2.859  1.00  0.00     0.031 C 
ATOM     65  C   UNL     1      -1.445 -21.149  -8.120  1.00  0.00     0.029 A 
ATOM     66  C   UNL     1      -1.599 -20.462  -6.927  1.00  0.00     0.049 A 
ATOM     67  H   UNL     1      -0.357 -18.985  -6.074  1.00  0.00     0.167 HD
ATOM     68  C   UNL     1      -2.749 -19.860  -4.811  1.00  0.00     0.074 A 
ATOM     69  C   UNL     1      -3.836 -19.976  -3.861  1.00  0.00     0.031 C 
ATOM     70  C   UNL     1      -2.661 -20.576  -5.959  1.00  0.00     0.037 A 
BRANCH  57  71
ATOM     71  C   UNL     1       2.307 -19.270  -9.395  1.00  0.00     0.064 A 
ATOM     72  C   UNL     1       3.557 -19.910  -9.381  1.00  0.00     0.173 A 
ATOM     73  C   UNL     1       1.776 -18.901 -10.640  1.00  0.00     0.173 A 
ATOM     74  F   UNL     1       4.117 -20.273  -8.217  1.00  0.00    -0.203 F 
ATOM     75  C   UNL     1       4.256 -20.145 -10.562  1.00  0.00     0.198 A 
ATOM     76  C   UNL     1       2.463 -19.167 -11.822  1.00  0.00     0.198 A 
ATOM     77  F   UNL     1       0.584 -18.290 -10.713  1.00  0.00    -0.203 F 
ATOM     78  F   UNL     1       5.470 -20.712 -10.518  1.00  0.00    -0.200 F 
ATOM     79  C   UNL     1       3.706 -19.782 -11.781  1.00  0.00     0.200 A 
ATOM     80  F   UNL     1       1.923 -18.828 -13.001  1.00  0.00    -0.200 F 
ATOM     81  F   UNL     1       4.375 -20.018 -12.918  1.00  0.00    -0.200 F 
ENDBRANCH  57  71
BRANCH  58  82
ATOM     82  C   UNL     1      -2.628 -17.177  -0.944  1.00  0.00     0.064 A 
ATOM     83  C   UNL     1      -2.807 -18.139   0.061  1.00  0.00     0.173 A 
ATOM     84  C   UNL     1      -3.203 -15.914  -0.744  1.00  0.00     0.173 A 
ATOM     85  F   UNL     1      -2.293 -19.369  -0.090  1.00  0.00    -0.203 F 
ATOM     86  C   UNL     1      -3.557 -17.860   1.202  1.00  0.00     0.198 A 
ATOM     87  C   UNL     1      -3.925 -15.625   0.412  1.00  0.00     0.198 A 
ATOM     88  F   UNL     1      -3.055 -14.954  -1.670  1.00  0.00    -0.203 F 
ATOM     89  F   UNL     1      -3.759 -18.816   2.119  1.00  0.00    -0.200 F 
ATOM     90  C   UNL     1      -4.111 -16.601   1.379  1.00  0.00     0.200 A 
ATOM     91  F   UNL     1      -4.445 -14.402   0.587  1.00  0.00    -0.200 F 
ATOM     92  F   UNL     1      -4.832 -16.333   2.476  1.00  0.00    -0.200 F 
ENDBRANCH  58  82
BRANCH  70  93
ATOM     93  C   UNL     1      -3.739 -21.585  -6.228  1.00  0.00     0.064 A 
ATOM     94  C   UNL     1      -5.042 -21.201  -6.575  1.00  0.00     0.173 A 
ATOM     95  C   UNL     1      -3.446 -22.957  -6.185  1.00  0.00     0.173 A 
ATOM     96  F   UNL     1      -5.375 -19.902  -6.617  1.00  0.00    -0.203 F 
ATOM     97  C   UNL     1      -6.020 -22.155  -6.843  1.00  0.00     0.198 A 
ATOM     98  C   UNL     1      -4.418 -23.907  -6.486  1.00  0.00     0.198 A 
ATOM     99  F   UNL     1      -2.212 -23.377  -5.867  1.00  0.00    -0.203 F 
ATOM    100  F   UNL     1      -7.271 -21.767  -7.125  1.00  0.00    -0.200 F 
ATOM    101  C   UNL     1      -5.705 -23.506  -6.808  1.00  0.00     0.200 A 
ATOM    102  F   UNL     1      -4.107 -25.210  -6.468  1.00  0.00    -0.200 F 
ATOM    103  F   UNL     1      -6.646 -24.421  -7.077  1.00  0.00    -0.200 F 
ENDBRANCH  70  93
ENDBRANCH  44  45
ENDBRANCH  36  39
ENDBRANCH  34  35
ENDBRANCH  33  34
ENDBRANCH  32  33
ENDBRANCH  31  32
ENDBRANCH   1  31
TORSDOF 18
