REMARK SMILES Cc1ccccc1[C@@H]1[NH2+][C@@H](C(=O)NCCCCCCNC(=O)c2ccc(-c3c4nc(c(-c5c(F)c(F)c(F)c(F)c5F)c5ccc([nH]5)c(-c5c(F)c(F)c(F)c(F)c5F)c5nc(c(-c6c(F)c(F)c(F)c(F)c6F)c6ccc3[nH]6)C=C5)C=C4)cc2)CC2=c3ccccc3=N[C@H]21
REMARK SMILES IDX 17 1 16 2 15 3 14 4 13 5 11 6 12 7 10 9 8 10 9 11 95 12
REMARK SMILES IDX 87 15 94 16 86 17 88 18 93 19 89 20 92 21 90 22 91 23 7 24
REMARK SMILES IDX 1 25 2 26 3 27 4 28 6 29 5 30 18 31 19 32 20 33 21 34 22 36
REMARK SMILES IDX 23 37 24 38 85 39 25 40 84 41 26 42 27 43 28 44 78 45 29 46
REMARK SMILES IDX 83 47 77 48 79 49 30 50 82 51 76 52 75 53 31 55 63 56 43 57
REMARK SMILES IDX 62 58 44 59 47 60 61 61 80 62 45 63 46 64 60 66 81 67 48 68
REMARK SMILES IDX 32 69 33 70 41 71 34 72 35 73 39 74 42 75 36 76 37 77 40 78
REMARK SMILES IDX 38 79 64 80 65 81 73 82 66 83 67 84 71 85 74 86 68 87 69 88
REMARK SMILES IDX 72 89 70 90 49 91 50 92 58 93 51 94 52 95 56 96 59 97 53 98
REMARK SMILES IDX 54 99 57 100 55 101
REMARK H PARENT 13 8 9 13 9 14 20 35 79 54 47 65
REMARK Flexibility Score: inf
ROOT
ATOM      1  C   UNL     1      -5.969   7.912  -0.728  1.00  0.00     0.002 C 
ENDROOT
BRANCH   1   2
ATOM      2  C   UNL     1      -4.458   7.862  -1.026  1.00  0.00     0.002 C 
BRANCH   2   3
ATOM      3  C   UNL     1      -3.591   6.933  -0.163  1.00  0.00     0.021 C 
BRANCH   3   4
ATOM      4  C   UNL     1      -4.072   5.484  -0.049  1.00  0.00     0.116 C 
BRANCH   4   5
ATOM      5  N   UNL     1      -3.573   4.561  -1.051  1.00  0.00    -0.351 N 
ATOM      6  C   UNL     1      -2.458   3.768  -1.068  1.00  0.00     0.278 C 
ATOM      7  O   UNL     1      -2.552   2.716  -1.717  1.00  0.00    -0.268 OA
ATOM      8  H   UNL     1      -4.133   4.493  -1.858  1.00  0.00     0.163 HD
BRANCH   6   9
ATOM      9  C   UNL     1      -1.076   4.224  -0.509  1.00  0.00     0.277 C 
ATOM     10  C   UNL     1       0.640   2.471   0.306  1.00  0.00     0.243 C 
ATOM     11  N   UNL     1      -0.042   3.183  -0.809  1.00  0.00    -0.327 N 
ATOM     12  C   UNL     1       0.584   3.098   1.735  1.00  0.00     0.196 C 
ATOM     13  H   UNL     1      -0.497   2.471  -1.379  1.00  0.00     0.347 HD
ATOM     14  H   UNL     1       0.711   3.718  -1.242  1.00  0.00     0.347 HD
ATOM     15  C   UNL     1      -0.740   3.765   1.906  1.00  0.00    -0.024 C 
ATOM     16  N   UNL     1       0.632   2.072   2.821  1.00  0.00    -0.270 NA
ATOM     17  C   UNL     1      -1.023   4.811   0.902  1.00  0.00     0.109 C 
ATOM     18  C   UNL     1      -1.448   3.222   2.885  1.00  0.00     0.002 A 
ATOM     19  C   UNL     1      -0.509   2.222   3.424  1.00  0.00     0.066 A 
ATOM     20  C   UNL     1      -2.771   3.363   3.393  1.00  0.00     0.010 A 
ATOM     21  C   UNL     1      -0.963   1.478   4.618  1.00  0.00     0.028 A 
ATOM     22  C   UNL     1      -3.143   2.600   4.434  1.00  0.00     0.001 A 
ATOM     23  C   UNL     1      -2.211   1.683   5.072  1.00  0.00     0.002 A 
BRANCH  10  24
ATOM     24  C   UNL     1       2.108   2.200  -0.065  1.00  0.00     0.015 A 
ATOM     25  C   UNL     1       2.723   4.689  -0.368  1.00  0.00     0.045 C 
ATOM     26  C   UNL     1       3.054   3.221  -0.334  1.00  0.00    -0.042 A 
ATOM     27  C   UNL     1       4.407   2.876  -0.516  1.00  0.00     0.004 A 
ATOM     28  C   UNL     1       4.825   1.548  -0.488  1.00  0.00     0.000 A 
ATOM     29  C   UNL     1       2.552   0.861  -0.066  1.00  0.00     0.010 A 
ATOM     30  C   UNL     1       3.895   0.539  -0.280  1.00  0.00     0.001 A 
ENDBRANCH  10  24
ENDBRANCH   6   9
ENDBRANCH   4   5
ENDBRANCH   3   4
ENDBRANCH   2   3
ENDBRANCH   1   2
BRANCH   1  31
ATOM     31  C   UNL     1      -6.384   8.038   0.741  1.00  0.00     0.021 C 
BRANCH  31  32
ATOM     32  C   UNL     1      -6.077   9.387   1.380  1.00  0.00     0.116 C 
BRANCH  32  33
ATOM     33  N   UNL     1      -7.202  10.316   1.404  1.00  0.00    -0.352 N 
ATOM     34  C   UNL     1      -7.271  11.626   1.858  1.00  0.00     0.251 C 
ATOM     35  H   UNL     1      -8.044   9.957   1.041  1.00  0.00     0.163 HD
ATOM     36  O   UNL     1      -8.336  12.214   1.865  1.00  0.00    -0.269 OA
BRANCH  34  37
ATOM     37  C   UNL     1      -6.020  12.355   2.199  1.00  0.00     0.039 A 
ATOM     38  C   UNL     1      -5.875  13.667   1.727  1.00  0.00     0.014 A 
ATOM     39  C   UNL     1      -4.938  11.705   2.780  1.00  0.00     0.014 A 
ATOM     40  C   UNL     1      -4.598  14.210   1.589  1.00  0.00     0.010 A 
ATOM     41  C   UNL     1      -3.669  12.188   2.542  1.00  0.00     0.010 A 
ATOM     42  C   UNL     1      -3.499  13.407   1.877  1.00  0.00    -0.014 A 
BRANCH  42  43
ATOM     43  C   UNL     1      -2.143  13.678   1.415  1.00  0.00     0.031 A 
ATOM     44  C   UNL     1      -1.083  14.053   2.370  1.00  0.00     0.074 A 
ATOM     45  C   UNL     1      -1.831  13.386   0.133  1.00  0.00     0.049 A 
ATOM     46  N   UNL     1       0.070  14.522   2.034  1.00  0.00    -0.248 NA
ATOM     47  C   UNL     1      -1.257  13.948   3.812  1.00  0.00     0.031 C 
ATOM     48  C   UNL     1      -0.499  13.228  -0.446  1.00  0.00     0.029 A 
ATOM     49  N   UNL     1      -2.694  13.359  -0.977  1.00  0.00    -0.354 N 
ATOM     50  C   UNL     1       0.872  14.534   3.152  1.00  0.00     0.074 A 
ATOM     51  C   UNL     1      -0.021  14.216   4.242  1.00  0.00     0.031 C 
ATOM     52  C   UNL     1      -0.578  13.432  -1.770  1.00  0.00     0.029 A 
ATOM     53  C   UNL     1      -1.930  13.874  -2.054  1.00  0.00     0.049 A 
ATOM     54  H   UNL     1      -3.628  13.049  -1.000  1.00  0.00     0.167 HD
ATOM     55  C   UNL     1       2.219  14.706   2.994  1.00  0.00     0.037 A 
ATOM     56  C   UNL     1      -2.260  15.073  -2.620  1.00  0.00     0.037 A 
ATOM     57  C   UNL     1       2.548  15.024   1.602  1.00  0.00     0.049 A 
ATOM     58  C   UNL     1      -1.216  16.160  -2.459  1.00  0.00     0.074 A 
ATOM     59  C   UNL     1       3.032  14.303   0.522  1.00  0.00     0.029 A 
ATOM     60  N   UNL     1       2.093  16.223   1.083  1.00  0.00    -0.354 N 
ATOM     61  N   UNL     1      -0.108  16.021  -1.786  1.00  0.00    -0.248 NA
ATOM     62  C   UNL     1      -1.386  17.522  -2.970  1.00  0.00     0.031 C 
ATOM     63  C   UNL     1       2.821  15.075  -0.658  1.00  0.00     0.029 A 
ATOM     64  C   UNL     1       2.216  16.264  -0.291  1.00  0.00     0.049 A 
ATOM     65  H   UNL     1       1.726  16.956   1.627  1.00  0.00     0.167 HD
ATOM     66  C   UNL     1       0.536  17.225  -1.718  1.00  0.00     0.074 A 
ATOM     67  C   UNL     1      -0.294  18.135  -2.482  1.00  0.00     0.031 C 
ATOM     68  C   UNL     1       1.684  17.409  -1.008  1.00  0.00     0.037 A 
BRANCH  55  69
ATOM     69  C   UNL     1       3.271  14.395   4.040  1.00  0.00     0.064 A 
ATOM     70  C   UNL     1       4.596  14.091   3.654  1.00  0.00     0.173 A 
ATOM     71  C   UNL     1       3.043  14.325   5.427  1.00  0.00     0.173 A 
ATOM     72  F   UNL     1       5.002  14.215   2.383  1.00  0.00    -0.203 F 
ATOM     73  C   UNL     1       5.565  13.648   4.560  1.00  0.00     0.198 A 
ATOM     74  C   UNL     1       3.993  13.830   6.327  1.00  0.00     0.198 A 
ATOM     75  F   UNL     1       1.924  14.800   5.980  1.00  0.00    -0.203 F 
ATOM     76  F   UNL     1       6.804  13.373   4.127  1.00  0.00    -0.200 F 
ATOM     77  C   UNL     1       5.253  13.480   5.891  1.00  0.00     0.200 A 
ATOM     78  F   UNL     1       3.675  13.705   7.623  1.00  0.00    -0.200 F 
ATOM     79  F   UNL     1       6.166  13.016   6.754  1.00  0.00    -0.200 F 
ENDBRANCH  55  69
BRANCH  56  80
ATOM     80  C   UNL     1      -3.731  15.290  -2.653  1.00  0.00     0.064 A 
ATOM     81  C   UNL     1      -4.514  14.392  -3.405  1.00  0.00     0.173 A 
ATOM     82  C   UNL     1      -4.379  16.055  -1.677  1.00  0.00     0.173 A 
ATOM     83  F   UNL     1      -3.939  13.634  -4.353  1.00  0.00    -0.203 F 
ATOM     84  C   UNL     1      -5.855  14.171  -3.101  1.00  0.00     0.198 A 
ATOM     85  C   UNL     1      -5.729  15.845  -1.389  1.00  0.00     0.198 A 
ATOM     86  F   UNL     1      -3.685  16.913  -0.915  1.00  0.00    -0.203 F 
ATOM     87  F   UNL     1      -6.539  13.217  -3.748  1.00  0.00    -0.200 F 
ATOM     88  C   UNL     1      -6.453  14.877  -2.071  1.00  0.00     0.200 A 
ATOM     89  F   UNL     1      -6.303  16.511  -0.377  1.00  0.00    -0.200 F 
ATOM     90  F   UNL     1      -7.711  14.595  -1.707  1.00  0.00    -0.200 F 
ENDBRANCH  56  80
BRANCH  68  91
ATOM     91  C   UNL     1       2.401  18.719  -0.946  1.00  0.00     0.064 A 
ATOM     92  C   UNL     1       2.764  19.417  -2.107  1.00  0.00     0.173 A 
ATOM     93  C   UNL     1       2.865  19.241   0.278  1.00  0.00     0.173 A 
ATOM     94  F   UNL     1       2.385  18.974  -3.315  1.00  0.00    -0.203 F 
ATOM     95  C   UNL     1       3.538  20.577  -2.045  1.00  0.00     0.198 A 
ATOM     96  C   UNL     1       3.678  20.370   0.332  1.00  0.00     0.198 A 
ATOM     97  F   UNL     1       2.525  18.677   1.446  1.00  0.00    -0.203 F 
ATOM     98  F   UNL     1       3.834  21.239  -3.172  1.00  0.00    -0.200 F 
ATOM     99  C   UNL     1       4.009  21.042  -0.829  1.00  0.00     0.200 A 
ATOM    100  F   UNL     1       4.137  20.802   1.516  1.00  0.00    -0.200 F 
ATOM    101  F   UNL     1       4.777  22.138  -0.775  1.00  0.00    -0.200 F 
ENDBRANCH  68  91
ENDBRANCH  42  43
ENDBRANCH  34  37
ENDBRANCH  32  33
ENDBRANCH  31  32
ENDBRANCH   1  31
TORSDOF 14
