REMARK SMILES CCC[C@@H]([NH2+]Cc1cc(Cl)cs1)C(=O)NCCCCCCNC(=O)c1ccc(-c2c3nc(c(-c4c(F)c(F)c(F)c(F)c4F)c4ccc([nH]4)c(-c4c(F)c(F)c(F)c(F)c4F)c4nc(c(-c5c(F)c(F)c(F)c(F)c5F)c5ccc2[nH]5)C=C4)C=C3)cc1
REMARK SMILES IDX 18 1 17 2 16 3 15 4 13 5 14 6 4 8 3 9 2 10 1 11 5 12 6 15
REMARK SMILES IDX 7 16 8 17 12 18 9 19 11 20 10 21 19 22 20 23 21 24 22 25
REMARK SMILES IDX 23 26 24 28 25 29 26 30 87 31 27 32 86 33 28 34 29 35 30 36
REMARK SMILES IDX 80 37 31 38 85 39 79 40 81 41 32 42 84 43 78 44 77 45 33 47
REMARK SMILES IDX 65 48 45 49 64 50 46 51 49 52 63 53 82 54 47 55 48 56 62 58
REMARK SMILES IDX 83 59 50 60 34 61 35 62 43 63 36 64 37 65 41 66 44 67 38 68
REMARK SMILES IDX 39 69 42 70 40 71 66 72 67 73 75 74 68 75 69 76 73 77 76 78
REMARK SMILES IDX 70 79 71 80 74 81 72 82 51 83 52 84 60 85 53 86 54 87 58 88
REMARK SMILES IDX 61 89 55 90 56 91 59 92 57 93
REMARK H PARENT 15 7 5 13 5 14 22 27 81 46 49 57
REMARK Flexibility Score: inf
ROOT
ATOM      1  C   UNL     1       1.038   3.103   6.829  1.00  0.00     0.002 C 
ENDROOT
BRANCH   1   2
ATOM      2  C   UNL     1       0.626   2.087   5.756  1.00  0.00     0.021 C 
BRANCH   2   3
ATOM      3  C   UNL     1      -0.196   2.691   4.616  1.00  0.00     0.116 C 
BRANCH   3   4
ATOM      4  N   UNL     1       0.621   3.591   3.825  1.00  0.00    -0.351 N 
ATOM      5  C   UNL     1       1.040   3.486   2.533  1.00  0.00     0.278 C 
ATOM      6  O   UNL     1       1.775   4.378   2.098  1.00  0.00    -0.268 OA
ATOM      7  H   UNL     1       0.918   4.404   4.294  1.00  0.00     0.163 HD
BRANCH   5   8
ATOM      8  C   UNL     1       0.588   2.321   1.623  1.00  0.00     0.272 C 
BRANCH   8   9
ATOM      9  C   UNL     1       1.197   0.982   2.098  1.00  0.00     0.075 C 
BRANCH   9  10
ATOM     10  C   UNL     1       0.791  -0.263   1.301  1.00  0.00     0.003 C 
ATOM     11  C   UNL     1       1.295  -0.258  -0.131  1.00  0.00     0.004 C 
ENDBRANCH   9  10
ENDBRANCH   8   9
BRANCH   8  12
ATOM     12  N   UNL     1      -0.892   2.272   1.510  1.00  0.00    -0.332 N 
ATOM     13  H   UNL     1      -1.280   2.083   2.434  1.00  0.00     0.347 HD
ATOM     14  H   UNL     1      -1.114   1.540   0.835  1.00  0.00     0.347 HD
BRANCH  12  15
ATOM     15  C   UNL     1      -1.491   3.518   1.003  1.00  0.00     0.309 C 
BRANCH  15  16
ATOM     16  C   UNL     1      -1.094   3.865  -0.404  1.00  0.00     0.060 A 
ATOM     17  C   UNL     1      -0.637   5.082  -0.877  1.00  0.00     0.041 A 
ATOM     18  S   UNL     1      -1.212   2.712  -1.673  1.00  0.00    -0.141 S 
ATOM     19  C   UNL     1      -0.316   5.040  -2.262  1.00  0.00     0.052 A 
ATOM     20  C   UNL     1      -0.540   3.799  -2.809  1.00  0.00     0.085 A 
ATOM     21  Cl  UNL     1       0.287   6.391  -3.115  1.00  0.00    -0.083 Cl
ENDBRANCH  15  16
ENDBRANCH  12  15
ENDBRANCH   8  12
ENDBRANCH   5   8
ENDBRANCH   3   4
ENDBRANCH   2   3
ENDBRANCH   1   2
BRANCH   1  22
ATOM     22  C   UNL     1      -0.127   3.836   7.504  1.00  0.00     0.002 C 
BRANCH  22  23
ATOM     23  C   UNL     1      -1.193   2.925   8.115  1.00  0.00     0.021 C 
BRANCH  23  24
ATOM     24  C   UNL     1      -0.666   1.962   9.172  1.00  0.00     0.116 C 
BRANCH  24  25
ATOM     25  N   UNL     1      -0.140   2.660  10.334  1.00  0.00    -0.352 N 
ATOM     26  C   UNL     1      -0.432   2.472  11.659  1.00  0.00     0.251 C 
ATOM     27  H   UNL     1       0.518   3.366  10.142  1.00  0.00     0.163 HD
ATOM     28  O   UNL     1      -0.044   3.280  12.503  1.00  0.00    -0.269 OA
BRANCH  26  29
ATOM     29  C   UNL     1      -1.231   1.302  12.077  1.00  0.00     0.039 A 
ATOM     30  C   UNL     1      -2.261   1.480  13.004  1.00  0.00     0.014 A 
ATOM     31  C   UNL     1      -0.956   0.031  11.563  1.00  0.00     0.014 A 
ATOM     32  C   UNL     1      -3.046   0.391  13.381  1.00  0.00     0.010 A 
ATOM     33  C   UNL     1      -1.785  -1.038  11.884  1.00  0.00     0.010 A 
ATOM     34  C   UNL     1      -2.830  -0.872  12.806  1.00  0.00    -0.014 A 
BRANCH  34  35
ATOM     35  C   UNL     1      -3.669  -2.040  13.175  1.00  0.00     0.031 A 
ATOM     36  C   UNL     1      -3.049  -3.215  13.878  1.00  0.00     0.074 A 
ATOM     37  C   UNL     1      -4.969  -2.067  12.827  1.00  0.00     0.049 A 
ATOM     38  N   UNL     1      -3.590  -4.357  14.222  1.00  0.00    -0.248 NA
ATOM     39  C   UNL     1      -1.621  -3.103  14.215  1.00  0.00     0.031 C 
ATOM     40  C   UNL     1      -5.675  -1.006  12.109  1.00  0.00     0.029 A 
ATOM     41  N   UNL     1      -5.927  -3.030  13.024  1.00  0.00    -0.354 N 
ATOM     42  C   UNL     1      -2.569  -5.100  14.798  1.00  0.00     0.074 A 
ATOM     43  C   UNL     1      -1.363  -4.306  14.706  1.00  0.00     0.031 C 
ATOM     44  C   UNL     1      -6.959  -1.364  11.946  1.00  0.00     0.029 A 
ATOM     45  C   UNL     1      -7.157  -2.694  12.514  1.00  0.00     0.049 A 
ATOM     46  H   UNL     1      -5.749  -3.880  13.487  1.00  0.00     0.167 HD
ATOM     47  C   UNL     1      -2.635  -6.323  15.376  1.00  0.00     0.037 A 
ATOM     48  C   UNL     1      -8.313  -3.385  12.504  1.00  0.00     0.037 A 
ATOM     49  C   UNL     1      -3.842  -7.099  15.486  1.00  0.00     0.049 A 
ATOM     50  C   UNL     1      -8.359  -4.747  13.144  1.00  0.00     0.074 A 
ATOM     51  C   UNL     1      -4.027  -8.329  16.093  1.00  0.00     0.029 A 
ATOM     52  N   UNL     1      -5.074  -6.718  14.974  1.00  0.00    -0.354 N 
ATOM     53  N   UNL     1      -7.401  -5.416  13.739  1.00  0.00    -0.248 NA
ATOM     54  C   UNL     1      -9.651  -5.446  13.118  1.00  0.00     0.031 C 
ATOM     55  C   UNL     1      -5.360  -8.712  15.910  1.00  0.00     0.029 A 
ATOM     56  C   UNL     1      -6.019  -7.696  15.236  1.00  0.00     0.049 A 
ATOM     57  H   UNL     1      -5.251  -5.876  14.494  1.00  0.00     0.167 HD
ATOM     58  C   UNL     1      -7.981  -6.594  14.190  1.00  0.00     0.074 A 
ATOM     59  C   UNL     1      -9.377  -6.545  13.807  1.00  0.00     0.031 C 
ATOM     60  C   UNL     1      -7.409  -7.623  14.862  1.00  0.00     0.037 A 
BRANCH  47  61
ATOM     61  C   UNL     1      -1.364  -6.894  15.935  1.00  0.00     0.064 A 
ATOM     62  C   UNL     1      -0.745  -6.343  17.069  1.00  0.00     0.173 A 
ATOM     63  C   UNL     1      -0.766  -8.017  15.345  1.00  0.00     0.173 A 
ATOM     64  F   UNL     1      -1.268  -5.261  17.665  1.00  0.00    -0.203 F 
ATOM     65  C   UNL     1       0.442  -6.873  17.568  1.00  0.00     0.198 A 
ATOM     66  C   UNL     1       0.403  -8.566  15.867  1.00  0.00     0.198 A 
ATOM     67  F   UNL     1      -1.317  -8.588  14.263  1.00  0.00    -0.203 F 
ATOM     68  F   UNL     1       1.044  -6.294  18.616  1.00  0.00    -0.200 F 
ATOM     69  C   UNL     1       1.011  -7.987  16.971  1.00  0.00     0.200 A 
ATOM     70  F   UNL     1       0.946  -9.651  15.297  1.00  0.00    -0.200 F 
ATOM     71  F   UNL     1       2.152  -8.499  17.455  1.00  0.00    -0.200 F 
ENDBRANCH  47  61
BRANCH  48  72
ATOM     72  C   UNL     1      -9.530  -2.787  11.897  1.00  0.00     0.064 A 
ATOM     73  C   UNL     1     -10.611  -2.393  12.698  1.00  0.00     0.173 A 
ATOM     74  C   UNL     1      -9.642  -2.600  10.512  1.00  0.00     0.173 A 
ATOM     75  F   UNL     1     -10.559  -2.570  14.027  1.00  0.00    -0.203 F 
ATOM     76  C   UNL     1     -11.766  -1.855  12.136  1.00  0.00     0.198 A 
ATOM     77  C   UNL     1     -10.787  -2.035   9.953  1.00  0.00     0.198 A 
ATOM     78  F   UNL     1      -8.634  -2.955   9.702  1.00  0.00    -0.203 F 
ATOM     79  F   UNL     1     -12.802  -1.529  12.921  1.00  0.00    -0.200 F 
ATOM     80  C   UNL     1     -11.851  -1.671  10.764  1.00  0.00     0.200 A 
ATOM     81  F   UNL     1     -10.859  -1.845   8.628  1.00  0.00    -0.200 F 
ATOM     82  F   UNL     1     -12.960  -1.149  10.223  1.00  0.00    -0.200 F 
ENDBRANCH  48  72
BRANCH  60  83
ATOM     83  C   UNL     1      -8.302  -8.758  15.274  1.00  0.00     0.064 A 
ATOM     84  C   UNL     1      -8.821  -9.667  14.341  1.00  0.00     0.173 A 
ATOM     85  C   UNL     1      -8.610  -8.958  16.628  1.00  0.00     0.173 A 
ATOM     86  F   UNL     1      -8.569  -9.511  13.033  1.00  0.00    -0.203 F 
ATOM     87  C   UNL     1      -9.639 -10.719  14.747  1.00  0.00     0.198 A 
ATOM     88  C   UNL     1      -9.401 -10.029  17.034  1.00  0.00     0.198 A 
ATOM     89  F   UNL     1      -8.133  -8.121  17.562  1.00  0.00    -0.203 F 
ATOM     90  F   UNL     1     -10.165 -11.547  13.833  1.00  0.00    -0.200 F 
ATOM     91  C   UNL     1      -9.921 -10.904  16.092  1.00  0.00     0.200 A 
ATOM     92  F   UNL     1      -9.661 -10.214  18.335  1.00  0.00    -0.200 F 
ATOM     93  F   UNL     1     -10.702 -11.921  16.481  1.00  0.00    -0.200 F 
ENDBRANCH  60  83
ENDBRANCH  34  35
ENDBRANCH  26  29
ENDBRANCH  24  25
ENDBRANCH  23  24
ENDBRANCH  22  23
ENDBRANCH   1  22
TORSDOF 18
