REMARK SMILES CC1(C)CCC[C@H]1NC(=O)N[C@@H]1COC[C@@]1(C)C(=O)NCCCCCCNC(=O)c1ccc(-c2c3nc(c(-c4c(F)c(F)c(F)c(F)c4F)c4ccc([nH]4)c(-c4c(F)c(F)c(F)c(F)c4F)c4nc(c(-c5c(F)c(F)c(F)c(F)c5F)c5ccc2[nH]5)C=C4)C=C3)cc1
REMARK SMILES IDX 23 1 22 2 21 3 20 4 18 5 19 6 16 8 12 9 13 10 14 11 15 12
REMARK SMILES IDX 17 13 11 14 8 15 9 16 10 18 7 20 1 21 2 22 3 23 4 24 5 25
REMARK SMILES IDX 6 26 24 27 25 28 26 29 27 30 28 31 29 33 30 34 31 35 92 36
REMARK SMILES IDX 32 37 91 38 33 39 34 40 35 41 85 42 36 43 90 44 84 45 86 46
REMARK SMILES IDX 37 47 89 48 83 49 82 50 38 52 70 53 50 54 69 55 51 56 54 57
REMARK SMILES IDX 68 58 87 59 52 60 53 61 67 63 88 64 55 65 39 66 40 67 48 68
REMARK SMILES IDX 41 69 42 70 46 71 49 72 43 73 44 74 47 75 45 76 71 77 72 78
REMARK SMILES IDX 80 79 73 80 74 81 78 82 81 83 75 84 76 85 79 86 77 87 56 88
REMARK SMILES IDX 57 89 65 90 58 91 59 92 63 93 66 94 60 95 61 96 64 97 62 98
REMARK H PARENT 20 7 8 17 11 19 27 32 86 51 54 62
REMARK Flexibility Score: inf
ROOT
ATOM      1  C   UNL     1       5.482   2.091   2.630  1.00  0.00     0.002 C 
ENDROOT
BRANCH   1   2
ATOM      2  C   UNL     1       3.998   2.162   2.269  1.00  0.00     0.021 C 
BRANCH   2   3
ATOM      3  C   UNL     1       3.493   3.515   1.761  1.00  0.00     0.116 C 
BRANCH   3   4
ATOM      4  N   UNL     1       3.845   3.839   0.391  1.00  0.00    -0.355 N 
ATOM      5  C   UNL     1       3.121   3.769  -0.766  1.00  0.00     0.230 C 
ATOM      6  O   UNL     1       3.614   4.322  -1.752  1.00  0.00    -0.274 OA
ATOM      7  H   UNL     1       4.767   4.165   0.275  1.00  0.00     0.163 HD
BRANCH   5   8
ATOM      8  C   UNL     1       1.807   2.978  -0.862  1.00  0.00     0.092 C 
ATOM      9  C   UNL     1       0.578   3.656  -0.222  1.00  0.00     0.127 C 
ATOM     10  C   UNL     1      -0.546   3.598  -1.253  1.00  0.00     0.186 C 
ATOM     11  O   UNL     1      -0.074   2.788  -2.329  1.00  0.00    -0.378 OA
ATOM     12  C   UNL     1       1.356   2.925  -2.339  1.00  0.00     0.179 C 
ATOM     13  C   UNL     1       2.108   1.560  -0.424  1.00  0.00     0.026 C 
BRANCH   9  14
ATOM     14  N   UNL     1       0.146   3.312   1.141  1.00  0.00    -0.332 N 
ATOM     15  N   UNL     1      -0.620   1.077   1.479  1.00  0.00    -0.335 N 
ATOM     16  C   UNL     1      -0.309   2.305   1.877  1.00  0.00     0.315 C 
ATOM     17  H   UNL     1      -0.728   0.471   2.247  1.00  0.00     0.165 HD
ATOM     18  O   UNL     1      -0.429   2.541   3.085  1.00  0.00    -0.249 OA
ATOM     19  H   UNL     1       0.221   4.112   1.709  1.00  0.00     0.165 HD
BRANCH  15  20
ATOM     20  C   UNL     1      -0.845   0.376   0.216  1.00  0.00     0.089 C 
ATOM     21  C   UNL     1       1.043  -1.276   1.066  1.00  0.00     0.013 C 
ATOM     22  C   UNL     1      -0.192  -1.054   0.175  1.00  0.00    -0.015 C 
ATOM     23  C   UNL     1       0.173  -1.454  -1.276  1.00  0.00     0.013 C 
ATOM     24  C   UNL     1      -1.331  -1.957   0.676  1.00  0.00     0.008 C 
ATOM     25  C   UNL     1      -2.568  -1.387   0.011  1.00  0.00     0.003 C 
ATOM     26  C   UNL     1      -2.365   0.124   0.052  1.00  0.00     0.025 C 
ENDBRANCH  15  20
ENDBRANCH   9  14
ENDBRANCH   5   8
ENDBRANCH   3   4
ENDBRANCH   2   3
ENDBRANCH   1   2
BRANCH   1  27
ATOM     27  C   UNL     1       5.960   3.107   3.667  1.00  0.00     0.002 C 
BRANCH  27  28
ATOM     28  C   UNL     1       5.154   3.145   4.970  1.00  0.00     0.021 C 
BRANCH  28  29
ATOM     29  C   UNL     1       5.157   1.840   5.762  1.00  0.00     0.116 C 
BRANCH  29  30
ATOM     30  N   UNL     1       6.495   1.492   6.214  1.00  0.00    -0.352 N 
ATOM     31  C   UNL     1       7.029   1.522   7.478  1.00  0.00     0.251 C 
ATOM     32  H   UNL     1       7.110   1.189   5.507  1.00  0.00     0.163 HD
ATOM     33  O   UNL     1       8.245   1.473   7.634  1.00  0.00    -0.269 OA
BRANCH  31  34
ATOM     34  C   UNL     1       6.144   1.608   8.659  1.00  0.00     0.039 A 
ATOM     35  C   UNL     1       6.498   2.452   9.715  1.00  0.00     0.014 A 
ATOM     36  C   UNL     1       4.997   0.813   8.750  1.00  0.00     0.014 A 
ATOM     37  C   UNL     1       5.678   2.534  10.843  1.00  0.00     0.010 A 
ATOM     38  C   UNL     1       4.147   0.944   9.845  1.00  0.00     0.010 A 
ATOM     39  C   UNL     1       4.484   1.797  10.906  1.00  0.00    -0.014 A 
BRANCH  39  40
ATOM     40  C   UNL     1       3.581   1.892  12.080  1.00  0.00     0.031 A 
ATOM     41  C   UNL     1       3.364   0.696  12.964  1.00  0.00     0.074 A 
ATOM     42  C   UNL     1       2.910   3.036  12.313  1.00  0.00     0.049 A 
ATOM     43  N   UNL     1       2.564   0.556  13.991  1.00  0.00    -0.248 NA
ATOM     44  C   UNL     1       4.131  -0.515  12.633  1.00  0.00     0.031 C 
ATOM     45  C   UNL     1       3.006   4.251  11.504  1.00  0.00     0.029 A 
ATOM     46  N   UNL     1       2.005   3.358  13.293  1.00  0.00    -0.354 N 
ATOM     47  C   UNL     1       2.721  -0.756  14.417  1.00  0.00     0.074 A 
ATOM     48  C   UNL     1       3.651  -1.388  13.506  1.00  0.00     0.031 C 
ATOM     49  C   UNL     1       2.209   5.194  12.032  1.00  0.00     0.029 A 
ATOM     50  C   UNL     1       1.520   4.639  13.193  1.00  0.00     0.049 A 
ATOM     51  H   UNL     1       1.729   2.731  14.000  1.00  0.00     0.167 HD
ATOM     52  C   UNL     1       2.158  -1.372  15.485  1.00  0.00     0.037 A 
ATOM     53  C   UNL     1       0.617   5.289  13.951  1.00  0.00     0.037 A 
ATOM     54  C   UNL     1       1.248  -0.733  16.399  1.00  0.00     0.049 A 
ATOM     55  C   UNL     1      -0.005   4.579  15.123  1.00  0.00     0.074 A 
ATOM     56  C   UNL     1       0.663  -1.252  17.541  1.00  0.00     0.029 A 
ATOM     57  N   UNL     1       0.788   0.570  16.271  1.00  0.00    -0.354 N 
ATOM     58  N   UNL     1       0.198   3.358  15.554  1.00  0.00    -0.248 NA
ATOM     59  C   UNL     1      -0.979   5.341  15.916  1.00  0.00     0.031 C 
ATOM     60  C   UNL     1      -0.183  -0.278  18.080  1.00  0.00     0.029 A 
ATOM     61  C   UNL     1      -0.090   0.865  17.302  1.00  0.00     0.049 A 
ATOM     62  H   UNL     1       1.046   1.192  15.554  1.00  0.00     0.167 HD
ATOM     63  C   UNL     1      -0.598   3.214  16.682  1.00  0.00     0.074 A 
ATOM     64  C   UNL     1      -1.278   4.478  16.876  1.00  0.00     0.031 C 
ATOM     65  C   UNL     1      -0.752   2.132  17.484  1.00  0.00     0.037 A 
BRANCH  52  66
ATOM     66  C   UNL     1       2.516  -2.811  15.720  1.00  0.00     0.064 A 
ATOM     67  C   UNL     1       3.802  -3.191  16.136  1.00  0.00     0.173 A 
ATOM     68  C   UNL     1       1.558  -3.822  15.552  1.00  0.00     0.173 A 
ATOM     69  F   UNL     1       4.758  -2.264  16.302  1.00  0.00    -0.203 F 
ATOM     70  C   UNL     1       4.125  -4.530  16.339  1.00  0.00     0.198 A 
ATOM     71  C   UNL     1       1.876  -5.158  15.786  1.00  0.00     0.198 A 
ATOM     72  F   UNL     1       0.311  -3.516  15.162  1.00  0.00    -0.203 F 
ATOM     73  F   UNL     1       5.375  -4.871  16.681  1.00  0.00    -0.200 F 
ATOM     74  C   UNL     1       3.161  -5.512  16.169  1.00  0.00     0.200 A 
ATOM     75  F   UNL     1       0.940  -6.105  15.634  1.00  0.00    -0.200 F 
ATOM     76  F   UNL     1       3.472  -6.800  16.368  1.00  0.00    -0.200 F 
ENDBRANCH  52  66
BRANCH  53  77
ATOM     77  C   UNL     1       0.273   6.701  13.645  1.00  0.00     0.064 A 
ATOM     78  C   UNL     1       0.682   7.738  14.495  1.00  0.00     0.173 A 
ATOM     79  C   UNL     1      -0.464   7.046  12.503  1.00  0.00     0.173 A 
ATOM     80  F   UNL     1       1.371   7.456  15.611  1.00  0.00    -0.203 F 
ATOM     81  C   UNL     1       0.354   9.064  14.223  1.00  0.00     0.198 A 
ATOM     82  C   UNL     1      -0.768   8.375  12.217  1.00  0.00     0.198 A 
ATOM     83  F   UNL     1      -0.875   6.091  11.655  1.00  0.00    -0.203 F 
ATOM     84  F   UNL     1       0.723  10.031  15.074  1.00  0.00    -0.200 F 
ATOM     85  C   UNL     1      -0.365   9.383  13.081  1.00  0.00     0.200 A 
ATOM     86  F   UNL     1      -1.452   8.680  11.106  1.00  0.00    -0.200 F 
ATOM     87  F   UNL     1      -0.676  10.659  12.817  1.00  0.00    -0.200 F 
ENDBRANCH  53  77
BRANCH  65  88
ATOM     88  C   UNL     1      -1.667   2.279  18.665  1.00  0.00     0.064 A 
ATOM     89  C   UNL     1      -3.059   2.345  18.515  1.00  0.00     0.173 A 
ATOM     90  C   UNL     1      -1.143   2.317  19.967  1.00  0.00     0.173 A 
ATOM     91  F   UNL     1      -3.607   2.329  17.290  1.00  0.00    -0.203 F 
ATOM     92  C   UNL     1      -3.893   2.470  19.623  1.00  0.00     0.198 A 
ATOM     93  C   UNL     1      -1.981   2.412  21.074  1.00  0.00     0.198 A 
ATOM     94  F   UNL     1       0.182   2.252  20.165  1.00  0.00    -0.203 F 
ATOM     95  F   UNL     1      -5.218   2.579  19.453  1.00  0.00    -0.200 F 
ATOM     96  C   UNL     1      -3.354   2.496  20.901  1.00  0.00     0.200 A 
ATOM     97  F   UNL     1      -1.460   2.424  22.308  1.00  0.00    -0.200 F 
ATOM     98  F   UNL     1      -4.159   2.609  21.966  1.00  0.00    -0.200 F 
ENDBRANCH  65  88
ENDBRANCH  39  40
ENDBRANCH  31  34
ENDBRANCH  29  30
ENDBRANCH  28  29
ENDBRANCH  27  28
ENDBRANCH   1  27
TORSDOF 15
