REMARK SMILES CCCCCCNC(=O)Nc1cccc(-c2ccc([C@@H](C)C(=O)NCCCCCCNC(=O)c3ccc(-c4c5nc(c(-c6c(F)c(F)c(F)c(F)c6F)c6ccc([nH]6)c(-c6c(F)c(F)c(F)c(F)c6F)c6nc(c(-c7c(F)c(F)c(F)c(F)c7F)c7ccc4[nH]7)C=C6)C=C5)cc3)cc2F)c1
REMARK SMILES IDX 22 1 23 2 24 3 20 5 21 6 19 7 16 8 17 9 98 10 18 11 97 12
REMARK SMILES IDX 99 13 15 14 11 15 12 16 100 17 13 18 14 19 10 20 7 21 8 22
REMARK SMILES IDX 9 24 6 26 5 27 4 28 3 29 2 30 1 31 25 32 26 33 27 34 28 35
REMARK SMILES IDX 29 36 30 37 31 38 32 39 33 41 34 42 35 43 96 44 36 45 95 46
REMARK SMILES IDX 37 47 38 48 39 49 89 50 40 51 94 52 88 53 90 54 41 55 93 56
REMARK SMILES IDX 87 57 86 58 42 60 74 61 54 62 73 63 55 64 58 65 72 66 91 67
REMARK SMILES IDX 56 68 57 69 71 71 92 72 59 73 43 74 44 75 52 76 45 77 46 78
REMARK SMILES IDX 50 79 53 80 47 81 48 82 51 83 49 84 75 85 76 86 84 87 77 88
REMARK SMILES IDX 78 89 82 90 85 91 79 92 80 93 83 94 81 95 60 96 61 97 69 98
REMARK SMILES IDX 62 99 63 100 67 101 70 102 64 103 65 104 68 105 66 106
REMARK H PARENT 24 4 7 23 10 25 31 40 90 59 58 70
REMARK Flexibility Score: inf
ROOT
ATOM      1  C   UNL     1      -0.912   5.962  -1.777  1.00  0.00     0.227 C 
ATOM      2  O   UNL     1       0.041   6.198  -2.530  1.00  0.00    -0.274 OA
ATOM      3  N   UNL     1      -0.598   5.657  -0.490  1.00  0.00    -0.356 N 
ATOM      4  H   UNL     1       0.354   5.778  -0.269  1.00  0.00     0.163 HD
ENDROOT
BRANCH   1   5
ATOM      5  C   UNL     1      -2.348   6.041  -2.314  1.00  0.00     0.105 C 
ATOM      6  C   UNL     1      -3.258   7.009  -1.557  1.00  0.00     0.023 C 
BRANCH   5   7
ATOM      7  C   UNL     1      -2.974   4.693  -2.644  1.00  0.00    -0.033 A 
ATOM      8  C   UNL     1      -4.098   2.150  -3.345  1.00  0.00     0.018 A 
ATOM      9  C   UNL     1      -4.140   2.641  -2.030  1.00  0.00     0.012 A 
ATOM     10  C   UNL     1      -3.490   2.977  -4.299  1.00  0.00     0.131 A 
ATOM     11  C   UNL     1      -3.618   3.896  -1.695  1.00  0.00     0.005 A 
ATOM     12  C   UNL     1      -2.922   4.211  -3.960  1.00  0.00     0.044 A 
ATOM     13  F   UNL     1      -3.435   2.605  -5.588  1.00  0.00    -0.206 F 
BRANCH   8  14
ATOM     14  C   UNL     1      -4.631   0.805  -3.660  1.00  0.00    -0.013 A 
ATOM     15  C   UNL     1      -4.343  -1.387  -4.712  1.00  0.00     0.043 A 
ATOM     16  C   UNL     1      -5.510  -1.851  -4.111  1.00  0.00     0.026 A 
ATOM     17  C   UNL     1      -3.956  -0.051  -4.545  1.00  0.00     0.035 A 
ATOM     18  C   UNL     1      -6.216  -1.016  -3.250  1.00  0.00     0.003 A 
ATOM     19  C   UNL     1      -5.773   0.290  -3.018  1.00  0.00     0.009 A 
BRANCH  15  20
ATOM     20  N   UNL     1      -3.558  -2.305  -5.424  1.00  0.00    -0.308 N 
ATOM     21  N   UNL     1      -1.344  -1.812  -4.743  1.00  0.00    -0.338 N 
ATOM     22  C   UNL     1      -2.219  -2.336  -5.636  1.00  0.00     0.319 C 
ATOM     23  H   UNL     1      -0.426  -1.704  -5.082  1.00  0.00     0.165 HD
ATOM     24  O   UNL     1      -1.771  -2.940  -6.611  1.00  0.00    -0.249 OA
ATOM     25  H   UNL     1      -4.059  -3.045  -5.837  1.00  0.00     0.171 HD
BRANCH  21  26
ATOM     26  C   UNL     1      -1.537  -1.383  -3.366  1.00  0.00     0.117 C 
BRANCH  26  27
ATOM     27  C   UNL     1      -0.599  -2.066  -2.377  1.00  0.00     0.021 C 
BRANCH  27  28
ATOM     28  C   UNL     1       0.879  -1.705  -2.521  1.00  0.00     0.002 C 
BRANCH  28  29
ATOM     29  C   UNL     1       1.216  -0.214  -2.401  1.00  0.00    -0.000 C 
BRANCH  29  30
ATOM     30  C   UNL     1       0.724   0.481  -1.128  1.00  0.00    -0.003 C 
ATOM     31  C   UNL     1       1.214  -0.186   0.148  1.00  0.00     0.004 C 
ENDBRANCH  29  30
ENDBRANCH  28  29
ENDBRANCH  27  28
ENDBRANCH  26  27
ENDBRANCH  21  26
ENDBRANCH  15  20
ENDBRANCH   8  14
ENDBRANCH   5   7
ENDBRANCH   1   5
BRANCH   3  32
ATOM     32  C   UNL     1      -1.407   5.189   0.613  1.00  0.00     0.116 C 
BRANCH  32  33
ATOM     33  C   UNL     1      -1.237   3.683   0.819  1.00  0.00     0.021 C 
BRANCH  33  34
ATOM     34  C   UNL     1      -0.072   3.325   1.745  1.00  0.00     0.002 C 
BRANCH  34  35
ATOM     35  C   UNL     1      -0.227   3.793   3.196  1.00  0.00     0.002 C 
BRANCH  35  36
ATOM     36  C   UNL     1      -1.500   3.313   3.900  1.00  0.00     0.021 C 
BRANCH  36  37
ATOM     37  C   UNL     1      -1.662   1.796   3.956  1.00  0.00     0.116 C 
BRANCH  37  38
ATOM     38  N   UNL     1      -0.586   1.164   4.703  1.00  0.00    -0.352 N 
ATOM     39  C   UNL     1      -0.643   0.412   5.850  1.00  0.00     0.251 C 
ATOM     40  H   UNL     1       0.316   1.294   4.332  1.00  0.00     0.163 HD
ATOM     41  O   UNL     1       0.379   0.156   6.475  1.00  0.00    -0.269 OA
BRANCH  39  42
ATOM     42  C   UNL     1      -1.947  -0.086   6.337  1.00  0.00     0.039 A 
ATOM     43  C   UNL     1      -2.241   0.005   7.699  1.00  0.00     0.014 A 
ATOM     44  C   UNL     1      -2.865  -0.662   5.455  1.00  0.00     0.014 A 
ATOM     45  C   UNL     1      -3.481  -0.434   8.169  1.00  0.00     0.010 A 
ATOM     46  C   UNL     1      -4.126  -1.032   5.912  1.00  0.00     0.010 A 
ATOM     47  C   UNL     1      -4.444  -0.928   7.274  1.00  0.00    -0.014 A 
BRANCH  47  48
ATOM     48  C   UNL     1      -5.786  -1.355   7.747  1.00  0.00     0.031 A 
ATOM     49  C   UNL     1      -6.205  -2.794   7.621  1.00  0.00     0.074 A 
ATOM     50  C   UNL     1      -6.644  -0.440   8.237  1.00  0.00     0.049 A 
ATOM     51  N   UNL     1      -7.357  -3.350   7.905  1.00  0.00    -0.248 NA
ATOM     52  C   UNL     1      -5.207  -3.728   7.078  1.00  0.00     0.031 C 
ATOM     53  C   UNL     1      -6.367   0.991   8.372  1.00  0.00     0.029 A 
ATOM     54  N   UNL     1      -7.928  -0.575   8.702  1.00  0.00    -0.354 N 
ATOM     55  C   UNL     1      -7.220  -4.691   7.574  1.00  0.00     0.074 A 
ATOM     56  C   UNL     1      -5.900  -4.855   7.006  1.00  0.00     0.031 C 
ATOM     57  C   UNL     1      -7.439   1.598   8.905  1.00  0.00     0.029 A 
ATOM     58  C   UNL     1      -8.493   0.609   9.111  1.00  0.00     0.049 A 
ATOM     59  H   UNL     1      -8.399  -1.438   8.739  1.00  0.00     0.167 HD
ATOM     60  C   UNL     1      -8.105  -5.701   7.753  1.00  0.00     0.037 A 
ATOM     61  C   UNL     1      -9.725   0.866   9.588  1.00  0.00     0.037 A 
ATOM     62  C   UNL     1      -9.413  -5.537   8.332  1.00  0.00     0.049 A 
ATOM     63  C   UNL     1     -10.699  -0.271   9.751  1.00  0.00     0.074 A 
ATOM     64  C   UNL     1     -10.373  -6.500   8.585  1.00  0.00     0.029 A 
ATOM     65  N   UNL     1      -9.944  -4.324   8.748  1.00  0.00    -0.354 N 
ATOM     66  N   UNL     1     -10.538  -1.544   9.487  1.00  0.00    -0.248 NA
ATOM     67  C   UNL     1     -12.025   0.067  10.287  1.00  0.00     0.031 C 
ATOM     68  C   UNL     1     -11.502  -5.866   9.114  1.00  0.00     0.029 A 
ATOM     69  C   UNL     1     -11.225  -4.514   9.241  1.00  0.00     0.049 A 
ATOM     70  H   UNL     1      -9.480  -3.458   8.700  1.00  0.00     0.167 HD
ATOM     71  C   UNL     1     -11.725  -2.164   9.857  1.00  0.00     0.074 A 
ATOM     72  C   UNL     1     -12.591  -1.128  10.379  1.00  0.00     0.031 C 
ATOM     73  C   UNL     1     -12.067  -3.473   9.773  1.00  0.00     0.037 A 
BRANCH  60  74
ATOM     74  C   UNL     1      -7.682  -7.078   7.329  1.00  0.00     0.064 A 
ATOM     75  C   UNL     1      -6.681  -7.782   8.017  1.00  0.00     0.173 A 
ATOM     76  C   UNL     1      -8.306  -7.719   6.248  1.00  0.00     0.173 A 
ATOM     77  F   UNL     1      -6.043  -7.210   9.050  1.00  0.00    -0.203 F 
ATOM     78  C   UNL     1      -6.300  -9.061   7.621  1.00  0.00     0.198 A 
ATOM     79  C   UNL     1      -7.946  -9.011   5.875  1.00  0.00     0.198 A 
ATOM     80  F   UNL     1      -9.273  -7.095   5.559  1.00  0.00    -0.203 F 
ATOM     81  F   UNL     1      -5.306  -9.691   8.262  1.00  0.00    -0.200 F 
ATOM     82  C   UNL     1      -6.939  -9.678   6.556  1.00  0.00     0.200 A 
ATOM     83  F   UNL     1      -8.573  -9.612   4.854  1.00  0.00    -0.200 F 
ATOM     84  F   UNL     1      -6.578 -10.913   6.181  1.00  0.00    -0.200 F 
ENDBRANCH  60  74
BRANCH  61  85
ATOM     85  C   UNL     1     -10.109   2.253   9.964  1.00  0.00     0.064 A 
ATOM     86  C   UNL     1     -10.353   2.596  11.302  1.00  0.00     0.173 A 
ATOM     87  C   UNL     1     -10.267   3.256   8.996  1.00  0.00     0.173 A 
ATOM     88  F   UNL     1     -10.234   1.668  12.262  1.00  0.00    -0.203 F 
ATOM     89  C   UNL     1     -10.772   3.878  11.652  1.00  0.00     0.198 A 
ATOM     90  C   UNL     1     -10.654   4.546   9.351  1.00  0.00     0.198 A 
ATOM     91  F   UNL     1     -10.040   2.983   7.702  1.00  0.00    -0.203 F 
ATOM     92  F   UNL     1     -11.056   4.161  12.931  1.00  0.00    -0.200 F 
ATOM     93  C   UNL     1     -10.918   4.853  10.678  1.00  0.00     0.200 A 
ATOM     94  F   UNL     1     -10.779   5.489   8.408  1.00  0.00    -0.200 F 
ATOM     95  F   UNL     1     -11.323   6.085  11.014  1.00  0.00    -0.200 F 
ENDBRANCH  61  85
BRANCH  73  96
ATOM     96  C   UNL     1     -13.417  -3.867  10.300  1.00  0.00     0.064 A 
ATOM     97  C   UNL     1     -14.601  -3.513   9.637  1.00  0.00     0.173 A 
ATOM     98  C   UNL     1     -13.522  -4.639  11.467  1.00  0.00     0.173 A 
ATOM     99  F   UNL     1     -14.555  -2.763   8.527  1.00  0.00    -0.203 F 
ATOM    100  C   UNL     1     -15.843  -3.893  10.140  1.00  0.00     0.198 A 
ATOM    101  C   UNL     1     -14.763  -5.046  11.948  1.00  0.00     0.198 A 
ATOM    102  F   UNL     1     -12.419  -5.011  12.135  1.00  0.00    -0.203 F 
ATOM    103  F   UNL     1     -16.963  -3.499   9.520  1.00  0.00    -0.200 F 
ATOM    104  C   UNL     1     -15.923  -4.665  11.290  1.00  0.00     0.200 A 
ATOM    105  F   UNL     1     -14.837  -5.804  13.051  1.00  0.00    -0.200 F 
ATOM    106  F   UNL     1     -17.118  -5.036  11.768  1.00  0.00    -0.200 F 
ENDBRANCH  73  96
ENDBRANCH  47  48
ENDBRANCH  39  42
ENDBRANCH  37  38
ENDBRANCH  36  37
ENDBRANCH  35  36
ENDBRANCH  34  35
ENDBRANCH  33  34
ENDBRANCH  32  33
ENDBRANCH   3  32
TORSDOF 21
