REMARK SMILES C[C@H](Nc1cccc(F)c1C(=O)NCCCCCCNC(=O)c1ccc(-c2c3nc(c(-c4c(F)c(F)c(F)c(F)c4F)c4ccc([nH]4)c(-c4c(F)c(F)c(F)c(F)c4F)c4nc(c(-c5c(F)c(F)c(F)c(F)c5F)c5ccc2[nH]5)C=C4)C=C3)cc1)c1cccc(Cl)c1
REMARK SMILES IDX 16 1 15 2 14 3 13 4 11 5 12 6 10 8 4 9 5 10 6 11 8 12 7 13
REMARK SMILES IDX 9 14 3 15 2 17 1 18 86 19 87 20 92 21 88 22 90 23 89 24
REMARK SMILES IDX 91 25 17 26 18 27 19 28 20 29 21 30 22 32 23 33 24 34 85 35
REMARK SMILES IDX 25 36 84 37 26 38 27 39 28 40 78 41 29 42 83 43 77 44 79 45
REMARK SMILES IDX 30 46 82 47 76 48 75 49 31 51 63 52 43 53 62 54 44 55 47 56
REMARK SMILES IDX 61 57 80 58 45 59 46 60 60 62 81 63 48 64 32 65 33 66 41 67
REMARK SMILES IDX 34 68 35 69 39 70 42 71 36 72 37 73 40 74 38 75 64 76 65 77
REMARK SMILES IDX 73 78 66 79 67 80 71 81 74 82 68 83 69 84 72 85 70 86 49 87
REMARK SMILES IDX 50 88 58 89 51 90 52 91 56 92 59 93 53 94 54 95 57 96 55 97
REMARK H PARENT 13 7 3 16 20 31 79 50 47 61
REMARK Flexibility Score: inf
ROOT
ATOM      1  C   UNL     1       3.609  -3.932  -5.357  1.00  0.00     0.002 C 
ENDROOT
BRANCH   1   2
ATOM      2  C   UNL     1       4.319  -3.502  -4.072  1.00  0.00     0.021 C 
BRANCH   2   3
ATOM      3  C   UNL     1       4.182  -2.039  -3.662  1.00  0.00     0.116 C 
BRANCH   3   4
ATOM      4  N   UNL     1       2.825  -1.642  -3.345  1.00  0.00    -0.352 N 
ATOM      5  C   UNL     1       2.307  -0.830  -2.363  1.00  0.00     0.256 C 
ATOM      6  O   UNL     1       1.080  -0.688  -2.373  1.00  0.00    -0.269 OA
ATOM      7  H   UNL     1       2.146  -2.025  -3.947  1.00  0.00     0.163 HD
BRANCH   5   8
ATOM      8  C   UNL     1       3.112  -0.205  -1.266  1.00  0.00     0.098 A 
ATOM      9  C   UNL     1       2.497   0.070  -0.012  1.00  0.00     0.050 A 
ATOM     10  C   UNL     1       3.289   0.516   1.063  1.00  0.00     0.027 A 
ATOM     11  C   UNL     1       4.646   0.780   0.897  1.00  0.00     0.005 A 
ATOM     12  C   UNL     1       4.439   0.199  -1.435  1.00  0.00     0.138 A 
ATOM     13  C   UNL     1       5.210   0.661  -0.366  1.00  0.00     0.040 A 
ATOM     14  F   UNL     1       5.008   0.245  -2.648  1.00  0.00    -0.206 F 
BRANCH   9  15
ATOM     15  N   UNL     1       1.092   0.092   0.132  1.00  0.00    -0.378 N 
ATOM     16  H   UNL     1       0.557  -0.730   0.037  1.00  0.00     0.161 HD
BRANCH  15  17
ATOM     17  C   UNL     1       0.453   1.391   0.430  1.00  0.00     0.106 C 
ATOM     18  C   UNL     1       0.862   2.419  -0.647  1.00  0.00     0.036 C 
BRANCH  17  19
ATOM     19  C   UNL     1      -1.072   1.268   0.525  1.00  0.00    -0.025 A 
ATOM     20  C   UNL     1      -1.865   2.430   0.628  1.00  0.00     0.006 A 
ATOM     21  C   UNL     1      -1.735   0.028   0.563  1.00  0.00     0.026 A 
ATOM     22  C   UNL     1      -3.259   2.362   0.701  1.00  0.00     0.002 A 
ATOM     23  C   UNL     1      -3.129  -0.037   0.640  1.00  0.00     0.041 A 
ATOM     24  C   UNL     1      -3.894   1.125   0.700  1.00  0.00     0.020 A 
ATOM     25  Cl  UNL     1      -3.915  -1.569   0.666  1.00  0.00    -0.084 Cl
ENDBRANCH  17  19
ENDBRANCH  15  17
ENDBRANCH   9  15
ENDBRANCH   5   8
ENDBRANCH   3   4
ENDBRANCH   2   3
ENDBRANCH   1   2
BRANCH   1  26
ATOM     26  C   UNL     1       3.923  -3.128  -6.621  1.00  0.00     0.002 C 
BRANCH  26  27
ATOM     27  C   UNL     1       5.404  -2.925  -6.947  1.00  0.00     0.021 C 
BRANCH  27  28
ATOM     28  C   UNL     1       6.250  -4.192  -7.015  1.00  0.00     0.116 C 
BRANCH  28  29
ATOM     29  N   UNL     1       5.809  -5.111  -8.050  1.00  0.00    -0.352 N 
ATOM     30  C   UNL     1       6.515  -5.670  -9.087  1.00  0.00     0.251 C 
ATOM     31  H   UNL     1       4.861  -5.372  -8.001  1.00  0.00     0.163 HD
ATOM     32  O   UNL     1       5.931  -6.303  -9.960  1.00  0.00    -0.269 OA
BRANCH  30  33
ATOM     33  C   UNL     1       7.981  -5.489  -9.171  1.00  0.00     0.039 A 
ATOM     34  C   UNL     1       8.546  -5.158 -10.406  1.00  0.00     0.014 A 
ATOM     35  C   UNL     1       8.799  -5.653  -8.049  1.00  0.00     0.014 A 
ATOM     36  C   UNL     1       9.919  -4.921 -10.500  1.00  0.00     0.010 A 
ATOM     37  C   UNL     1      10.156  -5.346  -8.128  1.00  0.00     0.010 A 
ATOM     38  C   UNL     1      10.729  -4.971  -9.353  1.00  0.00    -0.014 A 
BRANCH  38  39
ATOM     39  C   UNL     1      12.168  -4.606  -9.414  1.00  0.00     0.031 A 
ATOM     40  C   UNL     1      13.229  -5.625  -9.110  1.00  0.00     0.074 A 
ATOM     41  C   UNL     1      12.515  -3.333  -9.690  1.00  0.00     0.049 A 
ATOM     42  N   UNL     1      14.528  -5.473  -9.055  1.00  0.00    -0.248 NA
ATOM     43  C   UNL     1      12.772  -6.990  -8.808  1.00  0.00     0.031 C 
ATOM     44  C   UNL     1      11.575  -2.245  -9.964  1.00  0.00     0.029 A 
ATOM     45  N   UNL     1      13.748  -2.735  -9.779  1.00  0.00    -0.354 N 
ATOM     46  C   UNL     1      15.040  -6.716  -8.709  1.00  0.00     0.074 A 
ATOM     47  C   UNL     1      13.912  -7.599  -8.513  1.00  0.00     0.031 C 
ATOM     48  C   UNL     1      12.264  -1.123 -10.220  1.00  0.00     0.029 A 
ATOM     49  C   UNL     1      13.691  -1.396 -10.082  1.00  0.00     0.049 A 
ATOM     50  H   UNL     1      14.593  -3.221  -9.640  1.00  0.00     0.167 HD
ATOM     51  C   UNL     1      16.337  -7.088  -8.590  1.00  0.00     0.037 A 
ATOM     52  C   UNL     1      14.675  -0.487 -10.222  1.00  0.00     0.037 A 
ATOM     53  C   UNL     1      17.456  -6.209  -8.807  1.00  0.00     0.049 A 
ATOM     54  C   UNL     1      16.106  -0.921 -10.054  1.00  0.00     0.074 A 
ATOM     55  C   UNL     1      18.806  -6.511  -8.767  1.00  0.00     0.029 A 
ATOM     56  N   UNL     1      17.357  -4.857  -9.101  1.00  0.00    -0.354 N 
ATOM     57  N   UNL     1      16.580  -2.113  -9.785  1.00  0.00    -0.248 NA
ATOM     58  C   UNL     1      17.138   0.114 -10.208  1.00  0.00     0.031 C 
ATOM     59  C   UNL     1      19.524  -5.331  -8.976  1.00  0.00     0.029 A 
ATOM     60  C   UNL     1      18.623  -4.305  -9.211  1.00  0.00     0.049 A 
ATOM     61  H   UNL     1      16.513  -4.363  -9.215  1.00  0.00     0.167 HD
ATOM     62  C   UNL     1      17.961  -1.978  -9.758  1.00  0.00     0.074 A 
ATOM     63  C   UNL     1      18.252  -0.591 -10.054  1.00  0.00     0.031 C 
ATOM     64  C   UNL     1      18.901  -2.922  -9.508  1.00  0.00     0.037 A 
BRANCH  51  65
ATOM     65  C   UNL     1      16.630  -8.514  -8.219  1.00  0.00     0.064 A 
ATOM     66  C   UNL     1      17.228  -8.820  -6.986  1.00  0.00     0.173 A 
ATOM     67  C   UNL     1      16.405  -9.567  -9.118  1.00  0.00     0.173 A 
ATOM     68  F   UNL     1      17.472  -7.849  -6.093  1.00  0.00    -0.203 F 
ATOM     69  C   UNL     1      17.605 -10.124  -6.676  1.00  0.00     0.198 A 
ATOM     70  C   UNL     1      16.755 -10.875  -8.791  1.00  0.00     0.198 A 
ATOM     71  F   UNL     1      15.829  -9.330 -10.306  1.00  0.00    -0.203 F 
ATOM     72  F   UNL     1      18.211 -10.385  -5.510  1.00  0.00    -0.200 F 
ATOM     73  C   UNL     1      17.365 -11.150  -7.577  1.00  0.00     0.200 A 
ATOM     74  F   UNL     1      16.502 -11.869  -9.654  1.00  0.00    -0.200 F 
ATOM     75  F   UNL     1      17.724 -12.406  -7.275  1.00  0.00    -0.200 F 
ENDBRANCH  51  65
BRANCH  52  76
ATOM     76  C   UNL     1      14.332   0.918 -10.565  1.00  0.00     0.064 A 
ATOM     77  C   UNL     1      13.657   1.748  -9.657  1.00  0.00     0.173 A 
ATOM     78  C   UNL     1      14.640   1.448 -11.825  1.00  0.00     0.173 A 
ATOM     79  F   UNL     1      13.335   1.290  -8.438  1.00  0.00    -0.203 F 
ATOM     80  C   UNL     1      13.282   3.044 -10.006  1.00  0.00     0.198 A 
ATOM     81  C   UNL     1      14.291   2.754 -12.163  1.00  0.00     0.198 A 
ATOM     82  F   UNL     1      15.303   0.701 -12.720  1.00  0.00    -0.203 F 
ATOM     83  F   UNL     1      12.602   3.801  -9.134  1.00  0.00    -0.200 F 
ATOM     84  C   UNL     1      13.604   3.547 -11.258  1.00  0.00     0.200 A 
ATOM     85  F   UNL     1      14.626   3.245 -13.364  1.00  0.00    -0.200 F 
ATOM     86  F   UNL     1      13.252   4.797 -11.590  1.00  0.00    -0.200 F 
ENDBRANCH  52  76
BRANCH  64  87
ATOM     87  C   UNL     1      20.342  -2.504  -9.552  1.00  0.00     0.064 A 
ATOM     88  C   UNL     1      21.190  -2.981 -10.565  1.00  0.00     0.173 A 
ATOM     89  C   UNL     1      20.907  -1.712  -8.543  1.00  0.00     0.173 A 
ATOM     90  F   UNL     1      20.701  -3.750 -11.549  1.00  0.00    -0.203 F 
ATOM     91  C   UNL     1      22.553  -2.700 -10.550  1.00  0.00     0.198 A 
ATOM     92  C   UNL     1      22.265  -1.406  -8.549  1.00  0.00     0.198 A 
ATOM     93  F   UNL     1      20.137  -1.221  -7.560  1.00  0.00    -0.203 F 
ATOM     94  F   UNL     1      23.350  -3.204 -11.502  1.00  0.00    -0.200 F 
ATOM     95  C   UNL     1      23.089  -1.910  -9.544  1.00  0.00     0.200 A 
ATOM     96  F   UNL     1      22.778  -0.623  -7.589  1.00  0.00    -0.200 F 
ATOM     97  F   UNL     1      24.401  -1.636  -9.534  1.00  0.00    -0.200 F 
ENDBRANCH  64  87
ENDBRANCH  38  39
ENDBRANCH  30  33
ENDBRANCH  28  29
ENDBRANCH  27  28
ENDBRANCH  26  27
ENDBRANCH   1  26
TORSDOF 16
