REMARK SMILES Nc1nonc1C(=O)N1[C@@H]2CC[C@H]1C[C@H](CC(=O)NCCCCCCNC(=O)c1ccc(-c3c4nc(c(-c5c(F)c(F)c(F)c(F)c5F)c5ccc([nH]5)c(-c5c(F)c(F)c(F)c(F)c5F)c5nc(c(-c6c(F)c(F)c(F)c(F)c6F)c6ccc3[nH]6)C=C5)C=C4)cc1)C2
REMARK SMILES IDX 21 1 20 2 19 3 17 4 18 5 16 7 15 8 9 9 10 10 13 11 11 12
REMARK SMILES IDX 92 13 12 14 14 15 7 16 8 17 6 18 2 19 3 20 4 21 5 22 1 23
REMARK SMILES IDX 22 26 23 27 24 28 25 29 26 30 27 31 28 33 29 34 30 35 91 36
REMARK SMILES IDX 31 37 90 38 32 39 33 40 34 41 84 42 35 43 89 44 83 45 85 46
REMARK SMILES IDX 36 47 88 48 82 49 81 50 37 52 69 53 49 54 68 55 50 56 53 57
REMARK SMILES IDX 67 58 86 59 51 60 52 61 66 63 87 64 54 65 38 66 39 67 47 68
REMARK SMILES IDX 40 69 41 70 45 71 48 72 42 73 43 74 46 75 44 76 70 77 71 78
REMARK SMILES IDX 79 79 72 80 73 81 77 82 80 83 74 84 75 85 78 86 76 87 55 88
REMARK SMILES IDX 56 89 64 90 57 91 58 92 62 93 65 94 59 95 60 96 63 97 61 98
REMARK H PARENT 19 6 1 24 1 25 26 32 85 51 53 62
REMARK Flexibility Score: inf
ROOT
ATOM      1  C   UNL     1       5.497  -0.132   1.755  1.00  0.00     0.021 C 
ENDROOT
BRANCH   1   2
ATOM      2  C   UNL     1       5.622   0.514   0.369  1.00  0.00     0.116 C 
BRANCH   2   3
ATOM      3  N   UNL     1       6.540  -0.244  -0.467  1.00  0.00    -0.356 N 
ATOM      4  C   UNL     1       6.308  -1.148  -1.460  1.00  0.00     0.220 C 
ATOM      5  O   UNL     1       7.267  -1.766  -1.924  1.00  0.00    -0.275 OA
ATOM      6  H   UNL     1       7.493  -0.074  -0.284  1.00  0.00     0.163 HD
BRANCH   4   7
ATOM      7  C   UNL     1       4.908  -1.383  -1.991  1.00  0.00     0.103 C 
BRANCH   7   8
ATOM      8  C   UNL     1       4.237  -2.673  -1.467  1.00  0.00     0.002 C 
ATOM      9  N   UNL     1       1.598  -2.951  -0.375  1.00  0.00    -0.331 N 
ATOM     10  C   UNL     1       1.884  -3.724  -1.577  1.00  0.00     0.086 C 
ATOM     11  C   UNL     1       2.675  -3.302   0.531  1.00  0.00     0.086 C 
ATOM     12  C   UNL     1       2.379  -5.086  -1.057  1.00  0.00     0.027 C 
ATOM     13  C   UNL     1       2.982  -2.970  -2.331  1.00  0.00     0.029 C 
ATOM     14  C   UNL     1       2.817  -4.814   0.384  1.00  0.00     0.027 C 
ATOM     15  C   UNL     1       3.936  -2.572   0.049  1.00  0.00     0.029 C 
BRANCH   9  16
ATOM     16  C   UNL     1       0.280  -2.946   0.082  1.00  0.00     0.280 C 
ATOM     17  O   UNL     1      -0.271  -3.988   0.447  1.00  0.00    -0.267 OA
BRANCH  16  18
ATOM     18  C   UNL     1      -0.405  -1.656   0.029  1.00  0.00     0.216 A 
ATOM     19  C   UNL     1       0.083  -0.326   0.132  1.00  0.00     0.201 A 
ATOM     20  N   UNL     1      -0.927   0.532   0.019  1.00  0.00    -0.032 NA
ATOM     21  O   UNL     1      -2.056  -0.254  -0.143  1.00  0.00    -0.242 OA
ATOM     22  N   UNL     1      -1.738  -1.601  -0.123  1.00  0.00    -0.042 NA
BRANCH  19  23
ATOM     23  N   UNL     1       1.349   0.071   0.345  1.00  0.00    -0.379 N 
ATOM     24  H   UNL     1       1.562   1.031   0.396  1.00  0.00     0.158 HD
ATOM     25  H   UNL     1       2.064  -0.598   0.449  1.00  0.00     0.158 HD
ENDBRANCH  19  23
ENDBRANCH  16  18
ENDBRANCH   9  16
ENDBRANCH   7   8
ENDBRANCH   4   7
ENDBRANCH   2   3
ENDBRANCH   1   2
BRANCH   1  26
ATOM     26  C   UNL     1       6.334   0.542   2.842  1.00  0.00     0.002 C 
BRANCH  26  27
ATOM     27  C   UNL     1       5.756   1.858   3.372  1.00  0.00     0.002 C 
BRANCH  27  28
ATOM     28  C   UNL     1       4.346   1.782   3.971  1.00  0.00     0.021 C 
BRANCH  28  29
ATOM     29  C   UNL     1       4.131   0.715   5.045  1.00  0.00     0.116 C 
BRANCH  29  30
ATOM     30  N   UNL     1       4.991   0.906   6.200  1.00  0.00    -0.352 N 
ATOM     31  C   UNL     1       4.675   1.133   7.517  1.00  0.00     0.251 C 
ATOM     32  H   UNL     1       5.956   0.866   6.008  1.00  0.00     0.163 HD
ATOM     33  O   UNL     1       5.557   1.435   8.312  1.00  0.00    -0.269 OA
BRANCH  31  34
ATOM     34  C   UNL     1       3.274   1.035   7.987  1.00  0.00     0.039 A 
ATOM     35  C   UNL     1       2.786   2.028   8.843  1.00  0.00     0.014 A 
ATOM     36  C   UNL     1       2.463  -0.049   7.641  1.00  0.00     0.014 A 
ATOM     37  C   UNL     1       1.469   1.966   9.306  1.00  0.00     0.010 A 
ATOM     38  C   UNL     1       1.133  -0.085   8.062  1.00  0.00     0.010 A 
ATOM     39  C   UNL     1       0.625   0.921   8.899  1.00  0.00    -0.014 A 
BRANCH  39  40
ATOM     40  C   UNL     1      -0.790   0.862   9.344  1.00  0.00     0.031 A 
ATOM     41  C   UNL     1      -1.246  -0.219  10.283  1.00  0.00     0.074 A 
ATOM     42  C   UNL     1      -1.681   1.745   8.855  1.00  0.00     0.049 A 
ATOM     43  N   UNL     1      -2.449  -0.475  10.731  1.00  0.00    -0.248 NA
ATOM     44  C   UNL     1      -0.214  -1.148  10.765  1.00  0.00     0.031 C 
ATOM     45  C   UNL     1      -1.372   2.822   7.913  1.00  0.00     0.029 A 
ATOM     46  N   UNL     1      -3.029   1.871   9.076  1.00  0.00    -0.354 N 
ATOM     47  C   UNL     1      -2.324  -1.607  11.524  1.00  0.00     0.074 A 
ATOM     48  C   UNL     1      -0.933  -2.007  11.473  1.00  0.00     0.031 C 
ATOM     49  C   UNL     1      -2.494   3.512   7.654  1.00  0.00     0.029 A 
ATOM     50  C   UNL     1      -3.605   2.908   8.386  1.00  0.00     0.049 A 
ATOM     51  H   UNL     1      -3.536   1.274   9.673  1.00  0.00     0.167 HD
ATOM     52  C   UNL     1      -3.279  -2.245  12.243  1.00  0.00     0.037 A 
ATOM     53  C   UNL     1      -4.884   3.325   8.347  1.00  0.00     0.037 A 
ATOM     54  C   UNL     1      -4.652  -1.825  12.328  1.00  0.00     0.049 A 
ATOM     55  C   UNL     1      -5.924   2.600   9.154  1.00  0.00     0.074 A 
ATOM     56  C   UNL     1      -5.673  -2.355  13.098  1.00  0.00     0.029 A 
ATOM     57  N   UNL     1      -5.198  -0.768  11.615  1.00  0.00    -0.354 N 
ATOM     58  N   UNL     1      -5.782   1.571   9.952  1.00  0.00    -0.248 NA
ATOM     59  C   UNL     1      -7.304   3.098   9.054  1.00  0.00     0.031 C 
ATOM     60  C   UNL     1      -6.845  -1.639  12.827  1.00  0.00     0.029 A 
ATOM     61  C   UNL     1      -6.546  -0.643  11.911  1.00  0.00     0.049 A 
ATOM     62  H   UNL     1      -4.701  -0.192  10.990  1.00  0.00     0.167 HD
ATOM     63  C   UNL     1      -7.044   1.312  10.468  1.00  0.00     0.074 A 
ATOM     64  C   UNL     1      -7.940   2.296   9.897  1.00  0.00     0.031 C 
ATOM     65  C   UNL     1      -7.423   0.346  11.340  1.00  0.00     0.037 A 
BRANCH  52  66
ATOM     66  C   UNL     1      -2.864  -3.474  12.997  1.00  0.00     0.064 A 
ATOM     67  C   UNL     1      -2.071  -3.395  14.151  1.00  0.00     0.173 A 
ATOM     68  C   UNL     1      -3.275  -4.744  12.566  1.00  0.00     0.173 A 
ATOM     69  F   UNL     1      -1.642  -2.204  14.595  1.00  0.00    -0.203 F 
ATOM     70  C   UNL     1      -1.679  -4.545  14.830  1.00  0.00     0.198 A 
ATOM     71  C   UNL     1      -2.901  -5.891  13.261  1.00  0.00     0.198 A 
ATOM     72  F   UNL     1      -4.039  -4.872  11.471  1.00  0.00    -0.203 F 
ATOM     73  F   UNL     1      -0.880  -4.450  15.902  1.00  0.00    -0.200 F 
ATOM     74  C   UNL     1      -2.097  -5.791  14.387  1.00  0.00     0.200 A 
ATOM     75  F   UNL     1      -3.312  -7.094  12.837  1.00  0.00    -0.200 F 
ATOM     76  F   UNL     1      -1.715  -6.898  15.039  1.00  0.00    -0.200 F 
ENDBRANCH  52  66
BRANCH  53  77
ATOM     77  C   UNL     1      -5.243   4.521   7.546  1.00  0.00     0.064 A 
ATOM     78  C   UNL     1      -5.529   5.738   8.178  1.00  0.00     0.173 A 
ATOM     79  C   UNL     1      -5.290   4.480   6.146  1.00  0.00     0.173 A 
ATOM     80  F   UNL     1      -5.515   5.816   9.517  1.00  0.00    -0.203 F 
ATOM     81  C   UNL     1      -5.855   6.872   7.439  1.00  0.00     0.198 A 
ATOM     82  C   UNL     1      -5.598   5.620   5.407  1.00  0.00     0.198 A 
ATOM     83  F   UNL     1      -5.022   3.337   5.498  1.00  0.00    -0.203 F 
ATOM     84  F   UNL     1      -6.149   8.018   8.068  1.00  0.00    -0.200 F 
ATOM     85  C   UNL     1      -5.883   6.814   6.053  1.00  0.00     0.200 A 
ATOM     86  F   UNL     1      -5.616   5.564   4.068  1.00  0.00    -0.200 F 
ATOM     87  F   UNL     1      -6.189   7.907   5.341  1.00  0.00    -0.200 F 
ENDBRANCH  53  77
BRANCH  65  88
ATOM     88  C   UNL     1      -8.863   0.327  11.754  1.00  0.00     0.064 A 
ATOM     89  C   UNL     1      -9.864  -0.156  10.899  1.00  0.00     0.173 A 
ATOM     90  C   UNL     1      -9.241   0.766  13.032  1.00  0.00     0.173 A 
ATOM     91  F   UNL     1      -9.553  -0.569   9.662  1.00  0.00    -0.203 F 
ATOM     92  C   UNL     1     -11.196  -0.184  11.304  1.00  0.00     0.198 A 
ATOM     93  C   UNL     1     -10.570   0.717  13.441  1.00  0.00     0.198 A 
ATOM     94  F   UNL     1      -8.318   1.235  13.885  1.00  0.00    -0.203 F 
ATOM     95  F   UNL     1     -12.142  -0.615  10.459  1.00  0.00    -0.200 F 
ATOM     96  C   UNL     1     -11.547   0.247  12.575  1.00  0.00     0.200 A 
ATOM     97  F   UNL     1     -10.907   1.127  14.671  1.00  0.00    -0.200 F 
ATOM     98  F   UNL     1     -12.829   0.216  12.964  1.00  0.00    -0.200 F 
ENDBRANCH  65  88
ENDBRANCH  39  40
ENDBRANCH  31  34
ENDBRANCH  29  30
ENDBRANCH  28  29
ENDBRANCH  27  28
ENDBRANCH  26  27
ENDBRANCH   1  26
TORSDOF 17
