REMARK SMILES CC[N@@H+](C)Cc1cc2c(cc1Cl)C=C(C(=O)NCCCCCCNC(=O)c1ccc(-c3c4nc(c(-c5c(F)c(F)c(F)c(F)c5F)c5ccc([nH]5)c(-c5c(F)c(F)c(F)c(F)c5F)c5nc(c(-c6c(F)c(F)c(F)c(F)c6F)c6ccc3[nH]6)C=C5)C=C4)cc1)[C@@H](C(F)(F)F)O2
REMARK SMILES IDX 20 1 19 2 18 3 17 4 15 5 16 6 14 8 6 9 7 10 11 11 8 12 10 13
REMARK SMILES IDX 12 14 9 15 95 16 13 17 90 18 5 19 3 20 4 21 2 23 1 24 91 25
REMARK SMILES IDX 92 26 93 27 94 28 21 29 22 30 23 31 24 32 25 33 26 35 27 36
REMARK SMILES IDX 28 37 89 38 29 39 88 40 30 41 31 42 32 43 82 44 33 45 87 46
REMARK SMILES IDX 81 47 83 48 34 49 86 50 80 51 79 52 35 54 67 55 47 56 66 57
REMARK SMILES IDX 48 58 51 59 65 60 84 61 49 62 50 63 64 65 85 66 52 67 36 68
REMARK SMILES IDX 37 69 45 70 38 71 39 72 43 73 46 74 40 75 41 76 44 77 42 78
REMARK SMILES IDX 68 79 69 80 77 81 70 82 71 83 75 84 78 85 72 86 73 87 76 88
REMARK SMILES IDX 74 89 53 90 54 91 62 92 55 93 56 94 60 95 63 96 57 97 58 98
REMARK SMILES IDX 61 99 59 100
REMARK H PARENT 17 7 3 22 24 34 83 53 51 64
REMARK Flexibility Score: inf
ROOT
ATOM      1  C   UNL     1       1.458  12.266   1.684  1.00  0.00     0.002 C 
ENDROOT
BRANCH   1   2
ATOM      2  C   UNL     1       1.225  10.898   1.038  1.00  0.00     0.021 C 
BRANCH   2   3
ATOM      3  C   UNL     1       2.490  10.231   0.506  1.00  0.00     0.116 C 
BRANCH   3   4
ATOM      4  N   UNL     1       3.210   9.512   1.542  1.00  0.00    -0.352 N 
ATOM      5  C   UNL     1       3.698   8.262   1.725  1.00  0.00     0.251 C 
ATOM      6  O   UNL     1       4.316   8.090   2.780  1.00  0.00    -0.270 OA
ATOM      7  H   UNL     1       3.392  10.088   2.320  1.00  0.00     0.163 HD
BRANCH   5   8
ATOM      8  C   UNL     1       3.528   7.119   0.776  1.00  0.00     0.067 C 
ATOM      9  C   UNL     1       2.974   2.452  -1.091  1.00  0.00     0.029 A 
ATOM     10  C   UNL     1       2.728   3.748  -1.564  1.00  0.00     0.058 A 
ATOM     11  C   UNL     1       3.692   2.324   0.110  1.00  0.00     0.050 A 
ATOM     12  C   UNL     1       3.037   4.865  -0.797  1.00  0.00     0.128 A 
ATOM     13  C   UNL     1       4.028   3.457   0.868  1.00  0.00     0.033 A 
ATOM     14  Cl  UNL     1       4.208   0.797   0.728  1.00  0.00    -0.084 Cl
ATOM     15  C   UNL     1       3.662   4.731   0.434  1.00  0.00     0.019 A 
ATOM     16  O   UNL     1       2.616   6.051  -1.308  1.00  0.00    -0.475 OA
ATOM     17  C   UNL     1       3.854   5.909   1.268  1.00  0.00     0.025 C 
ATOM     18  C   UNL     1       3.042   7.263  -0.639  1.00  0.00     0.314 C 
BRANCH   9  19
ATOM     19  C   UNL     1       2.402   1.283  -1.873  1.00  0.00     0.300 C 
BRANCH  19  20
ATOM     20  N   UNL     1       0.929   1.129  -1.843  1.00  0.00    -0.334 N 
ATOM     21  C   UNL     1       0.207   2.130  -2.625  1.00  0.00     0.333 C 
ATOM     22  H   UNL     1       0.796   0.229  -2.304  1.00  0.00     0.348 HD
BRANCH  20  23
ATOM     23  C   UNL     1       0.348   1.003  -0.501  1.00  0.00     0.258 C 
ATOM     24  C   UNL     1       0.643  -0.344   0.141  1.00  0.00     0.071 C 
ENDBRANCH  20  23
ENDBRANCH  19  20
ENDBRANCH   9  19
BRANCH  18  25
ATOM     25  C   UNL     1       4.054   7.972  -1.553  1.00  0.00     0.429 C 
ATOM     26  F   UNL     1       3.449   8.381  -2.697  1.00  0.00    -0.167 F 
ATOM     27  F   UNL     1       4.588   9.078  -0.989  1.00  0.00    -0.167 F 
ATOM     28  F   UNL     1       5.082   7.167  -1.903  1.00  0.00    -0.167 F 
ENDBRANCH  18  25
ENDBRANCH   5   8
ENDBRANCH   3   4
ENDBRANCH   2   3
ENDBRANCH   1   2
BRANCH   1  29
ATOM     29  C   UNL     1       2.172  13.303   0.805  1.00  0.00     0.002 C 
BRANCH  29  30
ATOM     30  C   UNL     1       1.621  13.468  -0.613  1.00  0.00     0.021 C 
BRANCH  30  31
ATOM     31  C   UNL     1       0.145  13.835  -0.695  1.00  0.00     0.116 C 
BRANCH  31  32
ATOM     32  N   UNL     1      -0.147  15.126  -0.095  1.00  0.00    -0.352 N 
ATOM     33  C   UNL     1      -0.837  16.191  -0.619  1.00  0.00     0.251 C 
ATOM     34  H   UNL     1       0.200  15.255   0.818  1.00  0.00     0.163 HD
ATOM     35  O   UNL     1      -0.866  17.265  -0.027  1.00  0.00    -0.269 OA
BRANCH  33  36
ATOM     36  C   UNL     1      -1.518  16.049  -1.923  1.00  0.00     0.039 A 
ATOM     37  C   UNL     1      -2.316  14.934  -2.194  1.00  0.00     0.014 A 
ATOM     38  C   UNL     1      -1.335  17.037  -2.894  1.00  0.00     0.014 A 
ATOM     39  C   UNL     1      -2.803  14.733  -3.481  1.00  0.00     0.010 A 
ATOM     40  C   UNL     1      -1.888  16.869  -4.165  1.00  0.00     0.010 A 
ATOM     41  C   UNL     1      -2.588  15.694  -4.482  1.00  0.00    -0.014 A 
BRANCH  41  42
ATOM     42  C   UNL     1      -3.091  15.448  -5.857  1.00  0.00     0.031 A 
ATOM     43  C   UNL     1      -2.131  15.250  -6.998  1.00  0.00     0.074 A 
ATOM     44  C   UNL     1      -4.418  15.355  -6.068  1.00  0.00     0.049 A 
ATOM     45  N   UNL     1      -2.386  15.038  -8.265  1.00  0.00    -0.248 NA
ATOM     46  C   UNL     1      -0.696  15.295  -6.677  1.00  0.00     0.031 C 
ATOM     47  C   UNL     1      -5.445  15.508  -5.037  1.00  0.00     0.029 A 
ATOM     48  N   UNL     1      -5.128  15.090  -7.210  1.00  0.00    -0.354 N 
ATOM     49  C   UNL     1      -1.151  14.943  -8.892  1.00  0.00     0.074 A 
ATOM     50  C   UNL     1      -0.143  15.145  -7.873  1.00  0.00     0.031 C 
ATOM     51  C   UNL     1      -6.650  15.287  -5.582  1.00  0.00     0.029 A 
ATOM     52  C   UNL     1      -6.486  15.038  -7.011  1.00  0.00     0.049 A 
ATOM     53  H   UNL     1      -4.706  14.950  -8.088  1.00  0.00     0.167 HD
ATOM     54  C   UNL     1      -0.883  14.698 -10.197  1.00  0.00     0.037 A 
ATOM     55  C   UNL     1      -7.488  14.828  -7.884  1.00  0.00     0.037 A 
ATOM     56  C   UNL     1      -1.887  14.475 -11.204  1.00  0.00     0.049 A 
ATOM     57  C   UNL     1      -7.164  14.607  -9.334  1.00  0.00     0.074 A 
ATOM     58  C   UNL     1      -1.713  14.206 -12.551  1.00  0.00     0.029 A 
ATOM     59  N   UNL     1      -3.255  14.490 -10.973  1.00  0.00    -0.354 N 
ATOM     60  N   UNL     1      -5.993  14.532  -9.915  1.00  0.00    -0.248 NA
ATOM     61  C   UNL     1      -8.303  14.455 -10.250  1.00  0.00     0.031 C 
ATOM     62  C   UNL     1      -2.975  14.095 -13.142  1.00  0.00     0.029 A 
ATOM     63  C   UNL     1      -3.936  14.252 -12.157  1.00  0.00     0.049 A 
ATOM     64  H   UNL     1      -3.679  14.646 -10.099  1.00  0.00     0.167 HD
ATOM     65  C   UNL     1      -6.249  14.317 -11.262  1.00  0.00     0.074 A 
ATOM     66  C   UNL     1      -7.689  14.251 -11.408  1.00  0.00     0.031 C 
ATOM     67  C   UNL     1      -5.370  14.194 -12.285  1.00  0.00     0.037 A 
BRANCH  54  68
ATOM     68  C   UNL     1       0.555  14.661 -10.621  1.00  0.00     0.064 A 
ATOM     69  C   UNL     1       1.388  13.580 -10.298  1.00  0.00     0.173 A 
ATOM     70  C   UNL     1       1.089  15.686 -11.418  1.00  0.00     0.173 A 
ATOM     71  F   UNL     1       0.930  12.581  -9.529  1.00  0.00    -0.203 F 
ATOM     72  C   UNL     1       2.706  13.533 -10.746  1.00  0.00     0.198 A 
ATOM     73  C   UNL     1       2.399  15.624 -11.884  1.00  0.00     0.198 A 
ATOM     74  F   UNL     1       0.332  16.740 -11.759  1.00  0.00    -0.203 F 
ATOM     75  F   UNL     1       3.493  12.505 -10.400  1.00  0.00    -0.200 F 
ATOM     76  C   UNL     1       3.208  14.550 -11.546  1.00  0.00     0.200 A 
ATOM     77  F   UNL     1       2.878  16.602 -12.665  1.00  0.00    -0.200 F 
ATOM     78  F   UNL     1       4.472  14.495 -11.987  1.00  0.00    -0.200 F 
ENDBRANCH  54  68
BRANCH  55  79
ATOM     79  C   UNL     1      -8.892  14.818  -7.399  1.00  0.00     0.064 A 
ATOM     80  C   UNL     1      -9.627  13.627  -7.356  1.00  0.00     0.173 A 
ATOM     81  C   UNL     1      -9.513  15.989  -6.941  1.00  0.00     0.173 A 
ATOM     82  F   UNL     1      -9.081  12.486  -7.804  1.00  0.00    -0.203 F 
ATOM     83  C   UNL     1     -10.934  13.607  -6.873  1.00  0.00     0.198 A 
ATOM     84  C   UNL     1     -10.810  15.963  -6.434  1.00  0.00     0.198 A 
ATOM     85  F   UNL     1      -8.849  17.154  -6.960  1.00  0.00    -0.203 F 
ATOM     86  F   UNL     1     -11.625  12.459  -6.867  1.00  0.00    -0.200 F 
ATOM     87  C   UNL     1     -11.520  14.773  -6.404  1.00  0.00     0.200 A 
ATOM     88  F   UNL     1     -11.367  17.088  -5.966  1.00  0.00    -0.200 F 
ATOM     89  F   UNL     1     -12.771  14.749  -5.925  1.00  0.00    -0.200 F 
ENDBRANCH  55  79
BRANCH  67  90
ATOM     90  C   UNL     1      -5.936  13.967 -13.655  1.00  0.00     0.064 A 
ATOM     91  C   UNL     1      -6.552  15.004 -14.370  1.00  0.00     0.173 A 
ATOM     92  C   UNL     1      -5.814  12.717 -14.279  1.00  0.00     0.173 A 
ATOM     93  F   UNL     1      -6.704  16.213 -13.808  1.00  0.00    -0.203 F 
ATOM     94  C   UNL     1      -7.039  14.793 -15.656  1.00  0.00     0.198 A 
ATOM     95  C   UNL     1      -6.280  12.516 -15.575  1.00  0.00     0.198 A 
ATOM     96  F   UNL     1      -5.228  11.695 -13.637  1.00  0.00    -0.203 F 
ATOM     97  F   UNL     1      -7.655  15.788 -16.309  1.00  0.00    -0.200 F 
ATOM     98  C   UNL     1      -6.896  13.553 -16.261  1.00  0.00     0.200 A 
ATOM     99  F   UNL     1      -6.131  11.321 -16.162  1.00  0.00    -0.200 F 
ATOM    100  F   UNL     1      -7.357  13.354 -17.503  1.00  0.00    -0.200 F 
ENDBRANCH  67  90
ENDBRANCH  41  42
ENDBRANCH  33  36
ENDBRANCH  31  32
ENDBRANCH  30  31
ENDBRANCH  29  30
ENDBRANCH   1  29
TORSDOF 17
