REMARK SMILES COc1cc(/C=C/C(=O)c2ccc(OCC(=O)NCCCCCCNC(=O)c3ccc(-c4c5nc(c(-c6c(F)c(F)c(F)c(F)c6F)c6ccc([nH]6)c(-c6c(F)c(F)c(F)c(F)c6F)c6nc(c(-c7c(F)c(F)c(F)c(F)c7F)c7ccc4[nH]7)C=C6)C=C5)cc3)cc2)cc2c1OCCO2
REMARK SMILES IDX 19 1 18 2 16 3 17 4 15 6 14 7 13 8 10 9 11 10 92 11 12 12
REMARK SMILES IDX 91 13 8 14 9 15 7 16 6 17 5 18 3 19 4 20 95 21 94 22 96 23
REMARK SMILES IDX 93 24 99 25 97 26 98 27 2 28 1 29 20 30 21 31 22 32 23 33
REMARK SMILES IDX 24 34 25 35 26 36 27 38 28 39 29 40 90 41 30 42 89 43 31 44
REMARK SMILES IDX 32 45 33 46 83 47 34 48 88 49 82 50 84 51 35 52 87 53 81 54
REMARK SMILES IDX 80 55 36 57 68 58 48 59 67 60 49 61 52 62 66 63 85 64 50 65
REMARK SMILES IDX 51 66 65 68 86 69 53 70 37 71 38 72 46 73 39 74 40 75 44 76
REMARK SMILES IDX 47 77 41 78 42 79 45 80 43 81 69 82 70 83 78 84 71 85 72 86
REMARK SMILES IDX 76 87 79 88 73 89 74 90 77 91 75 92 54 93 55 94 63 95 56 96
REMARK SMILES IDX 57 97 61 98 64 99 58 100 59 101 62 102 60 103
REMARK H PARENT 18 5 25 37 84 56 52 67
REMARK Flexibility Score: inf
ROOT
ATOM      1  C   UNL     1      -7.262  -4.634  -4.270  1.00  0.00     0.116 C 
ENDROOT
BRANCH   1   2
ATOM      2  N   UNL     1      -6.908  -3.376  -3.644  1.00  0.00    -0.353 N 
ATOM      3  C   UNL     1      -6.960  -2.117  -4.168  1.00  0.00     0.257 C 
ATOM      4  O   UNL     1      -6.593  -1.170  -3.469  1.00  0.00    -0.271 OA
ATOM      5  H   UNL     1      -6.587  -3.438  -2.716  1.00  0.00     0.163 HD
BRANCH   3   6
ATOM      6  C   UNL     1      -7.514  -1.899  -5.581  1.00  0.00     0.329 C 
BRANCH   6   7
ATOM      7  O   UNL     1      -6.901  -2.620  -6.638  1.00  0.00    -0.484 OA
BRANCH   7   8
ATOM      8  C   UNL     1      -5.585  -2.370  -6.903  1.00  0.00     0.120 A 
ATOM      9  C   UNL     1      -2.861  -2.156  -7.524  1.00  0.00     0.022 A 
ATOM     10  C   UNL     1      -3.624  -3.192  -8.070  1.00  0.00     0.016 A 
ATOM     11  C   UNL     1      -3.477  -1.192  -6.720  1.00  0.00     0.016 A 
ATOM     12  C   UNL     1      -4.980  -3.296  -7.756  1.00  0.00     0.047 A 
ATOM     13  C   UNL     1      -4.836  -1.302  -6.407  1.00  0.00     0.047 A 
BRANCH   9  14
ATOM     14  C   UNL     1      -1.422  -2.088  -7.865  1.00  0.00     0.185 C 
ATOM     15  O   UNL     1      -1.048  -2.390  -8.995  1.00  0.00    -0.289 OA
BRANCH  14  16
ATOM     16  C   UNL     1      -0.414  -1.666  -6.854  1.00  0.00     0.053 C 
ATOM     17  C   UNL     1      -0.543  -1.817  -5.526  1.00  0.00     0.012 C 
BRANCH  17  18
ATOM     18  C   UNL     1       0.475  -1.448  -4.522  1.00  0.00    -0.018 A 
ATOM     19  C   UNL     1       1.037  -1.119  -2.161  1.00  0.00     0.165 A 
ATOM     20  C   UNL     1       0.114  -1.446  -3.166  1.00  0.00     0.058 A 
ATOM     21  C   UNL     1       2.362  -0.826  -2.502  1.00  0.00     0.203 A 
ATOM     22  C   UNL     1       2.735  -0.859  -3.853  1.00  0.00     0.165 A 
ATOM     23  O   UNL     1       3.270  -0.566  -1.507  1.00  0.00    -0.483 OA
ATOM     24  C   UNL     1       1.801  -1.147  -4.850  1.00  0.00     0.058 A 
ATOM     25  O   UNL     1       4.017  -0.628  -4.292  1.00  0.00    -0.486 OA
ATOM     26  C   UNL     1       4.480   0.009  -2.009  1.00  0.00     0.271 C 
ATOM     27  C   UNL     1       4.963  -0.752  -3.228  1.00  0.00     0.271 C 
BRANCH  19  28
ATOM     28  O   UNL     1       0.534  -1.188  -0.886  1.00  0.00    -0.493 OA
ATOM     29  C   UNL     1       0.912  -0.109  -0.035  1.00  0.00     0.278 C 
ENDBRANCH  19  28
ENDBRANCH  17  18
ENDBRANCH  14  16
ENDBRANCH   9  14
ENDBRANCH   7   8
ENDBRANCH   6   7
ENDBRANCH   3   6
ENDBRANCH   1   2
BRANCH   1  30
ATOM     30  C   UNL     1      -6.040  -5.529  -4.478  1.00  0.00     0.021 C 
BRANCH  30  31
ATOM     31  C   UNL     1      -5.312  -5.936  -3.189  1.00  0.00     0.002 C 
BRANCH  31  32
ATOM     32  C   UNL     1      -6.179  -6.608  -2.119  1.00  0.00     0.002 C 
BRANCH  32  33
ATOM     33  C   UNL     1      -6.962  -7.835  -2.586  1.00  0.00     0.021 C 
BRANCH  33  34
ATOM     34  C   UNL     1      -6.105  -8.975  -3.121  1.00  0.00     0.116 C 
BRANCH  34  35
ATOM     35  N   UNL     1      -5.288  -9.595  -2.089  1.00  0.00    -0.352 N 
ATOM     36  C   UNL     1      -5.155 -10.928  -1.782  1.00  0.00     0.251 C 
ATOM     37  H   UNL     1      -4.760  -8.976  -1.535  1.00  0.00     0.163 HD
ATOM     38  O   UNL     1      -4.544 -11.284  -0.780  1.00  0.00    -0.269 OA
BRANCH  36  39
ATOM     39  C   UNL     1      -5.783 -11.938  -2.659  1.00  0.00     0.039 A 
ATOM     40  C   UNL     1      -6.569 -12.944  -2.090  1.00  0.00     0.014 A 
ATOM     41  C   UNL     1      -5.614 -11.873  -4.044  1.00  0.00     0.014 A 
ATOM     42  C   UNL     1      -7.246 -13.844  -2.917  1.00  0.00     0.010 A 
ATOM     43  C   UNL     1      -6.341 -12.725  -4.867  1.00  0.00     0.010 A 
ATOM     44  C   UNL     1      -7.165 -13.718  -4.312  1.00  0.00    -0.014 A 
BRANCH  44  45
ATOM     45  C   UNL     1      -7.911 -14.617  -5.230  1.00  0.00     0.031 A 
ATOM     46  C   UNL     1      -7.149 -15.514  -6.164  1.00  0.00     0.074 A 
ATOM     47  C   UNL     1      -9.254 -14.553  -5.298  1.00  0.00     0.049 A 
ATOM     48  N   UNL     1      -7.585 -16.233  -7.166  1.00  0.00    -0.248 NA
ATOM     49  C   UNL     1      -5.693 -15.585  -5.961  1.00  0.00     0.031 C 
ATOM     50  C   UNL     1     -10.106 -13.708  -4.460  1.00  0.00     0.029 A 
ATOM     51  N   UNL     1     -10.138 -15.193  -6.131  1.00  0.00    -0.354 N 
ATOM     52  C   UNL     1      -6.457 -16.815  -7.729  1.00  0.00     0.074 A 
ATOM     53  C   UNL     1      -5.314 -16.334  -6.986  1.00  0.00     0.031 C 
ATOM     54  C   UNL     1     -11.389 -13.886  -4.818  1.00  0.00     0.029 A 
ATOM     55  C   UNL     1     -11.446 -14.818  -5.940  1.00  0.00     0.049 A 
ATOM     56  H   UNL     1      -9.861 -15.859  -6.801  1.00  0.00     0.167 HD
ATOM     57  C   UNL     1      -6.385 -17.686  -8.764  1.00  0.00     0.037 A 
ATOM     58  C   UNL     1     -12.561 -15.169  -6.611  1.00  0.00     0.037 A 
ATOM     59  C   UNL     1      -7.529 -18.188  -9.477  1.00  0.00     0.049 A 
ATOM     60  C   UNL     1     -12.452 -16.127  -7.768  1.00  0.00     0.074 A 
ATOM     61  C   UNL     1      -7.566 -19.111 -10.507  1.00  0.00     0.029 A 
ATOM     62  N   UNL     1      -8.840 -17.809  -9.230  1.00  0.00    -0.354 N 
ATOM     63  N   UNL     1     -11.386 -16.704  -8.267  1.00  0.00    -0.248 NA
ATOM     64  C   UNL     1     -13.702 -16.483  -8.456  1.00  0.00     0.031 C 
ATOM     65  C   UNL     1      -8.896 -19.261 -10.911  1.00  0.00     0.029 A 
ATOM     66  C   UNL     1      -9.693 -18.470 -10.098  1.00  0.00     0.049 A 
ATOM     67  H   UNL     1      -9.123 -17.166  -8.540  1.00  0.00     0.167 HD
ATOM     68  C   UNL     1     -11.839 -17.518  -9.296  1.00  0.00     0.074 A 
ATOM     69  C   UNL     1     -13.277 -17.362  -9.353  1.00  0.00     0.031 C 
ATOM     70  C   UNL     1     -11.126 -18.326 -10.118  1.00  0.00     0.037 A 
BRANCH  57  71
ATOM     71  C   UNL     1      -5.023 -18.153  -9.186  1.00  0.00     0.064 A 
ATOM     72  C   UNL     1      -4.258 -19.012  -8.383  1.00  0.00     0.173 A 
ATOM     73  C   UNL     1      -4.491 -17.765 -10.425  1.00  0.00     0.173 A 
ATOM     74  F   UNL     1      -4.717 -19.403  -7.184  1.00  0.00    -0.203 F 
ATOM     75  C   UNL     1      -2.998 -19.442  -8.791  1.00  0.00     0.198 A 
ATOM     76  C   UNL     1      -3.244 -18.222 -10.844  1.00  0.00     0.198 A 
ATOM     77  F   UNL     1      -5.184 -16.950 -11.234  1.00  0.00    -0.203 F 
ATOM     78  F   UNL     1      -2.264 -20.221  -7.985  1.00  0.00    -0.200 F 
ATOM     79  C   UNL     1      -2.495 -19.052 -10.024  1.00  0.00     0.200 A 
ATOM     80  F   UNL     1      -2.766 -17.857 -12.041  1.00  0.00    -0.200 F 
ATOM     81  F   UNL     1      -1.286 -19.473 -10.419  1.00  0.00    -0.200 F 
ENDBRANCH  57  71
BRANCH  58  82
ATOM     82  C   UNL     1     -13.880 -14.623  -6.199  1.00  0.00     0.064 A 
ATOM     83  C   UNL     1     -14.849 -15.452  -5.615  1.00  0.00     0.173 A 
ATOM     84  C   UNL     1     -14.207 -13.272  -6.388  1.00  0.00     0.173 A 
ATOM     85  F   UNL     1     -14.591 -16.756  -5.434  1.00  0.00    -0.203 F 
ATOM     86  C   UNL     1     -16.100 -14.956  -5.254  1.00  0.00     0.198 A 
ATOM     87  C   UNL     1     -15.448 -12.771  -6.001  1.00  0.00     0.198 A 
ATOM     88  F   UNL     1     -13.315 -12.436  -6.939  1.00  0.00    -0.203 F 
ATOM     89  F   UNL     1     -17.023 -15.781  -4.741  1.00  0.00    -0.200 F 
ATOM     90  C   UNL     1     -16.397 -13.614  -5.443  1.00  0.00     0.200 A 
ATOM     91  F   UNL     1     -15.726 -11.471  -6.172  1.00  0.00    -0.200 F 
ATOM     92  F   UNL     1     -17.599 -13.137  -5.094  1.00  0.00    -0.200 F 
ENDBRANCH  58  82
BRANCH  70  93
ATOM     93  C   UNL     1     -11.885 -19.158 -11.109  1.00  0.00     0.064 A 
ATOM     94  C   UNL     1     -12.449 -18.599 -12.263  1.00  0.00     0.173 A 
ATOM     95  C   UNL     1     -11.974 -20.548 -10.937  1.00  0.00     0.173 A 
ATOM     96  F   UNL     1     -12.403 -17.273 -12.464  1.00  0.00    -0.203 F 
ATOM     97  C   UNL     1     -13.084 -19.402 -13.207  1.00  0.00     0.198 A 
ATOM     98  C   UNL     1     -12.585 -21.350 -11.896  1.00  0.00     0.198 A 
ATOM     99  F   UNL     1     -11.443 -21.131  -9.851  1.00  0.00    -0.203 F 
ATOM    100  F   UNL     1     -13.643 -18.845 -14.291  1.00  0.00    -0.200 F 
ATOM    101  C   UNL     1     -13.142 -20.777 -13.028  1.00  0.00     0.200 A 
ATOM    102  F   UNL     1     -12.627 -22.679 -11.728  1.00  0.00    -0.200 F 
ATOM    103  F   UNL     1     -13.736 -21.549 -13.948  1.00  0.00    -0.200 F 
ENDBRANCH  70  93
ENDBRANCH  44  45
ENDBRANCH  36  39
ENDBRANCH  34  35
ENDBRANCH  33  34
ENDBRANCH  32  33
ENDBRANCH  31  32
ENDBRANCH  30  31
ENDBRANCH   1  30
TORSDOF 19
