REMARK SMILES C=CCS(=O)(=O)N[C@H](CC(N)=O)C(=O)NCCCCCCNC(=O)c1ccc(-c2c3nc(c(-c4c(F)c(F)c(F)c(F)c4F)c4ccc([nH]4)c(-c4c(F)c(F)c(F)c(F)c4F)c4nc(c(-c5c(F)c(F)c(F)c(F)c5F)c5ccc2[nH]5)C=C4)C=C3)cc1
REMARK SMILES IDX 17 1 16 2 15 3 13 4 14 5 8 7 7 8 4 10 5 11 6 12 3 13 2 14
REMARK SMILES IDX 1 15 9 16 10 17 11 18 12 19 18 22 19 23 20 24 21 25 22 26
REMARK SMILES IDX 23 27 24 29 25 30 26 31 87 32 27 33 86 34 28 35 29 36 30 37
REMARK SMILES IDX 80 38 31 39 85 40 79 41 81 42 32 43 84 44 78 45 77 46 33 48
REMARK SMILES IDX 65 49 45 50 64 51 46 52 49 53 63 54 82 55 47 56 48 57 62 59
REMARK SMILES IDX 83 60 50 61 34 62 35 63 43 64 36 65 37 66 41 67 44 68 38 69
REMARK SMILES IDX 39 70 42 71 40 72 66 73 67 74 75 75 68 76 69 77 73 78 76 79
REMARK SMILES IDX 70 80 71 81 74 82 72 83 51 84 52 85 60 86 53 87 54 88 58 89
REMARK SMILES IDX 61 90 55 91 56 92 59 93 57 94
REMARK H PARENT 15 6 7 9 11 20 11 21 22 28 81 47 49 58
REMARK Flexibility Score: inf
ROOT
ATOM      1  C   UNL     1      -1.905   5.604  -4.304  1.00  0.00     0.021 C 
ENDROOT
BRANCH   1   2
ATOM      2  C   UNL     1      -0.747   4.638  -4.133  1.00  0.00     0.116 C 
BRANCH   2   3
ATOM      3  N   UNL     1      -0.281   4.577  -2.775  1.00  0.00    -0.355 N 
ATOM      4  C   UNL     1       0.111   3.489  -2.071  1.00  0.00     0.238 C 
ATOM      5  O   UNL     1       0.507   3.699  -0.916  1.00  0.00    -0.273 OA
ATOM      6  H   UNL     1      -0.240   5.436  -2.296  1.00  0.00     0.163 HD
BRANCH   4   7
ATOM      7  C   UNL     1      -0.010   2.064  -2.589  1.00  0.00     0.168 C 
BRANCH   7   8
ATOM      8  N   UNL     1       0.792   1.416  -3.634  1.00  0.00    -0.202 NA
ATOM      9  H   UNL     1       1.450   0.843  -3.107  1.00  0.00     0.141 HD
BRANCH   8  10
ATOM     10  S   UNL     1       1.709   2.015  -4.869  1.00  0.00     0.215 S 
ATOM     11  O   UNL     1       0.953   2.999  -5.611  1.00  0.00    -0.212 OA
ATOM     12  O   UNL     1       2.147   0.815  -5.551  1.00  0.00    -0.212 OA
BRANCH  10  13
ATOM     13  C   UNL     1       3.214   2.781  -4.224  1.00  0.00     0.180 C 
BRANCH  13  14
ATOM     14  C   UNL     1       2.987   3.749  -3.111  1.00  0.00    -0.017 C 
ATOM     15  C   UNL     1       3.515   3.609  -1.887  1.00  0.00     0.005 C 
ENDBRANCH  13  14
ENDBRANCH  10  13
ENDBRANCH   8  10
ENDBRANCH   7   8
BRANCH   7  16
ATOM     16  C   UNL     1      -1.481   1.598  -2.532  1.00  0.00     0.129 C 
BRANCH  16  17
ATOM     17  C   UNL     1      -2.182   1.219  -3.818  1.00  0.00     0.219 C 
ATOM     18  N   UNL     1      -2.633  -0.067  -3.881  1.00  0.00    -0.370 N 
ATOM     19  O   UNL     1      -2.443   1.991  -4.732  1.00  0.00    -0.275 OA
ATOM     20  H   UNL     1      -2.429  -0.696  -3.152  1.00  0.00     0.159 HD
ATOM     21  H   UNL     1      -3.162  -0.365  -4.655  1.00  0.00     0.159 HD
ENDBRANCH  16  17
ENDBRANCH   7  16
ENDBRANCH   4   7
ENDBRANCH   2   3
ENDBRANCH   1   2
BRANCH   1  22
ATOM     22  C   UNL     1      -1.430   7.029  -4.603  1.00  0.00     0.002 C 
BRANCH  22  23
ATOM     23  C   UNL     1      -0.577   7.175  -5.873  1.00  0.00     0.002 C 
BRANCH  23  24
ATOM     24  C   UNL     1      -1.186   6.565  -7.138  1.00  0.00     0.021 C 
BRANCH  24  25
ATOM     25  C   UNL     1      -2.583   7.077  -7.463  1.00  0.00     0.116 C 
BRANCH  25  26
ATOM     26  N   UNL     1      -2.607   8.524  -7.621  1.00  0.00    -0.352 N 
ATOM     27  C   UNL     1      -3.166   9.268  -8.626  1.00  0.00     0.251 C 
ATOM     28  H   UNL     1      -2.160   9.038  -6.909  1.00  0.00     0.163 HD
ATOM     29  O   UNL     1      -2.945  10.469  -8.722  1.00  0.00    -0.269 OA
BRANCH  27  30
ATOM     30  C   UNL     1      -4.036   8.591  -9.604  1.00  0.00     0.039 A 
ATOM     31  C   UNL     1      -3.818   8.799 -10.967  1.00  0.00     0.014 A 
ATOM     32  C   UNL     1      -5.047   7.734  -9.162  1.00  0.00     0.014 A 
ATOM     33  C   UNL     1      -4.589   8.101 -11.897  1.00  0.00     0.010 A 
ATOM     34  C   UNL     1      -5.762   6.987 -10.087  1.00  0.00     0.010 A 
ATOM     35  C   UNL     1      -5.547   7.172 -11.462  1.00  0.00    -0.014 A 
BRANCH  35  36
ATOM     36  C   UNL     1      -6.372   6.396 -12.417  1.00  0.00     0.031 A 
ATOM     37  C   UNL     1      -7.859   6.602 -12.439  1.00  0.00     0.074 A 
ATOM     38  C   UNL     1      -5.799   5.454 -13.188  1.00  0.00     0.049 A 
ATOM     39  N   UNL     1      -8.781   5.931 -13.079  1.00  0.00    -0.248 NA
ATOM     40  C   UNL     1      -8.382   7.692 -11.600  1.00  0.00     0.031 C 
ATOM     41  C   UNL     1      -4.369   5.147 -13.229  1.00  0.00     0.029 A 
ATOM     42  N   UNL     1      -6.357   4.564 -14.071  1.00  0.00    -0.354 N 
ATOM     43  C   UNL     1      -9.989   6.500 -12.701  1.00  0.00     0.074 A 
ATOM     44  C   UNL     1      -9.690   7.535 -11.737  1.00  0.00     0.031 C 
ATOM     45  C   UNL     1      -4.160   4.148 -14.102  1.00  0.00     0.029 A 
ATOM     46  C   UNL     1      -5.444   3.714 -14.644  1.00  0.00     0.049 A 
ATOM     47  H   UNL     1      -7.320   4.538 -14.274  1.00  0.00     0.167 HD
ATOM     48  C   UNL     1     -11.235   6.199 -13.137  1.00  0.00     0.037 A 
ATOM     49  C   UNL     1      -5.629   2.688 -15.497  1.00  0.00     0.037 A 
ATOM     50  C   UNL     1     -11.519   5.182 -14.115  1.00  0.00     0.049 A 
ATOM     51  C   UNL     1      -7.026   2.356 -15.948  1.00  0.00     0.074 A 
ATOM     52  C   UNL     1     -12.739   4.826 -14.661  1.00  0.00     0.029 A 
ATOM     53  N   UNL     1     -10.564   4.357 -14.693  1.00  0.00    -0.354 N 
ATOM     54  N   UNL     1      -8.160   2.931 -15.625  1.00  0.00    -0.248 NA
ATOM     55  C   UNL     1      -7.171   1.234 -16.886  1.00  0.00     0.031 C 
ATOM     56  C   UNL     1     -12.529   3.755 -15.534  1.00  0.00     0.029 A 
ATOM     57  C   UNL     1     -11.171   3.481 -15.576  1.00  0.00     0.049 A 
ATOM     58  H   UNL     1      -9.598   4.390 -14.502  1.00  0.00     0.167 HD
ATOM     59  C   UNL     1      -9.144   2.270 -16.347  1.00  0.00     0.074 A 
ATOM     60  C   UNL     1      -8.475   1.250 -17.128  1.00  0.00     0.031 C 
ATOM     61  C   UNL     1     -10.481   2.491 -16.365  1.00  0.00     0.037 A 
BRANCH  48  62
ATOM     62  C   UNL     1     -12.380   6.977 -12.557  1.00  0.00     0.064 A 
ATOM     63  C   UNL     1     -12.562   8.340 -12.836  1.00  0.00     0.173 A 
ATOM     64  C   UNL     1     -13.321   6.347 -11.727  1.00  0.00     0.173 A 
ATOM     65  F   UNL     1     -11.685   8.993 -13.614  1.00  0.00    -0.203 F 
ATOM     66  C   UNL     1     -13.621   9.052 -12.279  1.00  0.00     0.198 A 
ATOM     67  C   UNL     1     -14.399   7.054 -11.200  1.00  0.00     0.198 A 
ATOM     68  F   UNL     1     -13.199   5.045 -11.432  1.00  0.00    -0.203 F 
ATOM     69  F   UNL     1     -13.741  10.366 -12.515  1.00  0.00    -0.200 F 
ATOM     70  C   UNL     1     -14.542   8.407 -11.468  1.00  0.00     0.200 A 
ATOM     71  F   UNL     1     -15.296   6.426 -10.428  1.00  0.00    -0.200 F 
ATOM     72  F   UNL     1     -15.565   9.092 -10.937  1.00  0.00    -0.200 F 
ENDBRANCH  48  62
BRANCH  49  73
ATOM     73  C   UNL     1      -4.461   1.915 -15.995  1.00  0.00     0.064 A 
ATOM     74  C   UNL     1      -4.064   2.005 -17.337  1.00  0.00     0.173 A 
ATOM     75  C   UNL     1      -3.723   1.074 -15.151  1.00  0.00     0.173 A 
ATOM     76  F   UNL     1      -4.751   2.781 -18.188  1.00  0.00    -0.203 F 
ATOM     77  C   UNL     1      -2.986   1.267 -17.820  1.00  0.00     0.198 A 
ATOM     78  C   UNL     1      -2.626   0.358 -15.629  1.00  0.00     0.198 A 
ATOM     79  F   UNL     1      -4.059   0.955 -13.859  1.00  0.00    -0.203 F 
ATOM     80  F   UNL     1      -2.657   1.335 -19.117  1.00  0.00    -0.200 F 
ATOM     81  C   UNL     1      -2.264   0.448 -16.964  1.00  0.00     0.200 A 
ATOM     82  F   UNL     1      -1.924  -0.422 -14.796  1.00  0.00    -0.200 F 
ATOM     83  F   UNL     1      -1.226  -0.260 -17.429  1.00  0.00    -0.200 F 
ENDBRANCH  49  73
BRANCH  61  84
ATOM     84  C   UNL     1     -11.309   1.661 -17.301  1.00  0.00     0.064 A 
ATOM     85  C   UNL     1     -11.579   0.308 -17.051  1.00  0.00     0.173 A 
ATOM     86  C   UNL     1     -11.901   2.253 -18.428  1.00  0.00     0.173 A 
ATOM     87  F   UNL     1     -11.025  -0.306 -15.995  1.00  0.00    -0.203 F 
ATOM     88  C   UNL     1     -12.399  -0.426 -17.904  1.00  0.00     0.198 A 
ATOM     89  C   UNL     1     -12.744   1.524 -19.261  1.00  0.00     0.198 A 
ATOM     90  F   UNL     1     -11.679   3.546 -18.707  1.00  0.00    -0.203 F 
ATOM     91  F   UNL     1     -12.615  -1.727 -17.666  1.00  0.00    -0.200 F 
ATOM     92  C   UNL     1     -12.989   0.185 -19.001  1.00  0.00     0.200 A 
ATOM     93  F   UNL     1     -13.326   2.120 -20.311  1.00  0.00    -0.200 F 
ATOM     94  F   UNL     1     -13.792  -0.519 -19.809  1.00  0.00    -0.200 F 
ENDBRANCH  61  84
ENDBRANCH  35  36
ENDBRANCH  27  30
ENDBRANCH  25  26
ENDBRANCH  24  25
ENDBRANCH  23  24
ENDBRANCH  22  23
ENDBRANCH   1  22
TORSDOF 19
