REMARK SMILES O=C(NCCCCCCNC(=O)[C@H](c1ccccc1)C(c1ccccc1)c1ccccc1)c1ccc(-c2c3nc(c(-c4c(F)c(F)c(F)c(F)c4F)c4ccc([nH]4)c(-c4c(F)c(F)c(F)c(F)c4F)c4nc(c(-c5c(F)c(F)c(F)c(F)c5F)c5ccc2[nH]5)C=C4)C=C3)cc1
REMARK SMILES IDX 6 1 5 2 4 3 3 4 1 5 2 6 33 8 34 9 95 10 35 11 94 12 36 13
REMARK SMILES IDX 37 14 38 15 88 16 39 17 93 18 87 19 89 20 40 21 92 22 86 23
REMARK SMILES IDX 85 24 41 26 73 27 53 28 72 29 54 30 57 31 71 32 90 33 55 34
REMARK SMILES IDX 56 35 70 37 91 38 58 39 42 40 43 41 51 42 44 43 45 44 49 45
REMARK SMILES IDX 52 46 46 47 47 48 50 49 48 50 74 51 75 52 83 53 76 54 77 55
REMARK SMILES IDX 81 56 84 57 78 58 79 59 82 60 80 61 59 62 60 63 68 64 61 65
REMARK SMILES IDX 62 66 66 67 69 68 63 69 64 70 67 71 65 72 7 73 8 74 9 75
REMARK SMILES IDX 10 76 11 77 12 79 13 80 20 81 21 82 22 83 26 84 23 85 25 86
REMARK SMILES IDX 24 87 27 88 28 89 32 90 29 91 31 92 30 93 14 94 15 95 19 96
REMARK SMILES IDX 16 97 18 98 17 99
REMARK H PARENT 3 7 89 25 57 36 10 78
REMARK Flexibility Score: inf
ROOT
ATOM      1  C   UNL     1       9.267   9.276   2.238  1.00  0.00     0.002 C 
ENDROOT
BRANCH   1   2
ATOM      2  C   UNL     1       9.289  10.783   1.984  1.00  0.00     0.021 C 
BRANCH   2   3
ATOM      3  C   UNL     1       8.038  11.518   2.443  1.00  0.00     0.116 C 
BRANCH   3   4
ATOM      4  N   UNL     1       7.896  11.512   3.890  1.00  0.00    -0.352 N 
ATOM      5  O   UNL     1       7.804  12.413   5.958  1.00  0.00    -0.269 OA
ATOM      6  C   UNL     1       7.730  12.573   4.744  1.00  0.00     0.251 C 
ATOM      7  H   UNL     1       7.921  10.624   4.315  1.00  0.00     0.163 HD
BRANCH   6   8
ATOM      8  C   UNL     1       7.480  13.922   4.192  1.00  0.00     0.039 A 
ATOM      9  C   UNL     1       6.560  14.105   3.157  1.00  0.00     0.014 A 
ATOM     10  C   UNL     1       8.163  15.017   4.728  1.00  0.00     0.014 A 
ATOM     11  C   UNL     1       6.416  15.358   2.575  1.00  0.00     0.010 A 
ATOM     12  C   UNL     1       7.953  16.293   4.198  1.00  0.00     0.010 A 
ATOM     13  C   UNL     1       7.092  16.470   3.104  1.00  0.00    -0.014 A 
BRANCH  13  14
ATOM     14  C   UNL     1       6.806  17.816   2.549  1.00  0.00     0.031 A 
ATOM     15  C   UNL     1       7.858  18.607   1.828  1.00  0.00     0.074 A 
ATOM     16  C   UNL     1       5.558  18.306   2.682  1.00  0.00     0.049 A 
ATOM     17  N   UNL     1       7.757  19.783   1.259  1.00  0.00    -0.248 NA
ATOM     18  C   UNL     1       9.198  18.010   1.735  1.00  0.00     0.031 C 
ATOM     19  C   UNL     1       4.462  17.631   3.382  1.00  0.00     0.029 A 
ATOM     20  N   UNL     1       4.992  19.467   2.223  1.00  0.00    -0.354 N 
ATOM     21  C   UNL     1       9.017  20.072   0.753  1.00  0.00     0.074 A 
ATOM     22  C   UNL     1       9.876  18.960   1.103  1.00  0.00     0.031 C 
ATOM     23  C   UNL     1       3.347  18.364   3.266  1.00  0.00     0.029 A 
ATOM     24  C   UNL     1       3.661  19.588   2.539  1.00  0.00     0.049 A 
ATOM     25  H   UNL     1       5.492  20.148   1.717  1.00  0.00     0.167 HD
ATOM     26  C   UNL     1       9.414  21.163   0.054  1.00  0.00     0.037 A 
ATOM     27  C   UNL     1       2.792  20.582   2.284  1.00  0.00     0.037 A 
ATOM     28  C   UNL     1       8.548  22.261  -0.299  1.00  0.00     0.049 A 
ATOM     29  C   UNL     1       3.268  21.785   1.524  1.00  0.00     0.074 A 
ATOM     30  C   UNL     1       8.848  23.396  -1.033  1.00  0.00     0.029 A 
ATOM     31  N   UNL     1       7.212  22.363   0.062  1.00  0.00    -0.354 N 
ATOM     32  N   UNL     1       4.452  22.028   1.018  1.00  0.00    -0.248 NA
ATOM     33  C   UNL     1       2.286  22.854   1.300  1.00  0.00     0.031 C 
ATOM     34  C   UNL     1       7.707  24.204  -1.080  1.00  0.00     0.029 A 
ATOM     35  C   UNL     1       6.681  23.551  -0.416  1.00  0.00     0.049 A 
ATOM     36  H   UNL     1       6.714  21.690   0.581  1.00  0.00     0.167 HD
ATOM     37  C   UNL     1       4.358  23.270   0.409  1.00  0.00     0.074 A 
ATOM     38  C   UNL     1       2.991  23.717   0.582  1.00  0.00     0.031 C 
ATOM     39  C   UNL     1       5.319  23.981  -0.230  1.00  0.00     0.037 A 
BRANCH  26  40
ATOM     40  C   UNL     1      10.851  21.238  -0.373  1.00  0.00     0.064 A 
ATOM     41  C   UNL     1      11.353  20.435  -1.408  1.00  0.00     0.173 A 
ATOM     42  C   UNL     1      11.719  22.174   0.211  1.00  0.00     0.173 A 
ATOM     43  F   UNL     1      10.568  19.518  -1.993  1.00  0.00    -0.203 F 
ATOM     44  C   UNL     1      12.675  20.556  -1.831  1.00  0.00     0.198 A 
ATOM     45  C   UNL     1      13.032  22.309  -0.231  1.00  0.00     0.198 A 
ATOM     46  F   UNL     1      11.287  22.971   1.199  1.00  0.00    -0.203 F 
ATOM     47  F   UNL     1      13.142  19.756  -2.800  1.00  0.00    -0.200 F 
ATOM     48  C   UNL     1      13.511  21.497  -1.249  1.00  0.00     0.200 A 
ATOM     49  F   UNL     1      13.834  23.228   0.324  1.00  0.00    -0.200 F 
ATOM     50  F   UNL     1      14.778  21.621  -1.667  1.00  0.00    -0.200 F 
ENDBRANCH  26  40
BRANCH  27  51
ATOM     51  C   UNL     1       1.390  20.478   2.763  1.00  0.00     0.064 A 
ATOM     52  C   UNL     1       0.327  20.334   1.862  1.00  0.00     0.173 A 
ATOM     53  C   UNL     1       1.086  20.515   4.132  1.00  0.00     0.173 A 
ATOM     54  F   UNL     1       0.566  20.311   0.542  1.00  0.00    -0.203 F 
ATOM     55  C   UNL     1      -0.989  20.247   2.311  1.00  0.00     0.198 A 
ATOM     56  C   UNL     1      -0.227  20.397   4.582  1.00  0.00     0.198 A 
ATOM     57  F   UNL     1       2.068  20.646   5.035  1.00  0.00    -0.203 F 
ATOM     58  F   UNL     1      -1.991  20.154   1.426  1.00  0.00    -0.200 F 
ATOM     59  C   UNL     1      -1.264  20.272   3.670  1.00  0.00     0.200 A 
ATOM     60  F   UNL     1      -0.486  20.403   5.896  1.00  0.00    -0.200 F 
ATOM     61  F   UNL     1      -2.529  20.182   4.101  1.00  0.00    -0.200 F 
ENDBRANCH  27  51
BRANCH  39  62
ATOM     62  C   UNL     1       4.912  25.307  -0.801  1.00  0.00     0.064 A 
ATOM     63  C   UNL     1       4.648  26.410   0.025  1.00  0.00     0.173 A 
ATOM     64  C   UNL     1       4.797  25.479  -2.188  1.00  0.00     0.173 A 
ATOM     65  F   UNL     1       4.727  26.288   1.359  1.00  0.00    -0.203 F 
ATOM     66  C   UNL     1       4.252  27.629  -0.517  1.00  0.00     0.198 A 
ATOM     67  C   UNL     1       4.429  26.708  -2.727  1.00  0.00     0.198 A 
ATOM     68  F   UNL     1       5.043  24.456  -3.020  1.00  0.00    -0.203 F 
ATOM     69  F   UNL     1       3.950  28.653   0.293  1.00  0.00    -0.200 F 
ATOM     70  C   UNL     1       4.148  27.779  -1.892  1.00  0.00     0.200 A 
ATOM     71  F   UNL     1       4.339  26.855  -4.056  1.00  0.00    -0.200 F 
ATOM     72  F   UNL     1       3.766  28.954  -2.411  1.00  0.00    -0.200 F 
ENDBRANCH  39  62
ENDBRANCH  13  14
ENDBRANCH   6   8
ENDBRANCH   3   4
ENDBRANCH   2   3
ENDBRANCH   1   2
BRANCH   1  73
ATOM     73  C   UNL     1       8.092   8.526   1.601  1.00  0.00     0.002 C 
BRANCH  73  74
ATOM     74  C   UNL     1       7.889   8.780   0.102  1.00  0.00     0.021 C 
BRANCH  74  75
ATOM     75  C   UNL     1       9.131   8.516  -0.748  1.00  0.00     0.116 C 
BRANCH  75  76
ATOM     76  N   UNL     1       9.501   7.116  -0.709  1.00  0.00    -0.356 N 
ATOM     77  C   UNL     1       9.275   6.144  -1.644  1.00  0.00     0.228 C 
ATOM     78  H   UNL     1       9.980   6.824   0.101  1.00  0.00     0.163 HD
ATOM     79  O   UNL     1       9.431   4.970  -1.305  1.00  0.00    -0.274 OA
BRANCH  77  80
ATOM     80  C   UNL     1       8.802   6.561  -3.046  1.00  0.00     0.120 C 
BRANCH  80  81
ATOM     81  C   UNL     1       9.332   5.568  -4.130  1.00  0.00     0.066 C 
BRANCH  81  82
ATOM     82  C   UNL     1       8.961   5.995  -5.556  1.00  0.00    -0.039 A 
ATOM     83  C   UNL     1       9.216   7.288  -6.044  1.00  0.00     0.004 A 
ATOM     84  C   UNL     1       8.337   5.075  -6.414  1.00  0.00     0.004 A 
ATOM     85  C   UNL     1       8.829   7.660  -7.333  1.00  0.00     0.000 A 
ATOM     86  C   UNL     1       7.955   5.446  -7.705  1.00  0.00     0.000 A 
ATOM     87  C   UNL     1       8.195   6.740  -8.162  1.00  0.00     0.000 A 
ENDBRANCH  81  82
BRANCH  81  88
ATOM     88  C   UNL     1      10.841   5.300  -4.014  1.00  0.00    -0.039 A 
ATOM     89  C   UNL     1      11.301   3.973  -3.960  1.00  0.00     0.004 A 
ATOM     90  C   UNL     1      11.786   6.335  -3.913  1.00  0.00     0.004 A 
ATOM     91  C   UNL     1      12.658   3.691  -3.787  1.00  0.00     0.000 A 
ATOM     92  C   UNL     1      13.143   6.050  -3.743  1.00  0.00     0.000 A 
ATOM     93  C   UNL     1      13.578   4.729  -3.675  1.00  0.00     0.000 A 
ENDBRANCH  81  88
ENDBRANCH  80  81
BRANCH  80  94
ATOM     94  C   UNL     1       7.280   6.724  -3.051  1.00  0.00    -0.035 A 
ATOM     95  C   UNL     1       6.700   7.896  -3.564  1.00  0.00     0.004 A 
ATOM     96  C   UNL     1       6.436   5.737  -2.520  1.00  0.00     0.004 A 
ATOM     97  C   UNL     1       5.318   8.086  -3.522  1.00  0.00     0.000 A 
ATOM     98  C   UNL     1       5.054   5.932  -2.473  1.00  0.00     0.000 A 
ATOM     99  C   UNL     1       4.496   7.107  -2.970  1.00  0.00     0.000 A 
ENDBRANCH  80  94
ENDBRANCH  77  80
ENDBRANCH  75  76
ENDBRANCH  74  75
ENDBRANCH  73  74
ENDBRANCH   1  73
TORSDOF 17
