REMARK SMILES Nc1ncc(C(=O)NCCCCCCNC(=O)c2ccc(-c3c4nc(c(-c5c(F)c(F)c(F)c(F)c5F)c5ccc([nH]5)c(-c5c(F)c(F)c(F)c(F)c5F)c5nc(c(-c6c(F)c(F)c(F)c(F)c6F)c6ccc3[nH]6)C=C5)C=C4)cc2)c(-c2ccccc2)n1
REMARK SMILES IDX 12 1 11 2 10 3 9 4 8 5 6 6 7 7 5 9 2 10 3 11 88 12 4 13
REMARK SMILES IDX 81 14 1 15 82 18 83 19 87 20 84 21 86 22 85 23 13 24 14 25
REMARK SMILES IDX 15 26 16 27 17 29 18 30 19 31 80 32 20 33 79 34 21 35 22 36
REMARK SMILES IDX 23 37 73 38 24 39 78 40 72 41 74 42 25 43 77 44 71 45 70 46
REMARK SMILES IDX 26 48 58 49 38 50 57 51 39 52 42 53 56 54 75 55 40 56 41 57
REMARK SMILES IDX 55 59 76 60 43 61 27 62 28 63 36 64 29 65 30 66 34 67 37 68
REMARK SMILES IDX 31 69 32 70 35 71 33 72 59 73 60 74 68 75 61 76 62 77 66 78
REMARK SMILES IDX 69 79 63 80 64 81 67 82 65 83 44 84 45 85 53 86 46 87 47 88
REMARK SMILES IDX 51 89 54 90 48 91 49 92 52 93 50 94
REMARK H PARENT 8 8 1 16 1 17 15 28 74 47 42 58
REMARK Flexibility Score: inf
ROOT
ATOM      1  C   UNL     1       6.335  -4.147   0.005  1.00  0.00     0.002 C 
ENDROOT
BRANCH   1   2
ATOM      2  C   UNL     1       6.256  -3.326  -1.286  1.00  0.00     0.002 C 
BRANCH   2   3
ATOM      3  C   UNL     1       4.887  -2.973  -1.876  1.00  0.00     0.021 C 
BRANCH   3   4
ATOM      4  C   UNL     1       3.813  -2.432  -0.940  1.00  0.00     0.116 C 
BRANCH   4   5
ATOM      5  N   UNL     1       4.087  -1.159  -0.325  1.00  0.00    -0.352 N 
ATOM      6  C   UNL     1       3.241  -0.211   0.199  1.00  0.00     0.255 C 
ATOM      7  O   UNL     1       3.780   0.763   0.735  1.00  0.00    -0.269 OA
ATOM      8  H   UNL     1       5.043  -0.929  -0.270  1.00  0.00     0.163 HD
BRANCH   6   9
ATOM      9  C   UNL     1       1.757  -0.205   0.116  1.00  0.00     0.084 A 
ATOM     10  C   UNL     1      -0.950   0.269   0.015  1.00  0.00     0.220 A 
ATOM     11  N   UNL     1      -0.142   1.318  -0.073  1.00  0.00    -0.221 NA
ATOM     12  N   UNL     1      -0.526  -0.984   0.148  1.00  0.00    -0.212 NA
ATOM     13  C   UNL     1       1.186   1.055  -0.015  1.00  0.00     0.131 A 
ATOM     14  C   UNL     1       0.818  -1.220   0.215  1.00  0.00     0.089 A 
BRANCH  10  15
ATOM     15  N   UNL     1      -2.295   0.482  -0.020  1.00  0.00    -0.368 N 
ATOM     16  H   UNL     1      -2.647   1.396  -0.118  1.00  0.00     0.159 HD
ATOM     17  H   UNL     1      -2.916  -0.279   0.053  1.00  0.00     0.159 HD
ENDBRANCH  10  15
BRANCH  14  18
ATOM     18  C   UNL     1       1.072  -2.651   0.407  1.00  0.00     0.001 A 
ATOM     19  C   UNL     1       1.638  -3.164   1.583  1.00  0.00     0.010 A 
ATOM     20  C   UNL     1       0.696  -3.560  -0.605  1.00  0.00     0.010 A 
ATOM     21  C   UNL     1       1.872  -4.537   1.714  1.00  0.00     0.001 A 
ATOM     22  C   UNL     1       0.946  -4.926  -0.481  1.00  0.00     0.001 A 
ATOM     23  C   UNL     1       1.539  -5.413   0.679  1.00  0.00     0.000 A 
ENDBRANCH  14  18
ENDBRANCH   6   9
ENDBRANCH   4   5
ENDBRANCH   3   4
ENDBRANCH   2   3
ENDBRANCH   1   2
BRANCH   1  24
ATOM     24  C   UNL     1       5.487  -5.414   0.137  1.00  0.00     0.021 C 
BRANCH  24  25
ATOM     25  C   UNL     1       5.508  -6.419  -1.010  1.00  0.00     0.116 C 
BRANCH  25  26
ATOM     26  N   UNL     1       6.811  -7.010  -1.242  1.00  0.00    -0.352 N 
ATOM     27  C   UNL     1       7.179  -8.324  -1.381  1.00  0.00     0.251 C 
ATOM     28  H   UNL     1       7.551  -6.364  -1.312  1.00  0.00     0.163 HD
ATOM     29  O   UNL     1       8.374  -8.603  -1.494  1.00  0.00    -0.269 OA
BRANCH  27  30
ATOM     30  C   UNL     1       6.184  -9.427  -1.371  1.00  0.00     0.039 A 
ATOM     31  C   UNL     1       6.513 -10.604  -0.685  1.00  0.00     0.014 A 
ATOM     32  C   UNL     1       4.978  -9.360  -2.074  1.00  0.00     0.014 A 
ATOM     33  C   UNL     1       5.623 -11.683  -0.662  1.00  0.00     0.010 A 
ATOM     34  C   UNL     1       4.066 -10.421  -2.011  1.00  0.00     0.010 A 
ATOM     35  C   UNL     1       4.381 -11.595  -1.307  1.00  0.00    -0.014 A 
BRANCH  35  36
ATOM     36  C   UNL     1       3.414 -12.725  -1.259  1.00  0.00     0.031 A 
ATOM     37  C   UNL     1       3.102 -13.519  -2.498  1.00  0.00     0.074 A 
ATOM     38  C   UNL     1       2.784 -13.020  -0.104  1.00  0.00     0.049 A 
ATOM     39  N   UNL     1       2.248 -14.500  -2.661  1.00  0.00    -0.248 NA
ATOM     40  C   UNL     1       3.836 -13.154  -3.718  1.00  0.00     0.031 C 
ATOM     41  C   UNL     1       2.975 -12.319   1.165  1.00  0.00     0.029 A 
ATOM     42  N   UNL     1       1.847 -13.983   0.185  1.00  0.00    -0.354 N 
ATOM     43  C   UNL     1       2.335 -14.861  -3.999  1.00  0.00     0.074 A 
ATOM     44  C   UNL     1       3.297 -13.970  -4.614  1.00  0.00     0.031 C 
ATOM     45  C   UNL     1       2.188 -12.878   2.098  1.00  0.00     0.029 A 
ATOM     46  C   UNL     1       1.415 -13.957   1.488  1.00  0.00     0.049 A 
ATOM     47  H   UNL     1       1.517 -14.630  -0.479  1.00  0.00     0.167 HD
ATOM     48  C   UNL     1       1.685 -15.854  -4.654  1.00  0.00     0.037 A 
ATOM     49  C   UNL     1       0.493 -14.710   2.120  1.00  0.00     0.037 A 
ATOM     50  C   UNL     1       0.746 -16.760  -4.044  1.00  0.00     0.049 A 
ATOM     51  C   UNL     1      -0.221 -15.799   1.367  1.00  0.00     0.074 A 
ATOM     52  C   UNL     1       0.076 -17.826  -4.621  1.00  0.00     0.029 A 
ATOM     53  N   UNL     1       0.344 -16.707  -2.719  1.00  0.00    -0.354 N 
ATOM     54  N   UNL     1      -0.093 -16.159   0.114  1.00  0.00    -0.248 NA
ATOM     55  C   UNL     1      -1.206 -16.590   2.120  1.00  0.00     0.031 C 
ATOM     56  C   UNL     1      -0.757 -18.397  -3.653  1.00  0.00     0.029 A 
ATOM     57  C   UNL     1      -0.577 -17.712  -2.464  1.00  0.00     0.049 A 
ATOM     58  H   UNL     1       0.665 -16.054  -2.056  1.00  0.00     0.167 HD
ATOM     59  C   UNL     1      -0.958 -17.231  -0.065  1.00  0.00     0.074 A 
ATOM     60  C   UNL     1      -1.597 -17.472   1.211  1.00  0.00     0.031 C 
ATOM     61  C   UNL     1      -1.200 -17.949  -1.188  1.00  0.00     0.037 A 
BRANCH  48  62
ATOM     62  C   UNL     1       1.969 -16.023  -6.117  1.00  0.00     0.064 A 
ATOM     63  C   UNL     1       3.179 -16.569  -6.569  1.00  0.00     0.173 A 
ATOM     64  C   UNL     1       0.998 -15.692  -7.074  1.00  0.00     0.173 A 
ATOM     65  F   UNL     1       4.142 -16.893  -5.692  1.00  0.00    -0.203 F 
ATOM     66  C   UNL     1       3.416 -16.759  -7.928  1.00  0.00     0.198 A 
ATOM     67  C   UNL     1       1.228 -15.906  -8.431  1.00  0.00     0.198 A 
ATOM     68  F   UNL     1      -0.179 -15.174  -6.693  1.00  0.00    -0.203 F 
ATOM     69  F   UNL     1       4.593 -17.249  -8.339  1.00  0.00    -0.200 F 
ATOM     70  C   UNL     1       2.438 -16.434  -8.856  1.00  0.00     0.200 A 
ATOM     71  F   UNL     1       0.279 -15.602  -9.326  1.00  0.00    -0.200 F 
ATOM     72  F   UNL     1       2.663 -16.626 -10.164  1.00  0.00    -0.200 F 
ENDBRANCH  48  62
BRANCH  49  73
ATOM     73  C   UNL     1       0.198 -14.469   3.556  1.00  0.00     0.064 A 
ATOM     74  C   UNL     1       0.593 -15.390   4.535  1.00  0.00     0.173 A 
ATOM     75  C   UNL     1      -0.497 -13.326   3.974  1.00  0.00     0.173 A 
ATOM     76  F   UNL     1       1.238 -16.511   4.179  1.00  0.00    -0.203 F 
ATOM     77  C   UNL     1       0.287 -15.186   5.879  1.00  0.00     0.198 A 
ATOM     78  C   UNL     1      -0.781 -13.110   5.321  1.00  0.00     0.198 A 
ATOM     79  F   UNL     1      -0.896 -12.415   3.074  1.00  0.00    -0.203 F 
ATOM     80  F   UNL     1       0.637 -16.103   6.791  1.00  0.00    -0.200 F 
ATOM     81  C   UNL     1      -0.395 -14.044   6.271  1.00  0.00     0.200 A 
ATOM     82  F   UNL     1      -1.431 -12.001   5.697  1.00  0.00    -0.200 F 
ATOM     83  F   UNL     1      -0.689 -13.847   7.564  1.00  0.00    -0.200 F 
ENDBRANCH  49  73
BRANCH  61  84
ATOM     84  C   UNL     1      -2.174 -19.085  -1.082  1.00  0.00     0.064 A 
ATOM     85  C   UNL     1      -3.554 -18.861  -0.985  1.00  0.00     0.173 A 
ATOM     86  C   UNL     1      -1.722 -20.413  -1.115  1.00  0.00     0.173 A 
ATOM     87  F   UNL     1      -4.032 -17.608  -0.934  1.00  0.00    -0.203 F 
ATOM     88  C   UNL     1      -4.447 -19.926  -0.904  1.00  0.00     0.198 A 
ATOM     89  C   UNL     1      -2.620 -21.476  -1.058  1.00  0.00     0.198 A 
ATOM     90  F   UNL     1      -0.411 -20.680  -1.212  1.00  0.00    -0.203 F 
ATOM     91  F   UNL     1      -5.760 -19.689  -0.771  1.00  0.00    -0.200 F 
ATOM     92  C   UNL     1      -3.981 -21.232  -0.947  1.00  0.00     0.200 A 
ATOM     93  F   UNL     1      -2.168 -22.736  -1.109  1.00  0.00    -0.200 F 
ATOM     94  F   UNL     1      -4.842 -22.255  -0.873  1.00  0.00    -0.200 F 
ENDBRANCH  61  84
ENDBRANCH  35  36
ENDBRANCH  27  30
ENDBRANCH  25  26
ENDBRANCH  24  25
ENDBRANCH   1  24
TORSDOF 15
