REMARK SMILES Cc1cccc(-n2c(C)cc(/C=N\c3ccc(O)c(C(=O)NCCCCCCNC(=O)c4ccc(-c5c6nc(c(-c7c(F)c(F)c(F)c(F)c7F)c7ccc([nH]7)c(-c7c(F)c(F)c(F)c(F)c7F)c7nc(c(-c8c(F)c(F)c(F)c(F)c8F)c8ccc5[nH]8)C=C7)C=C6)cc4)c3)c2C)c1
REMARK SMILES IDX 25 1 24 2 23 3 22 4 20 5 21 6 19 8 14 9 15 10 95 11 16 12
REMARK SMILES IDX 17 13 13 14 12 15 11 16 7 17 8 18 96 19 9 20 10 21 97 22
REMARK SMILES IDX 6 23 1 24 2 25 3 26 98 27 4 28 5 29 18 30 26 32 27 33 28 34
REMARK SMILES IDX 29 35 30 36 31 38 32 39 33 40 94 41 34 42 93 43 35 44 36 45
REMARK SMILES IDX 37 46 87 47 38 48 92 49 86 50 88 51 39 52 91 53 85 54 84 55
REMARK SMILES IDX 40 57 72 58 52 59 71 60 53 61 56 62 70 63 89 64 54 65 55 66
REMARK SMILES IDX 69 68 90 69 57 70 41 71 42 72 50 73 43 74 44 75 48 76 51 77
REMARK SMILES IDX 45 78 46 79 49 80 47 81 73 82 74 83 82 84 75 85 76 86 80 87
REMARK SMILES IDX 83 88 77 89 78 90 81 91 79 92 58 93 59 94 67 95 60 96 61 97
REMARK SMILES IDX 65 98 68 99 62 100 63 101 66 102 64 103
REMARK H PARENT 22 7 18 31 29 37 88 56 56 67
REMARK Flexibility Score: inf
ROOT
ATOM      1  C   UNL     1      -5.305  -3.497   7.463  1.00  0.00     0.002 C 
ENDROOT
BRANCH   1   2
ATOM      2  C   UNL     1      -4.439  -2.238   7.572  1.00  0.00     0.021 C 
BRANCH   2   3
ATOM      3  C   UNL     1      -4.201  -1.379   6.336  1.00  0.00     0.116 C 
BRANCH   3   4
ATOM      4  N   UNL     1      -5.370  -0.925   5.620  1.00  0.00    -0.352 N 
ATOM      5  C   UNL     1      -5.542   0.129   4.746  1.00  0.00     0.255 C 
ATOM      6  O   UNL     1      -6.644   0.208   4.198  1.00  0.00    -0.269 OA
ATOM      7  H   UNL     1      -6.182  -1.458   5.782  1.00  0.00     0.163 HD
BRANCH   5   8
ATOM      8  C   UNL     1      -4.509   1.176   4.437  1.00  0.00     0.083 A 
ATOM      9  C   UNL     1      -4.115   3.362   3.390  1.00  0.00     0.064 A 
ATOM     10  C   UNL     1      -2.769   3.300   3.736  1.00  0.00     0.032 A 
ATOM     11  C   UNL     1      -4.990   2.368   3.860  1.00  0.00     0.046 A 
ATOM     12  C   UNL     1      -2.266   2.136   4.303  1.00  0.00     0.049 A 
ATOM     13  C   UNL     1      -3.118   1.052   4.530  1.00  0.00     0.128 A 
BRANCH   9  14
ATOM     14  N   UNL     1      -4.613   4.368   2.562  1.00  0.00    -0.256 NA
ATOM     15  C   UNL     1      -4.227   4.537   1.327  1.00  0.00     0.121 C 
BRANCH  15  16
ATOM     16  C   UNL     1      -3.257   3.808   0.501  1.00  0.00     0.014 A 
ATOM     17  N   UNL     1      -1.866   2.301  -0.467  1.00  0.00    -0.318 N 
ATOM     18  C   UNL     1      -1.641   3.516  -1.091  1.00  0.00     0.021 A 
ATOM     19  C   UNL     1      -2.978   2.445   0.372  1.00  0.00     0.029 A 
ATOM     20  C   UNL     1      -0.731   3.688  -2.260  1.00  0.00     0.065 C 
ATOM     21  C   UNL     1      -2.453   4.453  -0.487  1.00  0.00     0.033 A 
ATOM     22  C   UNL     1      -3.623   1.273   1.020  1.00  0.00     0.065 C 
BRANCH  17  23
ATOM     23  C   UNL     1      -1.052   1.137  -0.598  1.00  0.00     0.046 A 
ATOM     24  C   UNL     1       2.592   0.157  -0.023  1.00  0.00     0.044 C 
ATOM     25  C   UNL     1       1.125   0.083  -0.332  1.00  0.00    -0.049 A 
ATOM     26  C   UNL     1       0.532  -1.165  -0.557  1.00  0.00     0.003 A 
ATOM     27  C   UNL     1       0.327   1.238  -0.358  1.00  0.00     0.030 A 
ATOM     28  C   UNL     1      -0.829  -1.260  -0.842  1.00  0.00     0.002 A 
ATOM     29  C   UNL     1      -1.618  -0.110  -0.875  1.00  0.00     0.026 A 
ENDBRANCH  17  23
ENDBRANCH  15  16
ENDBRANCH   9  14
BRANCH  13  30
ATOM     30  O   UNL     1      -2.464  -0.146   4.619  1.00  0.00    -0.507 OA
ATOM     31  H   UNL     1      -1.530  -0.166   4.679  1.00  0.00     0.293 HD
ENDBRANCH  13  30
ENDBRANCH   5   8
ENDBRANCH   3   4
ENDBRANCH   2   3
ENDBRANCH   1   2
BRANCH   1  32
ATOM     32  C   UNL     1      -5.135  -4.462   6.282  1.00  0.00     0.002 C 
BRANCH  32  33
ATOM     33  C   UNL     1      -3.730  -4.885   5.859  1.00  0.00     0.021 C 
BRANCH  33  34
ATOM     34  C   UNL     1      -2.828  -5.448   6.947  1.00  0.00     0.116 C 
BRANCH  34  35
ATOM     35  N   UNL     1      -2.883  -6.892   7.130  1.00  0.00    -0.352 N 
ATOM     36  C   UNL     1      -2.246  -7.667   8.086  1.00  0.00     0.251 C 
ATOM     37  H   UNL     1      -3.447  -7.383   6.490  1.00  0.00     0.163 HD
ATOM     38  O   UNL     1      -2.362  -8.889   8.069  1.00  0.00    -0.269 OA
BRANCH  36  39
ATOM     39  C   UNL     1      -1.520  -7.013   9.200  1.00  0.00     0.039 A 
ATOM     40  C   UNL     1      -1.757  -7.460  10.508  1.00  0.00     0.014 A 
ATOM     41  C   UNL     1      -0.753  -5.867   8.990  1.00  0.00     0.014 A 
ATOM     42  C   UNL     1      -1.444  -6.634  11.586  1.00  0.00     0.010 A 
ATOM     43  C   UNL     1      -0.534  -5.002  10.044  1.00  0.00     0.010 A 
ATOM     44  C   UNL     1      -0.946  -5.358  11.332  1.00  0.00    -0.014 A 
BRANCH  44  45
ATOM     45  C   UNL     1      -0.943  -4.281  12.316  1.00  0.00     0.031 A 
ATOM     46  C   UNL     1       0.320  -3.797  12.912  1.00  0.00     0.074 A 
ATOM     47  C   UNL     1      -2.104  -3.632  12.565  1.00  0.00     0.049 A 
ATOM     48  N   UNL     1       0.373  -3.031  13.950  1.00  0.00    -0.248 NA
ATOM     49  C   UNL     1       1.641  -4.197  12.434  1.00  0.00     0.031 C 
ATOM     50  C   UNL     1      -2.275  -2.324  13.195  1.00  0.00     0.029 A 
ATOM     51  N   UNL     1      -3.411  -4.145  12.474  1.00  0.00    -0.354 N 
ATOM     52  C   UNL     1       1.667  -2.586  14.068  1.00  0.00     0.074 A 
ATOM     53  C   UNL     1       2.435  -3.453  13.213  1.00  0.00     0.031 C 
ATOM     54  C   UNL     1      -3.515  -2.243  13.700  1.00  0.00     0.029 A 
ATOM     55  C   UNL     1      -4.116  -3.556  13.552  1.00  0.00     0.049 A 
ATOM     56  H   UNL     1      -3.760  -4.778  11.806  1.00  0.00     0.167 HD
ATOM     57  C   UNL     1       1.899  -1.435  14.758  1.00  0.00     0.037 A 
ATOM     58  C   UNL     1      -4.606  -4.303  14.583  1.00  0.00     0.037 A 
ATOM     59  C   UNL     1       0.737  -1.063  15.565  1.00  0.00     0.049 A 
ATOM     60  C   UNL     1      -4.093  -3.901  15.945  1.00  0.00     0.074 A 
ATOM     61  C   UNL     1      -0.204  -0.052  15.484  1.00  0.00     0.029 A 
ATOM     62  N   UNL     1       0.275  -1.956  16.531  1.00  0.00    -0.354 N 
ATOM     63  N   UNL     1      -3.023  -3.181  16.134  1.00  0.00    -0.248 NA
ATOM     64  C   UNL     1      -4.717  -4.314  17.200  1.00  0.00     0.031 C 
ATOM     65  C   UNL     1      -1.286  -0.398  16.339  1.00  0.00     0.029 A 
ATOM     66  C   UNL     1      -0.978  -1.589  16.975  1.00  0.00     0.049 A 
ATOM     67  H   UNL     1       0.775  -2.741  16.852  1.00  0.00     0.167 HD
ATOM     68  C   UNL     1      -2.785  -3.058  17.477  1.00  0.00     0.074 A 
ATOM     69  C   UNL     1      -3.888  -3.763  18.104  1.00  0.00     0.031 C 
ATOM     70  C   UNL     1      -1.686  -2.403  17.954  1.00  0.00     0.037 A 
BRANCH  57  71
ATOM     71  C   UNL     1       3.095  -0.520  14.566  1.00  0.00     0.064 A 
ATOM     72  C   UNL     1       3.244   0.630  15.374  1.00  0.00     0.173 A 
ATOM     73  C   UNL     1       4.045  -0.628  13.526  1.00  0.00     0.173 A 
ATOM     74  F   UNL     1       2.410   0.873  16.395  1.00  0.00    -0.203 F 
ATOM     75  C   UNL     1       4.241   1.588  15.147  1.00  0.00     0.198 A 
ATOM     76  C   UNL     1       5.074   0.300  13.337  1.00  0.00     0.198 A 
ATOM     77  F   UNL     1       3.990  -1.592  12.602  1.00  0.00    -0.203 F 
ATOM     78  F   UNL     1       4.290   2.692  15.906  1.00  0.00    -0.200 F 
ATOM     79  C   UNL     1       5.163   1.417  14.136  1.00  0.00     0.200 A 
ATOM     80  F   UNL     1       5.957   0.113  12.344  1.00  0.00    -0.200 F 
ATOM     81  F   UNL     1       6.119   2.330  13.917  1.00  0.00    -0.200 F 
ENDBRANCH  57  71
BRANCH  58  82
ATOM     82  C   UNL     1      -4.962  -5.689  14.183  1.00  0.00     0.064 A 
ATOM     83  C   UNL     1      -6.002  -5.867  13.251  1.00  0.00     0.173 A 
ATOM     84  C   UNL     1      -4.077  -6.755  14.380  1.00  0.00     0.173 A 
ATOM     85  F   UNL     1      -6.875  -4.873  13.025  1.00  0.00    -0.203 F 
ATOM     86  C   UNL     1      -6.078  -7.012  12.462  1.00  0.00     0.198 A 
ATOM     87  C   UNL     1      -4.165  -7.908  13.597  1.00  0.00     0.198 A 
ATOM     88  F   UNL     1      -3.054  -6.638  15.239  1.00  0.00    -0.203 F 
ATOM     89  F   UNL     1      -7.009  -7.102  11.502  1.00  0.00    -0.200 F 
ATOM     90  C   UNL     1      -5.141  -8.019  12.616  1.00  0.00     0.200 A 
ATOM     91  F   UNL     1      -3.241  -8.871  13.723  1.00  0.00    -0.200 F 
ATOM     92  F   UNL     1      -5.149  -9.076  11.791  1.00  0.00    -0.200 F 
ENDBRANCH  58  82
BRANCH  70  93
ATOM     93  C   UNL     1      -1.210  -2.409  19.387  1.00  0.00     0.064 A 
ATOM     94  C   UNL     1      -1.417  -3.474  20.280  1.00  0.00     0.173 A 
ATOM     95  C   UNL     1      -0.380  -1.367  19.866  1.00  0.00     0.173 A 
ATOM     96  F   UNL     1      -2.080  -4.577  19.907  1.00  0.00    -0.203 F 
ATOM     97  C   UNL     1      -0.894  -3.466  21.577  1.00  0.00     0.198 A 
ATOM     98  C   UNL     1       0.187  -1.389  21.140  1.00  0.00     0.198 A 
ATOM     99  F   UNL     1      -0.076  -0.308  19.101  1.00  0.00    -0.203 F 
ATOM    100  F   UNL     1      -1.156  -4.487  22.404  1.00  0.00    -0.200 F 
ATOM    101  C   UNL     1      -0.084  -2.430  22.003  1.00  0.00     0.200 A 
ATOM    102  F   UNL     1       1.013  -0.403  21.519  1.00  0.00    -0.200 F 
ATOM    103  F   UNL     1       0.451  -2.447  23.231  1.00  0.00    -0.200 F 
ENDBRANCH  70  93
ENDBRANCH  44  45
ENDBRANCH  36  39
ENDBRANCH  34  35
ENDBRANCH  33  34
ENDBRANCH  32  33
ENDBRANCH   1  32
TORSDOF 17
