REMARK SMILES CC(C)C(=O)Nc1ccc2c([C@@H](C(=O)NCCCCCCNC(=O)c3ccc(-c4c5nc(c(-c6c(F)c(F)c(F)c(F)c6F)c6ccc([nH]6)c(-c6c(F)c(F)c(F)c(F)c6F)c6nc(c(-c7c(F)c(F)c(F)c(F)c7F)c7ccc4[nH]7)C=C6)C=C5)cc3)[NH+]3CC[NH+](Cc4ccccc4)CC3)c[nH]c2c1
REMARK SMILES IDX 18 1 17 2 16 3 15 4 13 5 14 6 12 8 11 9 7 10 8 11 104 12
REMARK SMILES IDX 9 13 103 14 10 15 102 16 101 17 6 19 4 20 5 21 2 23 1 24
REMARK SMILES IDX 3 25 88 26 89 27 100 28 90 30 99 31 91 32 92 34 93 35 94 36
REMARK SMILES IDX 98 37 95 38 97 39 96 40 19 41 20 42 21 43 22 44 23 45 24 47
REMARK SMILES IDX 25 48 26 49 87 50 27 51 86 52 28 53 29 54 30 55 80 56 31 57
REMARK SMILES IDX 85 58 79 59 81 60 32 61 84 62 78 63 77 64 33 66 65 67 45 68
REMARK SMILES IDX 64 69 46 70 49 71 63 72 82 73 47 74 48 75 62 77 83 78 50 79
REMARK SMILES IDX 34 80 35 81 43 82 36 83 37 84 41 85 44 86 38 87 39 88 42 89
REMARK SMILES IDX 40 90 66 91 67 92 75 93 68 94 69 95 73 96 76 97 70 98 71 99
REMARK SMILES IDX 74 100 72 101 51 102 52 103 60 104 53 105 54 106 58 107
REMARK SMILES IDX 61 108 55 109 56 110 59 111 57 112
REMARK H PARENT 15 7 102 18 6 22 88 29 91 33 22 46 81 65 49 76
REMARK Flexibility Score: inf
ROOT
ATOM      1  C   UNL     1      -1.937  -7.831   2.011  1.00  0.00     0.002 C 
ENDROOT
BRANCH   1   2
ATOM      2  C   UNL     1      -1.320  -6.643   1.271  1.00  0.00     0.021 C 
BRANCH   2   3
ATOM      3  C   UNL     1       0.132  -6.379   1.663  1.00  0.00     0.116 C 
BRANCH   3   4
ATOM      4  N   UNL     1       0.995  -7.413   1.146  1.00  0.00    -0.351 N 
ATOM      5  C   UNL     1       1.681  -7.436  -0.040  1.00  0.00     0.283 C 
ATOM      6  O   UNL     1       2.241  -8.503  -0.311  1.00  0.00    -0.268 OA
ATOM      7  H   UNL     1       1.106  -8.205   1.720  1.00  0.00     0.163 HD
BRANCH   5   8
ATOM      8  C   UNL     1       1.810  -6.130  -0.888  1.00  0.00     0.308 C 
BRANCH   8   9
ATOM      9  C   UNL     1       0.505  -5.564  -1.400  1.00  0.00     0.044 A 
ATOM     10  C   UNL     1      -1.222  -1.742  -1.205  1.00  0.00     0.043 A 
ATOM     11  C   UNL     1      -0.239  -2.009  -0.265  1.00  0.00     0.027 A 
ATOM     12  C   UNL     1      -1.746  -2.775  -1.990  1.00  0.00     0.052 A 
ATOM     13  C   UNL     1       0.439  -3.222  -0.257  1.00  0.00     0.013 A 
ATOM     14  C   UNL     1      -1.107  -4.023  -1.916  1.00  0.00     0.048 A 
ATOM     15  C   UNL     1       0.017  -4.245  -1.122  1.00  0.00     0.009 A 
ATOM     16  N   UNL     1      -1.372  -5.206  -2.562  1.00  0.00    -0.361 N 
ATOM     17  C   UNL     1      -0.462  -6.159  -2.190  1.00  0.00     0.094 A 
ATOM     18  H   UNL     1      -2.109  -5.348  -3.200  1.00  0.00     0.166 HD
BRANCH  10  19
ATOM     19  N   UNL     1      -1.726  -0.448  -1.358  1.00  0.00    -0.326 N 
ATOM     20  C   UNL     1      -1.087   0.760  -1.286  1.00  0.00     0.226 C 
ATOM     21  O   UNL     1      -1.796   1.769  -1.182  1.00  0.00    -0.274 OA
ATOM     22  H   UNL     1      -2.691  -0.398  -1.547  1.00  0.00     0.169 HD
BRANCH  20  23
ATOM     23  C   UNL     1       0.437   0.925  -1.460  1.00  0.00     0.072 C 
ATOM     24  C   UNL     1       1.294   0.717  -0.217  1.00  0.00     0.018 C 
ATOM     25  C   UNL     1       0.996   0.195  -2.681  1.00  0.00     0.018 C 
ENDBRANCH  20  23
ENDBRANCH  10  19
ENDBRANCH   8   9
BRANCH   8  26
ATOM     26  N   UNL     1       2.799  -6.284  -1.971  1.00  0.00    -0.312 N 
ATOM     27  C   UNL     1       2.496  -7.262  -3.015  1.00  0.00     0.325 C 
ATOM     28  C   UNL     1       3.390  -5.053  -2.495  1.00  0.00     0.325 C 
ATOM     29  H   UNL     1       3.549  -6.722  -1.435  1.00  0.00     0.349 HD
ATOM     30  C   UNL     1       1.959  -6.720  -4.366  1.00  0.00     0.324 C 
ATOM     31  C   UNL     1       2.782  -4.505  -3.808  1.00  0.00     0.324 C 
ATOM     32  N   UNL     1       2.537  -5.476  -4.878  1.00  0.00    -0.322 N 
ATOM     33  H   UNL     1       1.821  -5.043  -5.462  1.00  0.00     0.348 HD
BRANCH  32  34
ATOM     34  C   UNL     1       3.614  -5.652  -5.855  1.00  0.00     0.299 C 
BRANCH  34  35
ATOM     35  C   UNL     1       4.888  -6.287  -5.353  1.00  0.00     0.006 A 
ATOM     36  C   UNL     1       5.970  -5.491  -4.957  1.00  0.00     0.009 A 
ATOM     37  C   UNL     1       4.989  -7.680  -5.216  1.00  0.00     0.009 A 
ATOM     38  C   UNL     1       7.088  -6.068  -4.354  1.00  0.00     0.001 A 
ATOM     39  C   UNL     1       6.092  -8.253  -4.585  1.00  0.00     0.001 A 
ATOM     40  C   UNL     1       7.135  -7.445  -4.144  1.00  0.00     0.000 A 
ENDBRANCH  34  35
ENDBRANCH  32  34
ENDBRANCH   8  26
ENDBRANCH   5   8
ENDBRANCH   3   4
ENDBRANCH   2   3
ENDBRANCH   1   2
BRANCH   1  41
ATOM     41  C   UNL     1      -1.892  -7.708   3.535  1.00  0.00     0.002 C 
BRANCH  41  42
ATOM     42  C   UNL     1      -2.465  -6.395   4.075  1.00  0.00     0.021 C 
BRANCH  42  43
ATOM     43  C   UNL     1      -3.908  -6.138   3.659  1.00  0.00     0.116 C 
BRANCH  43  44
ATOM     44  N   UNL     1      -4.793  -7.179   4.156  1.00  0.00    -0.352 N 
ATOM     45  C   UNL     1      -5.865  -7.063   4.997  1.00  0.00     0.251 C 
ATOM     46  H   UNL     1      -4.594  -8.092   3.845  1.00  0.00     0.163 HD
ATOM     47  O   UNL     1      -6.344  -8.059   5.541  1.00  0.00    -0.269 OA
BRANCH  45  48
ATOM     48  C   UNL     1      -6.442  -5.732   5.254  1.00  0.00     0.039 A 
ATOM     49  C   UNL     1      -6.766  -5.373   6.563  1.00  0.00     0.014 A 
ATOM     50  C   UNL     1      -6.663  -4.841   4.197  1.00  0.00     0.014 A 
ATOM     51  C   UNL     1      -7.270  -4.098   6.819  1.00  0.00     0.010 A 
ATOM     52  C   UNL     1      -7.090  -3.546   4.464  1.00  0.00     0.010 A 
ATOM     53  C   UNL     1      -7.407  -3.166   5.776  1.00  0.00    -0.014 A 
BRANCH  53  54
ATOM     54  C   UNL     1      -7.880  -1.787   6.046  1.00  0.00     0.031 A 
ATOM     55  C   UNL     1      -9.179  -1.305   5.464  1.00  0.00     0.074 A 
ATOM     56  C   UNL     1      -7.110  -0.955   6.773  1.00  0.00     0.049 A 
ATOM     57  N   UNL     1      -9.740  -0.126   5.555  1.00  0.00    -0.248 NA
ATOM     58  C   UNL     1      -9.937  -2.267   4.648  1.00  0.00     0.031 C 
ATOM     59  C   UNL     1      -5.806  -1.295   7.344  1.00  0.00     0.029 A 
ATOM     60  N   UNL     1      -7.309   0.349   7.150  1.00  0.00    -0.354 N 
ATOM     61  C   UNL     1     -10.906  -0.203   4.806  1.00  0.00     0.074 A 
ATOM     62  C   UNL     1     -10.945  -1.523   4.217  1.00  0.00     0.031 C 
ATOM     63  C   UNL     1      -5.334  -0.237   8.022  1.00  0.00     0.029 A 
ATOM     64  C   UNL     1      -6.281   0.867   7.900  1.00  0.00     0.049 A 
ATOM     65  H   UNL     1      -8.111   0.864   6.907  1.00  0.00     0.167 HD
ATOM     66  C   UNL     1     -11.869   0.736   4.645  1.00  0.00     0.037 A 
ATOM     67  C   UNL     1      -6.120   2.096   8.423  1.00  0.00     0.037 A 
ATOM     68  C   UNL     1     -11.831   2.042   5.250  1.00  0.00     0.049 A 
ATOM     69  C   UNL     1      -7.200   3.123   8.219  1.00  0.00     0.074 A 
ATOM     70  C   UNL     1     -12.784   3.044   5.199  1.00  0.00     0.029 A 
ATOM     71  N   UNL     1     -10.778   2.530   6.011  1.00  0.00    -0.354 N 
ATOM     72  N   UNL     1      -8.337   3.014   7.575  1.00  0.00    -0.248 NA
ATOM     73  C   UNL     1      -6.979   4.444   8.824  1.00  0.00     0.031 C 
ATOM     74  C   UNL     1     -12.284   4.157   5.882  1.00  0.00     0.029 A 
ATOM     75  C   UNL     1     -11.046   3.829   6.412  1.00  0.00     0.049 A 
ATOM     76  H   UNL     1      -9.961   2.027   6.233  1.00  0.00     0.167 HD
ATOM     77  C   UNL     1      -8.977   4.238   7.719  1.00  0.00     0.074 A 
ATOM     78  C   UNL     1      -8.110   5.067   8.530  1.00  0.00     0.031 C 
ATOM     79  C   UNL     1     -10.173   4.640   7.223  1.00  0.00     0.037 A 
BRANCH  66  80
ATOM     80  C   UNL     1     -13.047   0.385   3.782  1.00  0.00     0.064 A 
ATOM     81  C   UNL     1     -13.994  -0.572   4.181  1.00  0.00     0.173 A 
ATOM     82  C   UNL     1     -13.256   1.042   2.560  1.00  0.00     0.173 A 
ATOM     83  F   UNL     1     -13.836  -1.239   5.334  1.00  0.00    -0.203 F 
ATOM     84  C   UNL     1     -15.088  -0.878   3.376  1.00  0.00     0.198 A 
ATOM     85  C   UNL     1     -14.370   0.758   1.774  1.00  0.00     0.198 A 
ATOM     86  F   UNL     1     -12.386   1.969   2.133  1.00  0.00    -0.203 F 
ATOM     87  F   UNL     1     -15.950  -1.831   3.754  1.00  0.00    -0.200 F 
ATOM     88  C   UNL     1     -15.280  -0.207   2.178  1.00  0.00     0.200 A 
ATOM     89  F   UNL     1     -14.561   1.417   0.623  1.00  0.00    -0.200 F 
ATOM     90  F   UNL     1     -16.339  -0.495   1.409  1.00  0.00    -0.200 F 
ENDBRANCH  66  80
BRANCH  67  91
ATOM     91  C   UNL     1      -4.898   2.417   9.207  1.00  0.00     0.064 A 
ATOM     92  C   UNL     1      -4.969   2.660  10.586  1.00  0.00     0.173 A 
ATOM     93  C   UNL     1      -3.638   2.496   8.595  1.00  0.00     0.173 A 
ATOM     94  F   UNL     1      -6.154   2.614  11.213  1.00  0.00    -0.203 F 
ATOM     95  C   UNL     1      -3.832   2.995  11.318  1.00  0.00     0.198 A 
ATOM     96  C   UNL     1      -2.497   2.799   9.334  1.00  0.00     0.198 A 
ATOM     97  F   UNL     1      -3.513   2.264   7.280  1.00  0.00    -0.203 F 
ATOM     98  F   UNL     1      -3.937   3.272  12.624  1.00  0.00    -0.200 F 
ATOM     99  C   UNL     1      -2.596   3.059  10.693  1.00  0.00     0.200 A 
ATOM    100  F   UNL     1      -1.302   2.842   8.730  1.00  0.00    -0.200 F 
ATOM    101  F   UNL     1      -1.502   3.377  11.398  1.00  0.00    -0.200 F 
ENDBRANCH  67  91
BRANCH  79 102
ATOM    102  C   UNL     1     -10.630   6.027   7.572  1.00  0.00     0.064 A 
ATOM    103  C   UNL     1     -10.005   7.166   7.041  1.00  0.00     0.173 A 
ATOM    104  C   UNL     1     -11.726   6.219   8.427  1.00  0.00     0.173 A 
ATOM    105  F   UNL     1      -8.944   7.038   6.230  1.00  0.00    -0.203 F 
ATOM    106  C   UNL     1     -10.441   8.444   7.379  1.00  0.00     0.198 A 
ATOM    107  C   UNL     1     -12.181   7.498   8.735  1.00  0.00     0.198 A 
ATOM    108  F   UNL     1     -12.364   5.164   8.957  1.00  0.00    -0.203 F 
ATOM    109  F   UNL     1      -9.793   9.518   6.904  1.00  0.00    -0.200 F 
ATOM    110  C   UNL     1     -11.532   8.609   8.219  1.00  0.00     0.200 A 
ATOM    111  F   UNL     1     -13.245   7.655   9.533  1.00  0.00    -0.200 F 
ATOM    112  F   UNL     1     -11.954   9.841   8.537  1.00  0.00    -0.200 F 
ENDBRANCH  79 102
ENDBRANCH  53  54
ENDBRANCH  45  48
ENDBRANCH  43  44
ENDBRANCH  42  43
ENDBRANCH  41  42
ENDBRANCH   1  41
TORSDOF 19
