REMARK SMILES O=C(CCCCCC(F)(F)c1ccccc1)NCCCCCCNC(=O)c1ccc(-c2c3nc(c(-c4c(F)c(F)c(F)c(F)c4F)c4ccc([nH]4)c(-c4c(F)c(F)c(F)c(F)c4F)c4nc(c(-c5c(F)c(F)c(F)c(F)c5F)c5ccc2[nH]5)C=C4)C=C3)cc1
REMARK SMILES IDX 18 1 17 2 1 3 2 4 3 6 4 7 5 8 6 9 7 10 8 11 9 12 10 13 11 14
REMARK SMILES IDX 12 15 16 16 13 17 15 18 14 19 19 20 20 21 21 22 22 23 23 24
REMARK SMILES IDX 24 25 25 26 26 28 27 29 28 30 89 31 29 32 88 33 30 34 31 35
REMARK SMILES IDX 32 36 82 37 33 38 87 39 81 40 83 41 34 42 86 43 80 44 79 45
REMARK SMILES IDX 35 47 67 48 47 49 66 50 48 51 51 52 65 53 84 54 49 55 50 56
REMARK SMILES IDX 64 58 85 59 52 60 36 61 37 62 45 63 38 64 39 65 43 66 46 67
REMARK SMILES IDX 40 68 41 69 44 70 42 71 68 72 69 73 77 74 70 75 71 76 75 77
REMARK SMILES IDX 78 78 72 79 73 80 76 81 74 82 53 83 54 84 62 85 55 86 56 87
REMARK SMILES IDX 60 88 63 89 57 90 58 91 61 92 59 93
REMARK H PARENT 17 5 24 27 83 46 51 57
REMARK Flexibility Score: inf
ROOT
ATOM      1  C   UNL     1       1.985   2.021   1.493  1.00  0.00     0.116 C 
ENDROOT
BRANCH   1   2
ATOM      2  N   UNL     1       2.486   0.746   1.039  1.00  0.00    -0.356 N 
ATOM      3  O   UNL     1       0.762   0.263  -0.401  1.00  0.00    -0.275 OA
ATOM      4  C   UNL     1       1.870   0.012   0.056  1.00  0.00     0.219 C 
ATOM      5  H   UNL     1       3.305   0.387   1.452  1.00  0.00     0.163 HD
BRANCH   4   6
ATOM      6  C   UNL     1       2.751  -1.098  -0.478  1.00  0.00     0.100 C 
BRANCH   6   7
ATOM      7  C   UNL     1       3.666  -0.566  -1.581  1.00  0.00     0.010 C 
BRANCH   7   8
ATOM      8  C   UNL     1       4.774   0.392  -1.120  1.00  0.00     0.001 C 
BRANCH   8   9
ATOM      9  C   UNL     1       5.936  -0.232  -0.338  1.00  0.00     0.007 C 
BRANCH   9  10
ATOM     10  C   UNL     1       6.732  -1.352  -1.028  1.00  0.00     0.082 C 
BRANCH  10  11
ATOM     11  C   UNL     1       7.676  -0.930  -2.172  1.00  0.00     0.273 C 
ATOM     12  F   UNL     1       8.612  -0.087  -1.639  1.00  0.00    -0.201 F 
ATOM     13  F   UNL     1       8.376  -2.048  -2.535  1.00  0.00    -0.201 F 
BRANCH  11  14
ATOM     14  C   UNL     1       6.958  -0.330  -3.361  1.00  0.00     0.021 A 
ATOM     15  C   UNL     1       7.100   1.034  -3.666  1.00  0.00     0.010 A 
ATOM     16  C   UNL     1       6.058  -1.102  -4.113  1.00  0.00     0.010 A 
ATOM     17  C   UNL     1       6.281   1.631  -4.625  1.00  0.00     0.001 A 
ATOM     18  C   UNL     1       5.239  -0.501  -5.069  1.00  0.00     0.001 A 
ATOM     19  C   UNL     1       5.336   0.868  -5.309  1.00  0.00     0.000 A 
ENDBRANCH  11  14
ENDBRANCH  10  11
ENDBRANCH   9  10
ENDBRANCH   8   9
ENDBRANCH   7   8
ENDBRANCH   6   7
ENDBRANCH   4   6
ENDBRANCH   1   2
BRANCH   1  20
ATOM     20  C   UNL     1       2.631   2.418   2.816  1.00  0.00     0.021 C 
BRANCH  20  21
ATOM     21  C   UNL     1       4.147   2.661   2.741  1.00  0.00     0.002 C 
BRANCH  21  22
ATOM     22  C   UNL     1       4.582   3.869   1.906  1.00  0.00     0.002 C 
BRANCH  22  23
ATOM     23  C   UNL     1       3.970   5.205   2.327  1.00  0.00     0.021 C 
BRANCH  23  24
ATOM     24  C   UNL     1       4.133   5.557   3.802  1.00  0.00     0.116 C 
BRANCH  24  25
ATOM     25  N   UNL     1       5.524   5.733   4.189  1.00  0.00    -0.352 N 
ATOM     26  C   UNL     1       6.103   6.748   4.909  1.00  0.00     0.251 C 
ATOM     27  H   UNL     1       6.138   5.023   3.893  1.00  0.00     0.163 HD
ATOM     28  O   UNL     1       7.326   6.810   5.015  1.00  0.00    -0.269 OA
BRANCH  26  29
ATOM     29  C   UNL     1       5.260   7.792   5.533  1.00  0.00     0.039 A 
ATOM     30  C   UNL     1       5.648   9.129   5.411  1.00  0.00     0.014 A 
ATOM     31  C   UNL     1       4.092   7.463   6.228  1.00  0.00     0.014 A 
ATOM     32  C   UNL     1       4.831  10.137   5.926  1.00  0.00     0.010 A 
ATOM     33  C   UNL     1       3.240   8.473   6.672  1.00  0.00     0.010 A 
ATOM     34  C   UNL     1       3.600   9.820   6.525  1.00  0.00    -0.014 A 
BRANCH  34  35
ATOM     35  C   UNL     1       2.672  10.894   6.967  1.00  0.00     0.031 A 
ATOM     36  C   UNL     1       2.314  11.053   8.417  1.00  0.00     0.074 A 
ATOM     37  C   UNL     1       2.111  11.700   6.045  1.00  0.00     0.049 A 
ATOM     38  N   UNL     1       1.523  11.931   8.983  1.00  0.00    -0.248 NA
ATOM     39  C   UNL     1       2.902  10.085   9.354  1.00  0.00     0.031 C 
ATOM     40  C   UNL     1       2.332  11.611   4.601  1.00  0.00     0.029 A 
ATOM     41  N   UNL     1       1.241  12.753   6.183  1.00  0.00    -0.354 N 
ATOM     42  C   UNL     1       1.513  11.616  10.336  1.00  0.00     0.074 A 
ATOM     43  C   UNL     1       2.328  10.431  10.497  1.00  0.00     0.031 C 
ATOM     44  C   UNL     1       1.650  12.592   3.990  1.00  0.00     0.029 A 
ATOM     45  C   UNL     1       0.912  13.354   4.992  1.00  0.00     0.049 A 
ATOM     46  H   UNL     1       0.887  13.050   7.052  1.00  0.00     0.167 HD
ATOM     47  C   UNL     1       0.898  12.268  11.352  1.00  0.00     0.037 A 
ATOM     48  C   UNL     1       0.105  14.401   4.736  1.00  0.00     0.037 A 
ATOM     49  C   UNL     1       0.096  13.453  11.187  1.00  0.00     0.049 A 
ATOM     50  C   UNL     1      -0.578  15.098   5.880  1.00  0.00     0.074 A 
ATOM     51  C   UNL     1      -0.511  14.228  12.161  1.00  0.00     0.029 A 
ATOM     52  N   UNL     1      -0.225  14.028   9.965  1.00  0.00    -0.354 N 
ATOM     53  N   UNL     1      -0.509  14.847   7.165  1.00  0.00    -0.248 NA
ATOM     54  C   UNL     1      -1.448  16.231   5.537  1.00  0.00     0.031 C 
ATOM     55  C   UNL     1      -1.250  15.232  11.525  1.00  0.00     0.029 A 
ATOM     56  C   UNL     1      -1.052  15.124  10.158  1.00  0.00     0.049 A 
ATOM     57  H   UNL     1       0.089  13.704   9.090  1.00  0.00     0.167 HD
ATOM     58  C   UNL     1      -1.304  15.801   7.785  1.00  0.00     0.074 A 
ATOM     59  C   UNL     1      -1.828  16.651   6.735  1.00  0.00     0.031 C 
ATOM     60  C   UNL     1      -1.576  15.958   9.104  1.00  0.00     0.037 A 
BRANCH  47  61
ATOM     61  C   UNL     1       1.063  11.704  12.737  1.00  0.00     0.064 A 
ATOM     62  C   UNL     1       2.301  11.715  13.398  1.00  0.00     0.173 A 
ATOM     63  C   UNL     1      -0.038  11.166  13.421  1.00  0.00     0.173 A 
ATOM     64  F   UNL     1       3.389  12.210  12.789  1.00  0.00    -0.203 F 
ATOM     65  C   UNL     1       2.440  11.170  14.673  1.00  0.00     0.198 A 
ATOM     66  C   UNL     1       0.097  10.655  14.710  1.00  0.00     0.198 A 
ATOM     67  F   UNL     1      -1.247  11.137  12.842  1.00  0.00    -0.203 F 
ATOM     68  F   UNL     1       3.646  11.135  15.257  1.00  0.00    -0.200 F 
ATOM     69  C   UNL     1       1.337  10.647  15.330  1.00  0.00     0.200 A 
ATOM     70  F   UNL     1      -0.974  10.164  15.350  1.00  0.00    -0.200 F 
ATOM     71  F   UNL     1       1.471  10.126  16.557  1.00  0.00    -0.200 F 
ENDBRANCH  47  61
BRANCH  48  72
ATOM     72  C   UNL     1      -0.069  14.875   3.338  1.00  0.00     0.064 A 
ATOM     73  C   UNL     1       0.454  16.109   2.928  1.00  0.00     0.173 A 
ATOM     74  C   UNL     1      -0.751  14.106   2.384  1.00  0.00     0.173 A 
ATOM     75  F   UNL     1       1.096  16.891   3.809  1.00  0.00    -0.203 F 
ATOM     76  C   UNL     1       0.289  16.563   1.621  1.00  0.00     0.198 A 
ATOM     77  C   UNL     1      -0.889  14.547   1.069  1.00  0.00     0.198 A 
ATOM     78  F   UNL     1      -1.266  12.916   2.724  1.00  0.00    -0.203 F 
ATOM     79  F   UNL     1       0.763  17.765   1.266  1.00  0.00    -0.200 F 
ATOM     80  C   UNL     1      -0.376  15.778   0.691  1.00  0.00     0.200 A 
ATOM     81  F   UNL     1      -1.517  13.777   0.170  1.00  0.00    -0.200 F 
ATOM     82  F   UNL     1      -0.526  16.210  -0.569  1.00  0.00    -0.200 F 
ENDBRANCH  48  72
BRANCH  60  83
ATOM     83  C   UNL     1      -2.465  17.108   9.488  1.00  0.00     0.064 A 
ATOM     84  C   UNL     1      -3.832  17.123   9.168  1.00  0.00     0.173 A 
ATOM     85  C   UNL     1      -1.948  18.200  10.202  1.00  0.00     0.173 A 
ATOM     86  F   UNL     1      -4.374  16.112   8.474  1.00  0.00    -0.203 F 
ATOM     87  C   UNL     1      -4.637  18.205   9.516  1.00  0.00     0.198 A 
ATOM     88  C   UNL     1      -2.764  19.263  10.580  1.00  0.00     0.198 A 
ATOM     89  F   UNL     1      -0.650  18.235  10.540  1.00  0.00    -0.203 F 
ATOM     90  F   UNL     1      -5.925  18.225   9.146  1.00  0.00    -0.200 F 
ATOM     91  C   UNL     1      -4.105  19.270  10.227  1.00  0.00     0.200 A 
ATOM     92  F   UNL     1      -2.252  20.283  11.281  1.00  0.00    -0.200 F 
ATOM     93  F   UNL     1      -4.883  20.308  10.564  1.00  0.00    -0.200 F 
ENDBRANCH  60  83
ENDBRANCH  34  35
ENDBRANCH  26  29
ENDBRANCH  24  25
ENDBRANCH  23  24
ENDBRANCH  22  23
ENDBRANCH  21  22
ENDBRANCH  20  21
ENDBRANCH   1  20
TORSDOF 19
