REMARK SMILES Cn1nc(N2CCC(CC(=O)NCCCCCCNC(=O)c3ccc(-c4c5nc(c(-c6c(F)c(F)c(F)c(F)c6F)c6ccc([nH]6)c(-c6c(F)c(F)c(F)c(F)c6F)c6nc(c(-c7c(F)c(F)c(F)c(F)c7F)c7ccc4[nH]7)C=C6)C=C5)cc3)CC2)c(=O)n(C)c1=O
REMARK SMILES IDX 15 1 14 2 13 3 12 4 10 5 11 6 9 8 8 9 5 10 6 11 86 12 7 13
REMARK SMILES IDX 85 14 4 15 1 16 2 17 3 18 91 19 89 20 92 21 87 22 90 23
REMARK SMILES IDX 88 24 16 25 17 26 18 27 19 28 20 29 21 31 22 32 23 33 84 34
REMARK SMILES IDX 24 35 83 36 25 37 26 38 27 39 77 40 28 41 82 42 76 43 78 44
REMARK SMILES IDX 29 45 81 46 75 47 74 48 30 50 62 51 42 52 61 53 43 54 46 55
REMARK SMILES IDX 60 56 79 57 44 58 45 59 59 61 80 62 47 63 31 64 32 65 40 66
REMARK SMILES IDX 33 67 34 68 38 69 41 70 35 71 36 72 39 73 37 74 63 75 64 76
REMARK SMILES IDX 72 77 65 78 66 79 70 80 73 81 67 82 68 83 71 84 69 85 48 86
REMARK SMILES IDX 49 87 57 88 50 89 51 90 55 91 58 92 52 93 53 94 56 95 54 96
REMARK H PARENT 12 7 19 30 78 49 46 60
REMARK Flexibility Score: inf
ROOT
ATOM      1  C   UNL     1      -6.585  -1.377  -2.793  1.00  0.00     0.002 C 
ENDROOT
BRANCH   1   2
ATOM      2  C   UNL     1      -5.320  -0.664  -3.264  1.00  0.00     0.021 C 
BRANCH   2   3
ATOM      3  C   UNL     1      -4.540  -1.394  -4.367  1.00  0.00     0.116 C 
BRANCH   3   4
ATOM      4  N   UNL     1      -4.933  -0.906  -5.679  1.00  0.00    -0.356 N 
ATOM      5  C   UNL     1      -4.286  -0.098  -6.566  1.00  0.00     0.220 C 
ATOM      6  O   UNL     1      -4.904   0.269  -7.568  1.00  0.00    -0.275 OA
ATOM      7  H   UNL     1      -5.819  -1.212  -5.978  1.00  0.00     0.163 HD
BRANCH   5   8
ATOM      8  C   UNL     1      -2.842   0.332  -6.347  1.00  0.00     0.103 C 
BRANCH   8   9
ATOM      9  C   UNL     1      -2.671   1.690  -5.630  1.00  0.00     0.002 C 
ATOM     10  N   UNL     1      -1.342   2.975  -3.418  1.00  0.00    -0.351 N 
ATOM     11  C   UNL     1      -2.759   2.749  -3.283  1.00  0.00     0.118 C 
ATOM     12  C   UNL     1      -0.893   3.324  -4.755  1.00  0.00     0.118 C 
ATOM     13  C   UNL     1      -3.155   1.595  -4.179  1.00  0.00     0.025 C 
ATOM     14  C   UNL     1      -1.198   2.152  -5.697  1.00  0.00     0.025 C 
BRANCH  10  15
ATOM     15  C   UNL     1      -0.472   2.785  -2.361  1.00  0.00     0.215 A 
ATOM     16  C   UNL     1       0.807   0.134  -0.292  1.00  0.00     0.180 C 
ATOM     17  N   UNL     1       0.575   1.482  -0.780  1.00  0.00    -0.216 N 
ATOM     18  N   UNL     1      -0.294   1.607  -1.833  1.00  0.00    -0.145 NA
ATOM     19  C   UNL     1       1.219   2.538  -0.140  1.00  0.00     0.346 A 
ATOM     20  N   UNL     1       0.997   3.795  -0.661  1.00  0.00    -0.259 N 
ATOM     21  O   UNL     1       1.950   2.350   0.835  1.00  0.00    -0.246 OA
ATOM     22  C   UNL     1       0.235   4.013  -1.787  1.00  0.00     0.299 A 
ATOM     23  C   UNL     1       1.592   4.954  -0.033  1.00  0.00     0.159 C 
ATOM     24  O   UNL     1       0.062   5.104  -2.320  1.00  0.00    -0.265 OA
ENDBRANCH  10  15
ENDBRANCH   8   9
ENDBRANCH   5   8
ENDBRANCH   3   4
ENDBRANCH   2   3
ENDBRANCH   1   2
BRANCH   1  25
ATOM     25  C   UNL     1      -6.340  -2.650  -1.984  1.00  0.00     0.002 C 
BRANCH  25  26
ATOM     26  C   UNL     1      -5.439  -2.482  -0.757  1.00  0.00     0.021 C 
BRANCH  26  27
ATOM     27  C   UNL     1      -5.870  -1.383   0.211  1.00  0.00     0.116 C 
BRANCH  27  28
ATOM     28  N   UNL     1      -7.196  -1.629   0.754  1.00  0.00    -0.352 N 
ATOM     29  C   UNL     1      -7.563  -1.971   2.031  1.00  0.00     0.251 C 
ATOM     30  H   UNL     1      -7.937  -1.536   0.114  1.00  0.00     0.163 HD
ATOM     31  O   UNL     1      -8.693  -2.383   2.266  1.00  0.00    -0.269 OA
BRANCH  29  32
ATOM     32  C   UNL     1      -6.581  -1.849   3.127  1.00  0.00     0.039 A 
ATOM     33  C   UNL     1      -6.434  -2.905   4.028  1.00  0.00     0.014 A 
ATOM     34  C   UNL     1      -5.822  -0.684   3.272  1.00  0.00     0.014 A 
ATOM     35  C   UNL     1      -5.484  -2.814   5.046  1.00  0.00     0.010 A 
ATOM     36  C   UNL     1      -4.827  -0.623   4.242  1.00  0.00     0.010 A 
ATOM     37  C   UNL     1      -4.655  -1.683   5.144  1.00  0.00    -0.014 A 
BRANCH  37  38
ATOM     38  C   UNL     1      -3.619  -1.587   6.202  1.00  0.00     0.031 A 
ATOM     39  C   UNL     1      -3.737  -0.541   7.275  1.00  0.00     0.074 A 
ATOM     40  C   UNL     1      -2.555  -2.412   6.169  1.00  0.00     0.049 A 
ATOM     41  N   UNL     1      -2.917  -0.272   8.259  1.00  0.00    -0.248 NA
ATOM     42  C   UNL     1      -4.920   0.334   7.225  1.00  0.00     0.031 C 
ATOM     43  C   UNL     1      -2.312  -3.436   5.153  1.00  0.00     0.029 A 
ATOM     44  N   UNL     1      -1.474  -2.516   7.010  1.00  0.00    -0.354 N 
ATOM     45  C   UNL     1      -3.481   0.801   8.936  1.00  0.00     0.074 A 
ATOM     46  C   UNL     1      -4.682   1.172   8.224  1.00  0.00     0.031 C 
ATOM     47  C   UNL     1      -1.170  -4.080   5.441  1.00  0.00     0.029 A 
ATOM     48  C   UNL     1      -0.580  -3.492   6.640  1.00  0.00     0.049 A 
ATOM     49  H   UNL     1      -1.352  -1.946   7.803  1.00  0.00     0.167 HD
ATOM     50  C   UNL     1      -3.046   1.403  10.068  1.00  0.00     0.037 A 
ATOM     51  C   UNL     1       0.587  -3.864   7.202  1.00  0.00     0.037 A 
ATOM     52  C   UNL     1      -1.867   1.006  10.791  1.00  0.00     0.049 A 
ATOM     53  C   UNL     1       1.050  -3.169   8.455  1.00  0.00     0.074 A 
ATOM     54  C   UNL     1      -1.383   1.510  11.985  1.00  0.00     0.029 A 
ATOM     55  N   UNL     1      -0.990   0.011  10.388  1.00  0.00    -0.354 N 
ATOM     56  N   UNL     1       0.469  -2.206   9.129  1.00  0.00    -0.248 NA
ATOM     57  C   UNL     1       2.327  -3.616   9.031  1.00  0.00     0.031 C 
ATOM     58  C   UNL     1      -0.183   0.858  12.277  1.00  0.00     0.029 A 
ATOM     59  C   UNL     1       0.051  -0.093  11.296  1.00  0.00     0.049 A 
ATOM     60  H   UNL     1      -1.091  -0.539   9.578  1.00  0.00     0.167 HD
ATOM     61  C   UNL     1       1.295  -1.945  10.213  1.00  0.00     0.074 A 
ATOM     62  C   UNL     1       2.408  -2.867  10.122  1.00  0.00     0.031 C 
ATOM     63  C   UNL     1       1.147  -1.022  11.194  1.00  0.00     0.037 A 
BRANCH  50  64
ATOM     64  C   UNL     1      -3.851   2.543  10.617  1.00  0.00     0.064 A 
ATOM     65  C   UNL     1      -5.098   2.333  11.225  1.00  0.00     0.173 A 
ATOM     66  C   UNL     1      -3.328   3.845  10.623  1.00  0.00     0.173 A 
ATOM     67  F   UNL     1      -5.646   1.109  11.236  1.00  0.00    -0.203 F 
ATOM     68  C   UNL     1      -5.793   3.386  11.813  1.00  0.00     0.198 A 
ATOM     69  C   UNL     1      -4.013   4.890  11.237  1.00  0.00     0.198 A 
ATOM     70  F   UNL     1      -2.138   4.098  10.058  1.00  0.00    -0.203 F 
ATOM     71  F   UNL     1      -6.994   3.167  12.367  1.00  0.00    -0.200 F 
ATOM     72  C   UNL     1      -5.245   4.660  11.830  1.00  0.00     0.200 A 
ATOM     73  F   UNL     1      -3.475   6.117  11.266  1.00  0.00    -0.200 F 
ATOM     74  F   UNL     1      -5.904   5.666  12.420  1.00  0.00    -0.200 F 
ENDBRANCH  50  64
BRANCH  51  75
ATOM     75  C   UNL     1       1.385  -4.961   6.594  1.00  0.00     0.064 A 
ATOM     76  C   UNL     1       1.534  -6.193   7.247  1.00  0.00     0.173 A 
ATOM     77  C   UNL     1       2.007  -4.806   5.346  1.00  0.00     0.173 A 
ATOM     78  F   UNL     1       0.975  -6.385   8.450  1.00  0.00    -0.203 F 
ATOM     79  C   UNL     1       2.289  -7.221   6.683  1.00  0.00     0.198 A 
ATOM     80  C   UNL     1       2.736  -5.845   4.770  1.00  0.00     0.198 A 
ATOM     81  F   UNL     1       1.891  -3.651   4.676  1.00  0.00    -0.203 F 
ATOM     82  F   UNL     1       2.449  -8.373   7.348  1.00  0.00    -0.200 F 
ATOM     83  C   UNL     1       2.882  -7.049   5.442  1.00  0.00     0.200 A 
ATOM     84  F   UNL     1       3.292  -5.681   3.562  1.00  0.00    -0.200 F 
ATOM     85  F   UNL     1       3.599  -8.041   4.896  1.00  0.00    -0.200 F 
ENDBRANCH  51  75
BRANCH  63  86
ATOM     86  C   UNL     1       2.200  -0.961  12.262  1.00  0.00     0.064 A 
ATOM     87  C   UNL     1       3.478  -0.447  12.000  1.00  0.00     0.173 A 
ATOM     88  C   UNL     1       1.899  -1.337  13.580  1.00  0.00     0.173 A 
ATOM     89  F   UNL     1       3.818  -0.084  10.754  1.00  0.00    -0.203 F 
ATOM     90  C   UNL     1       4.420  -0.322  13.017  1.00  0.00     0.198 A 
ATOM     91  C   UNL     1       2.833  -1.181  14.600  1.00  0.00     0.198 A 
ATOM     92  F   UNL     1       0.688  -1.825  13.884  1.00  0.00    -0.203 F 
ATOM     93  F   UNL     1       5.646   0.142  12.738  1.00  0.00    -0.200 F 
ATOM     94  C   UNL     1       4.094  -0.678  14.317  1.00  0.00     0.200 A 
ATOM     95  F   UNL     1       2.509  -1.507  15.859  1.00  0.00    -0.200 F 
ATOM     96  F   UNL     1       4.995  -0.535  15.299  1.00  0.00    -0.200 F 
ENDBRANCH  63  86
ENDBRANCH  37  38
ENDBRANCH  29  32
ENDBRANCH  27  28
ENDBRANCH  26  27
ENDBRANCH  25  26
ENDBRANCH   1  25
TORSDOF 15
