REMARK SMILES CC1(C)[C@H](C(=O)NCCCCCCNC(=O)c2ccc(-c3c4nc(c(-c5c(F)c(F)c(F)c(F)c5F)c5ccc([nH]5)c(-c5c(F)c(F)c(F)c(F)c5F)c5nc(c(-c6c(F)c(F)c(F)c(F)c6F)c6ccc3[nH]6)C=C5)C=C4)cc2)[C@H]1C(=O)Nc1cccc2[nH]ccc12
REMARK SMILES IDX 10 1 9 2 8 3 7 4 5 5 6 6 4 8 1 9 2 10 3 11 80 12 81 13 82 14
REMARK SMILES IDX 83 15 84 17 85 18 92 19 86 20 88 21 91 22 87 23 89 24 90 25
REMARK SMILES IDX 11 27 12 28 13 29 14 30 15 31 16 33 17 34 18 35 79 36 19 37
REMARK SMILES IDX 78 38 20 39 21 40 22 41 72 42 23 43 77 44 71 45 73 46 24 47
REMARK SMILES IDX 76 48 70 49 69 50 25 52 57 53 37 54 56 55 38 56 41 57 55 58
REMARK SMILES IDX 74 59 39 60 40 61 54 63 75 64 42 65 26 66 27 67 35 68 28 69
REMARK SMILES IDX 29 70 33 71 36 72 30 73 31 74 34 75 32 76 58 77 59 78 67 79
REMARK SMILES IDX 60 80 61 81 65 82 68 83 62 84 63 85 66 86 64 87 43 88 44 89
REMARK SMILES IDX 52 90 45 91 46 92 50 93 53 94 47 95 48 96 51 97 49 98
REMARK H PARENT 7 7 83 16 89 26 14 32 73 51 41 62
REMARK Flexibility Score: inf
ROOT
ATOM      1  C   UNL     1      -1.131   5.208  -1.797  1.00  0.00     0.002 C 
ENDROOT
BRANCH   1   2
ATOM      2  C   UNL     1      -0.628   4.019  -0.972  1.00  0.00     0.021 C 
BRANCH   2   3
ATOM      3  C   UNL     1      -1.736   3.142  -0.387  1.00  0.00     0.116 C 
BRANCH   3   4
ATOM      4  N   UNL     1      -2.147   2.124  -1.318  1.00  0.00    -0.356 N 
ATOM      5  C   UNL     1      -1.819   0.814  -1.494  1.00  0.00     0.224 C 
ATOM      6  O   UNL     1      -2.409   0.246  -2.417  1.00  0.00    -0.275 OA
ATOM      7  H   UNL     1      -2.809   2.446  -1.971  1.00  0.00     0.163 HD
BRANCH   5   8
ATOM      8  C   UNL     1      -0.853  -0.005  -0.711  1.00  0.00     0.098 C 
ATOM      9  C   UNL     1       1.600  -0.470  -0.347  1.00  0.00     0.013 C 
ATOM     10  C   UNL     1       0.417   0.366   0.067  1.00  0.00    -0.011 C 
ATOM     11  C   UNL     1       0.919   1.662   0.641  1.00  0.00     0.013 C 
ATOM     12  C   UNL     1      -0.853  -0.159   0.766  1.00  0.00     0.098 C 
BRANCH  12  13
ATOM     13  C   UNL     1      -0.869  -1.374   1.638  1.00  0.00     0.228 C 
ATOM     14  O   UNL     1      -0.797  -1.184   2.852  1.00  0.00    -0.274 OA
ATOM     15  N   UNL     1      -1.243  -2.619   1.192  1.00  0.00    -0.325 N 
ATOM     16  H   UNL     1      -1.869  -3.108   1.773  1.00  0.00     0.169 HD
BRANCH  15  17
ATOM     17  C   UNL     1      -0.856  -3.288   0.028  1.00  0.00     0.050 A 
ATOM     18  C   UNL     1      -1.858  -3.820  -0.790  1.00  0.00     0.027 A 
ATOM     19  C   UNL     1       0.493  -3.574  -0.285  1.00  0.00     0.023 A 
ATOM     20  C   UNL     1      -1.536  -4.431  -2.001  1.00  0.00     0.004 A 
ATOM     21  C   UNL     1       0.786  -4.124  -1.535  1.00  0.00     0.047 A 
ATOM     22  C   UNL     1       1.736  -3.500   0.414  1.00  0.00     0.030 A 
ATOM     23  C   UNL     1      -0.209  -4.535  -2.427  1.00  0.00     0.027 A 
ATOM     24  N   UNL     1       2.157  -4.142  -1.664  1.00  0.00    -0.361 N 
ATOM     25  C   UNL     1       2.743  -3.810  -0.472  1.00  0.00     0.083 A 
ATOM     26  H   UNL     1       2.644  -4.361  -2.491  1.00  0.00     0.166 HD
ENDBRANCH  15  17
ENDBRANCH  12  13
ENDBRANCH   5   8
ENDBRANCH   3   4
ENDBRANCH   2   3
ENDBRANCH   1   2
BRANCH   1  27
ATOM     27  C   UNL     1      -2.008   6.204  -1.030  1.00  0.00     0.002 C 
BRANCH  27  28
ATOM     28  C   UNL     1      -1.415   6.718   0.285  1.00  0.00     0.021 C 
BRANCH  28  29
ATOM     29  C   UNL     1      -0.078   7.439   0.138  1.00  0.00     0.116 C 
BRANCH  29  30
ATOM     30  N   UNL     1      -0.201   8.634  -0.682  1.00  0.00    -0.352 N 
ATOM     31  C   UNL     1       0.033   9.945  -0.356  1.00  0.00     0.251 C 
ATOM     32  H   UNL     1      -0.496   8.479  -1.609  1.00  0.00     0.163 HD
ATOM     33  O   UNL     1      -0.364  10.844  -1.091  1.00  0.00    -0.269 OA
BRANCH  31  34
ATOM     34  C   UNL     1       0.764  10.279   0.884  1.00  0.00     0.039 A 
ATOM     35  C   UNL     1       0.312  11.342   1.669  1.00  0.00     0.014 A 
ATOM     36  C   UNL     1       1.916   9.576   1.247  1.00  0.00     0.014 A 
ATOM     37  C   UNL     1       0.992  11.674   2.842  1.00  0.00     0.010 A 
ATOM     38  C   UNL     1       2.552   9.861   2.452  1.00  0.00     0.010 A 
ATOM     39  C   UNL     1       2.104  10.921   3.255  1.00  0.00    -0.014 A 
BRANCH  39  40
ATOM     40  C   UNL     1       2.821  11.243   4.513  1.00  0.00     0.031 A 
ATOM     41  C   UNL     1       4.247  11.721   4.470  1.00  0.00     0.074 A 
ATOM     42  C   UNL     1       2.206  11.054   5.696  1.00  0.00     0.049 A 
ATOM     43  N   UNL     1       5.057  12.002   5.459  1.00  0.00    -0.248 NA
ATOM     44  C   UNL     1       4.851  11.877   3.137  1.00  0.00     0.031 C 
ATOM     45  C   UNL     1       0.843  10.549   5.867  1.00  0.00     0.029 A 
ATOM     46  N   UNL     1       2.650  11.255   6.979  1.00  0.00    -0.354 N 
ATOM     47  C   UNL     1       6.265  12.353   4.870  1.00  0.00     0.074 A 
ATOM     48  C   UNL     1       6.100  12.198   3.441  1.00  0.00     0.031 C 
ATOM     49  C   UNL     1       0.554  10.500   7.178  1.00  0.00     0.029 A 
ATOM     50  C   UNL     1       1.721  10.936   7.939  1.00  0.00     0.049 A 
ATOM     51  H   UNL     1       3.549  11.596   7.191  1.00  0.00     0.167 HD
ATOM     52  C   UNL     1       7.401  12.788   5.467  1.00  0.00     0.037 A 
ATOM     53  C   UNL     1       1.805  10.986   9.281  1.00  0.00     0.037 A 
ATOM     54  C   UNL     1       7.550  12.965   6.887  1.00  0.00     0.049 A 
ATOM     55  C   UNL     1       3.076  11.480   9.918  1.00  0.00     0.074 A 
ATOM     56  C   UNL     1       8.639  13.456   7.586  1.00  0.00     0.029 A 
ATOM     57  N   UNL     1       6.578  12.656   7.827  1.00  0.00    -0.354 N 
ATOM     58  N   UNL     1       4.188  11.876   9.348  1.00  0.00    -0.248 NA
ATOM     59  C   UNL     1       3.099  11.543  11.385  1.00  0.00     0.031 C 
ATOM     60  C   UNL     1       8.343  13.401   8.952  1.00  0.00     0.029 A 
ATOM     61  C   UNL     1       7.049  12.928   9.102  1.00  0.00     0.049 A 
ATOM     62  H   UNL     1       5.685  12.297   7.620  1.00  0.00     0.167 HD
ATOM     63  C   UNL     1       5.030  12.264  10.381  1.00  0.00     0.074 A 
ATOM     64  C   UNL     1       4.293  12.071  11.613  1.00  0.00     0.031 C 
ATOM     65  C   UNL     1       6.298  12.739  10.317  1.00  0.00     0.037 A 
BRANCH  52  66
ATOM     66  C   UNL     1       8.573  13.107   4.583  1.00  0.00     0.064 A 
ATOM     67  C   UNL     1       8.567  14.217   3.725  1.00  0.00     0.173 A 
ATOM     68  C   UNL     1       9.732  12.317   4.624  1.00  0.00     0.173 A 
ATOM     69  F   UNL     1       7.480  14.999   3.639  1.00  0.00    -0.203 F 
ATOM     70  C   UNL     1       9.666  14.508   2.921  1.00  0.00     0.198 A 
ATOM     71  C   UNL     1      10.841  12.629   3.842  1.00  0.00     0.198 A 
ATOM     72  F   UNL     1       9.793  11.247   5.431  1.00  0.00    -0.203 F 
ATOM     73  F   UNL     1       9.619  15.546   2.074  1.00  0.00    -0.200 F 
ATOM     74  C   UNL     1      10.805  13.719   2.986  1.00  0.00     0.200 A 
ATOM     75  F   UNL     1      11.945  11.874   3.916  1.00  0.00    -0.200 F 
ATOM     76  F   UNL     1      11.865  14.006   2.218  1.00  0.00    -0.200 F 
ENDBRANCH  52  66
BRANCH  53  77
ATOM     77  C   UNL     1       0.641  10.585  10.114  1.00  0.00     0.064 A 
ATOM     78  C   UNL     1      -0.075  11.535  10.856  1.00  0.00     0.173 A 
ATOM     79  C   UNL     1       0.227   9.248  10.194  1.00  0.00     0.173 A 
ATOM     80  F   UNL     1       0.294  12.824  10.827  1.00  0.00    -0.203 F 
ATOM     81  C   UNL     1      -1.145  11.159  11.665  1.00  0.00     0.198 A 
ATOM     82  C   UNL     1      -0.862   8.877  10.980  1.00  0.00     0.198 A 
ATOM     83  F   UNL     1       0.875   8.301   9.499  1.00  0.00    -0.203 F 
ATOM     84  F   UNL     1      -1.781  12.080  12.402  1.00  0.00    -0.200 F 
ATOM     85  C   UNL     1      -1.541   9.831  11.723  1.00  0.00     0.200 A 
ATOM     86  F   UNL     1      -1.251   7.596  11.021  1.00  0.00    -0.200 F 
ATOM     87  F   UNL     1      -2.572   9.471  12.499  1.00  0.00    -0.200 F 
ENDBRANCH  53  77
BRANCH  65  88
ATOM     88  C   UNL     1       6.955  13.121  11.612  1.00  0.00     0.064 A 
ATOM     89  C   UNL     1       7.360  12.157  12.547  1.00  0.00     0.173 A 
ATOM     90  C   UNL     1       7.209  14.469  11.905  1.00  0.00     0.173 A 
ATOM     91  F   UNL     1       7.127  10.856  12.320  1.00  0.00    -0.203 F 
ATOM     92  C   UNL     1       7.968  12.532  13.742  1.00  0.00     0.198 A 
ATOM     93  C   UNL     1       7.846  14.838  13.087  1.00  0.00     0.198 A 
ATOM     94  F   UNL     1       6.849  15.430  11.041  1.00  0.00    -0.203 F 
ATOM     95  F   UNL     1       8.297  11.598  14.645  1.00  0.00    -0.200 F 
ATOM     96  C   UNL     1       8.216  13.870  14.008  1.00  0.00     0.200 A 
ATOM     97  F   UNL     1       8.099  16.131  13.335  1.00  0.00    -0.200 F 
ATOM     98  F   UNL     1       8.806  14.229  15.157  1.00  0.00    -0.200 F 
ENDBRANCH  65  88
ENDBRANCH  39  40
ENDBRANCH  31  34
ENDBRANCH  29  30
ENDBRANCH  28  29
ENDBRANCH  27  28
ENDBRANCH   1  27
TORSDOF 15
