REMARK SMILES Cc1cccc(NC(=O)[C@H]2C=C[C@@H]([NH3+])C2)c1C(=O)NCCCCCCNC(=O)c1ccc(-c2c3nc(c(-c4c(F)c(F)c(F)c(F)c4F)c4ccc([nH]4)c(-c4c(F)c(F)c(F)c(F)c4F)c4nc(c(-c5c(F)c(F)c(F)c(F)c5F)c5ccc2[nH]5)C=C4)C=C3)cc1
REMARK SMILES IDX 22 1 21 2 20 3 19 4 17 5 18 6 16 8 1 9 2 10 3 11 4 12 6 13
REMARK SMILES IDX 5 14 7 15 8 16 9 18 10 19 11 20 15 21 12 22 13 23 14 24
REMARK SMILES IDX 23 28 24 29 25 30 26 31 27 32 28 34 29 35 30 36 91 37 31 38
REMARK SMILES IDX 90 39 32 40 33 41 34 42 84 43 35 44 89 45 83 46 85 47 36 48
REMARK SMILES IDX 88 49 82 50 81 51 37 53 69 54 49 55 68 56 50 57 53 58 67 59
REMARK SMILES IDX 86 60 51 61 52 62 66 64 87 65 54 66 38 67 39 68 47 69 40 70
REMARK SMILES IDX 41 71 45 72 48 73 42 74 43 75 46 76 44 77 70 78 71 79 79 80
REMARK SMILES IDX 72 81 73 82 77 83 80 84 74 85 75 86 78 87 76 88 55 89 56 90
REMARK SMILES IDX 64 91 57 92 58 93 62 94 65 95 59 96 60 97 63 98 61 99
REMARK H PARENT 19 7 7 17 14 25 14 26 14 27 26 33 85 52 53 63
REMARK Flexibility Score: inf
ROOT
ATOM      1  C   UNL     1       5.468   2.997  -0.695  1.00  0.00     0.002 C 
ENDROOT
BRANCH   1   2
ATOM      2  C   UNL     1       4.406   1.896  -0.623  1.00  0.00     0.021 C 
BRANCH   2   3
ATOM      3  C   UNL     1       3.407   1.990   0.542  1.00  0.00     0.116 C 
BRANCH   3   4
ATOM      4  N   UNL     1       2.175   2.601   0.097  1.00  0.00    -0.352 N 
ATOM      5  C   UNL     1       0.939   2.189  -0.320  1.00  0.00     0.253 C 
ATOM      6  O   UNL     1       0.216   3.136  -0.660  1.00  0.00    -0.269 OA
ATOM      7  H   UNL     1       2.245   3.583   0.092  1.00  0.00     0.163 HD
BRANCH   5   8
ATOM      8  C   UNL     1       0.344   0.794  -0.363  1.00  0.00     0.066 A 
ATOM      9  C   UNL     1       2.490  -0.602  -0.892  1.00  0.00     0.045 C 
ATOM     10  C   UNL     1       1.046  -0.430  -0.546  1.00  0.00    -0.036 A 
ATOM     11  C   UNL     1       0.348  -1.657  -0.533  1.00  0.00     0.004 A 
ATOM     12  C   UNL     1      -1.025  -1.685  -0.606  1.00  0.00     0.002 A 
ATOM     13  C   UNL     1      -1.097   0.727  -0.346  1.00  0.00     0.054 A 
ATOM     14  C   UNL     1      -1.713  -0.487  -0.603  1.00  0.00     0.027 A 
BRANCH  13  15
ATOM     15  N   UNL     1      -1.893   1.870  -0.085  1.00  0.00    -0.325 N 
ATOM     16  C   UNL     1      -3.198   2.183   0.121  1.00  0.00     0.231 C 
ATOM     17  H   UNL     1      -1.332   2.678  -0.039  1.00  0.00     0.169 HD
ATOM     18  O   UNL     1      -3.400   3.392   0.344  1.00  0.00    -0.274 OA
BRANCH  16  19
ATOM     19  C   UNL     1      -4.454   1.292   0.047  1.00  0.00     0.107 C 
ATOM     20  C   UNL     1      -4.895   1.065  -1.369  1.00  0.00    -0.012 C 
ATOM     21  C   UNL     1      -4.579  -0.084   0.715  1.00  0.00     0.087 C 
ATOM     22  C   UNL     1      -5.383  -0.167  -1.549  1.00  0.00     0.033 C 
ATOM     23  C   UNL     1      -5.340  -0.982  -0.297  1.00  0.00     0.205 C 
BRANCH  23  24
ATOM     24  N   UNL     1      -4.704  -2.270  -0.539  1.00  0.00    -0.352 N 
ATOM     25  H   UNL     1      -3.764  -2.121  -0.907  1.00  0.00     0.345 HD
ATOM     26  H   UNL     1      -5.254  -2.799  -1.216  1.00  0.00     0.345 HD
ATOM     27  H   UNL     1      -4.648  -2.791   0.336  1.00  0.00     0.345 HD
ENDBRANCH  23  24
ENDBRANCH  16  19
ENDBRANCH  13  15
ENDBRANCH   5   8
ENDBRANCH   3   4
ENDBRANCH   2   3
ENDBRANCH   1   2
BRANCH   1  28
ATOM     28  C   UNL     1       6.401   3.128   0.516  1.00  0.00     0.002 C 
BRANCH  28  29
ATOM     29  C   UNL     1       6.927   1.817   1.105  1.00  0.00     0.021 C 
BRANCH  29  30
ATOM     30  C   UNL     1       7.907   1.077   0.202  1.00  0.00     0.116 C 
BRANCH  30  31
ATOM     31  N   UNL     1       9.306   1.333   0.525  1.00  0.00    -0.352 N 
ATOM     32  C   UNL     1      10.446   0.968  -0.159  1.00  0.00     0.251 C 
ATOM     33  H   UNL     1       9.458   1.842   1.354  1.00  0.00     0.163 HD
ATOM     34  O   UNL     1      11.555   1.234   0.301  1.00  0.00    -0.269 OA
BRANCH  32  35
ATOM     35  C   UNL     1      10.333   0.361  -1.504  1.00  0.00     0.039 A 
ATOM     36  C   UNL     1      11.130   0.879  -2.532  1.00  0.00     0.014 A 
ATOM     37  C   UNL     1       9.352  -0.586  -1.788  1.00  0.00     0.014 A 
ATOM     38  C   UNL     1      10.793   0.619  -3.859  1.00  0.00     0.010 A 
ATOM     39  C   UNL     1       8.964  -0.778  -3.100  1.00  0.00     0.010 A 
ATOM     40  C   UNL     1       9.643  -0.123  -4.132  1.00  0.00    -0.014 A 
BRANCH  40  41
ATOM     41  C   UNL     1       9.023  -0.183  -5.451  1.00  0.00     0.031 A 
ATOM     42  C   UNL     1       9.182  -1.375  -6.308  1.00  0.00     0.074 A 
ATOM     43  C   UNL     1       8.236   0.839  -5.853  1.00  0.00     0.049 A 
ATOM     44  N   UNL     1       8.987  -1.385  -7.584  1.00  0.00    -0.248 NA
ATOM     45  C   UNL     1       9.614  -2.664  -5.783  1.00  0.00     0.031 C 
ATOM     46  C   UNL     1       7.337   0.873  -7.004  1.00  0.00     0.029 A 
ATOM     47  N   UNL     1       8.275   2.170  -5.404  1.00  0.00    -0.354 N 
ATOM     48  C   UNL     1       9.045  -2.689  -8.015  1.00  0.00     0.074 A 
ATOM     49  C   UNL     1       9.468  -3.446  -6.858  1.00  0.00     0.031 C 
ATOM     50  C   UNL     1       7.167   2.151  -7.376  1.00  0.00     0.029 A 
ATOM     51  C   UNL     1       8.060   2.956  -6.562  1.00  0.00     0.049 A 
ATOM     52  H   UNL     1       8.421   2.487  -4.484  1.00  0.00     0.167 HD
ATOM     53  C   UNL     1       8.635  -2.995  -9.281  1.00  0.00     0.037 A 
ATOM     54  C   UNL     1       9.040   3.778  -7.039  1.00  0.00     0.037 A 
ATOM     55  C   UNL     1       8.292  -1.797 -10.041  1.00  0.00     0.049 A 
ATOM     56  C   UNL     1       9.504   3.464  -8.445  1.00  0.00     0.074 A 
ATOM     57  C   UNL     1       7.109  -1.132 -10.317  1.00  0.00     0.029 A 
ATOM     58  N   UNL     1       9.311  -0.936 -10.405  1.00  0.00    -0.354 N 
ATOM     59  N   UNL     1       9.138   2.412  -9.123  1.00  0.00    -0.248 NA
ATOM     60  C   UNL     1      10.508   4.262  -9.153  1.00  0.00     0.031 C 
ATOM     61  C   UNL     1       7.435   0.159 -10.822  1.00  0.00     0.029 A 
ATOM     62  C   UNL     1       8.812   0.270 -10.855  1.00  0.00     0.049 A 
ATOM     63  H   UNL     1      10.269  -1.155 -10.350  1.00  0.00     0.167 HD
ATOM     64  C   UNL     1       9.852   2.358 -10.288  1.00  0.00     0.074 A 
ATOM     65  C   UNL     1      10.699   3.535 -10.266  1.00  0.00     0.031 C 
ATOM     66  C   UNL     1       9.738   1.337 -11.179  1.00  0.00     0.037 A 
BRANCH  53  67
ATOM     67  C   UNL     1       8.348  -4.395  -9.764  1.00  0.00     0.064 A 
ATOM     68  C   UNL     1       7.338  -4.633 -10.721  1.00  0.00     0.173 A 
ATOM     69  C   UNL     1       9.002  -5.548  -9.295  1.00  0.00     0.173 A 
ATOM     70  F   UNL     1       6.697  -3.626 -11.328  1.00  0.00    -0.203 F 
ATOM     71  C   UNL     1       6.938  -5.921 -11.085  1.00  0.00     0.198 A 
ATOM     72  C   UNL     1       8.562  -6.838  -9.610  1.00  0.00     0.198 A 
ATOM     73  F   UNL     1      10.118  -5.464  -8.560  1.00  0.00    -0.203 F 
ATOM     74  F   UNL     1       5.970  -6.084 -11.998  1.00  0.00    -0.200 F 
ATOM     75  C   UNL     1       7.522  -7.024 -10.498  1.00  0.00     0.200 A 
ATOM     76  F   UNL     1       9.155  -7.900  -9.046  1.00  0.00    -0.200 F 
ATOM     77  F   UNL     1       7.101  -8.259 -10.804  1.00  0.00    -0.200 F 
ENDBRANCH  53  67
BRANCH  54  78
ATOM     78  C   UNL     1       9.914   4.322  -5.965  1.00  0.00     0.064 A 
ATOM     79  C   UNL     1       9.323   5.078  -4.932  1.00  0.00     0.173 A 
ATOM     80  C   UNL     1      11.203   3.825  -5.747  1.00  0.00     0.173 A 
ATOM     81  F   UNL     1       8.086   5.578  -5.090  1.00  0.00    -0.203 F 
ATOM     82  C   UNL     1       9.942   5.217  -3.693  1.00  0.00     0.198 A 
ATOM     83  C   UNL     1      11.831   3.990  -4.511  1.00  0.00     0.198 A 
ATOM     84  F   UNL     1      11.815   3.084  -6.681  1.00  0.00    -0.203 F 
ATOM     85  F   UNL     1       9.299   5.832  -2.690  1.00  0.00    -0.200 F 
ATOM     86  C   UNL     1      11.186   4.651  -3.476  1.00  0.00     0.200 A 
ATOM     87  F   UNL     1      13.026   3.422  -4.295  1.00  0.00    -0.200 F 
ATOM     88  F   UNL     1      11.745   4.704  -2.260  1.00  0.00    -0.200 F 
ENDBRANCH  54  78
BRANCH  66  89
ATOM     89  C   UNL     1      10.512   1.289 -12.454  1.00  0.00     0.064 A 
ATOM     90  C   UNL     1      10.499   2.356 -13.364  1.00  0.00     0.173 A 
ATOM     91  C   UNL     1      11.192   0.122 -12.850  1.00  0.00     0.173 A 
ATOM     92  F   UNL     1       9.847   3.492 -13.073  1.00  0.00    -0.203 F 
ATOM     93  C   UNL     1      11.148   2.267 -14.595  1.00  0.00     0.198 A 
ATOM     94  C   UNL     1      11.802   0.020 -14.097  1.00  0.00     0.198 A 
ATOM     95  F   UNL     1      11.293  -0.933 -12.027  1.00  0.00    -0.203 F 
ATOM     96  F   UNL     1      11.148   3.319 -15.425  1.00  0.00    -0.200 F 
ATOM     97  C   UNL     1      11.787   1.095 -14.967  1.00  0.00     0.200 A 
ATOM     98  F   UNL     1      12.406  -1.123 -14.450  1.00  0.00    -0.200 F 
ATOM     99  F   UNL     1      12.390   1.003 -16.159  1.00  0.00    -0.200 F 
ENDBRANCH  66  89
ENDBRANCH  40  41
ENDBRANCH  32  35
ENDBRANCH  30  31
ENDBRANCH  29  30
ENDBRANCH  28  29
ENDBRANCH   1  28
TORSDOF 16
