REMARK SMILES O=C(NCCCCCCNC(=O)c1ccc(-c2c3nc(c(-c4c(F)c(F)c(F)c(F)c4F)c4ccc([nH]4)c(-c4c(F)c(F)c(F)c(F)c4F)c4nc(c(-c5c(F)c(F)c(F)c(F)c5F)c5ccc2[nH]5)C=C4)C=C3)cc1)c1ccc(N/C=C\C(=O)c2ccco2)cc1
REMARK SMILES IDX 5 1 4 2 3 3 1 4 2 5 76 7 77 8 91 9 78 10 90 11 79 12 80 13
REMARK SMILES IDX 81 15 82 16 83 17 84 18 85 19 86 20 89 21 87 22 88 23 6 24
REMARK SMILES IDX 7 25 8 26 9 27 10 28 11 29 12 31 13 32 14 33 75 34 15 35
REMARK SMILES IDX 74 36 16 37 17 38 18 39 68 40 19 41 73 42 67 43 69 44 20 45
REMARK SMILES IDX 72 46 66 47 65 48 21 50 53 51 33 52 52 53 34 54 37 55 51 56
REMARK SMILES IDX 70 57 35 58 36 59 50 61 71 62 38 63 22 64 23 65 31 66 24 67
REMARK SMILES IDX 25 68 29 69 32 70 26 71 27 72 30 73 28 74 54 75 55 76 63 77
REMARK SMILES IDX 56 78 57 79 61 80 64 81 58 82 59 83 62 84 60 85 39 86 40 87
REMARK SMILES IDX 48 88 41 89 42 90 46 91 49 92 43 93 44 94 47 95 45 96
REMARK H PARENT 3 6 80 14 10 30 69 49 37 60
REMARK Flexibility Score: inf
ROOT
ATOM      1  C   UNL     1       4.783   2.391   0.930  1.00  0.00     0.021 C 
ENDROOT
BRANCH   1   2
ATOM      2  C   UNL     1       4.464   0.900   0.845  1.00  0.00     0.116 C 
BRANCH   2   3
ATOM      3  N   UNL     1       3.036   0.642   0.867  1.00  0.00    -0.352 N 
ATOM      4  O   UNL     1       1.078  -0.180   0.102  1.00  0.00    -0.269 OA
ATOM      5  C   UNL     1       2.304  -0.188   0.058  1.00  0.00     0.251 C 
ATOM      6  H   UNL     1       2.525   1.128   1.554  1.00  0.00     0.163 HD
BRANCH   5   7
ATOM      7  C   UNL     1       2.999  -1.077  -0.891  1.00  0.00     0.039 A 
ATOM      8  C   UNL     1       3.978  -1.974  -0.456  1.00  0.00     0.016 A 
ATOM      9  C   UNL     1       2.648  -1.017  -2.238  1.00  0.00     0.016 A 
ATOM     10  C   UNL     1       4.649  -2.777  -1.384  1.00  0.00     0.027 A 
ATOM     11  C   UNL     1       3.311  -1.834  -3.153  1.00  0.00     0.027 A 
ATOM     12  C   UNL     1       4.319  -2.725  -2.742  1.00  0.00     0.038 A 
BRANCH  12  13
ATOM     13  N   UNL     1       4.993  -3.452  -3.736  1.00  0.00    -0.362 N 
ATOM     14  H   UNL     1       4.497  -3.566  -4.579  1.00  0.00     0.166 HD
BRANCH  13  15
ATOM     15  C   UNL     1       6.236  -4.025  -3.711  1.00  0.00     0.087 C 
ATOM     16  C   UNL     1       6.931  -4.601  -4.703  1.00  0.00     0.074 C 
BRANCH  16  17
ATOM     17  C   UNL     1       6.527  -4.750  -6.134  1.00  0.00     0.222 C 
ATOM     18  O   UNL     1       7.005  -5.696  -6.758  1.00  0.00    -0.286 OA
BRANCH  17  19
ATOM     19  C   UNL     1       5.616  -3.787  -6.716  1.00  0.00     0.173 A 
ATOM     20  C   UNL     1       5.567  -2.403  -6.678  1.00  0.00     0.054 A 
ATOM     21  O   UNL     1       4.528  -4.257  -7.399  1.00  0.00    -0.461 OA
ATOM     22  C   UNL     1       4.376  -2.019  -7.340  1.00  0.00     0.043 A 
ATOM     23  C   UNL     1       3.780  -3.184  -7.760  1.00  0.00     0.196 A 
ENDBRANCH  17  19
ENDBRANCH  16  17
ENDBRANCH  13  15
ENDBRANCH  12  13
ENDBRANCH   5   7
ENDBRANCH   2   3
ENDBRANCH   1   2
BRANCH   1  24
ATOM     24  C   UNL     1       4.303   3.092   2.205  1.00  0.00     0.002 C 
BRANCH  24  25
ATOM     25  C   UNL     1       4.771   2.468   3.521  1.00  0.00     0.002 C 
BRANCH  25  26
ATOM     26  C   UNL     1       6.285   2.297   3.671  1.00  0.00     0.021 C 
BRANCH  26  27
ATOM     27  C   UNL     1       7.109   3.565   3.472  1.00  0.00     0.116 C 
BRANCH  27  28
ATOM     28  N   UNL     1       6.783   4.606   4.432  1.00  0.00    -0.352 N 
ATOM     29  C   UNL     1       7.621   5.384   5.192  1.00  0.00     0.251 C 
ATOM     30  H   UNL     1       5.822   4.777   4.556  1.00  0.00     0.163 HD
ATOM     31  O   UNL     1       7.160   6.127   6.053  1.00  0.00    -0.269 OA
BRANCH  29  32
ATOM     32  C   UNL     1       9.085   5.310   4.996  1.00  0.00     0.039 A 
ATOM     33  C   UNL     1       9.908   5.229   6.123  1.00  0.00     0.014 A 
ATOM     34  C   UNL     1       9.648   5.333   3.717  1.00  0.00     0.014 A 
ATOM     35  C   UNL     1      11.291   5.108   5.966  1.00  0.00     0.010 A 
ATOM     36  C   UNL     1      11.020   5.150   3.560  1.00  0.00     0.010 A 
ATOM     37  C   UNL     1      11.855   5.037   4.683  1.00  0.00    -0.014 A 
BRANCH  37  38
ATOM     38  C   UNL     1      13.315   4.840   4.495  1.00  0.00     0.031 A 
ATOM     39  C   UNL     1      14.149   5.922   3.867  1.00  0.00     0.074 A 
ATOM     40  C   UNL     1      13.877   3.663   4.829  1.00  0.00     0.049 A 
ATOM     41  N   UNL     1      15.420   5.910   3.552  1.00  0.00    -0.248 NA
ATOM     42  C   UNL     1      13.457   7.174   3.524  1.00  0.00     0.031 C 
ATOM     43  C   UNL     1      13.167   2.521   5.407  1.00  0.00     0.029 A 
ATOM     44  N   UNL     1      15.174   3.226   4.718  1.00  0.00    -0.354 N 
ATOM     45  C   UNL     1      15.673   7.138   2.956  1.00  0.00     0.074 A 
ATOM     46  C   UNL     1      14.418   7.857   2.917  1.00  0.00     0.031 C 
ATOM     47  C   UNL     1      14.040   1.522   5.619  1.00  0.00     0.029 A 
ATOM     48  C   UNL     1      15.362   1.940   5.161  1.00  0.00     0.049 A 
ATOM     49  H   UNL     1      15.901   3.783   4.357  1.00  0.00     0.167 HD
ATOM     50  C   UNL     1      16.850   7.628   2.500  1.00  0.00     0.037 A 
ATOM     51  C   UNL     1      16.474   1.181   5.188  1.00  0.00     0.037 A 
ATOM     52  C   UNL     1      18.106   6.929   2.578  1.00  0.00     0.049 A 
ATOM     53  C   UNL     1      17.769   1.754   4.680  1.00  0.00     0.074 A 
ATOM     54  C   UNL     1      19.366   7.375   2.219  1.00  0.00     0.029 A 
ATOM     55  N   UNL     1      18.259   5.634   3.050  1.00  0.00    -0.354 N 
ATOM     56  N   UNL     1      18.010   2.944   4.185  1.00  0.00    -0.248 NA
ATOM     57  C   UNL     1      18.948   0.879   4.738  1.00  0.00     0.031 C 
ATOM     58  C   UNL     1      20.276   6.335   2.434  1.00  0.00     0.029 A 
ATOM     59  C   UNL     1      19.590   5.257   2.969  1.00  0.00     0.049 A 
ATOM     60  H   UNL     1      17.531   5.067   3.393  1.00  0.00     0.167 HD
ATOM     61  C   UNL     1      19.369   2.971   3.903  1.00  0.00     0.074 A 
ATOM     62  C   UNL     1      19.903   1.682   4.291  1.00  0.00     0.031 C 
ATOM     63  C   UNL     1      20.108   3.975   3.372  1.00  0.00     0.037 A 
BRANCH  50  64
ATOM     64  C   UNL     1      16.842   8.992   1.875  1.00  0.00     0.064 A 
ATOM     65  C   UNL     1      16.671  10.153   2.643  1.00  0.00     0.173 A 
ATOM     66  C   UNL     1      17.055   9.141   0.496  1.00  0.00     0.173 A 
ATOM     67  F   UNL     1      16.453  10.062   3.963  1.00  0.00    -0.203 F 
ATOM     68  C   UNL     1      16.690  11.412   2.050  1.00  0.00     0.198 A 
ATOM     69  C   UNL     1      17.101  10.403  -0.089  1.00  0.00     0.198 A 
ATOM     70  F   UNL     1      17.229   8.062  -0.283  1.00  0.00    -0.203 F 
ATOM     71  F   UNL     1      16.484  12.506   2.797  1.00  0.00    -0.200 F 
ATOM     72  C   UNL     1      16.913  11.537   0.686  1.00  0.00     0.200 A 
ATOM     73  F   UNL     1      17.327  10.523  -1.405  1.00  0.00    -0.200 F 
ATOM     74  F   UNL     1      16.940  12.751   0.119  1.00  0.00    -0.200 F 
ENDBRANCH  50  64
BRANCH  51  75
ATOM     75  C   UNL     1      16.422  -0.197   5.740  1.00  0.00     0.064 A 
ATOM     76  C   UNL     1      17.043  -0.502   6.960  1.00  0.00     0.173 A 
ATOM     77  C   UNL     1      15.768  -1.234   5.061  1.00  0.00     0.173 A 
ATOM     78  F   UNL     1      17.699   0.453   7.634  1.00  0.00    -0.203 F 
ATOM     79  C   UNL     1      17.029  -1.799   7.469  1.00  0.00     0.198 A 
ATOM     80  C   UNL     1      15.733  -2.525   5.585  1.00  0.00     0.198 A 
ATOM     81  F   UNL     1      15.156  -0.992   3.893  1.00  0.00    -0.203 F 
ATOM     82  F   UNL     1      17.670  -2.073   8.613  1.00  0.00    -0.200 F 
ATOM     83  C   UNL     1      16.371  -2.808   6.783  1.00  0.00     0.200 A 
ATOM     84  F   UNL     1      15.086  -3.495   4.925  1.00  0.00    -0.200 F 
ATOM     85  F   UNL     1      16.358  -4.056   7.273  1.00  0.00    -0.200 F 
ENDBRANCH  51  75
BRANCH  63  86
ATOM     86  C   UNL     1      21.580   3.735   3.213  1.00  0.00     0.064 A 
ATOM     87  C   UNL     1      22.083   2.885   2.218  1.00  0.00     0.173 A 
ATOM     88  C   UNL     1      22.499   4.394   4.044  1.00  0.00     0.173 A 
ATOM     89  F   UNL     1      21.243   2.220   1.411  1.00  0.00    -0.203 F 
ATOM     90  C   UNL     1      23.454   2.686   2.075  1.00  0.00     0.198 A 
ATOM     91  C   UNL     1      23.869   4.214   3.880  1.00  0.00     0.198 A 
ATOM     92  F   UNL     1      22.067   5.221   5.008  1.00  0.00    -0.203 F 
ATOM     93  F   UNL     1      23.911   1.836   1.145  1.00  0.00    -0.200 F 
ATOM     94  C   UNL     1      24.345   3.356   2.900  1.00  0.00     0.200 A 
ATOM     95  F   UNL     1      24.729   4.870   4.671  1.00  0.00    -0.200 F 
ATOM     96  F   UNL     1      25.664   3.168   2.755  1.00  0.00    -0.200 F 
ENDBRANCH  63  86
ENDBRANCH  37  38
ENDBRANCH  29  32
ENDBRANCH  27  28
ENDBRANCH  26  27
ENDBRANCH  25  26
ENDBRANCH  24  25
ENDBRANCH   1  24
TORSDOF 17
