REMARK SMILES CC[C@](C)(NC(=O)[C@H]1C[NH2+]Cc2ccccc21)C(=O)NCCCCCCNC(=O)c1ccc(-c2c3nc(c(-c4c(F)c(F)c(F)c(F)c4F)c4ccc([nH]4)c(-c4c(F)c(F)c(F)c(F)c4F)c4nc(c(-c5c(F)c(F)c(F)c(F)c5F)c5ccc2[nH]5)C=C4)C=C3)cc1
REMARK SMILES IDX 23 1 22 2 21 3 20 4 18 5 19 6 3 8 4 9 2 10 1 11 5 12 6 13
REMARK SMILES IDX 7 15 8 16 9 17 17 18 10 19 12 20 16 21 11 22 13 25 15 26
REMARK SMILES IDX 14 27 24 28 25 29 26 30 27 31 28 32 29 34 30 35 31 36 92 37
REMARK SMILES IDX 32 38 91 39 33 40 34 41 35 42 85 43 36 44 90 45 84 46 86 47
REMARK SMILES IDX 37 48 89 49 83 50 82 51 38 53 70 54 50 55 69 56 51 57 54 58
REMARK SMILES IDX 68 59 87 60 52 61 53 62 67 64 88 65 55 66 39 67 40 68 48 69
REMARK SMILES IDX 41 70 42 71 46 72 49 73 43 74 44 75 47 76 45 77 71 78 72 79
REMARK SMILES IDX 80 80 73 81 74 82 78 83 81 84 75 85 76 86 79 87 77 88 56 89
REMARK SMILES IDX 57 90 65 91 58 92 59 93 63 94 66 95 60 96 61 97 64 98 62 99
REMARK H PARENT 20 7 5 14 10 23 10 24 27 33 86 52 54 63
REMARK Flexibility Score: inf
ROOT
ATOM      1  C   UNL     1       1.940   3.026  -5.616  1.00  0.00     0.002 C 
ENDROOT
BRANCH   1   2
ATOM      2  C   UNL     1       3.087   2.597  -6.524  1.00  0.00     0.021 C 
BRANCH   2   3
ATOM      3  C   UNL     1       4.515   2.932  -6.089  1.00  0.00     0.116 C 
BRANCH   3   4
ATOM      4  N   UNL     1       4.959   2.551  -4.755  1.00  0.00    -0.354 N 
ATOM      5  C   UNL     1       5.818   1.567  -4.330  1.00  0.00     0.245 C 
ATOM      6  O   UNL     1       6.558   1.832  -3.377  1.00  0.00    -0.272 OA
ATOM      7  H   UNL     1       4.575   3.095  -4.029  1.00  0.00     0.163 HD
BRANCH   5   8
ATOM      8  C   UNL     1       5.971   0.243  -5.114  1.00  0.00     0.116 C 
ATOM      9  C   UNL     1       6.675  -0.905  -4.372  1.00  0.00     0.045 C 
BRANCH   8  10
ATOM     10  C   UNL     1       6.883   0.539  -6.356  1.00  0.00     0.035 C 
ATOM     11  C   UNL     1       8.184   1.271  -5.990  1.00  0.00     0.007 C 
ENDBRANCH   8  10
BRANCH   8  12
ATOM     12  N   UNL     1       4.608  -0.196  -5.487  1.00  0.00    -0.341 N 
ATOM     13  C   UNL     1       3.481  -0.525  -4.789  1.00  0.00     0.234 C 
ATOM     14  H   UNL     1       4.486  -0.267  -6.461  1.00  0.00     0.164 HD
ATOM     15  O   UNL     1       2.582  -0.970  -5.528  1.00  0.00    -0.274 OA
BRANCH  13  16
ATOM     16  C   UNL     1       3.176  -0.476  -3.263  1.00  0.00     0.164 C 
ATOM     17  C   UNL     1       3.558  -1.747  -2.491  1.00  0.00     0.279 C 
ATOM     18  C   UNL     1       3.449   0.754  -2.425  1.00  0.00    -0.021 A 
ATOM     19  N   UNL     1       4.831  -1.751  -1.774  1.00  0.00    -0.342 N 
ATOM     20  C   UNL     1       4.471   0.745  -1.471  1.00  0.00     0.010 A 
ATOM     21  C   UNL     1       2.599   1.869  -2.449  1.00  0.00     0.005 A 
ATOM     22  C   UNL     1       5.170  -0.524  -1.058  1.00  0.00     0.297 C 
ATOM     23  H   UNL     1       5.571  -1.930  -2.452  1.00  0.00     0.346 HD
ATOM     24  H   UNL     1       4.737  -2.469  -1.056  1.00  0.00     0.346 HD
ATOM     25  C   UNL     1       4.787   1.930  -0.775  1.00  0.00     0.010 A 
ATOM     26  C   UNL     1       2.888   3.030  -1.727  1.00  0.00     0.000 A 
ATOM     27  C   UNL     1       4.023   3.082  -0.934  1.00  0.00     0.001 A 
ENDBRANCH  13  16
ENDBRANCH   8  12
ENDBRANCH   5   8
ENDBRANCH   3   4
ENDBRANCH   2   3
ENDBRANCH   1   2
BRANCH   1  28
ATOM     28  C   UNL     1       2.114   4.348  -4.869  1.00  0.00     0.002 C 
BRANCH  28  29
ATOM     29  C   UNL     1       2.139   5.580  -5.763  1.00  0.00     0.021 C 
BRANCH  29  30
ATOM     30  C   UNL     1       0.822   5.843  -6.467  1.00  0.00     0.116 C 
BRANCH  30  31
ATOM     31  N   UNL     1      -0.267   6.175  -5.557  1.00  0.00    -0.352 N 
ATOM     32  C   UNL     1      -1.330   7.007  -5.821  1.00  0.00     0.251 C 
ATOM     33  H   UNL     1      -0.239   5.761  -4.664  1.00  0.00     0.163 HD
ATOM     34  O   UNL     1      -2.161   7.295  -4.968  1.00  0.00    -0.269 OA
BRANCH  32  35
ATOM     35  C   UNL     1      -1.402   7.585  -7.174  1.00  0.00     0.039 A 
ATOM     36  C   UNL     1      -1.271   8.965  -7.330  1.00  0.00     0.014 A 
ATOM     37  C   UNL     1      -1.396   6.725  -8.275  1.00  0.00     0.014 A 
ATOM     38  C   UNL     1      -1.056   9.485  -8.607  1.00  0.00     0.010 A 
ATOM     39  C   UNL     1      -1.093   7.237  -9.527  1.00  0.00     0.010 A 
ATOM     40  C   UNL     1      -0.920   8.621  -9.706  1.00  0.00    -0.014 A 
BRANCH  40  41
ATOM     41  C   UNL     1      -0.625   9.128 -11.068  1.00  0.00     0.031 A 
ATOM     42  C   UNL     1      -1.620   8.879 -12.167  1.00  0.00     0.074 A 
ATOM     43  C   UNL     1       0.560   9.710 -11.338  1.00  0.00     0.049 A 
ATOM     44  N   UNL     1      -1.503   9.080 -13.454  1.00  0.00    -0.248 NA
ATOM     45  C   UNL     1      -2.903   8.274 -11.769  1.00  0.00     0.031 C 
ATOM     46  C   UNL     1       1.630   9.956 -10.368  1.00  0.00     0.029 A 
ATOM     47  N   UNL     1       1.071  10.186 -12.520  1.00  0.00    -0.354 N 
ATOM     48  C   UNL     1      -2.670   8.582 -14.017  1.00  0.00     0.074 A 
ATOM     49  C   UNL     1      -3.464   8.031 -12.943  1.00  0.00     0.031 C 
ATOM     50  C   UNL     1       2.660  10.554 -10.990  1.00  0.00     0.029 A 
ATOM     51  C   UNL     1       2.341  10.701 -12.407  1.00  0.00     0.049 A 
ATOM     52  H   UNL     1       0.575  10.161 -13.370  1.00  0.00     0.167 HD
ATOM     53  C   UNL     1      -3.054   8.605 -15.314  1.00  0.00     0.037 A 
ATOM     54  C   UNL     1       3.152  11.224 -13.346  1.00  0.00     0.037 A 
ATOM     55  C   UNL     1      -2.298   9.231 -16.363  1.00  0.00     0.049 A 
ATOM     56  C   UNL     1       2.669  11.294 -14.772  1.00  0.00     0.074 A 
ATOM     57  C   UNL     1      -2.645   9.400 -17.692  1.00  0.00     0.029 A 
ATOM     58  N   UNL     1      -1.049   9.808 -16.195  1.00  0.00    -0.354 N 
ATOM     59  N   UNL     1       1.533  10.885 -15.282  1.00  0.00    -0.248 NA
ATOM     60  C   UNL     1       3.579  11.904 -15.753  1.00  0.00     0.031 C 
ATOM     61  C   UNL     1      -1.592  10.057 -18.335  1.00  0.00     0.029 A 
ATOM     62  C   UNL     1      -0.607  10.328 -17.398  1.00  0.00     0.049 A 
ATOM     63  H   UNL     1      -0.551   9.842 -15.346  1.00  0.00     0.167 HD
ATOM     64  C   UNL     1       1.575  11.222 -16.628  1.00  0.00     0.074 A 
ATOM     65  C   UNL     1       2.847  11.874 -16.857  1.00  0.00     0.031 C 
ATOM     66  C   UNL     1       0.646  11.008 -17.590  1.00  0.00     0.037 A 
BRANCH  53  67
ATOM     67  C   UNL     1      -4.356   7.955 -15.669  1.00  0.00     0.064 A 
ATOM     68  C   UNL     1      -5.586   8.519 -15.300  1.00  0.00     0.173 A 
ATOM     69  C   UNL     1      -4.375   6.776 -16.429  1.00  0.00     0.173 A 
ATOM     70  F   UNL     1      -5.620   9.637 -14.560  1.00  0.00    -0.203 F 
ATOM     71  C   UNL     1      -6.787   7.914 -15.659  1.00  0.00     0.198 A 
ATOM     72  C   UNL     1      -5.578   6.190 -16.811  1.00  0.00     0.198 A 
ATOM     73  F   UNL     1      -3.225   6.198 -16.810  1.00  0.00    -0.203 F 
ATOM     74  F   UNL     1      -7.949   8.448 -15.259  1.00  0.00    -0.200 F 
ATOM     75  C   UNL     1      -6.783   6.756 -16.422  1.00  0.00     0.200 A 
ATOM     76  F   UNL     1      -5.572   5.077 -17.558  1.00  0.00    -0.200 F 
ATOM     77  F   UNL     1      -7.940   6.182 -16.778  1.00  0.00    -0.200 F 
ENDBRANCH  53  67
BRANCH  54  78
ATOM     78  C   UNL     1       4.494  11.750 -12.979  1.00  0.00     0.064 A 
ATOM     79  C   UNL     1       4.762  13.126 -13.032  1.00  0.00     0.173 A 
ATOM     80  C   UNL     1       5.542  10.896 -12.611  1.00  0.00     0.173 A 
ATOM     81  F   UNL     1       3.796  13.981 -13.400  1.00  0.00    -0.203 F 
ATOM     82  C   UNL     1       6.035  13.624 -12.763  1.00  0.00     0.198 A 
ATOM     83  C   UNL     1       6.809  11.398 -12.315  1.00  0.00     0.198 A 
ATOM     84  F   UNL     1       5.338   9.573 -12.539  1.00  0.00    -0.203 F 
ATOM     85  F   UNL     1       6.276  14.937 -12.878  1.00  0.00    -0.200 F 
ATOM     86  C   UNL     1       7.057  12.760 -12.402  1.00  0.00     0.200 A 
ATOM     87  F   UNL     1       7.792  10.561 -11.956  1.00  0.00    -0.200 F 
ATOM     88  F   UNL     1       8.284  13.238 -12.152  1.00  0.00    -0.200 F 
ENDBRANCH  54  78
BRANCH  66  89
ATOM     89  C   UNL     1       0.938  11.535 -18.962  1.00  0.00     0.064 A 
ATOM     90  C   UNL     1       1.862  10.908 -19.809  1.00  0.00     0.173 A 
ATOM     91  C   UNL     1       0.230  12.641 -19.458  1.00  0.00     0.173 A 
ATOM     92  F   UNL     1       2.571   9.856 -19.373  1.00  0.00    -0.203 F 
ATOM     93  C   UNL     1       2.078  11.379 -21.101  1.00  0.00     0.198 A 
ATOM     94  C   UNL     1       0.431  13.093 -20.758  1.00  0.00     0.198 A 
ATOM     95  F   UNL     1      -0.670  13.268 -18.686  1.00  0.00    -0.203 F 
ATOM     96  F   UNL     1       2.990  10.786 -21.883  1.00  0.00    -0.200 F 
ATOM     97  C   UNL     1       1.357  12.464 -21.577  1.00  0.00     0.200 A 
ATOM     98  F   UNL     1      -0.277  14.133 -21.221  1.00  0.00    -0.200 F 
ATOM     99  F   UNL     1       1.557  12.907 -22.826  1.00  0.00    -0.200 F 
ENDBRANCH  66  89
ENDBRANCH  40  41
ENDBRANCH  32  35
ENDBRANCH  30  31
ENDBRANCH  29  30
ENDBRANCH  28  29
ENDBRANCH   1  28
TORSDOF 16
