REMARK SMILES CCCC[C@H](C(=O)NCCCCCCNC(=O)c1ccc(-c2c3nc(c(-c4c(F)c(F)c(F)c(F)c4F)c4ccc([nH]4)c(-c4c(F)c(F)c(F)c(F)c4F)c4nc(c(-c5c(F)c(F)c(F)c(F)c5F)c5ccc2[nH]5)C=C4)C=C3)cc1)N1C(=O)[C@H]2[C@@H]3C=C[C@@H]([C@@H]4C[C@H]34)[C@@H]2C1=O
REMARK SMILES IDX 11 1 10 2 9 3 8 4 6 5 7 6 5 8 4 9 3 10 2 11 1 12 81 13 82 14
REMARK SMILES IDX 93 15 83 16 84 17 92 18 94 19 85 20 88 21 86 22 91 23 87 24
REMARK SMILES IDX 89 25 90 26 12 27 13 28 14 29 15 30 16 31 17 33 18 34 19 35
REMARK SMILES IDX 80 36 20 37 79 38 21 39 22 40 23 41 73 42 24 43 78 44 72 45
REMARK SMILES IDX 74 46 25 47 77 48 71 49 70 50 26 52 58 53 38 54 57 55 39 56
REMARK SMILES IDX 42 57 56 58 75 59 40 60 41 61 55 63 76 64 43 65 27 66 28 67
REMARK SMILES IDX 36 68 29 69 30 70 34 71 37 72 31 73 32 74 35 75 33 76 59 77
REMARK SMILES IDX 60 78 68 79 61 80 62 81 66 82 69 83 63 84 64 85 67 86 65 87
REMARK SMILES IDX 44 88 45 89 53 90 46 91 47 92 51 93 54 94 48 95 49 96 52 97
REMARK SMILES IDX 50 98
REMARK H PARENT 8 7 15 32 74 51 42 62
REMARK Flexibility Score: inf
ROOT
ATOM      1  C   UNL     1       2.436   0.129   1.590  1.00  0.00     0.002 C 
ENDROOT
BRANCH   1   2
ATOM      2  C   UNL     1       0.939  -0.067   1.307  1.00  0.00     0.021 C 
BRANCH   2   3
ATOM      3  C   UNL     1       0.231   1.174   0.774  1.00  0.00     0.116 C 
BRANCH   3   4
ATOM      4  N   UNL     1       0.676   1.518  -0.559  1.00  0.00    -0.354 N 
ATOM      5  C   UNL     1       0.034   2.208  -1.545  1.00  0.00     0.243 C 
ATOM      6  O   UNL     1       0.685   2.435  -2.569  1.00  0.00    -0.273 OA
ATOM      7  H   UNL     1       1.581   1.207  -0.790  1.00  0.00     0.163 HD
BRANCH   5   8
ATOM      8  C   UNL     1      -1.434   2.661  -1.371  1.00  0.00     0.182 C 
BRANCH   8   9
ATOM      9  C   UNL     1      -1.674   3.975  -0.594  1.00  0.00     0.036 C 
BRANCH   9  10
ATOM     10  C   UNL     1      -0.669   4.499   0.442  1.00  0.00     0.002 C 
BRANCH  10  11
ATOM     11  C   UNL     1       0.757   4.857   0.004  1.00  0.00    -0.003 C 
ATOM     12  C   UNL     1       0.851   5.850  -1.138  1.00  0.00     0.004 C 
ENDBRANCH  10  11
ENDBRANCH   9  10
ENDBRANCH   8   9
BRANCH   8  13
ATOM     13  N   UNL     1      -1.976   2.684  -2.743  1.00  0.00    -0.269 N 
ATOM     14  C   UNL     1      -1.801   3.742  -3.639  1.00  0.00     0.234 C 
ATOM     15  C   UNL     1      -2.340   1.500  -3.417  1.00  0.00     0.234 C 
ATOM     16  O   UNL     1      -1.361   4.859  -3.466  1.00  0.00    -0.274 OA
ATOM     17  C   UNL     1      -2.375   3.246  -4.912  1.00  0.00     0.099 C 
ATOM     18  C   UNL     1      -1.919   1.791  -4.826  1.00  0.00     0.099 C 
ATOM     19  O   UNL     1      -2.683   0.434  -2.942  1.00  0.00    -0.274 OA
ATOM     20  C   UNL     1      -2.111   3.819  -6.310  1.00  0.00     0.028 C 
ATOM     21  C   UNL     1      -1.948   1.200  -6.232  1.00  0.00     0.028 C 
ATOM     22  C   UNL     1      -3.210   3.090  -7.114  1.00  0.00    -0.026 C 
ATOM     23  C   UNL     1      -0.793   3.372  -6.952  1.00  0.00     0.001 C 
ATOM     24  C   UNL     1      -3.152   1.740  -7.025  1.00  0.00    -0.026 C 
ATOM     25  C   UNL     1      -0.678   1.840  -6.936  1.00  0.00     0.001 C 
ATOM     26  C   UNL     1       0.386   2.728  -6.283  1.00  0.00     0.009 C 
ENDBRANCH   8  13
ENDBRANCH   5   8
ENDBRANCH   3   4
ENDBRANCH   2   3
ENDBRANCH   1   2
BRANCH   1  27
ATOM     27  C   UNL     1       2.782   1.199   2.632  1.00  0.00     0.002 C 
BRANCH  27  28
ATOM     28  C   UNL     1       2.088   1.048   3.987  1.00  0.00     0.021 C 
BRANCH  28  29
ATOM     29  C   UNL     1       2.243  -0.319   4.645  1.00  0.00     0.116 C 
BRANCH  29  30
ATOM     30  N   UNL     1       3.629  -0.658   4.915  1.00  0.00    -0.352 N 
ATOM     31  C   UNL     1       4.199  -1.159   6.058  1.00  0.00     0.251 C 
ATOM     32  H   UNL     1       4.252  -0.506   4.167  1.00  0.00     0.163 HD
ATOM     33  O   UNL     1       5.420  -1.242   6.152  1.00  0.00    -0.269 OA
BRANCH  31  34
ATOM     34  C   UNL     1       3.345  -1.570   7.194  1.00  0.00     0.039 A 
ATOM     35  C   UNL     1       3.729  -1.197   8.484  1.00  0.00     0.014 A 
ATOM     36  C   UNL     1       2.179  -2.315   6.998  1.00  0.00     0.014 A 
ATOM     37  C   UNL     1       2.911  -1.515   9.569  1.00  0.00     0.010 A 
ATOM     38  C   UNL     1       1.324  -2.563   8.071  1.00  0.00     0.010 A 
ATOM     39  C   UNL     1       1.680  -2.164   9.367  1.00  0.00    -0.014 A 
BRANCH  39  40
ATOM     40  C   UNL     1       0.753  -2.394  10.506  1.00  0.00     0.031 A 
ATOM     41  C   UNL     1       0.393  -3.788  10.936  1.00  0.00     0.074 A 
ATOM     42  C   UNL     1       0.205  -1.333  11.131  1.00  0.00     0.049 A 
ATOM     43  N   UNL     1      -0.394  -4.176  11.909  1.00  0.00    -0.248 NA
ATOM     44  C   UNL     1       0.973  -4.894  10.160  1.00  0.00     0.031 C 
ATOM     45  C   UNL     1       0.430   0.067  10.769  1.00  0.00     0.029 A 
ATOM     46  N   UNL     1      -0.652  -1.265  12.201  1.00  0.00    -0.354 N 
ATOM     47  C   UNL     1      -0.404  -5.563  11.861  1.00  0.00     0.074 A 
ATOM     48  C   UNL     1       0.405  -5.950  10.724  1.00  0.00     0.031 C 
ATOM     49  C   UNL     1      -0.238   0.856  11.624  1.00  0.00     0.029 A 
ATOM     50  C   UNL     1      -0.973   0.019  12.567  1.00  0.00     0.049 A 
ATOM     51  H   UNL     1      -1.002  -2.061  12.662  1.00  0.00     0.167 HD
ATOM     52  C   UNL     1      -1.011  -6.436  12.701  1.00  0.00     0.037 A 
ATOM     53  C   UNL     1      -1.773   0.473  13.550  1.00  0.00     0.037 A 
ATOM     54  C   UNL     1      -1.810  -6.045  13.835  1.00  0.00     0.049 A 
ATOM     55  C   UNL     1      -2.449  -0.519  14.459  1.00  0.00     0.074 A 
ATOM     56  C   UNL     1      -2.422  -6.852  14.779  1.00  0.00     0.029 A 
ATOM     57  N   UNL     1      -2.119  -4.735  14.173  1.00  0.00    -0.354 N 
ATOM     58  N   UNL     1      -2.383  -1.828  14.453  1.00  0.00    -0.248 NA
ATOM     59  C   UNL     1      -3.303   0.034  15.518  1.00  0.00     0.031 C 
ATOM     60  C   UNL     1      -3.151  -6.035  15.649  1.00  0.00     0.029 A 
ATOM     61  C   UNL     1      -2.940  -4.713  15.290  1.00  0.00     0.049 A 
ATOM     62  H   UNL     1      -1.802  -3.938  13.690  1.00  0.00     0.167 HD
ATOM     63  C   UNL     1      -3.166  -2.254  15.517  1.00  0.00     0.074 A 
ATOM     64  C   UNL     1      -3.671  -1.061  16.165  1.00  0.00     0.031 C 
ATOM     65  C   UNL     1      -3.445  -3.519  15.920  1.00  0.00     0.037 A 
BRANCH  52  66
ATOM     66  C   UNL     1      -0.838  -7.904  12.426  1.00  0.00     0.064 A 
ATOM     67  C   UNL     1       0.403  -8.542  12.580  1.00  0.00     0.173 A 
ATOM     68  C   UNL     1      -1.934  -8.691  12.044  1.00  0.00     0.173 A 
ATOM     69  F   UNL     1       1.487  -7.836  12.935  1.00  0.00    -0.203 F 
ATOM     70  C   UNL     1       0.545  -9.905  12.331  1.00  0.00     0.198 A 
ATOM     71  C   UNL     1      -1.796 -10.061  11.830  1.00  0.00     0.198 A 
ATOM     72  F   UNL     1      -3.145  -8.136  11.887  1.00  0.00    -0.203 F 
ATOM     73  F   UNL     1       1.751 -10.481  12.434  1.00  0.00    -0.200 F 
ATOM     74  C   UNL     1      -0.555 -10.665  11.965  1.00  0.00     0.200 A 
ATOM     75  F   UNL     1      -2.864 -10.796  11.491  1.00  0.00    -0.200 F 
ATOM     76  F   UNL     1      -0.419 -11.978  11.735  1.00  0.00    -0.200 F 
ENDBRANCH  52  66
BRANCH  53  77
ATOM     77  C   UNL     1      -1.965   1.935  13.740  1.00  0.00     0.064 A 
ATOM     78  C   UNL     1      -1.479   2.586  14.883  1.00  0.00     0.173 A 
ATOM     79  C   UNL     1      -2.647   2.710  12.791  1.00  0.00     0.173 A 
ATOM     80  F   UNL     1      -0.837   1.886  15.830  1.00  0.00    -0.203 F 
ATOM     81  C   UNL     1      -1.691   3.949  15.082  1.00  0.00     0.198 A 
ATOM     82  C   UNL     1      -2.829   4.079  12.974  1.00  0.00     0.198 A 
ATOM     83  F   UNL     1      -3.127   2.139  11.676  1.00  0.00    -0.203 F 
ATOM     84  F   UNL     1      -1.265   4.533  16.209  1.00  0.00    -0.200 F 
ATOM     85  C   UNL     1      -2.361   4.696  14.124  1.00  0.00     0.200 A 
ATOM     86  F   UNL     1      -3.460   4.800  12.037  1.00  0.00    -0.200 F 
ATOM     87  F   UNL     1      -2.561   6.007  14.313  1.00  0.00    -0.200 F 
ENDBRANCH  53  77
BRANCH  65  88
ATOM     88  C   UNL     1      -4.321  -3.671  17.133  1.00  0.00     0.064 A 
ATOM     89  C   UNL     1      -5.679  -3.317  17.113  1.00  0.00     0.173 A 
ATOM     90  C   UNL     1      -3.797  -4.183  18.330  1.00  0.00     0.173 A 
ATOM     91  F   UNL     1      -6.229  -2.810  15.999  1.00  0.00    -0.203 F 
ATOM     92  C   UNL     1      -6.466  -3.426  18.257  1.00  0.00     0.198 A 
ATOM     93  C   UNL     1      -4.596  -4.328  19.461  1.00  0.00     0.198 A 
ATOM     94  F   UNL     1      -2.508  -4.547  18.404  1.00  0.00    -0.203 F 
ATOM     95  F   UNL     1      -7.741  -3.013  18.233  1.00  0.00    -0.200 F 
ATOM     96  C   UNL     1      -5.926  -3.936  19.428  1.00  0.00     0.200 A 
ATOM     97  F   UNL     1      -4.077  -4.838  20.586  1.00  0.00    -0.200 F 
ATOM     98  F   UNL     1      -6.684  -4.040  20.528  1.00  0.00    -0.200 F 
ENDBRANCH  65  88
ENDBRANCH  39  40
ENDBRANCH  31  34
ENDBRANCH  29  30
ENDBRANCH  28  29
ENDBRANCH  27  28
ENDBRANCH   1  27
TORSDOF 17
