REMARK SMILES CC[C@](C)(NC(=O)N1CCS(=O)CC1)C(=O)NCCCCCCNC(=O)c1ccc(-c2c3nc(c(-c4c(F)c(F)c(F)c(F)c4F)c4ccc([nH]4)c(-c4c(F)c(F)c(F)c(F)c4F)c4nc(c(-c5c(F)c(F)c(F)c(F)c5F)c5ccc2[nH]5)C=C4)C=C3)cc1
REMARK SMILES IDX 21 1 20 2 19 3 18 4 17 5 15 6 16 7 3 9 4 10 2 11 1 12 5 13
REMARK SMILES IDX 6 14 7 16 8 17 9 18 14 19 10 20 13 21 11 22 12 23 22 24
REMARK SMILES IDX 23 25 24 26 25 27 26 29 27 30 28 31 89 32 29 33 88 34 30 35
REMARK SMILES IDX 31 36 32 37 82 38 33 39 87 40 81 41 83 42 34 43 86 44 80 45
REMARK SMILES IDX 79 46 35 48 67 49 47 50 66 51 48 52 51 53 65 54 84 55 49 56
REMARK SMILES IDX 50 57 64 59 85 60 52 61 36 62 37 63 45 64 38 65 39 66 43 67
REMARK SMILES IDX 46 68 40 69 41 70 44 71 42 72 68 73 69 74 77 75 70 76 71 77
REMARK SMILES IDX 75 78 78 79 72 80 73 81 76 82 74 83 53 84 54 85 62 86 55 87
REMARK SMILES IDX 56 88 60 89 63 90 57 91 58 92 61 93 59 94
REMARK H PARENT 17 8 5 15 24 28 83 47 51 58
REMARK Flexibility Score: inf
ROOT
ATOM      1  C   UNL     1       4.865   5.634  -4.059  1.00  0.00     0.002 C 
ENDROOT
BRANCH   1   2
ATOM      2  C   UNL     1       4.342   5.563  -2.630  1.00  0.00     0.002 C 
BRANCH   2   3
ATOM      3  C   UNL     1       2.821   5.456  -2.483  1.00  0.00     0.021 C 
BRANCH   3   4
ATOM      4  C   UNL     1       2.163   4.235  -3.133  1.00  0.00     0.116 C 
BRANCH   4   5
ATOM      5  N   UNL     1       2.705   2.946  -2.729  1.00  0.00    -0.354 N 
ATOM      6  C   UNL     1       2.371   2.080  -1.717  1.00  0.00     0.245 C 
ATOM      7  O   UNL     1       3.079   1.074  -1.599  1.00  0.00    -0.272 OA
ATOM      8  H   UNL     1       3.454   2.635  -3.289  1.00  0.00     0.163 HD
BRANCH   6   9
ATOM      9  C   UNL     1       1.118   2.306  -0.822  1.00  0.00     0.117 C 
ATOM     10  C   UNL     1       0.999   1.272   0.323  1.00  0.00     0.045 C 
BRANCH   9  11
ATOM     11  C   UNL     1      -0.112   2.070  -1.776  1.00  0.00     0.035 C 
ATOM     12  C   UNL     1      -0.093   0.733  -2.524  1.00  0.00     0.007 C 
ENDBRANCH   9  11
BRANCH   9  13
ATOM     13  N   UNL     1       1.039   3.675  -0.224  1.00  0.00    -0.324 N 
ATOM     14  C   UNL     1       1.669   4.285   0.818  1.00  0.00     0.318 C 
ATOM     15  H   UNL     1       0.394   4.261  -0.682  1.00  0.00     0.166 HD
ATOM     16  O   UNL     1       0.982   5.097   1.445  1.00  0.00    -0.249 OA
ATOM     17  N   UNL     1       2.978   4.041   1.162  1.00  0.00    -0.323 N 
ATOM     18  C   UNL     1       3.512   4.654   2.388  1.00  0.00     0.135 C 
ATOM     19  C   UNL     1       4.040   3.756   0.221  1.00  0.00     0.135 C 
ATOM     20  C   UNL     1       4.598   3.830   3.085  1.00  0.00     0.126 C 
ATOM     21  C   UNL     1       4.977   2.669   0.688  1.00  0.00     0.126 C 
ATOM     22  S   UNL     1       5.999   3.336   2.029  1.00  0.00     0.025 S 
ATOM     23  O   UNL     1       6.674   4.576   1.517  1.00  0.00    -0.259 OA
ENDBRANCH   9  13
ENDBRANCH   6   9
ENDBRANCH   4   5
ENDBRANCH   3   4
ENDBRANCH   2   3
ENDBRANCH   1   2
BRANCH   1  24
ATOM     24  C   UNL     1       4.228   6.721  -4.916  1.00  0.00     0.021 C 
BRANCH  24  25
ATOM     25  C   UNL     1       4.319   8.121  -4.320  1.00  0.00     0.116 C 
BRANCH  25  26
ATOM     26  N   UNL     1       5.691   8.595  -4.231  1.00  0.00    -0.352 N 
ATOM     27  C   UNL     1       6.289   9.641  -4.897  1.00  0.00     0.251 C 
ATOM     28  H   UNL     1       6.272   8.099  -3.611  1.00  0.00     0.163 HD
ATOM     29  O   UNL     1       7.497   9.794  -4.879  1.00  0.00    -0.269 OA
BRANCH  27  30
ATOM     30  C   UNL     1       5.432  10.567  -5.667  1.00  0.00     0.039 A 
ATOM     31  C   UNL     1       5.749  10.833  -6.999  1.00  0.00     0.014 A 
ATOM     32  C   UNL     1       4.289  11.117  -5.081  1.00  0.00     0.014 A 
ATOM     33  C   UNL     1       4.867  11.587  -7.774  1.00  0.00     0.010 A 
ATOM     34  C   UNL     1       3.372  11.794  -5.875  1.00  0.00     0.010 A 
ATOM     35  C   UNL     1       3.649  12.030  -7.231  1.00  0.00    -0.014 A 
BRANCH  35  36
ATOM     36  C   UNL     1       2.638  12.717  -8.072  1.00  0.00     0.031 A 
ATOM     37  C   UNL     1       2.237  14.131  -7.769  1.00  0.00     0.074 A 
ATOM     38  C   UNL     1       2.023  12.036  -9.058  1.00  0.00     0.049 A 
ATOM     39  N   UNL     1       1.324  14.874  -8.341  1.00  0.00    -0.248 NA
ATOM     40  C   UNL     1       2.935  14.788  -6.653  1.00  0.00     0.031 C 
ATOM     41  C   UNL     1       2.283  10.638  -9.407  1.00  0.00     0.029 A 
ATOM     42  N   UNL     1       1.041  12.421  -9.936  1.00  0.00    -0.354 N 
ATOM     43  C   UNL     1       1.337  16.081  -7.654  1.00  0.00     0.074 A 
ATOM     44  C   UNL     1       2.297  15.946  -6.581  1.00  0.00     0.031 C 
ATOM     45  C   UNL     1       1.492  10.287 -10.432  1.00  0.00     0.029 A 
ATOM     46  C   UNL     1       0.641  11.419 -10.786  1.00  0.00     0.049 A 
ATOM     47  H   UNL     1       0.660  13.328  -9.955  1.00  0.00     0.167 HD
ATOM     48  C   UNL     1       0.631  17.207  -7.914  1.00  0.00     0.037 A 
ATOM     49  C   UNL     1      -0.316  11.409 -11.733  1.00  0.00     0.037 A 
ATOM     50  C   UNL     1      -0.323  17.333  -8.985  1.00  0.00     0.049 A 
ATOM     51  C   UNL     1      -1.105  12.663 -11.991  1.00  0.00     0.074 A 
ATOM     52  C   UNL     1      -1.049  18.445  -9.369  1.00  0.00     0.029 A 
ATOM     53  N   UNL     1      -0.693  16.301  -9.837  1.00  0.00    -0.354 N 
ATOM     54  N   UNL     1      -1.028  13.825 -11.390  1.00  0.00    -0.248 NA
ATOM     55  C   UNL     1      -2.110  12.606 -13.060  1.00  0.00     0.031 C 
ATOM     56  C   UNL     1      -1.902  18.072 -10.414  1.00  0.00     0.029 A 
ATOM     57  C   UNL     1      -1.664  16.742 -10.723  1.00  0.00     0.049 A 
ATOM     58  H   UNL     1      -0.321  15.389  -9.815  1.00  0.00     0.167 HD
ATOM     59  C   UNL     1      -1.959  14.643 -12.015  1.00  0.00     0.074 A 
ATOM     60  C   UNL     1      -2.575  13.848 -13.058  1.00  0.00     0.031 C 
ATOM     61  C   UNL     1      -2.277  15.934 -11.748  1.00  0.00     0.037 A 
BRANCH  48  62
ATOM     62  C   UNL     1       0.867  18.389  -7.015  1.00  0.00     0.064 A 
ATOM     63  C   UNL     1       2.094  19.070  -7.001  1.00  0.00     0.173 A 
ATOM     64  C   UNL     1      -0.146  18.850  -6.161  1.00  0.00     0.173 A 
ATOM     65  F   UNL     1       3.101  18.666  -7.790  1.00  0.00    -0.203 F 
ATOM     66  C   UNL     1       2.313  20.139  -6.135  1.00  0.00     0.198 A 
ATOM     67  C   UNL     1       0.064  19.942  -5.322  1.00  0.00     0.198 A 
ATOM     68  F   UNL     1      -1.342  18.242  -6.138  1.00  0.00    -0.203 F 
ATOM     69  F   UNL     1       3.516  20.729  -6.093  1.00  0.00    -0.200 F 
ATOM     70  C   UNL     1       1.297  20.577  -5.301  1.00  0.00     0.200 A 
ATOM     71  F   UNL     1      -0.924  20.374  -4.527  1.00  0.00    -0.200 F 
ATOM     72  F   UNL     1       1.508  21.605  -4.467  1.00  0.00    -0.200 F 
ENDBRANCH  48  62
BRANCH  49  73
ATOM     73  C   UNL     1      -0.569  10.165 -12.506  1.00  0.00     0.064 A 
ATOM     74  C   UNL     1      -0.232  10.073 -13.863  1.00  0.00     0.173 A 
ATOM     75  C   UNL     1      -1.129   9.032 -11.895  1.00  0.00     0.173 A 
ATOM     76  F   UNL     1       0.289  11.134 -14.496  1.00  0.00    -0.203 F 
ATOM     77  C   UNL     1      -0.455   8.900 -14.582  1.00  0.00     0.198 A 
ATOM     78  C   UNL     1      -1.324   7.851 -12.608  1.00  0.00     0.198 A 
ATOM     79  F   UNL     1      -1.463   9.065 -10.597  1.00  0.00    -0.203 F 
ATOM     80  F   UNL     1      -0.156   8.851 -15.888  1.00  0.00    -0.200 F 
ATOM     81  C   UNL     1      -0.992   7.788 -13.952  1.00  0.00     0.200 A 
ATOM     82  F   UNL     1      -1.826   6.773 -11.989  1.00  0.00    -0.200 F 
ATOM     83  F   UNL     1      -1.193   6.656 -14.641  1.00  0.00    -0.200 F 
ENDBRANCH  49  73
BRANCH  61  84
ATOM     84  C   UNL     1      -3.334  16.573 -12.602  1.00  0.00     0.064 A 
ATOM     85  C   UNL     1      -4.686  16.212 -12.492  1.00  0.00     0.173 A 
ATOM     86  C   UNL     1      -2.998  17.590 -13.509  1.00  0.00     0.173 A 
ATOM     87  F   UNL     1      -5.057  15.234 -11.652  1.00  0.00    -0.203 F 
ATOM     88  C   UNL     1      -5.658  16.830 -13.274  1.00  0.00     0.198 A 
ATOM     89  C   UNL     1      -3.977  18.228 -14.266  1.00  0.00     0.198 A 
ATOM     90  F   UNL     1      -1.722  17.976 -13.650  1.00  0.00    -0.203 F 
ATOM     91  F   UNL     1      -6.936  16.436 -13.186  1.00  0.00    -0.200 F 
ATOM     92  C   UNL     1      -5.304  17.843 -14.153  1.00  0.00     0.200 A 
ATOM     93  F   UNL     1      -3.636  19.216 -15.104  1.00  0.00    -0.200 F 
ATOM     94  F   UNL     1      -6.243  18.444 -14.897  1.00  0.00    -0.200 F 
ENDBRANCH  61  84
ENDBRANCH  35  36
ENDBRANCH  27  30
ENDBRANCH  25  26
ENDBRANCH  24  25
ENDBRANCH   1  24
TORSDOF 15
