REMARK SMILES COc1ccc(-c2cc(CC3(C(=O)NCCCCCCNC(=O)c4ccc(-c5c6nc(c(-c7c(F)c(F)c(F)c(F)c7F)c7ccc([nH]7)c(-c7c(F)c(F)c(F)c(F)c7F)c7nc(c(-c8c(F)c(F)c(F)c(F)c8F)c8ccc5[nH]8)C=C7)C=C6)cc4)CCN(C(=O)C4CCCC4)CC3)on2)cc1
REMARK SMILES IDX 16 1 15 2 14 3 12 4 13 5 11 7 87 8 98 9 88 10 97 11 89 12
REMARK SMILES IDX 90 13 91 14 10 15 9 16 7 17 8 18 100 19 99 20 6 21 3 22 4 23
REMARK SMILES IDX 102 24 5 25 101 26 2 27 1 28 92 29 93 30 96 31 94 32 95 33
REMARK SMILES IDX 17 34 18 35 19 36 20 37 21 38 22 39 23 41 24 42 25 43 86 44
REMARK SMILES IDX 26 45 85 46 27 47 28 48 29 49 79 50 30 51 84 52 78 53 80 54
REMARK SMILES IDX 31 55 83 56 77 57 76 58 32 60 64 61 44 62 63 63 45 64 48 65
REMARK SMILES IDX 62 66 81 67 46 68 47 69 61 71 82 72 49 73 33 74 34 75 42 76
REMARK SMILES IDX 35 77 36 78 40 79 43 80 37 81 38 82 41 83 39 84 65 85 66 86
REMARK SMILES IDX 74 87 67 88 68 89 72 90 75 91 69 92 70 93 73 94 71 95 50 96
REMARK SMILES IDX 51 97 59 98 52 99 53 100 57 101 60 102 54 103 55 104 58 105
REMARK SMILES IDX 56 106
REMARK H PARENT 14 6 21 40 80 59 48 70
REMARK Flexibility Score: inf
ROOT
ATOM      1  C   UNL     1       1.688  -7.069 -12.835  1.00  0.00     0.021 C 
ENDROOT
BRANCH   1   2
ATOM      2  C   UNL     1       1.860  -7.357 -11.345  1.00  0.00     0.116 C 
BRANCH   2   3
ATOM      3  N   UNL     1       3.227  -7.105 -10.923  1.00  0.00    -0.356 N 
ATOM      4  C   UNL     1       3.752  -6.256  -9.998  1.00  0.00     0.226 C 
ATOM      5  O   UNL     1       4.984  -6.243  -9.917  1.00  0.00    -0.274 OA
ATOM      6  H   UNL     1       3.898  -7.649 -11.394  1.00  0.00     0.163 HD
BRANCH   4   7
ATOM      7  C   UNL     1       2.865  -5.395  -9.065  1.00  0.00     0.060 C 
ATOM      8  C   UNL     1       2.018  -4.417  -9.927  1.00  0.00     0.039 C 
ATOM      9  C   UNL     1       2.036  -6.377  -8.191  1.00  0.00     0.039 C 
ATOM     10  C   UNL     1       0.620  -4.088  -9.405  1.00  0.00     0.120 C 
ATOM     11  C   UNL     1       0.693  -5.847  -7.714  1.00  0.00     0.120 C 
ATOM     12  N   UNL     1      -0.055  -5.229  -8.796  1.00  0.00    -0.342 N 
ATOM     13  C   UNL     1      -1.383  -5.456  -9.127  1.00  0.00     0.225 C 
ATOM     14  O   UNL     1      -1.947  -4.782  -9.997  1.00  0.00    -0.275 OA
BRANCH   7  15
ATOM     15  C   UNL     1       3.861  -4.588  -8.166  1.00  0.00     0.095 C 
BRANCH  15  16
ATOM     16  C   UNL     1       3.225  -3.757  -7.119  1.00  0.00     0.138 A 
ATOM     17  C   UNL     1       2.286  -2.762  -5.395  1.00  0.00     0.114 A 
ATOM     18  C   UNL     1       3.034  -3.904  -5.767  1.00  0.00     0.077 A 
ATOM     19  N   UNL     1       2.070  -1.965  -6.449  1.00  0.00    -0.080 NA
ATOM     20  O   UNL     1       2.698  -2.571  -7.517  1.00  0.00    -0.361 OA
BRANCH  17  21
ATOM     21  C   UNL     1       1.815  -2.409  -4.073  1.00  0.00     0.004 A 
ATOM     22  C   UNL     1       0.937  -1.628  -1.541  1.00  0.00     0.118 A 
ATOM     23  C   UNL     1       0.033  -2.171  -2.456  1.00  0.00     0.047 A 
ATOM     24  C   UNL     1       2.288  -1.522  -1.873  1.00  0.00     0.047 A 
ATOM     25  C   UNL     1       0.466  -2.550  -3.729  1.00  0.00     0.014 A 
ATOM     26  C   UNL     1       2.726  -1.910  -3.138  1.00  0.00     0.014 A 
BRANCH  22  27
ATOM     27  O   UNL     1       0.426  -1.265  -0.325  1.00  0.00    -0.497 OA
ATOM     28  C   UNL     1       0.928  -0.016   0.150  1.00  0.00     0.278 C 
ENDBRANCH  22  27
ENDBRANCH  17  21
ENDBRANCH  15  16
ENDBRANCH   7  15
BRANCH  13  29
ATOM     29  C   UNL     1      -2.197  -6.568  -8.467  1.00  0.00     0.078 C 
ATOM     30  C   UNL     1      -1.661  -7.973  -8.716  1.00  0.00     0.013 C 
ATOM     31  C   UNL     1      -2.421  -6.442  -6.961  1.00  0.00     0.013 C 
ATOM     32  C   UNL     1      -2.276  -8.809  -7.606  1.00  0.00     0.001 C 
ATOM     33  C   UNL     1      -2.461  -7.870  -6.419  1.00  0.00     0.001 C 
ENDBRANCH  13  29
ENDBRANCH   4   7
ENDBRANCH   2   3
ENDBRANCH   1   2
BRANCH   1  34
ATOM     34  C   UNL     1       2.430  -8.052 -13.748  1.00  0.00     0.002 C 
BRANCH  34  35
ATOM     35  C   UNL     1       2.050  -9.524 -13.556  1.00  0.00     0.002 C 
BRANCH  35  36
ATOM     36  C   UNL     1       0.553  -9.823 -13.659  1.00  0.00     0.021 C 
BRANCH  36  37
ATOM     37  C   UNL     1      -0.091  -9.386 -14.970  1.00  0.00     0.116 C 
BRANCH  37  38
ATOM     38  N   UNL     1       0.474 -10.079 -16.116  1.00  0.00    -0.352 N 
ATOM     39  C   UNL     1      -0.163 -10.775 -17.112  1.00  0.00     0.251 C 
ATOM     40  H   UNL     1       1.455 -10.044 -16.188  1.00  0.00     0.163 HD
ATOM     41  O   UNL     1       0.480 -11.458 -17.900  1.00  0.00    -0.269 OA
BRANCH  39  42
ATOM     42  C   UNL     1      -1.637 -10.717 -17.218  1.00  0.00     0.039 A 
ATOM     43  C   UNL     1      -2.343 -11.902 -17.436  1.00  0.00     0.014 A 
ATOM     44  C   UNL     1      -2.318  -9.502 -17.106  1.00  0.00     0.014 A 
ATOM     45  C   UNL     1      -3.738 -11.876 -17.484  1.00  0.00     0.010 A 
ATOM     46  C   UNL     1      -3.709  -9.488 -17.078  1.00  0.00     0.010 A 
ATOM     47  C   UNL     1      -4.433 -10.674 -17.271  1.00  0.00    -0.014 A 
BRANCH  47  48
ATOM     48  C   UNL     1      -5.917 -10.640 -17.247  1.00  0.00     0.031 A 
ATOM     49  C   UNL     1      -6.673  -9.858 -18.285  1.00  0.00     0.074 A 
ATOM     50  C   UNL     1      -6.581 -11.265 -16.255  1.00  0.00     0.049 A 
ATOM     51  N   UNL     1      -7.963  -9.659 -18.396  1.00  0.00    -0.248 NA
ATOM     52  C   UNL     1      -5.872  -9.189 -19.321  1.00  0.00     0.031 C 
ATOM     53  C   UNL     1      -5.958 -12.018 -15.165  1.00  0.00     0.029 A 
ATOM     54  N   UNL     1      -7.926 -11.357 -15.996  1.00  0.00    -0.354 N 
ATOM     55  C   UNL     1      -8.124  -8.835 -19.502  1.00  0.00     0.074 A 
ATOM     56  C   UNL     1      -6.799  -8.525 -19.995  1.00  0.00     0.031 C 
ATOM     57  C   UNL     1      -6.919 -12.515 -14.370  1.00  0.00     0.029 A 
ATOM     58  C   UNL     1      -8.221 -12.082 -14.867  1.00  0.00     0.049 A 
ATOM     59  H   UNL     1      -8.614 -10.943 -16.566  1.00  0.00     0.167 HD
ATOM     60  C   UNL     1      -9.273  -8.395 -20.067  1.00  0.00     0.037 A 
ATOM     61  C   UNL     1      -9.408 -12.357 -14.293  1.00  0.00     0.037 A 
ATOM     62  C   UNL     1     -10.589  -8.723 -19.584  1.00  0.00     0.049 A 
ATOM     63  C   UNL     1     -10.669 -11.842 -14.933  1.00  0.00     0.074 A 
ATOM     64  C   UNL     1     -11.816  -8.378 -20.122  1.00  0.00     0.029 A 
ATOM     65  N   UNL     1     -10.848  -9.467 -18.442  1.00  0.00    -0.354 N 
ATOM     66  N   UNL     1     -10.813 -11.126 -16.021  1.00  0.00    -0.248 NA
ATOM     67  C   UNL     1     -11.934 -12.180 -14.267  1.00  0.00     0.031 C 
ATOM     68  C   UNL     1     -12.818  -8.866 -19.277  1.00  0.00     0.029 A 
ATOM     69  C   UNL     1     -12.217  -9.568 -18.244  1.00  0.00     0.049 A 
ATOM     70  H   UNL     1     -10.162  -9.865 -17.859  1.00  0.00     0.167 HD
ATOM     71  C   UNL     1     -12.180 -10.955 -16.188  1.00  0.00     0.074 A 
ATOM     72  C   UNL     1     -12.824 -11.655 -15.097  1.00  0.00     0.031 C 
ATOM     73  C   UNL     1     -12.843 -10.278 -17.158  1.00  0.00     0.037 A 
BRANCH  60  74
ATOM     74  C   UNL     1      -9.160  -7.508 -21.274  1.00  0.00     0.064 A 
ATOM     75  C   UNL     1      -8.697  -7.995 -22.507  1.00  0.00     0.173 A 
ATOM     76  C   UNL     1      -9.558  -6.164 -21.210  1.00  0.00     0.173 A 
ATOM     77  F   UNL     1      -8.295  -9.270 -22.622  1.00  0.00    -0.203 F 
ATOM     78  C   UNL     1      -8.608  -7.162 -23.619  1.00  0.00     0.198 A 
ATOM     79  C   UNL     1      -9.498  -5.343 -22.333  1.00  0.00     0.198 A 
ATOM     80  F   UNL     1     -10.015  -5.647 -20.059  1.00  0.00    -0.203 F 
ATOM     81  F   UNL     1      -8.114  -7.637 -24.771  1.00  0.00    -0.200 F 
ATOM     82  C   UNL     1      -9.015  -5.840 -23.534  1.00  0.00     0.200 A 
ATOM     83  F   UNL     1      -9.908  -4.069 -22.253  1.00  0.00    -0.200 F 
ATOM     84  F   UNL     1      -8.938  -5.042 -24.608  1.00  0.00    -0.200 F 
ENDBRANCH  60  74
BRANCH  61  85
ATOM     85  C   UNL     1      -9.463 -13.180 -13.055  1.00  0.00     0.064 A 
ATOM     86  C   UNL     1     -10.017 -14.467 -13.071  1.00  0.00     0.173 A 
ATOM     87  C   UNL     1      -8.975 -12.695 -11.833  1.00  0.00     0.173 A 
ATOM     88  F   UNL     1     -10.516 -14.967 -14.211  1.00  0.00    -0.203 F 
ATOM     89  C   UNL     1     -10.104 -15.229 -11.907  1.00  0.00     0.198 A 
ATOM     90  C   UNL     1      -9.033 -13.470 -10.676  1.00  0.00     0.198 A 
ATOM     91  F   UNL     1      -8.429 -11.472 -11.764  1.00  0.00    -0.203 F 
ATOM     92  F   UNL     1     -10.685 -16.436 -11.941  1.00  0.00    -0.200 F 
ATOM     93  C   UNL     1      -9.607 -14.732 -10.712  1.00  0.00     0.200 A 
ATOM     94  F   UNL     1      -8.537 -12.993  -9.527  1.00  0.00    -0.200 F 
ATOM     95  F   UNL     1      -9.687 -15.466  -9.594  1.00  0.00    -0.200 F 
ENDBRANCH  61  85
BRANCH  73  96
ATOM     96  C   UNL     1     -14.345 -10.296 -17.109  1.00  0.00     0.064 A 
ATOM     97  C   UNL     1     -15.061  -9.599 -16.125  1.00  0.00     0.173 A 
ATOM     98  C   UNL     1     -15.076 -10.990 -18.085  1.00  0.00     0.173 A 
ATOM     99  F   UNL     1     -14.409  -8.933 -15.160  1.00  0.00    -0.203 F 
ATOM    100  C   UNL     1     -16.453  -9.620 -16.104  1.00  0.00     0.198 A 
ATOM    101  C   UNL     1     -16.468 -10.980 -18.081  1.00  0.00     0.198 A 
ATOM    102  F   UNL     1     -14.440 -11.668 -19.053  1.00  0.00    -0.203 F 
ATOM    103  F   UNL     1     -17.116  -8.990 -15.124  1.00  0.00    -0.200 F 
ATOM    104  C   UNL     1     -17.155 -10.303 -17.086  1.00  0.00     0.200 A 
ATOM    105  F   UNL     1     -17.144 -11.628 -19.040  1.00  0.00    -0.200 F 
ATOM    106  F   UNL     1     -18.495 -10.314 -17.069  1.00  0.00    -0.200 F 
ENDBRANCH  73  96
ENDBRANCH  47  48
ENDBRANCH  39  42
ENDBRANCH  37  38
ENDBRANCH  36  37
ENDBRANCH  35  36
ENDBRANCH  34  35
ENDBRANCH   1  34
TORSDOF 18
