REMARK SMILES COc1ccc(-c2cccc(/C=C\C(=O)NCCCCCCNC(=O)c3ccc(-c4c5nc(c(-c6c(F)c(F)c(F)c(F)c6F)c6ccc([nH]6)c(-c6c(F)c(F)c(F)c(F)c6F)c6nc(c(-c7c(F)c(F)c(F)c(F)c7F)c7ccc4[nH]7)C=C6)C=C5)cc3)c2)c(Cl)c1OC
REMARK SMILES IDX 19 1 18 2 17 3 16 4 14 5 15 6 13 8 12 9 11 10 7 11 8 12
REMARK SMILES IDX 89 13 9 14 10 15 6 16 3 17 4 18 92 19 5 20 90 21 91 22 2 23
REMARK SMILES IDX 1 24 93 25 94 26 20 27 21 28 22 29 23 30 24 31 25 33 26 34
REMARK SMILES IDX 27 35 88 36 28 37 87 38 29 39 30 40 31 41 81 42 32 43 86 44
REMARK SMILES IDX 80 45 82 46 33 47 85 48 79 49 78 50 34 52 66 53 46 54 65 55
REMARK SMILES IDX 47 56 50 57 64 58 83 59 48 60 49 61 63 63 84 64 51 65 35 66
REMARK SMILES IDX 36 67 44 68 37 69 38 70 42 71 45 72 39 73 40 74 43 75 41 76
REMARK SMILES IDX 67 77 68 78 76 79 69 80 70 81 74 82 77 83 71 84 72 85 75 86
REMARK SMILES IDX 73 87 52 88 53 89 61 90 54 91 55 92 59 93 62 94 56 95 57 96
REMARK SMILES IDX 60 97 58 98
REMARK H PARENT 16 7 23 32 82 51 50 62
REMARK Flexibility Score: inf
ROOT
ATOM      1  C   UNL     1       4.304  -5.335   8.967  1.00  0.00     0.002 C 
ENDROOT
BRANCH   1   2
ATOM      2  C   UNL     1       2.920  -5.695   8.410  1.00  0.00     0.021 C 
BRANCH   2   3
ATOM      3  C   UNL     1       2.885  -6.460   7.093  1.00  0.00     0.116 C 
BRANCH   3   4
ATOM      4  N   UNL     1       3.271  -7.851   7.180  1.00  0.00    -0.353 N 
ATOM      5  C   UNL     1       2.880  -8.917   6.431  1.00  0.00     0.243 C 
ATOM      6  O   UNL     1       3.383 -10.018   6.665  1.00  0.00    -0.270 OA
ATOM      7  H   UNL     1       3.917  -8.059   7.893  1.00  0.00     0.163 HD
BRANCH   5   8
ATOM      8  C   UNL     1       1.799  -8.851   5.406  1.00  0.00     0.072 C 
ATOM      9  C   UNL     1       1.532  -8.008   4.393  1.00  0.00     0.014 C 
BRANCH   9  10
ATOM     10  C   UNL     1       2.259  -6.794   4.013  1.00  0.00    -0.025 A 
ATOM     11  C   UNL     1       2.205  -4.384   3.547  1.00  0.00    -0.016 A 
ATOM     12  C   UNL     1       3.611  -4.399   3.679  1.00  0.00     0.009 A 
ATOM     13  C   UNL     1       1.544  -5.611   3.728  1.00  0.00     0.017 A 
ATOM     14  C   UNL     1       4.331  -5.583   3.832  1.00  0.00     0.001 A 
ATOM     15  C   UNL     1       3.654  -6.787   3.965  1.00  0.00     0.008 A 
BRANCH  11  16
ATOM     16  C   UNL     1       1.527  -3.128   3.103  1.00  0.00     0.004 A 
ATOM     17  C   UNL     1       0.446  -0.759   1.970  1.00  0.00     0.162 A 
ATOM     18  C   UNL     1       1.706  -1.199   1.593  1.00  0.00     0.051 A 
ATOM     19  C   UNL     1      -0.266  -1.433   2.981  1.00  0.00     0.180 A 
ATOM     20  C   UNL     1       2.211  -2.376   2.122  1.00  0.00     0.014 A 
ATOM     21  C   UNL     1       0.286  -2.607   3.563  1.00  0.00     0.094 A 
ATOM     22  Cl  UNL     1      -0.487  -3.336   4.940  1.00  0.00    -0.079 Cl
BRANCH  17  23
ATOM     23  O   UNL     1      -0.104   0.364   1.399  1.00  0.00    -0.493 OA
ATOM     24  C   UNL     1       0.039   0.392  -0.024  1.00  0.00     0.278 C 
ENDBRANCH  17  23
BRANCH  19  25
ATOM     25  O   UNL     1      -1.402  -0.787   3.413  1.00  0.00    -0.491 OA
ATOM     26  C   UNL     1      -2.598  -1.554   3.494  1.00  0.00     0.278 C 
ENDBRANCH  19  25
ENDBRANCH  11  16
ENDBRANCH   9  10
ENDBRANCH   5   8
ENDBRANCH   3   4
ENDBRANCH   2   3
ENDBRANCH   1   2
BRANCH   1  27
ATOM     27  C   UNL     1       5.298  -4.609   8.050  1.00  0.00     0.002 C 
BRANCH  27  28
ATOM     28  C   UNL     1       4.795  -3.418   7.230  1.00  0.00     0.021 C 
BRANCH  28  29
ATOM     29  C   UNL     1       4.062  -2.304   7.973  1.00  0.00     0.116 C 
BRANCH  29  30
ATOM     30  N   UNL     1       4.892  -1.612   8.939  1.00  0.00    -0.352 N 
ATOM     31  C   UNL     1       5.100  -0.267   9.132  1.00  0.00     0.251 C 
ATOM     32  H   UNL     1       5.386  -2.199   9.556  1.00  0.00     0.163 HD
ATOM     33  O   UNL     1       5.928   0.097   9.963  1.00  0.00    -0.269 OA
BRANCH  31  34
ATOM     34  C   UNL     1       4.373   0.760   8.342  1.00  0.00     0.039 A 
ATOM     35  C   UNL     1       5.092   1.879   7.904  1.00  0.00     0.014 A 
ATOM     36  C   UNL     1       3.002   0.681   8.081  1.00  0.00     0.014 A 
ATOM     37  C   UNL     1       4.456   2.885   7.169  1.00  0.00     0.010 A 
ATOM     38  C   UNL     1       2.376   1.663   7.304  1.00  0.00     0.010 A 
ATOM     39  C   UNL     1       3.096   2.775   6.840  1.00  0.00    -0.014 A 
BRANCH  39  40
ATOM     40  C   UNL     1       2.429   3.811   6.006  1.00  0.00     0.031 A 
ATOM     41  C   UNL     1       1.389   4.722   6.594  1.00  0.00     0.074 A 
ATOM     42  C   UNL     1       2.743   3.915   4.700  1.00  0.00     0.049 A 
ATOM     43  N   UNL     1       0.675   5.653   6.009  1.00  0.00    -0.248 NA
ATOM     44  C   UNL     1       1.104   4.561   8.027  1.00  0.00     0.031 C 
ATOM     45  C   UNL     1       3.719   3.082   3.998  1.00  0.00     0.029 A 
ATOM     46  N   UNL     1       2.267   4.761   3.727  1.00  0.00    -0.354 N 
ATOM     47  C   UNL     1      -0.146   6.181   6.997  1.00  0.00     0.074 A 
ATOM     48  C   UNL     1       0.133   5.444   8.212  1.00  0.00     0.031 C 
ATOM     49  C   UNL     1       3.779   3.463   2.713  1.00  0.00     0.029 A 
ATOM     50  C   UNL     1       2.819   4.542   2.489  1.00  0.00     0.049 A 
ATOM     51  H   UNL     1       1.595   5.459   3.902  1.00  0.00     0.167 HD
ATOM     52  C   UNL     1      -1.038   7.197   6.902  1.00  0.00     0.037 A 
ATOM     53  C   UNL     1       2.568   5.129   1.303  1.00  0.00     0.037 A 
ATOM     54  C   UNL     1      -1.307   7.942   5.699  1.00  0.00     0.049 A 
ATOM     55  C   UNL     1       1.538   6.221   1.217  1.00  0.00     0.074 A 
ATOM     56  C   UNL     1      -2.148   9.029   5.526  1.00  0.00     0.029 A 
ATOM     57  N   UNL     1      -0.746   7.672   4.460  1.00  0.00    -0.354 N 
ATOM     58  N   UNL     1       0.810   6.749   2.169  1.00  0.00    -0.248 NA
ATOM     59  C   UNL     1       1.294   6.798  -0.114  1.00  0.00     0.031 C 
ATOM     60  C   UNL     1      -2.130   9.389   4.174  1.00  0.00     0.029 A 
ATOM     61  C   UNL     1      -1.244   8.555   3.513  1.00  0.00     0.049 A 
ATOM     62  H   UNL     1      -0.092   6.959   4.279  1.00  0.00     0.167 HD
ATOM     63  C   UNL     1       0.040   7.731   1.562  1.00  0.00     0.074 A 
ATOM     64  C   UNL     1       0.398   7.736   0.159  1.00  0.00     0.031 C 
ATOM     65  C   UNL     1      -0.881   8.554   2.119  1.00  0.00     0.037 A 
BRANCH  52  66
ATOM     66  C   UNL     1      -1.798   7.571   8.142  1.00  0.00     0.064 A 
ATOM     67  C   UNL     1      -1.179   8.242   9.207  1.00  0.00     0.173 A 
ATOM     68  C   UNL     1      -3.172   7.306   8.242  1.00  0.00     0.173 A 
ATOM     69  F   UNL     1       0.134   8.513   9.162  1.00  0.00    -0.203 F 
ATOM     70  C   UNL     1      -1.903   8.614  10.336  1.00  0.00     0.198 A 
ATOM     71  C   UNL     1      -3.898   7.702   9.362  1.00  0.00     0.198 A 
ATOM     72  F   UNL     1      -3.814   6.676   7.247  1.00  0.00    -0.203 F 
ATOM     73  F   UNL     1      -1.283   9.222  11.358  1.00  0.00    -0.200 F 
ATOM     74  C   UNL     1      -3.262   8.350  10.411  1.00  0.00     0.200 A 
ATOM     75  F   UNL     1      -5.215   7.458   9.427  1.00  0.00    -0.200 F 
ATOM     76  F   UNL     1      -3.960   8.716  11.495  1.00  0.00    -0.200 F 
ENDBRANCH  52  66
BRANCH  53  77
ATOM     77  C   UNL     1       3.296   4.679   0.088  1.00  0.00     0.064 A 
ATOM     78  C   UNL     1       4.244   5.497  -0.538  1.00  0.00     0.173 A 
ATOM     79  C   UNL     1       3.046   3.421  -0.474  1.00  0.00     0.173 A 
ATOM     80  F   UNL     1       4.498   6.721  -0.053  1.00  0.00    -0.203 F 
ATOM     81  C   UNL     1       4.906   5.075  -1.691  1.00  0.00     0.198 A 
ATOM     82  C   UNL     1       3.724   2.989  -1.610  1.00  0.00     0.198 A 
ATOM     83  F   UNL     1       2.148   2.604   0.092  1.00  0.00    -0.203 F 
ATOM     84  F   UNL     1       5.780   5.891  -2.295  1.00  0.00    -0.200 F 
ATOM     85  C   UNL     1       4.650   3.819  -2.222  1.00  0.00     0.200 A 
ATOM     86  F   UNL     1       3.479   1.770  -2.110  1.00  0.00    -0.200 F 
ATOM     87  F   UNL     1       5.289   3.413  -3.327  1.00  0.00    -0.200 F 
ENDBRANCH  53  77
BRANCH  65  88
ATOM     88  C   UNL     1      -1.543   9.553   1.217  1.00  0.00     0.064 A 
ATOM     89  C   UNL     1      -2.510   9.166   0.278  1.00  0.00     0.173 A 
ATOM     90  C   UNL     1      -1.226  10.916   1.311  1.00  0.00     0.173 A 
ATOM     91  F   UNL     1      -2.834   7.872   0.136  1.00  0.00    -0.203 F 
ATOM     92  C   UNL     1      -3.119  10.106  -0.550  1.00  0.00     0.198 A 
ATOM     93  C   UNL     1      -1.855  11.856   0.500  1.00  0.00     0.198 A 
ATOM     94  F   UNL     1      -0.309  11.338   2.195  1.00  0.00    -0.203 F 
ATOM     95  F   UNL     1      -4.007   9.709  -1.472  1.00  0.00    -0.200 F 
ATOM     96  C   UNL     1      -2.796  11.450  -0.434  1.00  0.00     0.200 A 
ATOM     97  F   UNL     1      -1.548  13.155   0.619  1.00  0.00    -0.200 F 
ATOM     98  F   UNL     1      -3.385  12.354  -1.230  1.00  0.00    -0.200 F 
ENDBRANCH  65  88
ENDBRANCH  39  40
ENDBRANCH  31  34
ENDBRANCH  29  30
ENDBRANCH  28  29
ENDBRANCH  27  28
ENDBRANCH   1  27
TORSDOF 17
