REMARK SMILES O=C(NCCCCCCNC(=O)c1cc(Cl)cc(S(=O)(=O)N[C@@H]2CONC2=O)c1F)c1ccc(-c2c3nc(c(-c4c(F)c(F)c(F)c(F)c4F)c4ccc([nH]4)c(-c4c(F)c(F)c(F)c(F)c4F)c4nc(c(-c5c(F)c(F)c(F)c(F)c5F)c5ccc2[nH]5)C=C4)C=C3)cc1
REMARK SMILES IDX 7 1 6 2 5 3 4 4 3 5 1 6 2 7 31 9 32 10 93 11 33 12 92 13
REMARK SMILES IDX 34 14 35 15 36 16 86 17 37 18 91 19 85 20 87 21 38 22 90 23
REMARK SMILES IDX 84 24 83 25 39 27 71 28 51 29 70 30 52 31 55 32 69 33 88 34
REMARK SMILES IDX 53 35 54 36 68 38 89 39 56 40 40 41 41 42 49 43 42 44 43 45
REMARK SMILES IDX 47 46 50 47 44 48 45 49 48 50 46 51 72 52 73 53 81 54 74 55
REMARK SMILES IDX 75 56 79 57 82 58 76 59 77 60 80 61 78 62 57 63 58 64 66 65
REMARK SMILES IDX 59 66 60 67 64 68 67 69 61 70 62 71 65 72 63 73 8 74 9 75
REMARK SMILES IDX 10 76 11 77 12 79 13 80 14 81 29 82 15 83 18 84 30 85 16 86
REMARK SMILES IDX 17 87 19 88 20 89 21 90 22 91 23 93 24 94 27 95 25 96 26 97
REMARK SMILES IDX 28 98
REMARK H PARENT 3 8 87 26 55 37 10 78 22 92 26 99
REMARK Flexibility Score: inf
ROOT
ATOM      1  C   UNL     1       4.652   4.354   0.864  1.00  0.00     0.002 C 
ENDROOT
BRANCH   1   2
ATOM      2  C   UNL     1       4.225   3.974  -0.557  1.00  0.00     0.002 C 
BRANCH   2   3
ATOM      3  C   UNL     1       4.727   2.625  -1.073  1.00  0.00     0.021 C 
BRANCH   3   4
ATOM      4  C   UNL     1       4.460   1.431  -0.166  1.00  0.00     0.116 C 
BRANCH   4   5
ATOM      5  N   UNL     1       3.046   1.170   0.036  1.00  0.00    -0.352 N 
ATOM      6  O   UNL     1       1.143  -0.043   0.044  1.00  0.00    -0.269 OA
ATOM      7  C   UNL     1       2.366  -0.021  -0.048  1.00  0.00     0.251 C 
ATOM      8  H   UNL     1       2.498   1.956   0.264  1.00  0.00     0.163 HD
BRANCH   7   9
ATOM      9  C   UNL     1       3.109  -1.280  -0.278  1.00  0.00     0.039 A 
ATOM     10  C   UNL     1       4.269  -1.574   0.444  1.00  0.00     0.014 A 
ATOM     11  C   UNL     1       2.622  -2.189  -1.222  1.00  0.00     0.014 A 
ATOM     12  C   UNL     1       5.004  -2.715   0.138  1.00  0.00     0.010 A 
ATOM     13  C   UNL     1       3.321  -3.372  -1.475  1.00  0.00     0.010 A 
ATOM     14  C   UNL     1       4.530  -3.635  -0.812  1.00  0.00    -0.014 A 
BRANCH  14  15
ATOM     15  C   UNL     1       5.270  -4.902  -1.032  1.00  0.00     0.031 A 
ATOM     16  C   UNL     1       5.937  -5.199  -2.345  1.00  0.00     0.074 A 
ATOM     17  C   UNL     1       5.344  -5.786  -0.019  1.00  0.00     0.049 A 
ATOM     18  N   UNL     1       6.625  -6.256  -2.698  1.00  0.00    -0.248 NA
ATOM     19  C   UNL     1       5.814  -4.184  -3.403  1.00  0.00     0.031 C 
ATOM     20  C   UNL     1       4.717  -5.612   1.294  1.00  0.00     0.029 A 
ATOM     21  N   UNL     1       5.981  -6.997   0.076  1.00  0.00    -0.354 N 
ATOM     22  C   UNL     1       7.001  -6.045  -4.018  1.00  0.00     0.074 A 
ATOM     23  C   UNL     1       6.449  -4.766  -4.413  1.00  0.00     0.031 C 
ATOM     24  C   UNL     1       5.030  -6.657   2.073  1.00  0.00     0.029 A 
ATOM     25  C   UNL     1       5.830  -7.600   1.300  1.00  0.00     0.049 A 
ATOM     26  H   UNL     1       6.496  -7.395  -0.663  1.00  0.00     0.167 HD
ATOM     27  C   UNL     1       7.745  -6.844  -4.820  1.00  0.00     0.037 A 
ATOM     28  C   UNL     1       6.270  -8.790   1.746  1.00  0.00     0.037 A 
ATOM     29  C   UNL     1       8.309  -8.107  -4.413  1.00  0.00     0.049 A 
ATOM     30  C   UNL     1       7.082  -9.658   0.828  1.00  0.00     0.074 A 
ATOM     31  C   UNL     1       9.116  -8.966  -5.140  1.00  0.00     0.029 A 
ATOM     32  N   UNL     1       8.121  -8.693  -3.170  1.00  0.00    -0.354 N 
ATOM     33  N   UNL     1       7.467  -9.425  -0.402  1.00  0.00    -0.248 NA
ATOM     34  C   UNL     1       7.519 -10.955   1.361  1.00  0.00     0.031 C 
ATOM     35  C   UNL     1       9.380 -10.091  -4.353  1.00  0.00     0.029 A 
ATOM     36  C   UNL     1       8.778  -9.913  -3.118  1.00  0.00     0.049 A 
ATOM     37  H   UNL     1       7.599  -8.301  -2.433  1.00  0.00     0.167 HD
ATOM     38  C   UNL     1       8.202 -10.536  -0.788  1.00  0.00     0.074 A 
ATOM     39  C   UNL     1       8.229 -11.433   0.349  1.00  0.00     0.031 C 
ATOM     40  C   UNL     1       8.795 -10.793  -1.978  1.00  0.00     0.037 A 
BRANCH  27  41
ATOM     41  C   UNL     1       7.994  -6.393  -6.229  1.00  0.00     0.064 A 
ATOM     42  C   UNL     1       8.891  -5.356  -6.522  1.00  0.00     0.173 A 
ATOM     43  C   UNL     1       7.387  -7.059  -7.305  1.00  0.00     0.173 A 
ATOM     44  F   UNL     1       9.491  -4.682  -5.530  1.00  0.00    -0.203 F 
ATOM     45  C   UNL     1       9.164  -4.996  -7.840  1.00  0.00     0.198 A 
ATOM     46  C   UNL     1       7.679  -6.712  -8.621  1.00  0.00     0.198 A 
ATOM     47  F   UNL     1       6.526  -8.063  -7.079  1.00  0.00    -0.203 F 
ATOM     48  F   UNL     1      10.005  -3.985  -8.097  1.00  0.00    -0.200 F 
ATOM     49  C   UNL     1       8.565  -5.679  -8.888  1.00  0.00     0.200 A 
ATOM     50  F   UNL     1       7.109  -7.382  -9.633  1.00  0.00    -0.200 F 
ATOM     51  F   UNL     1       8.840  -5.341 -10.155  1.00  0.00    -0.200 F 
ENDBRANCH  27  41
BRANCH  28  52
ATOM     52  C   UNL     1       5.944  -9.228   3.127  1.00  0.00     0.064 A 
ATOM     53  C   UNL     1       6.939  -9.330   4.108  1.00  0.00     0.173 A 
ATOM     54  C   UNL     1       4.629  -9.550   3.495  1.00  0.00     0.173 A 
ATOM     55  F   UNL     1       8.214  -9.051   3.798  1.00  0.00    -0.203 F 
ATOM     56  C   UNL     1       6.635  -9.754   5.399  1.00  0.00     0.198 A 
ATOM     57  C   UNL     1       4.321  -9.944   4.794  1.00  0.00     0.198 A 
ATOM     58  F   UNL     1       3.639  -9.464   2.594  1.00  0.00    -0.203 F 
ATOM     59  F   UNL     1       7.613  -9.884   6.306  1.00  0.00    -0.200 F 
ATOM     60  C   UNL     1       5.325 -10.054   5.743  1.00  0.00     0.200 A 
ATOM     61  F   UNL     1       3.052 -10.217   5.126  1.00  0.00    -0.200 F 
ATOM     62  F   UNL     1       5.033 -10.456   6.987  1.00  0.00    -0.200 F 
ENDBRANCH  28  52
BRANCH  40  63
ATOM     63  C   UNL     1       9.544 -12.086  -2.099  1.00  0.00     0.064 A 
ATOM     64  C   UNL     1       8.873 -13.314  -2.192  1.00  0.00     0.173 A 
ATOM     65  C   UNL     1      10.946 -12.095  -2.145  1.00  0.00     0.173 A 
ATOM     66  F   UNL     1       7.533 -13.358  -2.135  1.00  0.00    -0.203 F 
ATOM     67  C   UNL     1       9.581 -14.508  -2.300  1.00  0.00     0.198 A 
ATOM     68  C   UNL     1      11.649 -13.288  -2.280  1.00  0.00     0.198 A 
ATOM     69  F   UNL     1      11.632 -10.946  -2.063  1.00  0.00    -0.203 F 
ATOM     70  F   UNL     1       8.921 -15.674  -2.338  1.00  0.00    -0.200 F 
ATOM     71  C   UNL     1      10.967 -14.494  -2.350  1.00  0.00     0.200 A 
ATOM     72  F   UNL     1      12.988 -13.272  -2.338  1.00  0.00    -0.200 F 
ATOM     73  F   UNL     1      11.646 -15.644  -2.456  1.00  0.00    -0.200 F 
ENDBRANCH  40  63
ENDBRANCH  14  15
ENDBRANCH   7   9
ENDBRANCH   4   5
ENDBRANCH   3   4
ENDBRANCH   2   3
ENDBRANCH   1   2
BRANCH   1  74
ATOM     74  C   UNL     1       6.150   4.254   1.172  1.00  0.00     0.021 C 
BRANCH  74  75
ATOM     75  C   UNL     1       7.062   5.046   0.244  1.00  0.00     0.116 C 
BRANCH  75  76
ATOM     76  N   UNL     1       6.874   6.480   0.372  1.00  0.00    -0.352 N 
ATOM     77  C   UNL     1       7.807   7.482   0.412  1.00  0.00     0.254 C 
ATOM     78  H   UNL     1       5.937   6.776   0.441  1.00  0.00     0.163 HD
ATOM     79  O   UNL     1       7.455   8.641   0.615  1.00  0.00    -0.269 OA
BRANCH  77  80
ATOM     80  C   UNL     1       9.245   7.205   0.229  1.00  0.00     0.078 A 
ATOM     81  C   UNL     1      10.162   7.822   1.086  1.00  0.00     0.037 A 
ATOM     82  C   UNL     1       9.702   6.430  -0.836  1.00  0.00     0.156 A 
ATOM     83  C   UNL     1      11.528   7.626   0.887  1.00  0.00     0.043 A 
ATOM     84  C   UNL     1      11.062   6.249  -1.039  1.00  0.00     0.120 A 
ATOM     85  F   UNL     1       8.812   5.877  -1.663  1.00  0.00    -0.205 F 
ATOM     86  Cl  UNL     1      12.657   8.359   1.955  1.00  0.00    -0.084 Cl
ATOM     87  C   UNL     1      11.987   6.844  -0.173  1.00  0.00     0.045 A 
BRANCH  84  88
ATOM     88  S   UNL     1      11.678   5.288  -2.383  1.00  0.00     0.244 S 
ATOM     89  O   UNL     1      12.655   6.097  -3.075  1.00  0.00    -0.207 OA
ATOM     90  O   UNL     1      12.008   3.999  -1.821  1.00  0.00    -0.207 OA
BRANCH  88  91
ATOM     91  N   UNL     1      10.431   5.024  -3.432  1.00  0.00    -0.196 NA
ATOM     92  H   UNL     1       9.636   4.780  -2.841  1.00  0.00     0.142 HD
BRANCH  91  93
ATOM     93  C   UNL     1       9.892   5.973  -4.421  1.00  0.00     0.189 C 
ATOM     94  C   UNL     1      10.197   7.453  -4.248  1.00  0.00     0.224 C 
ATOM     95  C   UNL     1       8.388   5.955  -4.320  1.00  0.00     0.264 C 
ATOM     96  O   UNL     1       8.972   8.190  -4.391  1.00  0.00    -0.271 OA
ATOM     97  N   UNL     1       7.936   7.241  -4.309  1.00  0.00    -0.233 N 
ATOM     98  O   UNL     1       7.689   4.954  -4.233  1.00  0.00    -0.271 OA
ATOM     99  H   UNL     1       6.983   7.482  -4.249  1.00  0.00     0.199 HD
ENDBRANCH  91  93
ENDBRANCH  88  91
ENDBRANCH  84  88
ENDBRANCH  77  80
ENDBRANCH  75  76
ENDBRANCH  74  75
ENDBRANCH   1  74
TORSDOF 16
