REMARK SMILES NS(=O)(=O)c1ccc(-c2cc(Cl)cc3c2O[C@H](C(F)(F)F)C(C(=O)NCCCCCCNC(=O)c2ccc(-c4c5nc(c(-c6c(F)c(F)c(F)c(F)c6F)c6ccc([nH]6)c(-c6c(F)c(F)c(F)c(F)c6F)c6nc(c(-c7c(F)c(F)c(F)c(F)c7F)c7ccc4[nH]7)C=C6)C=C5)cc2)=C3)cc1
REMARK SMILES IDX 28 1 27 2 26 3 25 4 23 5 24 6 22 8 9 9 10 10 15 11 11 12
REMARK SMILES IDX 14 13 16 14 12 15 13 16 98 17 17 18 8 19 5 20 6 21 100 22
REMARK SMILES IDX 7 23 99 24 2 25 3 26 4 27 1 28 18 31 19 32 20 33 21 34 29 35
REMARK SMILES IDX 30 36 31 37 32 38 33 39 34 41 35 42 36 43 97 44 37 45 96 46
REMARK SMILES IDX 38 47 39 48 40 49 90 50 41 51 95 52 89 53 91 54 42 55 94 56
REMARK SMILES IDX 88 57 87 58 43 60 75 61 55 62 74 63 56 64 59 65 73 66 92 67
REMARK SMILES IDX 57 68 58 69 72 71 93 72 60 73 44 74 45 75 53 76 46 77 47 78
REMARK SMILES IDX 51 79 54 80 48 81 49 82 52 83 50 84 76 85 77 86 85 87 78 88
REMARK SMILES IDX 79 89 83 90 86 91 80 92 81 93 84 94 82 95 61 96 62 97 70 98
REMARK SMILES IDX 63 99 64 100 68 101 71 102 65 103 66 104 69 105 67 106
REMARK H PARENT 25 7 1 29 1 30 32 40 91 59 59 70
REMARK Flexibility Score: inf
ROOT
ATOM      1  C   UNL     1       4.393 -14.921  -5.391  1.00  0.00     0.002 C 
ENDROOT
BRANCH   1   2
ATOM      2  C   UNL     1       5.267 -14.114  -4.416  1.00  0.00     0.021 C 
BRANCH   2   3
ATOM      3  C   UNL     1       5.530 -12.661  -4.839  1.00  0.00     0.116 C 
BRANCH   3   4
ATOM      4  N   UNL     1       4.274 -11.951  -4.975  1.00  0.00    -0.352 N 
ATOM      5  C   UNL     1       3.906 -10.897  -4.203  1.00  0.00     0.251 C 
ATOM      6  O   UNL     1       2.838 -10.911  -3.604  1.00  0.00    -0.270 OA
ATOM      7  H   UNL     1       3.648 -12.252  -5.672  1.00  0.00     0.163 HD
BRANCH   5   8
ATOM      8  C   UNL     1       4.788  -9.695  -4.273  1.00  0.00     0.067 C 
ATOM      9  C   UNL     1       2.395  -7.054  -2.334  1.00  0.00     0.026 A 
ATOM     10  C   UNL     1       1.084  -7.282  -2.832  1.00  0.00     0.033 A 
ATOM     11  C   UNL     1       3.444  -7.643  -3.061  1.00  0.00     0.135 A 
ATOM     12  C   UNL     1       0.843  -7.869  -4.072  1.00  0.00     0.042 A 
ATOM     13  C   UNL     1       3.188  -8.123  -4.371  1.00  0.00     0.019 A 
ATOM     14  O   UNL     1       4.717  -7.856  -2.542  1.00  0.00    -0.475 OA
ATOM     15  Cl  UNL     1      -0.772  -8.126  -4.596  1.00  0.00    -0.084 Cl
ATOM     16  C   UNL     1       1.900  -8.216  -4.888  1.00  0.00     0.032 A 
ATOM     17  C   UNL     1       4.309  -8.749  -5.104  1.00  0.00     0.025 C 
ATOM     18  C   UNL     1       5.288  -9.187  -2.928  1.00  0.00     0.314 C 
BRANCH   9  19
ATOM     19  C   UNL     1       2.472  -6.007  -1.276  1.00  0.00    -0.015 A 
ATOM     20  C   UNL     1       1.660  -3.619   0.016  1.00  0.00     0.082 A 
ATOM     21  C   UNL     1       1.155  -4.849   0.440  1.00  0.00     0.022 A 
ATOM     22  C   UNL     1       2.651  -3.576  -0.966  1.00  0.00     0.022 A 
ATOM     23  C   UNL     1       1.580  -6.033  -0.182  1.00  0.00     0.010 A 
ATOM     24  C   UNL     1       3.061  -4.766  -1.595  1.00  0.00     0.010 A 
BRANCH  20  25
ATOM     25  S   UNL     1       0.911  -2.150   0.667  1.00  0.00     0.238 S 
ATOM     26  O   UNL     1       1.422  -1.931   2.002  1.00  0.00    -0.207 OA
ATOM     27  O   UNL     1      -0.500  -2.189   0.371  1.00  0.00    -0.207 OA
BRANCH  25  28
ATOM     28  N   UNL     1       1.512  -0.880  -0.260  1.00  0.00    -0.225 NA
ATOM     29  H   UNL     1       1.114  -0.001   0.070  1.00  0.00     0.137 HD
ATOM     30  H   UNL     1       1.258  -1.023  -1.237  1.00  0.00     0.137 HD
ENDBRANCH  25  28
ENDBRANCH  20  25
ENDBRANCH   9  19
BRANCH  18  31
ATOM     31  C   UNL     1       6.834  -9.180  -2.980  1.00  0.00     0.429 C 
ATOM     32  F   UNL     1       7.354  -7.933  -2.963  1.00  0.00    -0.167 F 
ATOM     33  F   UNL     1       7.363  -9.863  -1.936  1.00  0.00    -0.167 F 
ATOM     34  F   UNL     1       7.318  -9.783  -4.101  1.00  0.00    -0.167 F 
ENDBRANCH  18  31
ENDBRANCH   5   8
ENDBRANCH   3   4
ENDBRANCH   2   3
ENDBRANCH   1   2
BRANCH   1  35
ATOM     35  C   UNL     1       4.901 -14.956  -6.835  1.00  0.00     0.002 C 
BRANCH  35  36
ATOM     36  C   UNL     1       6.303 -15.541  -6.999  1.00  0.00     0.021 C 
BRANCH  36  37
ATOM     37  C   UNL     1       6.471 -16.945  -6.431  1.00  0.00     0.116 C 
BRANCH  37  38
ATOM     38  N   UNL     1       5.603 -17.916  -7.078  1.00  0.00    -0.352 N 
ATOM     39  C   UNL     1       5.916 -19.152  -7.586  1.00  0.00     0.251 C 
ATOM     40  H   UNL     1       4.659 -17.650  -7.163  1.00  0.00     0.163 HD
ATOM     41  O   UNL     1       5.098 -19.779  -8.250  1.00  0.00    -0.269 OA
BRANCH  39  42
ATOM     42  C   UNL     1       7.262 -19.713  -7.351  1.00  0.00     0.039 A 
ATOM     43  C   UNL     1       7.952 -20.282  -8.424  1.00  0.00     0.014 A 
ATOM     44  C   UNL     1       7.846 -19.663  -6.082  1.00  0.00     0.014 A 
ATOM     45  C   UNL     1       9.254 -20.748  -8.236  1.00  0.00     0.010 A 
ATOM     46  C   UNL     1       9.171 -20.051  -5.917  1.00  0.00     0.010 A 
ATOM     47  C   UNL     1       9.886 -20.604  -6.990  1.00  0.00    -0.014 A 
BRANCH  47  48
ATOM     48  C   UNL     1      11.296 -21.023  -6.795  1.00  0.00     0.031 A 
ATOM     49  C   UNL     1      11.634 -22.118  -5.824  1.00  0.00     0.074 A 
ATOM     50  C   UNL     1      12.279 -20.366  -7.439  1.00  0.00     0.049 A 
ATOM     51  N   UNL     1      12.807 -22.587  -5.479  1.00  0.00    -0.248 NA
ATOM     52  C   UNL     1      10.505 -22.747  -5.123  1.00  0.00     0.031 C 
ATOM     53  C   UNL     1      12.082 -19.242  -8.355  1.00  0.00     0.029 A 
ATOM     54  N   UNL     1      13.640 -20.537  -7.408  1.00  0.00    -0.354 N 
ATOM     55  C   UNL     1      12.557 -23.551  -4.512  1.00  0.00     0.074 A 
ATOM     56  C   UNL     1      11.129 -23.555  -4.280  1.00  0.00     0.031 C 
ATOM     57  C   UNL     1      13.276 -18.835  -8.812  1.00  0.00     0.029 A 
ATOM     58  C   UNL     1      14.324 -19.641  -8.192  1.00  0.00     0.049 A 
ATOM     59  H   UNL     1      14.084 -21.236  -6.875  1.00  0.00     0.167 HD
ATOM     60  C   UNL     1      13.436 -24.374  -3.891  1.00  0.00     0.037 A 
ATOM     61  C   UNL     1      15.647 -19.478  -8.382  1.00  0.00     0.037 A 
ATOM     62  C   UNL     1      14.855 -24.371  -4.138  1.00  0.00     0.049 A 
ATOM     63  C   UNL     1      16.607 -20.405  -7.690  1.00  0.00     0.074 A 
ATOM     64  C   UNL     1      15.823 -25.215  -3.623  1.00  0.00     0.029 A 
ATOM     65  N   UNL     1      15.512 -23.466  -4.961  1.00  0.00    -0.354 N 
ATOM     66  N   UNL     1      16.355 -21.377  -6.847  1.00  0.00    -0.248 NA
ATOM     67  C   UNL     1      18.034 -20.220  -7.983  1.00  0.00     0.031 C 
ATOM     68  C   UNL     1      17.071 -24.780  -4.082  1.00  0.00     0.029 A 
ATOM     69  C   UNL     1      16.877 -23.707  -4.938  1.00  0.00     0.049 A 
ATOM     70  H   UNL     1      15.073 -22.757  -5.484  1.00  0.00     0.167 HD
ATOM     71  C   UNL     1      17.585 -21.932  -6.523  1.00  0.00     0.074 A 
ATOM     72  C   UNL     1      18.582 -21.198  -7.276  1.00  0.00     0.031 C 
ATOM     73  C   UNL     1      17.862 -22.959  -5.681  1.00  0.00     0.037 A 
BRANCH  60  74
ATOM     74  C   UNL     1      12.882 -25.331  -2.871  1.00  0.00     0.064 A 
ATOM     75  C   UNL     1      12.021 -26.381  -3.228  1.00  0.00     0.173 A 
ATOM     76  C   UNL     1      13.213 -25.192  -1.514  1.00  0.00     0.173 A 
ATOM     77  F   UNL     1      11.664 -26.557  -4.509  1.00  0.00    -0.203 F 
ATOM     78  C   UNL     1      11.470 -27.219  -2.261  1.00  0.00     0.198 A 
ATOM     79  C   UNL     1      12.691 -26.056  -0.555  1.00  0.00     0.198 A 
ATOM     80  F   UNL     1      14.039 -24.212  -1.115  1.00  0.00    -0.203 F 
ATOM     81  F   UNL     1      10.589 -28.164  -2.619  1.00  0.00    -0.200 F 
ATOM     82  C   UNL     1      11.809 -27.058  -0.927  1.00  0.00     0.200 A 
ATOM     83  F   UNL     1      13.033 -25.909   0.733  1.00  0.00    -0.200 F 
ATOM     84  F   UNL     1      11.274 -27.862   0.003  1.00  0.00    -0.200 F 
ENDBRANCH  60  74
BRANCH  61  85
ATOM     85  C   UNL     1      16.123 -18.398  -9.284  1.00  0.00     0.064 A 
ATOM     86  C   UNL     1      16.676 -18.693 -10.537  1.00  0.00     0.173 A 
ATOM     87  C   UNL     1      15.991 -17.047  -8.930  1.00  0.00     0.173 A 
ATOM     88  F   UNL     1      16.840 -19.970 -10.914  1.00  0.00    -0.203 F 
ATOM     89  C   UNL     1      17.084 -17.677 -11.400  1.00  0.00     0.198 A 
ATOM     90  C   UNL     1      16.372 -16.033  -9.804  1.00  0.00     0.198 A 
ATOM     91  F   UNL     1      15.459 -16.713  -7.744  1.00  0.00    -0.203 F 
ATOM     92  F   UNL     1      17.636 -17.986 -12.581  1.00  0.00    -0.200 F 
ATOM     93  C   UNL     1      16.922 -16.348 -11.037  1.00  0.00     0.200 A 
ATOM     94  F   UNL     1      16.195 -14.750  -9.457  1.00  0.00    -0.200 F 
ATOM     95  F   UNL     1      17.295 -15.372 -11.875  1.00  0.00    -0.200 F 
ENDBRANCH  61  85
BRANCH  73  96
ATOM     96  C   UNL     1      19.302 -23.365  -5.539  1.00  0.00     0.064 A 
ATOM     97  C   UNL     1      20.237 -22.553  -4.880  1.00  0.00     0.173 A 
ATOM     98  C   UNL     1      19.743 -24.602  -6.034  1.00  0.00     0.173 A 
ATOM     99  F   UNL     1      19.872 -21.354  -4.401  1.00  0.00    -0.203 F 
ATOM    100  C   UNL     1      21.565 -22.953  -4.745  1.00  0.00     0.198 A 
ATOM    101  C   UNL     1      21.062 -25.014  -5.867  1.00  0.00     0.198 A 
ATOM    102  F   UNL     1      18.889 -25.421  -6.667  1.00  0.00    -0.203 F 
ATOM    103  F   UNL     1      22.451 -22.138  -4.157  1.00  0.00    -0.200 F 
ATOM    104  C   UNL     1      21.974 -24.186  -5.231  1.00  0.00     0.200 A 
ATOM    105  F   UNL     1      21.451 -26.213  -6.323  1.00  0.00    -0.200 F 
ATOM    106  F   UNL     1      23.249 -24.573  -5.091  1.00  0.00    -0.200 F 
ENDBRANCH  73  96
ENDBRANCH  47  48
ENDBRANCH  39  42
ENDBRANCH  37  38
ENDBRANCH  36  37
ENDBRANCH  35  36
ENDBRANCH   1  35
TORSDOF 17
