REMARK SMILES CCC[NH2+][C@@]1(C(=O)NCCCCCCNC(=O)c2ccc(-c3c4nc(c(-c5c(F)c(F)c(F)c(F)c5F)c5ccc([nH]5)c(-c5c(F)c(F)c(F)c(F)c5F)c5nc(c(-c6c(F)c(F)c(F)c(F)c6F)c6ccc3[nH]6)C=C5)C=C4)cc2)CC[C@@H](SC2CCCC2)C1
REMARK SMILES IDX 11 1 10 2 9 3 8 4 6 5 7 6 5 8 81 9 90 10 82 11 83 12 4 13
REMARK SMILES IDX 3 16 2 17 1 18 84 19 85 20 86 21 89 22 87 23 88 24 12 25
REMARK SMILES IDX 13 26 14 27 15 28 16 29 17 31 18 32 19 33 80 34 20 35 79 36
REMARK SMILES IDX 21 37 22 38 23 39 73 40 24 41 78 42 72 43 74 44 25 45 77 46
REMARK SMILES IDX 71 47 70 48 26 50 58 51 38 52 57 53 39 54 42 55 56 56 75 57
REMARK SMILES IDX 40 58 41 59 55 61 76 62 43 63 27 64 28 65 36 66 29 67 30 68
REMARK SMILES IDX 34 69 37 70 31 71 32 72 35 73 33 74 59 75 60 76 68 77 61 78
REMARK SMILES IDX 62 79 66 80 69 81 63 82 64 83 67 84 65 85 44 86 45 87 53 88
REMARK SMILES IDX 46 89 47 90 51 91 54 92 48 93 49 94 52 95 50 96
REMARK H PARENT 8 7 4 14 4 15 15 30 74 49 42 60
REMARK Flexibility Score: inf
ROOT
ATOM      1  C   UNL     1       0.585   5.742   7.844  1.00  0.00     0.002 C 
ENDROOT
BRANCH   1   2
ATOM      2  C   UNL     1       0.491   5.889   6.332  1.00  0.00     0.021 C 
BRANCH   2   3
ATOM      3  C   UNL     1       1.416   4.949   5.579  1.00  0.00     0.116 C 
BRANCH   3   4
ATOM      4  N   UNL     1       0.840   3.658   5.370  1.00  0.00    -0.351 N 
ATOM      5  C   UNL     1       0.471   3.048   4.213  1.00  0.00     0.281 C 
ATOM      6  O   UNL     1      -0.354   2.139   4.378  1.00  0.00    -0.268 OA
ATOM      7  H   UNL     1       0.688   3.131   6.187  1.00  0.00     0.163 HD
BRANCH   5   8
ATOM      8  C   UNL     1       1.028   3.459   2.770  1.00  0.00     0.176 C 
ATOM      9  C   UNL     1       2.550   3.697   2.655  1.00  0.00     0.080 C 
ATOM     10  C   UNL     1       0.387   4.783   2.277  1.00  0.00     0.093 C 
ATOM     11  C   UNL     1       2.814   5.202   2.624  1.00  0.00     0.022 C 
ATOM     12  C   UNL     1       1.485   5.861   2.260  1.00  0.00     0.054 C 
BRANCH   8  13
ATOM     13  N   UNL     1       0.639   2.366   1.821  1.00  0.00    -0.334 N 
ATOM     14  H   UNL     1      -0.376   2.266   1.850  1.00  0.00     0.347 HD
ATOM     15  H   UNL     1       0.988   2.643   0.903  1.00  0.00     0.347 HD
BRANCH  13  16
ATOM     16  C   UNL     1       1.238   1.056   2.116  1.00  0.00     0.261 C 
BRANCH  16  17
ATOM     17  C   UNL     1       0.624  -0.050   1.252  1.00  0.00     0.058 C 
ATOM     18  C   UNL     1       1.037   0.034  -0.208  1.00  0.00     0.010 C 
ENDBRANCH  16  17
ENDBRANCH  13  16
ENDBRANCH   8  13
BRANCH  12  19
ATOM     19  S   UNL     1       1.464   7.127   0.939  1.00  0.00    -0.155 SA
BRANCH  19  20
ATOM     20  C   UNL     1       2.075   6.360  -0.594  1.00  0.00     0.047 C 
ATOM     21  C   UNL     1       3.425   5.666  -0.584  1.00  0.00     0.014 C 
ATOM     22  C   UNL     1       1.145   5.358  -1.263  1.00  0.00     0.014 C 
ATOM     23  C   UNL     1       3.475   5.007  -1.951  1.00  0.00     0.001 C 
ATOM     24  C   UNL     1       2.041   4.551  -2.207  1.00  0.00     0.001 C 
ENDBRANCH  19  20
ENDBRANCH  12  19
ENDBRANCH   5   8
ENDBRANCH   3   4
ENDBRANCH   2   3
ENDBRANCH   1   2
BRANCH   1  25
ATOM     25  C   UNL     1       2.007   5.866   8.404  1.00  0.00     0.002 C 
BRANCH  25  26
ATOM     26  C   UNL     1       2.775   7.111   7.950  1.00  0.00     0.021 C 
BRANCH  26  27
ATOM     27  C   UNL     1       2.059   8.424   8.239  1.00  0.00     0.116 C 
BRANCH  27  28
ATOM     28  N   UNL     1       1.735   8.557   9.650  1.00  0.00    -0.352 N 
ATOM     29  C   UNL     1       2.079   9.555  10.520  1.00  0.00     0.251 C 
ATOM     30  H   UNL     1       1.193   7.829  10.031  1.00  0.00     0.163 HD
ATOM     31  O   UNL     1       1.937   9.410  11.731  1.00  0.00    -0.269 OA
BRANCH  29  32
ATOM     32  C   UNL     1       2.626  10.812   9.982  1.00  0.00     0.039 A 
ATOM     33  C   UNL     1       3.758  11.375  10.573  1.00  0.00     0.014 A 
ATOM     34  C   UNL     1       2.013  11.425   8.885  1.00  0.00     0.014 A 
ATOM     35  C   UNL     1       4.304  12.540  10.035  1.00  0.00     0.010 A 
ATOM     36  C   UNL     1       2.604  12.536   8.303  1.00  0.00     0.010 A 
ATOM     37  C   UNL     1       3.744  13.114   8.883  1.00  0.00    -0.014 A 
BRANCH  37  38
ATOM     38  C   UNL     1       4.290  14.353   8.281  1.00  0.00     0.031 A 
ATOM     39  C   UNL     1       3.431  15.585   8.240  1.00  0.00     0.074 A 
ATOM     40  C   UNL     1       5.503  14.344   7.699  1.00  0.00     0.049 A 
ATOM     41  N   UNL     1       3.636  16.721   7.625  1.00  0.00    -0.248 NA
ATOM     42  C   UNL     1       2.148  15.516   8.960  1.00  0.00     0.031 C 
ATOM     43  C   UNL     1       6.415  13.200   7.659  1.00  0.00     0.029 A 
ATOM     44  N   UNL     1       6.167  15.325   7.008  1.00  0.00    -0.354 N 
ATOM     45  C   UNL     1       2.503  17.486   7.863  1.00  0.00     0.074 A 
ATOM     46  C   UNL     1       1.589  16.669   8.629  1.00  0.00     0.031 C 
ATOM     47  C   UNL     1       7.525  13.549   6.988  1.00  0.00     0.029 A 
ATOM     48  C   UNL     1       7.381  14.920   6.508  1.00  0.00     0.049 A 
ATOM     49  H   UNL     1       5.809  16.233   6.882  1.00  0.00     0.167 HD
ATOM     50  C   UNL     1       2.257  18.765   7.494  1.00  0.00     0.037 A 
ATOM     51  C   UNL     1       8.264  15.577   5.733  1.00  0.00     0.037 A 
ATOM     52  C   UNL     1       3.185  19.576   6.752  1.00  0.00     0.049 A 
ATOM     53  C   UNL     1       7.955  16.990   5.309  1.00  0.00     0.074 A 
ATOM     54  C   UNL     1       3.056  20.897   6.362  1.00  0.00     0.029 A 
ATOM     55  N   UNL     1       4.416  19.138   6.285  1.00  0.00    -0.354 N 
ATOM     56  N   UNL     1       6.902  17.723   5.577  1.00  0.00    -0.248 NA
ATOM     57  C   UNL     1       8.959  17.668   4.476  1.00  0.00     0.031 C 
ATOM     58  C   UNL     1       4.184  21.242   5.613  1.00  0.00     0.029 A 
ATOM     59  C   UNL     1       5.048  20.158   5.595  1.00  0.00     0.049 A 
ATOM     60  H   UNL     1       4.785  18.235   6.424  1.00  0.00     0.167 HD
ATOM     61  C   UNL     1       7.137  18.959   4.990  1.00  0.00     0.074 A 
ATOM     62  C   UNL     1       8.431  18.877   4.347  1.00  0.00     0.031 C 
ATOM     63  C   UNL     1       6.353  20.066   4.991  1.00  0.00     0.037 A 
BRANCH  50  64
ATOM     64  C   UNL     1       0.934  19.360   7.881  1.00  0.00     0.064 A 
ATOM     65  C   UNL     1       0.608  19.627   9.220  1.00  0.00     0.173 A 
ATOM     66  C   UNL     1      -0.011  19.694   6.899  1.00  0.00     0.173 A 
ATOM     67  F   UNL     1       1.470  19.317  10.200  1.00  0.00    -0.203 F 
ATOM     68  C   UNL     1      -0.627  20.171   9.563  1.00  0.00     0.198 A 
ATOM     69  C   UNL     1      -1.230  20.273   7.243  1.00  0.00     0.198 A 
ATOM     70  F   UNL     1       0.251  19.467   5.603  1.00  0.00    -0.203 F 
ATOM     71  F   UNL     1      -0.938  20.361  10.853  1.00  0.00    -0.200 F 
ATOM     72  C   UNL     1      -1.541  20.501   8.574  1.00  0.00     0.200 A 
ATOM     73  F   UNL     1      -2.105  20.606   6.284  1.00  0.00    -0.200 F 
ATOM     74  F   UNL     1      -2.726  21.032   8.905  1.00  0.00    -0.200 F 
ENDBRANCH  50  64
BRANCH  51  75
ATOM     75  C   UNL     1       9.531  14.916   5.322  1.00  0.00     0.064 A 
ATOM     76  C   UNL     1      10.766  15.364   5.812  1.00  0.00     0.173 A 
ATOM     77  C   UNL     1       9.538  13.833   4.430  1.00  0.00     0.173 A 
ATOM     78  F   UNL     1      10.813  16.407   6.653  1.00  0.00    -0.203 F 
ATOM     79  C   UNL     1      11.960  14.771   5.406  1.00  0.00     0.198 A 
ATOM     80  C   UNL     1      10.731  13.221   4.050  1.00  0.00     0.198 A 
ATOM     81  F   UNL     1       8.384  13.360   3.938  1.00  0.00    -0.203 F 
ATOM     82  F   UNL     1      13.129  15.253   5.851  1.00  0.00    -0.200 F 
ATOM     83  C   UNL     1      11.941  13.697   4.530  1.00  0.00     0.200 A 
ATOM     84  F   UNL     1      10.707  12.172   3.217  1.00  0.00    -0.200 F 
ATOM     85  F   UNL     1      13.089  13.126   4.142  1.00  0.00    -0.200 F 
ENDBRANCH  51  75
BRANCH  63  86
ATOM     86  C   UNL     1       6.896  21.308   4.346  1.00  0.00     0.064 A 
ATOM     87  C   UNL     1       7.002  21.439   2.955  1.00  0.00     0.173 A 
ATOM     88  C   UNL     1       7.233  22.416   5.140  1.00  0.00     0.173 A 
ATOM     89  F   UNL     1       6.706  20.404   2.155  1.00  0.00    -0.203 F 
ATOM     90  C   UNL     1       7.437  22.631   2.382  1.00  0.00     0.198 A 
ATOM     91  C   UNL     1       7.636  23.616   4.562  1.00  0.00     0.198 A 
ATOM     92  F   UNL     1       7.142  22.344   6.476  1.00  0.00    -0.203 F 
ATOM     93  F   UNL     1       7.564  22.724   1.051  1.00  0.00    -0.200 F 
ATOM     94  C   UNL     1       7.741  23.721   3.184  1.00  0.00     0.200 A 
ATOM     95  F   UNL     1       7.911  24.673   5.339  1.00  0.00    -0.200 F 
ATOM     96  F   UNL     1       8.137  24.875   2.628  1.00  0.00    -0.200 F 
ENDBRANCH  63  86
ENDBRANCH  37  38
ENDBRANCH  29  32
ENDBRANCH  27  28
ENDBRANCH  26  27
ENDBRANCH  25  26
ENDBRANCH   1  25
TORSDOF 18
