REMARK SMILES C[C@H](NC(=O)c1cccc(NC(=O)c2ccccc2C(=O)NCCCCCCNC(=O)c2ccc(-c3c4nc(c(-c5c(F)c(F)c(F)c(F)c5F)c5ccc([nH]5)c(-c5c(F)c(F)c(F)c(F)c5F)c5nc(c(-c6c(F)c(F)c(F)c(F)c6F)c6ccc3[nH]6)C=C5)C=C4)cc2)c1)c1ccccc1
REMARK SMILES IDX 24 1 23 2 22 3 20 4 21 5 19 7 14 8 15 9 16 10 18 11 17 12
REMARK SMILES IDX 12 13 11 14 13 16 10 17 6 18 7 19 95 20 8 21 9 22 4 23 3 24
REMARK SMILES IDX 5 26 2 27 1 28 96 29 97 30 101 31 98 32 100 33 99 34 25 35
REMARK SMILES IDX 26 36 27 37 28 38 29 39 30 40 31 42 32 43 33 44 94 45 34 46
REMARK SMILES IDX 93 47 35 48 36 49 37 50 87 51 38 52 92 53 86 54 88 55 39 56
REMARK SMILES IDX 91 57 85 58 84 59 40 61 72 62 52 63 71 64 53 65 56 66 70 67
REMARK SMILES IDX 89 68 54 69 55 70 69 72 90 73 57 74 41 75 42 76 50 77 43 78
REMARK SMILES IDX 44 79 48 80 51 81 45 82 46 83 49 84 47 85 73 86 74 87 82 88
REMARK SMILES IDX 75 89 76 90 80 91 83 92 77 93 78 94 81 95 79 96 58 97 59 98
REMARK SMILES IDX 67 99 60 100 61 101 65 102 68 103 62 104 63 105 66 106
REMARK SMILES IDX 64 107
REMARK H PARENT 22 6 11 15 3 25 29 41 88 60 56 71
REMARK Flexibility Score: inf
ROOT
ATOM      1  C   UNL     1      -3.746   3.832   3.552  1.00  0.00     0.021 C 
ENDROOT
BRANCH   1   2
ATOM      2  C   UNL     1      -2.398   3.943   4.254  1.00  0.00     0.116 C 
BRANCH   2   3
ATOM      3  N   UNL     1      -1.313   4.331   3.377  1.00  0.00    -0.352 N 
ATOM      4  C   UNL     1      -0.068   4.821   3.668  1.00  0.00     0.252 C 
ATOM      5  O   UNL     1       0.675   5.112   2.731  1.00  0.00    -0.269 OA
ATOM      6  H   UNL     1      -1.501   4.225   2.416  1.00  0.00     0.163 HD
BRANCH   4   7
ATOM      7  C   UNL     1       0.387   5.094   5.056  1.00  0.00     0.052 A 
ATOM      8  C   UNL     1       0.293   4.226   6.154  1.00  0.00     0.052 A 
ATOM      9  C   UNL     1       0.708   4.663   7.427  1.00  0.00     0.014 A 
ATOM     10  C   UNL     1       1.311   5.907   7.593  1.00  0.00     0.001 A 
ATOM     11  C   UNL     1       1.042   6.330   5.234  1.00  0.00     0.014 A 
ATOM     12  C   UNL     1       1.506   6.729   6.490  1.00  0.00     0.001 A 
BRANCH   8  13
ATOM     13  C   UNL     1      -0.220   2.844   6.117  1.00  0.00     0.256 C 
ATOM     14  N   UNL     1       0.178   1.915   5.188  1.00  0.00    -0.322 N 
ATOM     15  H   UNL     1      -0.378   1.104   5.174  1.00  0.00     0.170 HD
ATOM     16  O   UNL     1      -1.102   2.542   6.924  1.00  0.00    -0.269 OA
BRANCH  14  17
ATOM     17  C   UNL     1       1.224   1.899   4.254  1.00  0.00     0.042 A 
ATOM     18  C   UNL     1       2.050   1.012   2.163  1.00  0.00     0.041 A 
ATOM     19  C   UNL     1       3.191   1.809   2.251  1.00  0.00     0.014 A 
ATOM     20  C   UNL     1       1.079   1.036   3.165  1.00  0.00     0.040 A 
ATOM     21  C   UNL     1       3.356   2.637   3.360  1.00  0.00     0.003 A 
ATOM     22  C   UNL     1       2.384   2.669   4.366  1.00  0.00     0.026 A 
BRANCH  18  23
ATOM     23  C   UNL     1       1.910   0.052   1.058  1.00  0.00     0.251 C 
ATOM     24  N   UNL     1       1.063   0.323   0.018  1.00  0.00    -0.346 N 
ATOM     25  H   UNL     1       0.877  -0.436  -0.581  1.00  0.00     0.164 HD
ATOM     26  O   UNL     1       2.538  -1.000   1.103  1.00  0.00    -0.269 OA
BRANCH  24  27
ATOM     27  C   UNL     1       0.395   1.573  -0.333  1.00  0.00     0.109 C 
ATOM     28  C   UNL     1       1.102   2.152  -1.565  1.00  0.00     0.036 C 
BRANCH  27  29
ATOM     29  C   UNL     1      -1.096   1.401  -0.609  1.00  0.00    -0.026 A 
ATOM     30  C   UNL     1      -1.879   2.543  -0.866  1.00  0.00     0.006 A 
ATOM     31  C   UNL     1      -1.736   0.151  -0.628  1.00  0.00     0.006 A 
ATOM     32  C   UNL     1      -3.245   2.437  -1.147  1.00  0.00     0.000 A 
ATOM     33  C   UNL     1      -3.105   0.047  -0.906  1.00  0.00     0.000 A 
ATOM     34  C   UNL     1      -3.859   1.189  -1.163  1.00  0.00     0.000 A 
ENDBRANCH  27  29
ENDBRANCH  24  27
ENDBRANCH  18  23
ENDBRANCH  14  17
ENDBRANCH   8  13
ENDBRANCH   4   7
ENDBRANCH   2   3
ENDBRANCH   1   2
BRANCH   1  35
ATOM     35  C   UNL     1      -3.784   2.843   2.384  1.00  0.00     0.002 C 
BRANCH  35  36
ATOM     36  C   UNL     1      -3.204   1.448   2.636  1.00  0.00     0.002 C 
BRANCH  36  37
ATOM     37  C   UNL     1      -3.841   0.625   3.751  1.00  0.00     0.021 C 
BRANCH  37  38
ATOM     38  C   UNL     1      -5.359   0.513   3.701  1.00  0.00     0.116 C 
BRANCH  38  39
ATOM     39  N   UNL     1      -5.880   0.078   2.414  1.00  0.00    -0.352 N 
ATOM     40  C   UNL     1      -6.947  -0.735   2.123  1.00  0.00     0.251 C 
ATOM     41  H   UNL     1      -5.391   0.419   1.631  1.00  0.00     0.163 HD
ATOM     42  O   UNL     1      -7.197  -1.016   0.954  1.00  0.00    -0.269 OA
BRANCH  40  43
ATOM     43  C   UNL     1      -7.768  -1.319   3.209  1.00  0.00     0.039 A 
ATOM     44  C   UNL     1      -8.164  -2.655   3.094  1.00  0.00     0.014 A 
ATOM     45  C   UNL     1      -8.135  -0.582   4.337  1.00  0.00     0.014 A 
ATOM     46  C   UNL     1      -8.857  -3.268   4.140  1.00  0.00     0.010 A 
ATOM     47  C   UNL     1      -8.746  -1.216   5.416  1.00  0.00     0.010 A 
ATOM     48  C   UNL     1      -9.114  -2.566   5.329  1.00  0.00    -0.014 A 
BRANCH  48  49
ATOM     49  C   UNL     1      -9.738  -3.248   6.491  1.00  0.00     0.031 A 
ATOM     50  C   UNL     1     -11.079  -2.816   7.010  1.00  0.00     0.074 A 
ATOM     51  C   UNL     1      -9.058  -4.228   7.117  1.00  0.00     0.049 A 
ATOM     52  N   UNL     1     -11.785  -3.314   7.994  1.00  0.00    -0.248 NA
ATOM     53  C   UNL     1     -11.695  -1.649   6.362  1.00  0.00     0.031 C 
ATOM     54  C   UNL     1      -7.707  -4.672   6.770  1.00  0.00     0.029 A 
ATOM     55  N   UNL     1      -9.407  -5.025   8.178  1.00  0.00    -0.354 N 
ATOM     56  C   UNL     1     -12.917  -2.515   8.090  1.00  0.00     0.074 A 
ATOM     57  C   UNL     1     -12.773  -1.463   7.107  1.00  0.00     0.031 C 
ATOM     58  C   UNL     1      -7.356  -5.684   7.578  1.00  0.00     0.029 A 
ATOM     59  C   UNL     1      -8.445  -5.945   8.513  1.00  0.00     0.049 A 
ATOM     60  H   UNL     1     -10.266  -4.945   8.654  1.00  0.00     0.167 HD
ATOM     61  C   UNL     1     -13.989  -2.662   8.905  1.00  0.00     0.037 A 
ATOM     62  C   UNL     1      -8.446  -6.902   9.460  1.00  0.00     0.037 A 
ATOM     63  C   UNL     1     -14.133  -3.724   9.867  1.00  0.00     0.049 A 
ATOM     64  C   UNL     1      -9.669  -7.087  10.312  1.00  0.00     0.074 A 
ATOM     65  C   UNL     1     -15.212  -4.012  10.683  1.00  0.00     0.029 A 
ATOM     66  N   UNL     1     -13.157  -4.670  10.148  1.00  0.00    -0.354 N 
ATOM     67  N   UNL     1     -10.782  -6.393  10.322  1.00  0.00    -0.248 NA
ATOM     68  C   UNL     1      -9.646  -8.200  11.270  1.00  0.00     0.031 C 
ATOM     69  C   UNL     1     -14.871  -5.104  11.491  1.00  0.00     0.029 A 
ATOM     70  C   UNL     1     -13.600  -5.530  11.141  1.00  0.00     0.049 A 
ATOM     71  H   UNL     1     -12.278  -4.723   9.706  1.00  0.00     0.167 HD
ATOM     72  C   UNL     1     -11.598  -6.994  11.269  1.00  0.00     0.074 A 
ATOM     73  C   UNL     1     -10.859  -8.123  11.798  1.00  0.00     0.031 C 
ATOM     74  C   UNL     1     -12.848  -6.643  11.664  1.00  0.00     0.037 A 
BRANCH  61  75
ATOM     75  C   UNL     1     -15.088  -1.643   8.786  1.00  0.00     0.064 A 
ATOM     76  C   UNL     1     -15.890  -1.552   7.637  1.00  0.00     0.173 A 
ATOM     77  C   UNL     1     -15.345  -0.746   9.834  1.00  0.00     0.173 A 
ATOM     78  F   UNL     1     -15.682  -2.378   6.601  1.00  0.00    -0.203 F 
ATOM     79  C   UNL     1     -16.875  -0.573   7.524  1.00  0.00     0.198 A 
ATOM     80  C   UNL     1     -16.354   0.210   9.731  1.00  0.00     0.198 A 
ATOM     81  F   UNL     1     -14.615  -0.791  10.959  1.00  0.00    -0.203 F 
ATOM     82  F   UNL     1     -17.580  -0.464   6.389  1.00  0.00    -0.200 F 
ATOM     83  C   UNL     1     -17.109   0.303   8.571  1.00  0.00     0.200 A 
ATOM     84  F   UNL     1     -16.587   1.048  10.750  1.00  0.00    -0.200 F 
ATOM     85  F   UNL     1     -18.054   1.247   8.460  1.00  0.00    -0.200 F 
ENDBRANCH  61  75
BRANCH  62  86
ATOM     86  C   UNL     1      -7.264  -7.792   9.597  1.00  0.00     0.064 A 
ATOM     87  C   UNL     1      -7.316  -9.127   9.173  1.00  0.00     0.173 A 
ATOM     88  C   UNL     1      -6.050  -7.315  10.109  1.00  0.00     0.173 A 
ATOM     89  F   UNL     1      -8.461  -9.633   8.691  1.00  0.00    -0.203 F 
ATOM     90  C   UNL     1      -6.199  -9.955   9.265  1.00  0.00     0.198 A 
ATOM     91  C   UNL     1      -4.926  -8.136  10.177  1.00  0.00     0.198 A 
ATOM     92  F   UNL     1      -5.947  -6.042  10.518  1.00  0.00    -0.203 F 
ATOM     93  F   UNL     1      -6.283 -11.235   8.879  1.00  0.00    -0.200 F 
ATOM     94  C   UNL     1      -5.003  -9.456   9.758  1.00  0.00     0.200 A 
ATOM     95  F   UNL     1      -3.767  -7.646  10.638  1.00  0.00    -0.200 F 
ATOM     96  F   UNL     1      -3.924 -10.248   9.831  1.00  0.00    -0.200 F 
ENDBRANCH  62  86
BRANCH  74  97
ATOM     97  C   UNL     1     -13.500  -7.504  12.708  1.00  0.00     0.064 A 
ATOM     98  C   UNL     1     -13.062  -7.505  14.041  1.00  0.00     0.173 A 
ATOM     99  C   UNL     1     -14.587  -8.325  12.373  1.00  0.00     0.173 A 
ATOM    100  F   UNL     1     -12.017  -6.749  14.409  1.00  0.00    -0.203 F 
ATOM    101  C   UNL     1     -13.667  -8.323  14.992  1.00  0.00     0.198 A 
ATOM    102  C   UNL     1     -15.210  -9.117  13.333  1.00  0.00     0.198 A 
ATOM    103  F   UNL     1     -15.050  -8.356  11.114  1.00  0.00    -0.203 F 
ATOM    104  F   UNL     1     -13.196  -8.350  16.246  1.00  0.00    -0.200 F 
ATOM    105  C   UNL     1     -14.743  -9.123  14.639  1.00  0.00     0.200 A 
ATOM    106  F   UNL     1     -16.258  -9.880  12.994  1.00  0.00    -0.200 F 
ATOM    107  F   UNL     1     -15.325  -9.909  15.556  1.00  0.00    -0.200 F 
ENDBRANCH  74  97
ENDBRANCH  48  49
ENDBRANCH  40  43
ENDBRANCH  38  39
ENDBRANCH  37  38
ENDBRANCH  36  37
ENDBRANCH  35  36
ENDBRANCH   1  35
TORSDOF 18
