REMARK SMILES C[C@@H](Sc1nc(-c2ccc3c(c2)OCO3)ccc1C#N)C(=O)NCCCCCCNC(=O)c1ccc(-c2c3nc(c(-c4c(F)c(F)c(F)c(F)c4F)c4ccc([nH]4)c(-c4c(F)c(F)c(F)c(F)c4F)c4nc(c(-c5c(F)c(F)c(F)c(F)c5F)c5ccc2[nH]5)C=C4)C=C3)cc1
REMARK SMILES IDX 26 1 25 2 24 3 23 4 21 5 22 6 2 8 1 9 3 10 4 11 5 12 18 13
REMARK SMILES IDX 6 14 17 15 16 16 19 17 20 18 7 19 8 20 12 21 9 22 11 23
REMARK SMILES IDX 10 24 13 25 15 26 14 27 27 28 28 29 29 30 30 31 31 32 32 34
REMARK SMILES IDX 33 35 34 36 95 37 35 38 94 39 36 40 37 41 38 42 88 43 39 44
REMARK SMILES IDX 93 45 87 46 89 47 40 48 92 49 86 50 85 51 41 53 73 54 53 55
REMARK SMILES IDX 72 56 54 57 57 58 71 59 90 60 55 61 56 62 70 64 91 65 58 66
REMARK SMILES IDX 42 67 43 68 51 69 44 70 45 71 49 72 52 73 46 74 47 75 50 76
REMARK SMILES IDX 48 77 74 78 75 79 83 80 76 81 77 82 81 83 84 84 78 85 79 86
REMARK SMILES IDX 82 87 80 88 59 89 60 90 68 91 61 92 62 93 66 94 69 95 63 96
REMARK SMILES IDX 64 97 67 98 65 99
REMARK H PARENT 23 7 30 33 89 52 57 63
REMARK Flexibility Score: inf
ROOT
ATOM      1  C   UNL     1      -3.093   2.658   0.769  1.00  0.00     0.002 C 
ENDROOT
BRANCH   1   2
ATOM      2  C   UNL     1      -1.587   2.404   0.653  1.00  0.00     0.021 C 
BRANCH   2   3
ATOM      3  C   UNL     1      -1.061   1.424   1.695  1.00  0.00     0.116 C 
BRANCH   3   4
ATOM      4  N   UNL     1      -1.528   0.080   1.412  1.00  0.00    -0.355 N 
ATOM      5  C   UNL     1      -0.825  -1.062   1.169  1.00  0.00     0.233 C 
ATOM      6  O   UNL     1      -1.469  -2.081   0.903  1.00  0.00    -0.274 OA
ATOM      7  H   UNL     1      -2.506  -0.023   1.392  1.00  0.00     0.163 HD
BRANCH   5   8
ATOM      8  C   UNL     1       0.706  -1.087   1.202  1.00  0.00     0.139 C 
ATOM      9  C   UNL     1       1.311  -0.275   0.060  1.00  0.00     0.030 C 
BRANCH   8  10
ATOM     10  S   UNL     1       1.248  -0.642   2.909  1.00  0.00    -0.092 SA
BRANCH  10  11
ATOM     11  C   UNL     1       3.014  -0.745   2.771  1.00  0.00     0.115 A 
ATOM     12  N   UNL     1       3.633   0.466   2.747  1.00  0.00    -0.240 NA
ATOM     13  C   UNL     1       3.712  -1.950   2.783  1.00  0.00     0.084 A 
ATOM     14  C   UNL     1       4.987   0.497   2.737  1.00  0.00     0.072 A 
ATOM     15  C   UNL     1       5.106  -1.900   2.786  1.00  0.00     0.024 A 
ATOM     16  C   UNL     1       5.750  -0.666   2.767  1.00  0.00     0.030 A 
BRANCH  13  17
ATOM     17  C   UNL     1       3.058  -3.223   2.802  1.00  0.00     0.102 C 
ATOM     18  N   UNL     1       2.555  -4.266   2.787  1.00  0.00    -0.192 NA
ENDBRANCH  13  17
BRANCH  14  19
ATOM     19  C   UNL     1       5.617   1.824   2.687  1.00  0.00     0.004 A 
ATOM     20  C   UNL     1       6.548   2.133   1.661  1.00  0.00     0.014 A 
ATOM     21  C   UNL     1       5.347   2.797   3.667  1.00  0.00     0.061 A 
ATOM     22  C   UNL     1       7.215   3.361   1.620  1.00  0.00     0.051 A 
ATOM     23  C   UNL     1       6.033   3.996   3.612  1.00  0.00     0.166 A 
ATOM     24  C   UNL     1       6.943   4.267   2.619  1.00  0.00     0.165 A 
ATOM     25  O   UNL     1       5.923   5.020   4.502  1.00  0.00    -0.454 OA
ATOM     26  O   UNL     1       7.517   5.491   2.755  1.00  0.00    -0.454 OA
ATOM     27  C   UNL     1       6.894   5.948   3.973  1.00  0.00     0.468 C 
ENDBRANCH  14  19
ENDBRANCH  10  11
ENDBRANCH   8  10
ENDBRANCH   5   8
ENDBRANCH   3   4
ENDBRANCH   2   3
ENDBRANCH   1   2
BRANCH   1  28
ATOM     28  C   UNL     1      -3.546   3.174   2.140  1.00  0.00     0.002 C 
BRANCH  28  29
ATOM     29  C   UNL     1      -2.804   4.420   2.626  1.00  0.00     0.021 C 
BRANCH  29  30
ATOM     30  C   UNL     1      -2.906   5.607   1.677  1.00  0.00     0.116 C 
BRANCH  30  31
ATOM     31  N   UNL     1      -4.281   6.054   1.522  1.00  0.00    -0.352 N 
ATOM     32  C   UNL     1      -4.818   7.296   1.745  1.00  0.00     0.251 C 
ATOM     33  H   UNL     1      -4.917   5.369   1.212  1.00  0.00     0.163 HD
ATOM     34  O   UNL     1      -6.034   7.449   1.791  1.00  0.00    -0.269 OA
BRANCH  32  35
ATOM     35  C   UNL     1      -3.918   8.450   1.946  1.00  0.00     0.039 A 
ATOM     36  C   UNL     1      -4.204   9.361   2.964  1.00  0.00     0.014 A 
ATOM     37  C   UNL     1      -2.795   8.628   1.133  1.00  0.00     0.014 A 
ATOM     38  C   UNL     1      -3.332  10.424   3.200  1.00  0.00     0.010 A 
ATOM     39  C   UNL     1      -1.881   9.634   1.428  1.00  0.00     0.010 A 
ATOM     40  C   UNL     1      -2.145  10.549   2.458  1.00  0.00    -0.014 A 
BRANCH  40  41
ATOM     41  C   UNL     1      -1.176  11.638   2.740  1.00  0.00     0.031 A 
ATOM     42  C   UNL     1      -0.863  12.662   1.683  1.00  0.00     0.074 A 
ATOM     43  C   UNL     1      -0.546  11.679   3.931  1.00  0.00     0.049 A 
ATOM     44  N   UNL     1      -0.003  13.648   1.715  1.00  0.00    -0.248 NA
ATOM     45  C   UNL     1      -1.597  12.551   0.412  1.00  0.00     0.031 C 
ATOM     46  C   UNL     1      -0.735  10.721   5.022  1.00  0.00     0.029 A 
ATOM     47  N   UNL     1       0.388  12.559   4.421  1.00  0.00    -0.354 N 
ATOM     48  C   UNL     1      -0.094  14.270   0.477  1.00  0.00     0.074 A 
ATOM     49  C   UNL     1      -1.040  13.511  -0.310  1.00  0.00     0.031 C 
ATOM     50  C   UNL     1       0.037  11.079   6.060  1.00  0.00     0.029 A 
ATOM     51  C   UNL     1       0.814  12.258   5.693  1.00  0.00     0.049 A 
ATOM     52  H   UNL     1       0.720  13.332   3.911  1.00  0.00     0.167 HD
ATOM     53  C   UNL     1       0.531  15.391   0.047  1.00  0.00     0.037 A 
ATOM     54  C   UNL     1       1.742  12.854   6.466  1.00  0.00     0.037 A 
ATOM     55  C   UNL     1       1.467  16.148   0.836  1.00  0.00     0.049 A 
ATOM     56  C   UNL     1       2.459  14.071   5.939  1.00  0.00     0.074 A 
ATOM     57  C   UNL     1       2.131  17.314   0.500  1.00  0.00     0.029 A 
ATOM     58  N   UNL     1       1.873  15.812   2.119  1.00  0.00    -0.354 N 
ATOM     59  N   UNL     1       2.319  14.684   4.788  1.00  0.00    -0.248 NA
ATOM     60  C   UNL     1       3.460  14.684   6.823  1.00  0.00     0.031 C 
ATOM     61  C   UNL     1       2.987  17.649   1.552  1.00  0.00     0.029 A 
ATOM     62  C   UNL     1       2.799  16.736   2.577  1.00  0.00     0.049 A 
ATOM     63  H   UNL     1       1.552  15.033   2.628  1.00  0.00     0.167 HD
ATOM     64  C   UNL     1       3.180  15.773   4.828  1.00  0.00     0.074 A 
ATOM     65  C   UNL     1       3.824  15.748   6.123  1.00  0.00     0.031 C 
ATOM     66  C   UNL     1       3.418  16.710   3.877  1.00  0.00     0.037 A 
BRANCH  53  67
ATOM     67  C   UNL     1       0.222  15.879  -1.340  1.00  0.00     0.064 A 
ATOM     68  C   UNL     1      -1.035  16.411  -1.667  1.00  0.00     0.173 A 
ATOM     69  C   UNL     1       1.212  15.880  -2.334  1.00  0.00     0.173 A 
ATOM     70  F   UNL     1      -2.021  16.424  -0.757  1.00  0.00    -0.203 F 
ATOM     71  C   UNL     1      -1.295  16.906  -2.942  1.00  0.00     0.198 A 
ATOM     72  C   UNL     1       0.960  16.409  -3.597  1.00  0.00     0.198 A 
ATOM     73  F   UNL     1       2.433  15.389  -2.074  1.00  0.00    -0.203 F 
ATOM     74  F   UNL     1      -2.515  17.370  -3.243  1.00  0.00    -0.200 F 
ATOM     75  C   UNL     1      -0.294  16.916  -3.902  1.00  0.00     0.200 A 
ATOM     76  F   UNL     1       1.934  16.434  -4.517  1.00  0.00    -0.200 F 
ATOM     77  F   UNL     1      -0.539  17.412  -5.123  1.00  0.00    -0.200 F 
ENDBRANCH  53  67
BRANCH  54  78
ATOM     78  C   UNL     1       2.062  12.314   7.816  1.00  0.00     0.064 A 
ATOM     79  C   UNL     1       1.820  13.066   8.976  1.00  0.00     0.173 A 
ATOM     80  C   UNL     1       2.669  11.059   7.973  1.00  0.00     0.173 A 
ATOM     81  F   UNL     1       1.258  14.280   8.881  1.00  0.00    -0.203 F 
ATOM     82  C   UNL     1       2.217  12.606  10.230  1.00  0.00     0.198 A 
ATOM     83  C   UNL     1       3.027  10.582   9.232  1.00  0.00     0.198 A 
ATOM     84  F   UNL     1       2.919  10.293   6.900  1.00  0.00    -0.203 F 
ATOM     85  F   UNL     1       2.049  13.383  11.309  1.00  0.00    -0.200 F 
ATOM     86  C   UNL     1       2.818  11.363  10.357  1.00  0.00     0.200 A 
ATOM     87  F   UNL     1       3.590   9.372   9.351  1.00  0.00    -0.200 F 
ATOM     88  F   UNL     1       3.210  10.926  11.562  1.00  0.00    -0.200 F 
ENDBRANCH  54  78
BRANCH  66  89
ATOM     89  C   UNL     1       4.369  17.822   4.221  1.00  0.00     0.064 A 
ATOM     90  C   UNL     1       5.743  17.599   4.394  1.00  0.00     0.173 A 
ATOM     91  C   UNL     1       3.900  19.140   4.342  1.00  0.00     0.173 A 
ATOM     92  F   UNL     1       6.244  16.358   4.301  1.00  0.00    -0.203 F 
ATOM     93  C   UNL     1       6.604  18.647   4.710  1.00  0.00     0.198 A 
ATOM     94  C   UNL     1       4.769  20.191   4.616  1.00  0.00     0.198 A 
ATOM     95  F   UNL     1       2.596  19.412   4.176  1.00  0.00    -0.203 F 
ATOM     96  F   UNL     1       7.903  18.400   4.932  1.00  0.00    -0.200 F 
ATOM     97  C   UNL     1       6.119  19.942   4.812  1.00  0.00     0.200 A 
ATOM     98  F   UNL     1       4.301  21.444   4.692  1.00  0.00    -0.200 F 
ATOM     99  F   UNL     1       6.951  20.950   5.105  1.00  0.00    -0.200 F 
ENDBRANCH  66  89
ENDBRANCH  40  41
ENDBRANCH  32  35
ENDBRANCH  30  31
ENDBRANCH  29  30
ENDBRANCH  28  29
ENDBRANCH   1  28
TORSDOF 17
