REMARK SMILES COCCN(C(=O)N1CC[C@H](C(=O)NCCCCCCNC(=O)c2ccc(-c3c4nc(c(-c5c(F)c(F)c(F)c(F)c5F)c5ccc([nH]5)c(-c5c(F)c(F)c(F)c(F)c5F)c5nc(c(-c6c(F)c(F)c(F)c(F)c6F)c6ccc3[nH]6)C=C5)C=C4)cc2)[C@H]1C)[C@@H](C)COC
REMARK SMILES IDX 16 1 15 2 14 3 12 4 13 5 11 7 8 8 9 9 87 10 10 11 88 12 6 13
REMARK SMILES IDX 7 14 5 15 4 16 3 17 2 18 1 19 89 20 90 21 91 22 92 23 93 24
REMARK SMILES IDX 17 25 18 26 19 27 20 28 21 29 22 30 23 32 24 33 25 34 86 35
REMARK SMILES IDX 26 36 85 37 27 38 28 39 29 40 79 41 30 42 84 43 78 44 80 45
REMARK SMILES IDX 31 46 83 47 77 48 76 49 32 51 64 52 44 53 63 54 45 55 48 56
REMARK SMILES IDX 62 57 81 58 46 59 47 60 61 62 82 63 49 64 33 65 34 66 42 67
REMARK SMILES IDX 35 68 36 69 40 70 43 71 37 72 38 73 41 74 39 75 65 76 66 77
REMARK SMILES IDX 74 78 67 79 68 80 72 81 75 82 69 83 70 84 73 85 71 86 50 87
REMARK SMILES IDX 51 88 59 89 52 90 53 91 57 92 60 93 54 94 55 95 58 96 56 97
REMARK H PARENT 14 6 21 31 80 50 48 61
REMARK Flexibility Score: inf
ROOT
ATOM      1  C   UNL     1      -1.170   2.481   6.701  1.00  0.00     0.021 C 
ENDROOT
BRANCH   1   2
ATOM      2  C   UNL     1      -0.449   3.820   6.882  1.00  0.00     0.116 C 
BRANCH   2   3
ATOM      3  N   UNL     1       0.878   3.586   7.408  1.00  0.00    -0.356 N 
ATOM      4  C   UNL     1       2.086   3.539   6.786  1.00  0.00     0.225 C 
ATOM      5  O   UNL     1       3.035   3.113   7.448  1.00  0.00    -0.275 OA
ATOM      6  H   UNL     1       0.912   3.434   8.380  1.00  0.00     0.163 HD
BRANCH   4   7
ATOM      7  C   UNL     1       2.278   4.169   5.410  1.00  0.00     0.102 C 
ATOM      8  N   UNL     1       2.279   2.543   3.632  1.00  0.00    -0.321 N 
ATOM      9  C   UNL     1       3.626   2.630   4.214  1.00  0.00     0.122 C 
ATOM     10  C   UNL     1       1.447   3.605   4.231  1.00  0.00     0.096 C 
ATOM     11  C   UNL     1       3.708   3.983   4.894  1.00  0.00     0.037 C 
ATOM     12  C   UNL     1       1.186   4.777   3.268  1.00  0.00     0.032 C 
BRANCH   8  13
ATOM     13  C   UNL     1       1.830   1.245   3.417  1.00  0.00     0.320 C 
ATOM     14  O   UNL     1       2.312   0.324   4.082  1.00  0.00    -0.248 OA
BRANCH  13  15
ATOM     15  N   UNL     1       0.925   0.978   2.387  1.00  0.00    -0.317 N 
BRANCH  15  16
ATOM     16  C   UNL     1       0.204   1.988   1.591  1.00  0.00     0.150 C 
BRANCH  16  17
ATOM     17  C   UNL     1       0.979   2.709   0.476  1.00  0.00     0.181 C 
BRANCH  17  18
ATOM     18  O   UNL     1       0.363   2.558  -0.812  1.00  0.00    -0.383 OA
ATOM     19  C   UNL     1       0.685   1.346  -1.472  1.00  0.00     0.194 C 
ENDBRANCH  17  18
ENDBRANCH  16  17
ENDBRANCH  15  16
BRANCH  15  20
ATOM     20  C   UNL     1       0.636  -0.478   2.161  1.00  0.00     0.109 C 
ATOM     21  C   UNL     1      -0.850  -0.775   1.911  1.00  0.00     0.033 C 
BRANCH  20  22
ATOM     22  C   UNL     1       1.501  -1.198   1.087  1.00  0.00     0.184 C 
BRANCH  22  23
ATOM     23  O   UNL     1       2.910  -1.221   1.297  1.00  0.00    -0.383 OA
ATOM     24  C   UNL     1       3.583  -0.027   0.940  1.00  0.00     0.194 C 
ENDBRANCH  22  23
ENDBRANCH  20  22
ENDBRANCH  15  20
ENDBRANCH  13  15
ENDBRANCH   8  13
ENDBRANCH   4   7
ENDBRANCH   2   3
ENDBRANCH   1   2
BRANCH   1  25
ATOM     25  C   UNL     1      -1.532   1.803   8.032  1.00  0.00     0.002 C 
BRANCH  25  26
ATOM     26  C   UNL     1      -2.474   2.614   8.929  1.00  0.00     0.002 C 
BRANCH  26  27
ATOM     27  C   UNL     1      -3.799   3.002   8.271  1.00  0.00     0.021 C 
BRANCH  27  28
ATOM     28  C   UNL     1      -4.649   1.812   7.836  1.00  0.00     0.116 C 
BRANCH  28  29
ATOM     29  N   UNL     1      -5.099   1.022   8.973  1.00  0.00    -0.352 N 
ATOM     30  C   UNL     1      -6.379   0.745   9.389  1.00  0.00     0.251 C 
ATOM     31  H   UNL     1      -4.383   0.630   9.523  1.00  0.00     0.163 HD
ATOM     32  O   UNL     1      -6.585   0.249  10.488  1.00  0.00    -0.269 OA
BRANCH  30  33
ATOM     33  C   UNL     1      -7.513   1.078   8.503  1.00  0.00     0.039 A 
ATOM     34  C   UNL     1      -8.602   1.775   9.030  1.00  0.00     0.014 A 
ATOM     35  C   UNL     1      -7.482   0.729   7.150  1.00  0.00     0.014 A 
ATOM     36  C   UNL     1      -9.620   2.206   8.178  1.00  0.00     0.010 A 
ATOM     37  C   UNL     1      -8.462   1.218   6.292  1.00  0.00     0.010 A 
ATOM     38  C   UNL     1      -9.529   1.978   6.795  1.00  0.00    -0.014 A 
BRANCH  38  39
ATOM     39  C   UNL     1     -10.501   2.580   5.848  1.00  0.00     0.031 A 
ATOM     40  C   UNL     1     -11.385   1.707   5.008  1.00  0.00     0.074 A 
ATOM     41  C   UNL     1     -10.515   3.918   5.683  1.00  0.00     0.049 A 
ATOM     42  N   UNL     1     -12.213   2.045   4.051  1.00  0.00    -0.248 NA
ATOM     43  C   UNL     1     -11.314   0.259   5.258  1.00  0.00     0.031 C 
ATOM     44  C   UNL     1      -9.674   4.867   6.415  1.00  0.00     0.029 A 
ATOM     45  N   UNL     1     -11.247   4.710   4.834  1.00  0.00    -0.354 N 
ATOM     46  C   UNL     1     -12.754   0.856   3.583  1.00  0.00     0.074 A 
ATOM     47  C   UNL     1     -12.125  -0.216   4.324  1.00  0.00     0.031 C 
ATOM     48  C   UNL     1      -9.947   6.112   5.994  1.00  0.00     0.029 A 
ATOM     49  C   UNL     1     -10.942   6.046   4.929  1.00  0.00     0.049 A 
ATOM     50  H   UNL     1     -11.926   4.354   4.216  1.00  0.00     0.167 HD
ATOM     51  C   UNL     1     -13.703   0.680   2.632  1.00  0.00     0.037 A 
ATOM     52  C   UNL     1     -11.394   7.098   4.220  1.00  0.00     0.037 A 
ATOM     53  C   UNL     1     -14.331   1.753   1.906  1.00  0.00     0.049 A 
ATOM     54  C   UNL     1     -12.410   6.868   3.134  1.00  0.00     0.074 A 
ATOM     55  C   UNL     1     -15.350   1.682   0.972  1.00  0.00     0.029 A 
ATOM     56  N   UNL     1     -13.989   3.093   2.022  1.00  0.00    -0.354 N 
ATOM     57  N   UNL     1     -12.973   5.747   2.752  1.00  0.00    -0.248 NA
ATOM     58  C   UNL     1     -12.850   8.047   2.376  1.00  0.00     0.031 C 
ATOM     59  C   UNL     1     -15.581   2.969   0.476  1.00  0.00     0.029 A 
ATOM     60  C   UNL     1     -14.747   3.852   1.143  1.00  0.00     0.049 A 
ATOM     61  H   UNL     1     -13.309   3.452   2.637  1.00  0.00     0.167 HD
ATOM     62  C   UNL     1     -13.843   6.087   1.726  1.00  0.00     0.074 A 
ATOM     63  C   UNL     1     -13.752   7.522   1.559  1.00  0.00     0.031 C 
ATOM     64  C   UNL     1     -14.641   5.280   0.984  1.00  0.00     0.037 A 
BRANCH  51  65
ATOM     65  C   UNL     1     -14.120  -0.728   2.314  1.00  0.00     0.064 A 
ATOM     66  C   UNL     1     -14.850  -1.504   3.227  1.00  0.00     0.173 A 
ATOM     67  C   UNL     1     -13.829  -1.290   1.062  1.00  0.00     0.173 A 
ATOM     68  F   UNL     1     -15.148  -1.018   4.441  1.00  0.00    -0.203 F 
ATOM     69  C   UNL     1     -15.248  -2.800   2.909  1.00  0.00     0.198 A 
ATOM     70  C   UNL     1     -14.256  -2.574   0.735  1.00  0.00     0.198 A 
ATOM     71  F   UNL     1     -13.140  -0.589   0.149  1.00  0.00    -0.203 F 
ATOM     72  F   UNL     1     -15.903  -3.540   3.814  1.00  0.00    -0.200 F 
ATOM     73  C   UNL     1     -14.958  -3.331   1.661  1.00  0.00     0.200 A 
ATOM     74  F   UNL     1     -13.989  -3.079  -0.477  1.00  0.00    -0.200 F 
ATOM     75  F   UNL     1     -15.351  -4.574   1.352  1.00  0.00    -0.200 F 
ENDBRANCH  51  65
BRANCH  52  76
ATOM     76  C   UNL     1     -10.883   8.465   4.508  1.00  0.00     0.064 A 
ATOM     77  C   UNL     1     -11.721   9.447   5.053  1.00  0.00     0.173 A 
ATOM     78  C   UNL     1      -9.552   8.819   4.241  1.00  0.00     0.173 A 
ATOM     79  F   UNL     1     -13.008   9.164   5.307  1.00  0.00    -0.203 F 
ATOM     80  C   UNL     1     -11.254  10.737   5.300  1.00  0.00     0.198 A 
ATOM     81  C   UNL     1      -9.078  10.099   4.518  1.00  0.00     0.198 A 
ATOM     82  F   UNL     1      -8.707   7.916   3.723  1.00  0.00    -0.203 F 
ATOM     83  F   UNL     1     -12.090  11.670   5.775  1.00  0.00    -0.200 F 
ATOM     84  C   UNL     1      -9.931  11.060   5.039  1.00  0.00     0.200 A 
ATOM     85  F   UNL     1      -7.794  10.402   4.280  1.00  0.00    -0.200 F 
ATOM     86  F   UNL     1      -9.481  12.298   5.281  1.00  0.00    -0.200 F 
ENDBRANCH  52  76
BRANCH  64  87
ATOM     87  C   UNL     1     -15.487   5.930  -0.073  1.00  0.00     0.064 A 
ATOM     88  C   UNL     1     -14.921   6.447  -1.249  1.00  0.00     0.173 A 
ATOM     89  C   UNL     1     -16.882   5.989   0.064  1.00  0.00     0.173 A 
ATOM     90  F   UNL     1     -13.590   6.431  -1.420  1.00  0.00    -0.203 F 
ATOM     91  C   UNL     1     -15.719   7.013  -2.239  1.00  0.00     0.198 A 
ATOM     92  C   UNL     1     -17.680   6.527  -0.942  1.00  0.00     0.198 A 
ATOM     93  F   UNL     1     -17.474   5.505   1.167  1.00  0.00    -0.203 F 
ATOM     94  F   UNL     1     -15.152   7.538  -3.334  1.00  0.00    -0.200 F 
ATOM     95  C   UNL     1     -17.098   7.043  -2.090  1.00  0.00     0.200 A 
ATOM     96  F   UNL     1     -19.012   6.541  -0.803  1.00  0.00    -0.200 F 
ATOM     97  F   UNL     1     -17.865   7.575  -3.050  1.00  0.00    -0.200 F 
ENDBRANCH  64  87
ENDBRANCH  38  39
ENDBRANCH  30  33
ENDBRANCH  28  29
ENDBRANCH  27  28
ENDBRANCH  26  27
ENDBRANCH  25  26
ENDBRANCH   1  25
TORSDOF 21
