REMARK SMILES CCCC[C@H](C(=O)NCCCCCCNC(=O)c1ccc(-c2c3nc(c(-c4c(F)c(F)c(F)c(F)c4F)c4ccc([nH]4)c(-c4c(F)c(F)c(F)c(F)c4F)c4nc(c(-c5c(F)c(F)c(F)c(F)c5F)c5ccc2[nH]5)C=C4)C=C3)cc1)[C@H](O)c1ccc(C(F)(F)F)cc1
REMARK SMILES IDX 11 1 10 2 9 3 8 4 6 5 7 6 5 8 4 9 3 10 2 11 1 12 81 13 83 14
REMARK SMILES IDX 84 15 92 16 85 17 91 18 86 19 87 20 88 21 89 22 90 23 82 24
REMARK SMILES IDX 12 26 13 27 14 28 15 29 16 30 17 32 18 33 19 34 80 35 20 36
REMARK SMILES IDX 79 37 21 38 22 39 23 40 73 41 24 42 78 43 72 44 74 45 25 46
REMARK SMILES IDX 77 47 71 48 70 49 26 51 58 52 38 53 57 54 39 55 42 56 56 57
REMARK SMILES IDX 75 58 40 59 41 60 55 62 76 63 43 64 27 65 28 66 36 67 29 68
REMARK SMILES IDX 30 69 34 70 37 71 31 72 32 73 35 74 33 75 59 76 60 77 68 78
REMARK SMILES IDX 61 79 62 80 66 81 69 82 63 83 64 84 67 85 65 86 44 87 45 88
REMARK SMILES IDX 53 89 46 90 47 91 51 92 54 93 48 94 49 95 52 96 50 97
REMARK H PARENT 8 7 82 25 15 31 74 50 42 61
REMARK Flexibility Score: inf
ROOT
ATOM      1  C   UNL     1       1.932   8.169   0.430  1.00  0.00     0.002 C 
ENDROOT
BRANCH   1   2
ATOM      2  C   UNL     1       1.746   6.652   0.508  1.00  0.00     0.021 C 
BRANCH   2   3
ATOM      3  C   UNL     1       0.325   6.203   0.856  1.00  0.00     0.116 C 
BRANCH   3   4
ATOM      4  N   UNL     1      -0.484   6.053  -0.334  1.00  0.00    -0.356 N 
ATOM      5  C   UNL     1      -1.070   4.971  -0.905  1.00  0.00     0.226 C 
ATOM      6  O   UNL     1      -1.637   5.169  -1.985  1.00  0.00    -0.275 OA
ATOM      7  H   UNL     1      -0.637   6.894  -0.822  1.00  0.00     0.163 HD
BRANCH   5   8
ATOM      8  C   UNL     1      -1.067   3.564  -0.298  1.00  0.00     0.111 C 
BRANCH   8   9
ATOM      9  C   UNL     1       0.268   2.790  -0.485  1.00  0.00     0.016 C 
BRANCH   9  10
ATOM     10  C   UNL     1       1.524   3.048   0.359  1.00  0.00     0.001 C 
BRANCH  10  11
ATOM     11  C   UNL     1       1.468   2.803   1.868  1.00  0.00    -0.003 C 
ATOM     12  C   UNL     1       1.405   1.331   2.246  1.00  0.00     0.004 C 
ENDBRANCH  10  11
ENDBRANCH   9  10
ENDBRANCH   8   9
BRANCH   8  13
ATOM     13  C   UNL     1      -1.798   3.484   1.055  1.00  0.00     0.157 C 
BRANCH  13  14
ATOM     14  C   UNL     1      -3.320   3.539   0.959  1.00  0.00    -0.019 A 
ATOM     15  C   UNL     1      -3.988   4.770   1.015  1.00  0.00     0.007 A 
ATOM     16  C   UNL     1      -4.094   2.369   0.864  1.00  0.00     0.007 A 
ATOM     17  C   UNL     1      -5.386   4.824   1.042  1.00  0.00     0.013 A 
ATOM     18  C   UNL     1      -5.489   2.421   0.897  1.00  0.00     0.013 A 
ATOM     19  C   UNL     1      -6.151   3.648   1.008  1.00  0.00     0.056 A 
BRANCH  19  20
ATOM     20  C   UNL     1      -7.654   3.710   1.118  1.00  0.00     0.416 C 
ATOM     21  F   UNL     1      -8.065   4.330   2.260  1.00  0.00    -0.166 F 
ATOM     22  F   UNL     1      -8.229   4.396   0.093  1.00  0.00    -0.166 F 
ATOM     23  F   UNL     1      -8.252   2.485   1.129  1.00  0.00    -0.166 F 
ENDBRANCH  19  20
ENDBRANCH  13  14
BRANCH  13  24
ATOM     24  O   UNL     1      -1.468   2.286   1.761  1.00  0.00    -0.388 OA
ATOM     25  H   UNL     1      -1.788   1.518   1.263  1.00  0.00     0.211 HD
ENDBRANCH  13  24
ENDBRANCH   8  13
ENDBRANCH   5   8
ENDBRANCH   3   4
ENDBRANCH   2   3
ENDBRANCH   1   2
BRANCH   1  26
ATOM     26  C   UNL     1       1.708   8.921   1.746  1.00  0.00     0.002 C 
BRANCH  26  27
ATOM     27  C   UNL     1       2.497   8.398   2.950  1.00  0.00     0.021 C 
BRANCH  27  28
ATOM     28  C   UNL     1       4.011   8.338   2.756  1.00  0.00     0.116 C 
BRANCH  28  29
ATOM     29  N   UNL     1       4.583   9.648   2.488  1.00  0.00    -0.352 N 
ATOM     30  C   UNL     1       5.491  10.377   3.214  1.00  0.00     0.251 C 
ATOM     31  H   UNL     1       4.271  10.078   1.659  1.00  0.00     0.163 HD
ATOM     32  O   UNL     1       5.702  11.553   2.938  1.00  0.00    -0.269 OA
BRANCH  30  33
ATOM     33  C   UNL     1       6.206   9.751   4.346  1.00  0.00     0.039 A 
ATOM     34  C   UNL     1       6.287  10.441   5.558  1.00  0.00     0.014 A 
ATOM     35  C   UNL     1       6.803   8.495   4.209  1.00  0.00     0.014 A 
ATOM     36  C   UNL     1       6.899   9.838   6.659  1.00  0.00     0.010 A 
ATOM     37  C   UNL     1       7.362   7.870   5.322  1.00  0.00     0.010 A 
ATOM     38  C   UNL     1       7.402   8.531   6.559  1.00  0.00    -0.014 A 
BRANCH  38  39
ATOM     39  C   UNL     1       7.930   7.817   7.748  1.00  0.00     0.031 A 
ATOM     40  C   UNL     1       9.379   7.431   7.825  1.00  0.00     0.074 A 
ATOM     41  C   UNL     1       7.077   7.441   8.720  1.00  0.00     0.049 A 
ATOM     42  N   UNL     1       9.998   6.719   8.733  1.00  0.00    -0.248 NA
ATOM     43  C   UNL     1      10.242   7.886   6.724  1.00  0.00     0.031 C 
ATOM     44  C   UNL     1       5.640   7.721   8.737  1.00  0.00     0.029 A 
ATOM     45  N   UNL     1       7.288   6.724   9.872  1.00  0.00    -0.354 N 
ATOM     46  C   UNL     1      11.317   6.632   8.309  1.00  0.00     0.074 A 
ATOM     47  C   UNL     1      11.401   7.325   7.042  1.00  0.00     0.031 C 
ATOM     48  C   UNL     1       5.101   7.192   9.846  1.00  0.00     0.029 A 
ATOM     49  C   UNL     1       6.144   6.500  10.598  1.00  0.00     0.049 A 
ATOM     50  H   UNL     1       8.176   6.402  10.151  1.00  0.00     0.167 HD
ATOM     51  C   UNL     1      12.364   6.041   8.933  1.00  0.00     0.037 A 
ATOM     52  C   UNL     1       5.952   5.798  11.730  1.00  0.00     0.037 A 
ATOM     53  C   UNL     1      12.278   5.370  10.204  1.00  0.00     0.049 A 
ATOM     54  C   UNL     1       7.126   5.124  12.385  1.00  0.00     0.074 A 
ATOM     55  C   UNL     1      13.297   4.811  10.956  1.00  0.00     0.029 A 
ATOM     56  N   UNL     1      11.101   5.158  10.907  1.00  0.00    -0.354 N 
ATOM     57  N   UNL     1       8.383   5.112  12.014  1.00  0.00    -0.248 NA
ATOM     58  C   UNL     1       6.854   4.362  13.612  1.00  0.00     0.031 C 
ATOM     59  C   UNL     1      12.730   4.217  12.088  1.00  0.00     0.029 A 
ATOM     60  C   UNL     1      11.363   4.444  12.065  1.00  0.00     0.049 A 
ATOM     61  H   UNL     1      10.210   5.469  10.624  1.00  0.00     0.167 HD
ATOM     62  C   UNL     1       9.054   4.357  12.966  1.00  0.00     0.074 A 
ATOM     63  C   UNL     1       8.068   3.944  13.943  1.00  0.00     0.031 C 
ATOM     64  C   UNL     1      10.369   4.033  13.023  1.00  0.00     0.037 A 
BRANCH  51  65
ATOM     65  C   UNL     1      13.700   6.092   8.251  1.00  0.00     0.064 A 
ATOM     66  C   UNL     1      14.430   7.286   8.152  1.00  0.00     0.173 A 
ATOM     67  C   UNL     1      14.279   4.924   7.732  1.00  0.00     0.173 A 
ATOM     68  F   UNL     1      13.916   8.432   8.625  1.00  0.00    -0.203 F 
ATOM     69  C   UNL     1      15.678   7.314   7.537  1.00  0.00     0.198 A 
ATOM     70  C   UNL     1      15.540   4.950   7.142  1.00  0.00     0.198 A 
ATOM     71  F   UNL     1      13.627   3.754   7.806  1.00  0.00    -0.203 F 
ATOM     72  F   UNL     1      16.338   8.474   7.417  1.00  0.00    -0.200 F 
ATOM     73  C   UNL     1      16.236   6.146   7.039  1.00  0.00     0.200 A 
ATOM     74  F   UNL     1      16.083   3.818   6.673  1.00  0.00    -0.200 F 
ATOM     75  F   UNL     1      17.442   6.173   6.455  1.00  0.00    -0.200 F 
ENDBRANCH  51  65
BRANCH  52  76
ATOM     76  C   UNL     1       4.591   5.700  12.317  1.00  0.00     0.064 A 
ATOM     77  C   UNL     1       4.277   6.351  13.518  1.00  0.00     0.173 A 
ATOM     78  C   UNL     1       3.577   4.960  11.691  1.00  0.00     0.173 A 
ATOM     79  F   UNL     1       5.220   7.052  14.165  1.00  0.00    -0.203 F 
ATOM     80  C   UNL     1       3.004   6.256  14.076  1.00  0.00     0.198 A 
ATOM     81  C   UNL     1       2.297   4.888  12.236  1.00  0.00     0.198 A 
ATOM     82  F   UNL     1       3.825   4.321  10.538  1.00  0.00    -0.203 F 
ATOM     83  F   UNL     1       2.742   6.857  15.245  1.00  0.00    -0.200 F 
ATOM     84  C   UNL     1       2.014   5.531  13.432  1.00  0.00     0.200 A 
ATOM     85  F   UNL     1       1.339   4.198  11.603  1.00  0.00    -0.200 F 
ATOM     86  F   UNL     1       0.788   5.446  13.966  1.00  0.00    -0.200 F 
ENDBRANCH  52  76
BRANCH  64  87
ATOM     87  C   UNL     1      10.819   3.192  14.181  1.00  0.00     0.064 A 
ATOM     88  C   UNL     1      10.511   1.826  14.253  1.00  0.00     0.173 A 
ATOM     89  C   UNL     1      11.605   3.745  15.202  1.00  0.00     0.173 A 
ATOM     90  F   UNL     1       9.747   1.255  13.310  1.00  0.00    -0.203 F 
ATOM     91  C   UNL     1      10.963   1.047  15.315  1.00  0.00     0.198 A 
ATOM     92  C   UNL     1      12.078   2.958  16.248  1.00  0.00     0.198 A 
ATOM     93  F   UNL     1      11.930   5.047  15.176  1.00  0.00    -0.203 F 
ATOM     94  F   UNL     1      10.625  -0.248  15.384  1.00  0.00    -0.200 F 
ATOM     95  C   UNL     1      11.752   1.611  16.306  1.00  0.00     0.200 A 
ATOM     96  F   UNL     1      12.850   3.501  17.198  1.00  0.00    -0.200 F 
ATOM     97  F   UNL     1      12.195   0.857  17.322  1.00  0.00    -0.200 F 
ENDBRANCH  64  87
ENDBRANCH  38  39
ENDBRANCH  30  33
ENDBRANCH  28  29
ENDBRANCH  27  28
ENDBRANCH  26  27
ENDBRANCH   1  26
TORSDOF 20
