REMARK SMILES COc1cc(NC(=O)[C@@H]2CC=CC[C@H]2C(=O)NCCCCCCNC(=O)c2ccc(-c3c4nc(c(-c5c(F)c(F)c(F)c(F)c5F)c5ccc([nH]5)c(-c5c(F)c(F)c(F)c(F)c5F)c5nc(c(-c6c(F)c(F)c(F)c(F)c6F)c6ccc3[nH]6)C=C5)C=C4)cc2)c(OC)cc1Cl
REMARK SMILES IDX 20 1 19 2 18 3 17 4 15 5 16 6 14 8 9 9 10 10 11 11 13 12
REMARK SMILES IDX 12 13 7 14 6 15 8 17 5 18 3 19 4 20 94 21 93 22 95 23 90 24
REMARK SMILES IDX 2 25 1 26 91 27 92 28 21 29 22 30 23 31 24 32 25 33 26 35
REMARK SMILES IDX 27 36 28 37 89 38 29 39 88 40 30 41 31 42 32 43 82 44 33 45
REMARK SMILES IDX 87 46 81 47 83 48 34 49 86 50 80 51 79 52 35 54 67 55 47 56
REMARK SMILES IDX 66 57 48 58 51 59 65 60 84 61 49 62 50 63 64 65 85 66 52 67
REMARK SMILES IDX 36 68 37 69 45 70 38 71 39 72 43 73 46 74 40 75 41 76 44 77
REMARK SMILES IDX 42 78 68 79 69 80 77 81 70 82 71 83 75 84 78 85 72 86 73 87
REMARK SMILES IDX 76 88 74 89 53 90 54 91 62 92 55 93 56 94 60 95 63 96 57 97
REMARK SMILES IDX 58 98 61 99 59 100
REMARK H PARENT 17 7 6 16 24 34 83 53 51 64
REMARK Flexibility Score: inf
ROOT
ATOM      1  C   UNL     1       1.785   4.996   4.859  1.00  0.00     0.002 C 
ENDROOT
BRANCH   1   2
ATOM      2  C   UNL     1       0.290   5.012   4.519  1.00  0.00     0.021 C 
BRANCH   2   3
ATOM      3  C   UNL     1      -0.029   5.640   3.167  1.00  0.00     0.116 C 
BRANCH   3   4
ATOM      4  N   UNL     1       0.492   4.836   2.081  1.00  0.00    -0.356 N 
ATOM      5  C   UNL     1      -0.134   4.211   1.048  1.00  0.00     0.224 C 
ATOM      6  O   UNL     1       0.583   3.725   0.170  1.00  0.00    -0.275 OA
ATOM      7  H   UNL     1       1.470   4.721   2.093  1.00  0.00     0.163 HD
BRANCH   5   8
ATOM      8  C   UNL     1      -1.655   4.230   0.902  1.00  0.00     0.095 C 
ATOM      9  C   UNL     1      -2.453   3.602   2.097  1.00  0.00     0.095 C 
ATOM     10  C   UNL     1      -3.930   3.966   1.994  1.00  0.00     0.041 C 
ATOM     11  C   UNL     1      -4.281   5.313   1.451  1.00  0.00    -0.030 C 
ATOM     12  C   UNL     1      -2.027   5.668   0.480  1.00  0.00     0.041 C 
ATOM     13  C   UNL     1      -3.425   6.083   0.778  1.00  0.00    -0.030 C 
BRANCH   9  14
ATOM     14  C   UNL     1      -2.154   2.084   2.175  1.00  0.00     0.228 C 
ATOM     15  N   UNL     1      -2.662   1.175   3.046  1.00  0.00    -0.323 N 
ATOM     16  H   UNL     1      -2.017   0.439   3.149  1.00  0.00     0.170 HD
ATOM     17  O   UNL     1      -1.214   1.626   1.507  1.00  0.00    -0.274 OA
BRANCH  15  18
ATOM     18  C   UNL     1      -3.786   0.913   3.854  1.00  0.00     0.087 A 
ATOM     19  C   UNL     1      -6.104   1.148   4.562  1.00  0.00     0.139 A 
ATOM     20  C   UNL     1      -5.027   1.526   3.747  1.00  0.00     0.078 A 
ATOM     21  C   UNL     1      -5.974   0.081   5.448  1.00  0.00     0.086 A 
ATOM     22  C   UNL     1      -4.754  -0.586   5.540  1.00  0.00     0.073 A 
ATOM     23  Cl  UNL     1      -7.297  -0.513   6.381  1.00  0.00    -0.080 Cl
ATOM     24  C   UNL     1      -3.671  -0.187   4.744  1.00  0.00     0.144 A 
BRANCH  19  25
ATOM     25  O   UNL     1      -7.284   1.808   4.336  1.00  0.00    -0.495 OA
ATOM     26  C   UNL     1      -7.660   2.633   5.440  1.00  0.00     0.278 C 
ENDBRANCH  19  25
BRANCH  24  27
ATOM     27  O   UNL     1      -2.448  -0.825   4.749  1.00  0.00    -0.495 OA
ATOM     28  C   UNL     1      -2.401  -2.120   5.343  1.00  0.00     0.278 C 
ENDBRANCH  24  27
ENDBRANCH  15  18
ENDBRANCH   9  14
ENDBRANCH   5   8
ENDBRANCH   3   4
ENDBRANCH   2   3
ENDBRANCH   1   2
BRANCH   1  29
ATOM     29  C   UNL     1       2.476   6.363   4.817  1.00  0.00     0.002 C 
BRANCH  29  30
ATOM     30  C   UNL     1       1.816   7.451   5.669  1.00  0.00     0.021 C 
BRANCH  30  31
ATOM     31  C   UNL     1       1.674   7.105   7.147  1.00  0.00     0.116 C 
BRANCH  31  32
ATOM     32  N   UNL     1       2.960   6.871   7.782  1.00  0.00    -0.352 N 
ATOM     33  C   UNL     1       3.485   7.419   8.920  1.00  0.00     0.251 C 
ATOM     34  H   UNL     1       3.541   6.221   7.325  1.00  0.00     0.163 HD
ATOM     35  O   UNL     1       4.673   7.237   9.197  1.00  0.00    -0.269 OA
BRANCH  33  36
ATOM     36  C   UNL     1       2.647   8.244   9.814  1.00  0.00     0.039 A 
ATOM     37  C   UNL     1       3.196   9.409  10.356  1.00  0.00     0.014 A 
ATOM     38  C   UNL     1       1.341   7.866  10.143  1.00  0.00     0.014 A 
ATOM     39  C   UNL     1       2.420  10.220  11.185  1.00  0.00     0.010 A 
ATOM     40  C   UNL     1       0.545   8.713  10.912  1.00  0.00     0.010 A 
ATOM     41  C   UNL     1       1.078   9.895  11.445  1.00  0.00    -0.014 A 
BRANCH  41  42
ATOM     42  C   UNL     1       0.230  10.801  12.259  1.00  0.00     0.031 A 
ATOM     43  C   UNL     1      -0.307  10.362  13.592  1.00  0.00     0.074 A 
ATOM     44  C   UNL     1      -0.083  12.018  11.775  1.00  0.00     0.049 A 
ATOM     45  N   UNL     1      -1.046  11.026  14.445  1.00  0.00    -0.248 NA
ATOM     46  C   UNL     1       0.005   8.987  14.011  1.00  0.00     0.031 C 
ATOM     47  C   UNL     1       0.320  12.532  10.465  1.00  0.00     0.029 A 
ATOM     48  N   UNL     1      -0.811  13.042  12.326  1.00  0.00    -0.354 N 
ATOM     49  C   UNL     1      -1.284  10.154  15.499  1.00  0.00     0.074 A 
ATOM     50  C   UNL     1      -0.668   8.892  15.148  1.00  0.00     0.031 C 
ATOM     51  C   UNL     1      -0.142  13.784  10.325  1.00  0.00     0.029 A 
ATOM     52  C   UNL     1      -0.894  14.150  11.520  1.00  0.00     0.049 A 
ATOM     53  H   UNL     1      -1.233  12.987  13.213  1.00  0.00     0.167 HD
ATOM     54  C   UNL     1      -1.931  10.393  16.666  1.00  0.00     0.037 A 
ATOM     55  C   UNL     1      -1.505  15.332  11.724  1.00  0.00     0.037 A 
ATOM     56  C   UNL     1      -2.540  11.652  17.013  1.00  0.00     0.049 A 
ATOM     57  C   UNL     1      -2.205  15.579  13.032  1.00  0.00     0.074 A 
ATOM     58  C   UNL     1      -3.180  12.009  18.187  1.00  0.00     0.029 A 
ATOM     59  N   UNL     1      -2.588  12.761  16.180  1.00  0.00    -0.354 N 
ATOM     60  N   UNL     1      -2.358  14.772  14.054  1.00  0.00    -0.248 NA
ATOM     61  C   UNL     1      -2.802  16.907  13.220  1.00  0.00     0.031 C 
ATOM     62  C   UNL     1      -3.655  13.318  18.047  1.00  0.00     0.029 A 
ATOM     63  C   UNL     1      -3.266  13.796  16.806  1.00  0.00     0.049 A 
ATOM     64  H   UNL     1      -2.199  12.806  15.277  1.00  0.00     0.167 HD
ATOM     65  C   UNL     1      -3.056  15.496  15.010  1.00  0.00     0.074 A 
ATOM     66  C   UNL     1      -3.268  16.818  14.457  1.00  0.00     0.031 C 
ATOM     67  C   UNL     1      -3.486  15.101  16.235  1.00  0.00     0.037 A 
BRANCH  54  68
ATOM     68  C   UNL     1      -2.008   9.263  17.654  1.00  0.00     0.064 A 
ATOM     69  C   UNL     1      -0.865   8.793  18.323  1.00  0.00     0.173 A 
ATOM     70  C   UNL     1      -3.236   8.653  17.952  1.00  0.00     0.173 A 
ATOM     71  F   UNL     1       0.336   9.333  18.067  1.00  0.00    -0.203 F 
ATOM     72  C   UNL     1      -0.944   7.733  19.222  1.00  0.00     0.198 A 
ATOM     73  C   UNL     1      -3.315   7.615  18.877  1.00  0.00     0.198 A 
ATOM     74  F   UNL     1      -4.360   9.064  17.348  1.00  0.00    -0.203 F 
ATOM     75  F   UNL     1       0.170   7.265  19.803  1.00  0.00    -0.200 F 
ATOM     76  C   UNL     1      -2.169   7.149  19.503  1.00  0.00     0.200 A 
ATOM     77  F   UNL     1      -4.502   7.059  19.157  1.00  0.00    -0.200 F 
ATOM     78  F   UNL     1      -2.244   6.130  20.371  1.00  0.00    -0.200 F 
ENDBRANCH  54  68
BRANCH  55  79
ATOM     79  C   UNL     1      -1.449  16.379  10.672  1.00  0.00     0.064 A 
ATOM     80  C   UNL     1      -0.686  17.541  10.849  1.00  0.00     0.173 A 
ATOM     81  C   UNL     1      -2.142  16.229   9.462  1.00  0.00     0.173 A 
ATOM     82  F   UNL     1      -0.021  17.737  11.996  1.00  0.00    -0.203 F 
ATOM     83  C   UNL     1      -0.632  18.523   9.861  1.00  0.00     0.198 A 
ATOM     84  C   UNL     1      -2.063  17.198   8.464  1.00  0.00     0.198 A 
ATOM     85  F   UNL     1      -2.879  15.131   9.242  1.00  0.00    -0.203 F 
ATOM     86  F   UNL     1       0.072  19.643  10.072  1.00  0.00    -0.200 F 
ATOM     87  C   UNL     1      -1.315  18.347   8.667  1.00  0.00     0.200 A 
ATOM     88  F   UNL     1      -2.711  17.015   7.305  1.00  0.00    -0.200 F 
ATOM     89  F   UNL     1      -1.254  19.286   7.714  1.00  0.00    -0.200 F 
ENDBRANCH  55  79
BRANCH  67  90
ATOM     90  C   UNL     1      -4.224  16.120  17.055  1.00  0.00     0.064 A 
ATOM     91  C   UNL     1      -5.512  16.554  16.704  1.00  0.00     0.173 A 
ATOM     92  C   UNL     1      -3.640  16.668  18.207  1.00  0.00     0.173 A 
ATOM     93  F   UNL     1      -6.109  16.072  15.603  1.00  0.00    -0.203 F 
ATOM     94  C   UNL     1      -6.170  17.527  17.452  1.00  0.00     0.198 A 
ATOM     95  C   UNL     1      -4.314  17.617  18.971  1.00  0.00     0.198 A 
ATOM     96  F   UNL     1      -2.414  16.283  18.593  1.00  0.00    -0.203 F 
ATOM     97  F   UNL     1      -7.372  17.972  17.060  1.00  0.00    -0.200 F 
ATOM     98  C   UNL     1      -5.572  18.054  18.587  1.00  0.00     0.200 A 
ATOM     99  F   UNL     1      -3.741  18.116  20.075  1.00  0.00    -0.200 F 
ATOM    100  F   UNL     1      -6.205  18.993  19.303  1.00  0.00    -0.200 F 
ENDBRANCH  67  90
ENDBRANCH  41  42
ENDBRANCH  33  36
ENDBRANCH  31  32
ENDBRANCH  30  31
ENDBRANCH  29  30
ENDBRANCH   1  29
TORSDOF 17
