REMARK SMILES C[C@H]1OCC[C@@H]1C(=O)Nc1ccc(Cl)c(C(=O)NCCCCCCNC(=O)c2ccc(-c3c4nc(c(-c5c(F)c(F)c(F)c(F)c5F)c5ccc([nH]5)c(-c5c(F)c(F)c(F)c(F)c5F)c5nc(c(-c6c(F)c(F)c(F)c(F)c6F)c6ccc3[nH]6)C=C5)C=C4)cc2)c1
REMARK SMILES IDX 21 1 20 2 19 3 18 4 16 5 17 6 15 8 10 9 11 10 91 11 12 12
REMARK SMILES IDX 13 13 14 14 9 15 7 16 8 17 6 19 1 20 2 21 3 22 4 23 5 24
REMARK SMILES IDX 22 25 23 26 24 27 25 28 26 29 27 31 28 32 29 33 90 34 30 35
REMARK SMILES IDX 89 36 31 37 32 38 33 39 83 40 34 41 88 42 82 43 84 44 35 45
REMARK SMILES IDX 87 46 81 47 80 48 36 50 68 51 48 52 67 53 49 54 52 55 66 56
REMARK SMILES IDX 85 57 50 58 51 59 65 61 86 62 53 63 37 64 38 65 46 66 39 67
REMARK SMILES IDX 40 68 44 69 47 70 41 71 42 72 45 73 43 74 69 75 70 76 78 77
REMARK SMILES IDX 71 78 72 79 76 80 79 81 73 82 74 83 77 84 75 85 54 86 55 87
REMARK SMILES IDX 63 88 56 89 57 90 61 91 64 92 58 93 59 94 62 95 60 96
REMARK H PARENT 18 7 9 18 25 30 84 49 52 60
REMARK Flexibility Score: inf
ROOT
ATOM      1  C   UNL     1      -2.245   4.816   7.941  1.00  0.00     0.002 C 
ENDROOT
BRANCH   1   2
ATOM      2  C   UNL     1      -2.890   3.759   7.045  1.00  0.00     0.021 C 
BRANCH   2   3
ATOM      3  C   UNL     1      -2.115   3.356   5.801  1.00  0.00     0.116 C 
BRANCH   3   4
ATOM      4  N   UNL     1      -0.836   2.713   6.024  1.00  0.00    -0.352 N 
ATOM      5  C   UNL     1      -0.169   1.800   5.234  1.00  0.00     0.252 C 
ATOM      6  O   UNL     1       0.957   1.436   5.572  1.00  0.00    -0.269 OA
ATOM      7  H   UNL     1      -0.378   2.964   6.859  1.00  0.00     0.163 HD
BRANCH   5   8
ATOM      8  C   UNL     1      -0.818   1.143   4.068  1.00  0.00     0.060 A 
ATOM      9  C   UNL     1      -1.162  -0.915   2.840  1.00  0.00     0.042 A 
ATOM     10  C   UNL     1      -2.216  -0.327   2.159  1.00  0.00     0.028 A 
ATOM     11  C   UNL     1      -0.567  -0.233   3.900  1.00  0.00     0.041 A 
ATOM     12  C   UNL     1      -2.420   1.041   2.266  1.00  0.00     0.023 A 
ATOM     13  C   UNL     1      -1.610   1.791   3.114  1.00  0.00     0.053 A 
ATOM     14  Cl  UNL     1      -1.506   3.479   2.755  1.00  0.00    -0.083 Cl
BRANCH   9  15
ATOM     15  N   UNL     1      -0.664  -2.156   2.441  1.00  0.00    -0.326 N 
ATOM     16  C   UNL     1      -0.251  -2.549   1.192  1.00  0.00     0.230 C 
ATOM     17  O   UNL     1      -0.005  -3.753   1.037  1.00  0.00    -0.274 OA
ATOM     18  H   UNL     1      -0.602  -2.840   3.147  1.00  0.00     0.169 HD
BRANCH  16  19
ATOM     19  C   UNL     1       0.029  -1.584   0.021  1.00  0.00     0.110 C 
ATOM     20  C   UNL     1       2.060  -0.131  -0.467  1.00  0.00     0.039 C 
ATOM     21  C   UNL     1       0.818  -0.332   0.398  1.00  0.00     0.127 C 
ATOM     22  O   UNL     1      -0.055   0.786   0.177  1.00  0.00    -0.378 OA
ATOM     23  C   UNL     1      -1.003   0.420  -0.827  1.00  0.00     0.161 C 
ATOM     24  C   UNL     1      -1.161  -1.087  -0.774  1.00  0.00     0.044 C 
ENDBRANCH  16  19
ENDBRANCH   9  15
ENDBRANCH   5   8
ENDBRANCH   3   4
ENDBRANCH   2   3
ENDBRANCH   1   2
BRANCH   1  25
ATOM     25  C   UNL     1      -1.673   6.068   7.268  1.00  0.00     0.002 C 
BRANCH  25  26
ATOM     26  C   UNL     1      -2.581   6.838   6.305  1.00  0.00     0.021 C 
BRANCH  26  27
ATOM     27  C   UNL     1      -3.965   7.213   6.821  1.00  0.00     0.116 C 
BRANCH  27  28
ATOM     28  N   UNL     1      -3.926   8.034   8.017  1.00  0.00    -0.352 N 
ATOM     29  C   UNL     1      -4.593   9.194   8.312  1.00  0.00     0.251 C 
ATOM     30  H   UNL     1      -3.328   7.706   8.727  1.00  0.00     0.163 HD
ATOM     31  O   UNL     1      -4.327   9.796   9.354  1.00  0.00    -0.269 OA
BRANCH  29  32
ATOM     32  C   UNL     1      -5.611   9.754   7.392  1.00  0.00     0.039 A 
ATOM     33  C   UNL     1      -5.649  11.141   7.210  1.00  0.00     0.014 A 
ATOM     34  C   UNL     1      -6.557   8.947   6.753  1.00  0.00     0.014 A 
ATOM     35  C   UNL     1      -6.603  11.711   6.364  1.00  0.00     0.010 A 
ATOM     36  C   UNL     1      -7.465   9.510   5.854  1.00  0.00     0.010 A 
ATOM     37  C   UNL     1      -7.508  10.900   5.662  1.00  0.00    -0.014 A 
BRANCH  37  38
ATOM     38  C   UNL     1      -8.522  11.497   4.754  1.00  0.00     0.031 A 
ATOM     39  C   UNL     1      -9.988  11.390   5.079  1.00  0.00     0.074 A 
ATOM     40  C   UNL     1      -8.128  12.106   3.618  1.00  0.00     0.049 A 
ATOM     41  N   UNL     1     -11.022  11.818   4.398  1.00  0.00    -0.248 NA
ATOM     42  C   UNL     1     -10.340  10.686   6.322  1.00  0.00     0.031 C 
ATOM     43  C   UNL     1      -6.743  12.234   3.164  1.00  0.00     0.029 A 
ATOM     44  N   UNL     1      -8.859  12.726   2.635  1.00  0.00    -0.354 N 
ATOM     45  C   UNL     1     -12.141  11.421   5.119  1.00  0.00     0.074 A 
ATOM     46  C   UNL     1     -11.664  10.676   6.263  1.00  0.00     0.031 C 
ATOM     47  C   UNL     1      -6.721  12.908   2.003  1.00  0.00     0.029 A 
ATOM     48  C   UNL     1      -8.091  13.236   1.617  1.00  0.00     0.049 A 
ATOM     49  H   UNL     1      -9.840  12.797   2.657  1.00  0.00     0.167 HD
ATOM     50  C   UNL     1     -13.447  11.675   4.863  1.00  0.00     0.037 A 
ATOM     51  C   UNL     1      -8.451  13.896   0.499  1.00  0.00     0.037 A 
ATOM     52  C   UNL     1     -13.920  12.446   3.743  1.00  0.00     0.049 A 
ATOM     53  C   UNL     1      -9.907  14.191   0.256  1.00  0.00     0.074 A 
ATOM     54  C   UNL     1     -15.220  12.803   3.427  1.00  0.00     0.029 A 
ATOM     55  N   UNL     1     -13.107  12.984   2.757  1.00  0.00    -0.354 N 
ATOM     56  N   UNL     1     -10.950  13.867   0.980  1.00  0.00    -0.248 NA
ATOM     57  C   UNL     1     -10.232  14.960  -0.953  1.00  0.00     0.031 C 
ATOM     58  C   UNL     1     -15.197  13.525   2.229  1.00  0.00     0.029 A 
ATOM     59  C   UNL     1     -13.878  13.662   1.826  1.00  0.00     0.049 A 
ATOM     60  H   UNL     1     -12.127  12.898   2.723  1.00  0.00     0.167 HD
ATOM     61  C   UNL     1     -12.048  14.421   0.336  1.00  0.00     0.074 A 
ATOM     62  C   UNL     1     -11.543  15.114  -0.830  1.00  0.00     0.031 C 
ATOM     63  C   UNL     1     -13.358  14.363   0.680  1.00  0.00     0.037 A 
BRANCH  50  64
ATOM     64  C   UNL     1     -14.464  11.118   5.818  1.00  0.00     0.064 A 
ATOM     65  C   UNL     1     -14.608  11.625   7.118  1.00  0.00     0.173 A 
ATOM     66  C   UNL     1     -15.336  10.095   5.414  1.00  0.00     0.173 A 
ATOM     67  F   UNL     1     -13.793  12.595   7.558  1.00  0.00    -0.203 F 
ATOM     68  C   UNL     1     -15.568  11.112   7.987  1.00  0.00     0.198 A 
ATOM     69  C   UNL     1     -16.314   9.605   6.274  1.00  0.00     0.198 A 
ATOM     70  F   UNL     1     -15.246   9.578   4.179  1.00  0.00    -0.203 F 
ATOM     71  F   UNL     1     -15.656  11.580   9.239  1.00  0.00    -0.200 F 
ATOM     72  C   UNL     1     -16.425  10.108   7.562  1.00  0.00     0.200 A 
ATOM     73  F   UNL     1     -17.151   8.643   5.858  1.00  0.00    -0.200 F 
ATOM     74  F   UNL     1     -17.355   9.621   8.396  1.00  0.00    -0.200 F 
ENDBRANCH  50  64
BRANCH  51  75
ATOM     75  C   UNL     1      -7.413  14.356  -0.461  1.00  0.00     0.064 A 
ATOM     76  C   UNL     1      -7.131  15.721  -0.617  1.00  0.00     0.173 A 
ATOM     77  C   UNL     1      -6.697  13.447  -1.252  1.00  0.00     0.173 A 
ATOM     78  F   UNL     1      -7.804  16.630   0.103  1.00  0.00    -0.203 F 
ATOM     79  C   UNL     1      -6.192  16.160  -1.548  1.00  0.00     0.198 A 
ATOM     80  C   UNL     1      -5.737  13.885  -2.162  1.00  0.00     0.198 A 
ATOM     81  F   UNL     1      -6.926  12.130  -1.137  1.00  0.00    -0.203 F 
ATOM     82  F   UNL     1      -5.980  17.472  -1.714  1.00  0.00    -0.200 F 
ATOM     83  C   UNL     1      -5.493  15.242  -2.316  1.00  0.00     0.200 A 
ATOM     84  F   UNL     1      -5.055  12.994  -2.894  1.00  0.00    -0.200 F 
ATOM     85  F   UNL     1      -4.590  15.664  -3.212  1.00  0.00    -0.200 F 
ENDBRANCH  51  75
BRANCH  63  86
ATOM     86  C   UNL     1     -14.330  15.112  -0.184  1.00  0.00     0.064 A 
ATOM     87  C   UNL     1     -14.653  14.681  -1.480  1.00  0.00     0.173 A 
ATOM     88  C   UNL     1     -14.964  16.266   0.302  1.00  0.00     0.173 A 
ATOM     89  F   UNL     1     -14.064  13.592  -1.995  1.00  0.00    -0.203 F 
ATOM     90  C   UNL     1     -15.548  15.399  -2.269  1.00  0.00     0.198 A 
ATOM     91  C   UNL     1     -15.881  16.963  -0.479  1.00  0.00     0.198 A 
ATOM     92  F   UNL     1     -14.697  16.715   1.537  1.00  0.00    -0.203 F 
ATOM     93  F   UNL     1     -15.798  15.001  -3.524  1.00  0.00    -0.200 F 
ATOM     94  C   UNL     1     -16.165  16.535  -1.767  1.00  0.00     0.200 A 
ATOM     95  F   UNL     1     -16.487  18.052   0.013  1.00  0.00    -0.200 F 
ATOM     96  F   UNL     1     -17.027  17.223  -2.528  1.00  0.00    -0.200 F 
ENDBRANCH  63  86
ENDBRANCH  37  38
ENDBRANCH  29  32
ENDBRANCH  27  28
ENDBRANCH  26  27
ENDBRANCH  25  26
ENDBRANCH   1  25
TORSDOF 15
