REMARK SMILES O=C(NCCCCCCNC(=O)c1c(F)cccc1Oc1cccc(Cl)c1)c1ccc(-c2c3nc(c(-c4c(F)c(F)c(F)c(F)c4F)c4ccc([nH]4)c(-c4c(F)c(F)c(F)c(F)c4F)c4nc(c(-c5c(F)c(F)c(F)c(F)c5F)c5ccc2[nH]5)C=C4)C=C3)cc1
REMARK SMILES IDX 6 1 5 2 4 3 3 4 1 5 2 6 28 8 29 9 90 10 30 11 89 12 31 13
REMARK SMILES IDX 32 14 33 15 83 16 34 17 88 18 82 19 84 20 35 21 87 22 81 23
REMARK SMILES IDX 80 24 36 26 68 27 48 28 67 29 49 30 52 31 66 32 85 33 50 34
REMARK SMILES IDX 51 35 65 37 86 38 53 39 37 40 38 41 46 42 39 43 40 44 44 45
REMARK SMILES IDX 47 46 41 47 42 48 45 49 43 50 69 51 70 52 78 53 71 54 72 55
REMARK SMILES IDX 76 56 79 57 73 58 74 59 77 60 75 61 54 62 55 63 63 64 56 65
REMARK SMILES IDX 57 66 61 67 64 68 58 69 59 70 62 71 60 72 7 73 8 74 9 75
REMARK SMILES IDX 10 76 11 77 12 79 13 80 14 81 19 82 15 83 16 84 18 85 17 86
REMARK SMILES IDX 20 87 21 88 22 89 27 90 23 91 25 92 24 93 26 94
REMARK H PARENT 3 7 84 25 52 36 10 78
REMARK Flexibility Score: inf
ROOT
ATOM      1  C   UNL     1       4.244  -3.838  -0.997  1.00  0.00     0.002 C 
ENDROOT
BRANCH   1   2
ATOM      2  C   UNL     1       4.692  -2.760  -0.010  1.00  0.00     0.021 C 
BRANCH   2   3
ATOM      3  C   UNL     1       4.470  -1.321  -0.460  1.00  0.00     0.116 C 
BRANCH   3   4
ATOM      4  N   UNL     1       3.066  -0.968  -0.583  1.00  0.00    -0.352 N 
ATOM      5  O   UNL     1       1.148   0.136  -0.140  1.00  0.00    -0.269 OA
ATOM      6  C   UNL     1       2.367   0.068  -0.009  1.00  0.00     0.251 C 
ATOM      7  H   UNL     1       2.535  -1.558  -1.166  1.00  0.00     0.163 HD
BRANCH   6   8
ATOM      8  C   UNL     1       3.074   1.086   0.803  1.00  0.00     0.039 A 
ATOM      9  C   UNL     1       4.278   1.643   0.371  1.00  0.00     0.014 A 
ATOM     10  C   UNL     1       2.518   1.486   2.022  1.00  0.00     0.014 A 
ATOM     11  C   UNL     1       5.005   2.465   1.228  1.00  0.00     0.010 A 
ATOM     12  C   UNL     1       3.209   2.381   2.846  1.00  0.00     0.010 A 
ATOM     13  C   UNL     1       4.482   2.841   2.477  1.00  0.00    -0.014 A 
BRANCH  13  14
ATOM     14  C   UNL     1       5.282   3.726   3.364  1.00  0.00     0.031 A 
ATOM     15  C   UNL     1       5.807   3.232   4.684  1.00  0.00     0.074 A 
ATOM     16  C   UNL     1       5.583   4.970   2.946  1.00  0.00     0.049 A 
ATOM     17  N   UNL     1       6.568   3.852   5.553  1.00  0.00    -0.248 NA
ATOM     18  C   UNL     1       5.428   1.869   5.088  1.00  0.00     0.031 C 
ATOM     19  C   UNL     1       5.125   5.566   1.690  1.00  0.00     0.029 A 
ATOM     20  N   UNL     1       6.366   5.944   3.511  1.00  0.00    -0.354 N 
ATOM     21  C   UNL     1       6.745   2.965   6.607  1.00  0.00     0.074 A 
ATOM     22  C   UNL     1       5.989   1.773   6.286  1.00  0.00     0.031 C 
ATOM     23  C   UNL     1       5.679   6.778   1.552  1.00  0.00     0.029 A 
ATOM     24  C   UNL     1       6.490   7.067   2.731  1.00  0.00     0.049 A 
ATOM     25  H   UNL     1       6.796   5.848   4.391  1.00  0.00     0.167 HD
ATOM     26  C   UNL     1       7.481   3.126   7.733  1.00  0.00     0.037 A 
ATOM     27  C   UNL     1       7.180   8.205   2.937  1.00  0.00     0.037 A 
ATOM     28  C   UNL     1       8.247   4.305   8.044  1.00  0.00     0.049 A 
ATOM     29  C   UNL     1       7.987   8.359   4.194  1.00  0.00     0.074 A 
ATOM     30  C   UNL     1       9.034   4.555   9.156  1.00  0.00     0.029 A 
ATOM     31  N   UNL     1       8.327   5.432   7.238  1.00  0.00    -0.354 N 
ATOM     32  N   UNL     1       8.155   7.507   5.175  1.00  0.00    -0.248 NA
ATOM     33  C   UNL     1       8.700   9.630   4.372  1.00  0.00     0.031 C 
ATOM     34  C   UNL     1       9.560   5.845   9.040  1.00  0.00     0.029 A 
ATOM     35  C   UNL     1       9.142   6.382   7.834  1.00  0.00     0.049 A 
ATOM     36  H   UNL     1       7.872   5.540   6.372  1.00  0.00     0.167 HD
ATOM     37  C   UNL     1       9.002   8.130   6.080  1.00  0.00     0.074 A 
ATOM     38  C   UNL     1       9.328   9.427   5.522  1.00  0.00     0.031 C 
ATOM     39  C   UNL     1       9.463   7.667   7.266  1.00  0.00     0.037 A 
BRANCH  26  40
ATOM     40  C   UNL     1       7.495   2.000   8.726  1.00  0.00     0.064 A 
ATOM     41  C   UNL     1       6.855   2.137   9.968  1.00  0.00     0.173 A 
ATOM     42  C   UNL     1       8.195   0.811   8.477  1.00  0.00     0.173 A 
ATOM     43  F   UNL     1       6.178   3.258  10.259  1.00  0.00    -0.203 F 
ATOM     44  C   UNL     1       6.925   1.129  10.926  1.00  0.00     0.198 A 
ATOM     45  C   UNL     1       8.241  -0.206   9.428  1.00  0.00     0.198 A 
ATOM     46  F   UNL     1       8.815   0.626   7.302  1.00  0.00    -0.203 F 
ATOM     47  F   UNL     1       6.329   1.294  12.115  1.00  0.00    -0.200 F 
ATOM     48  C   UNL     1       7.614  -0.043  10.654  1.00  0.00     0.200 A 
ATOM     49  F   UNL     1       8.889  -1.347   9.155  1.00  0.00    -0.200 F 
ATOM     50  F   UNL     1       7.670  -1.018  11.572  1.00  0.00    -0.200 F 
ENDBRANCH  26  40
BRANCH  27  51
ATOM     51  C   UNL     1       7.151   9.267   1.901  1.00  0.00     0.064 A 
ATOM     52  C   UNL     1       5.987  10.008   1.652  1.00  0.00     0.173 A 
ATOM     53  C   UNL     1       8.273   9.521   1.102  1.00  0.00     0.173 A 
ATOM     54  F   UNL     1       4.886   9.795   2.387  1.00  0.00    -0.203 F 
ATOM     55  C   UNL     1       5.938  10.945   0.623  1.00  0.00     0.198 A 
ATOM     56  C   UNL     1       8.231  10.477   0.089  1.00  0.00     0.198 A 
ATOM     57  F   UNL     1       9.413   8.848   1.315  1.00  0.00    -0.203 F 
ATOM     58  F   UNL     1       4.801  11.609   0.377  1.00  0.00    -0.200 F 
ATOM     59  C   UNL     1       7.061  11.180  -0.156  1.00  0.00     0.200 A 
ATOM     60  F   UNL     1       9.323  10.715  -0.649  1.00  0.00    -0.200 F 
ATOM     61  F   UNL     1       7.015  12.084  -1.145  1.00  0.00    -0.200 F 
ENDBRANCH  27  51
BRANCH  39  62
ATOM     62  C   UNL     1      10.393   8.554   8.040  1.00  0.00     0.064 A 
ATOM     63  C   UNL     1      11.753   8.229   8.152  1.00  0.00     0.173 A 
ATOM     64  C   UNL     1       9.928   9.688   8.720  1.00  0.00     0.173 A 
ATOM     65  F   UNL     1      12.244   7.149   7.525  1.00  0.00    -0.203 F 
ATOM     66  C   UNL     1      12.612   9.004   8.926  1.00  0.00     0.198 A 
ATOM     67  C   UNL     1      10.796  10.475   9.472  1.00  0.00     0.198 A 
ATOM     68  F   UNL     1       8.638  10.047   8.632  1.00  0.00    -0.203 F 
ATOM     69  F   UNL     1      13.903   8.660   9.040  1.00  0.00    -0.200 F 
ATOM     70  C   UNL     1      12.134  10.128   9.582  1.00  0.00     0.200 A 
ATOM     71  F   UNL     1      10.338  11.575  10.087  1.00  0.00    -0.200 F 
ATOM     72  F   UNL     1      12.965  10.880  10.316  1.00  0.00    -0.200 F 
ENDBRANCH  39  62
ENDBRANCH  13  14
ENDBRANCH   6   8
ENDBRANCH   3   4
ENDBRANCH   2   3
ENDBRANCH   1   2
BRANCH   1  73
ATOM     73  C   UNL     1       4.821  -3.738  -2.411  1.00  0.00     0.002 C 
BRANCH  73  74
ATOM     74  C   UNL     1       6.344  -3.620  -2.517  1.00  0.00     0.021 C 
BRANCH  74  75
ATOM     75  C   UNL     1       7.154  -4.691  -1.790  1.00  0.00     0.116 C 
BRANCH  75  76
ATOM     76  N   UNL     1       6.821  -6.043  -2.195  1.00  0.00    -0.352 N 
ATOM     77  C   UNL     1       7.667  -7.065  -2.558  1.00  0.00     0.258 C 
ATOM     78  H   UNL     1       5.860  -6.259  -2.211  1.00  0.00     0.163 HD
ATOM     79  O   UNL     1       7.245  -8.207  -2.708  1.00  0.00    -0.269 OA
BRANCH  77  80
ATOM     80  C   UNL     1       9.097  -6.786  -2.738  1.00  0.00     0.118 A 
ATOM     81  C   UNL     1       9.829  -6.614  -1.555  1.00  0.00     0.139 A 
ATOM     82  C   UNL     1       9.752  -6.713  -3.975  1.00  0.00     0.143 A 
ATOM     83  F   UNL     1       9.221  -6.681  -0.360  1.00  0.00    -0.206 F 
ATOM     84  C   UNL     1      11.192  -6.333  -1.576  1.00  0.00     0.040 A 
ATOM     85  C   UNL     1      11.133  -6.433  -3.980  1.00  0.00     0.048 A 
ATOM     86  C   UNL     1      11.848  -6.239  -2.796  1.00  0.00     0.007 A 
BRANCH  82  87
ATOM     87  O   UNL     1       9.271  -6.875  -5.257  1.00  0.00    -0.456 OA
BRANCH  87  88
ATOM     88  C   UNL     1       7.944  -7.098  -5.494  1.00  0.00     0.128 A 
ATOM     89  C   UNL     1       7.049  -6.030  -5.543  1.00  0.00     0.047 A 
ATOM     90  C   UNL     1       7.531  -8.388  -5.823  1.00  0.00     0.067 A 
ATOM     91  C   UNL     1       5.705  -6.266  -5.833  1.00  0.00     0.005 A 
ATOM     92  C   UNL     1       6.191  -8.616  -6.125  1.00  0.00     0.044 A 
ATOM     93  C   UNL     1       5.274  -7.563  -6.119  1.00  0.00     0.021 A 
ATOM     94  Cl  UNL     1       5.662 -10.204  -6.528  1.00  0.00    -0.084 Cl
ENDBRANCH  87  88
ENDBRANCH  82  87
ENDBRANCH  77  80
ENDBRANCH  75  76
ENDBRANCH  74  75
ENDBRANCH  73  74
ENDBRANCH   1  73
TORSDOF 15
