REMARK SMILES CNC(=O)[C@H](C)S(=O)(=O)c1cc(C(=O)NCCCCCCNC(=O)c2ccc(-c3c4nc(c(-c5c(F)c(F)c(F)c(F)c5F)c5ccc([nH]5)c(-c5c(F)c(F)c(F)c(F)c5F)c5nc(c(-c6c(F)c(F)c(F)c(F)c6F)c6ccc3[nH]6)C=C5)C=C4)cc2)c(C)cc1C
REMARK SMILES IDX 18 1 17 2 16 3 15 4 13 5 14 6 12 8 10 9 11 10 91 11 90 12
REMARK SMILES IDX 92 13 88 14 89 15 7 16 8 17 9 18 5 19 6 20 3 21 1 22 2 23
REMARK SMILES IDX 4 25 19 26 20 27 21 28 22 29 23 30 24 32 25 33 26 34 87 35
REMARK SMILES IDX 27 36 86 37 28 38 29 39 30 40 80 41 31 42 85 43 79 44 81 45
REMARK SMILES IDX 32 46 84 47 78 48 77 49 33 51 65 52 45 53 64 54 46 55 49 56
REMARK SMILES IDX 63 57 82 58 47 59 48 60 62 62 83 63 50 64 34 65 35 66 43 67
REMARK SMILES IDX 36 68 37 69 41 70 44 71 38 72 39 73 42 74 40 75 66 76 67 77
REMARK SMILES IDX 75 78 68 79 69 80 73 81 76 82 70 83 71 84 74 85 72 86 51 87
REMARK SMILES IDX 52 88 60 89 53 90 54 91 58 92 61 93 55 94 56 95 59 96 57 97
REMARK H PARENT 15 7 2 24 22 31 81 50 49 61
REMARK Flexibility Score: inf
ROOT
ATOM      1  C   UNL     1       3.487  -1.009   7.504  1.00  0.00     0.002 C 
ENDROOT
BRANCH   1   2
ATOM      2  C   UNL     1       2.626  -0.389   6.402  1.00  0.00     0.021 C 
BRANCH   2   3
ATOM      3  C   UNL     1       3.111  -0.701   4.981  1.00  0.00     0.116 C 
BRANCH   3   4
ATOM      4  N   UNL     1       2.361  -1.821   4.470  1.00  0.00    -0.352 N 
ATOM      5  C   UNL     1       1.246  -1.955   3.695  1.00  0.00     0.251 C 
ATOM      6  O   UNL     1       0.820  -3.112   3.606  1.00  0.00    -0.269 OA
ATOM      7  H   UNL     1       2.740  -2.688   4.742  1.00  0.00     0.163 HD
BRANCH   5   8
ATOM      8  C   UNL     1       0.577  -0.885   2.875  1.00  0.00     0.044 A 
ATOM      9  C   UNL     1      -0.779  -0.633   0.814  1.00  0.00     0.071 A 
ATOM     10  C   UNL     1      -0.051  -1.415   1.728  1.00  0.00     0.034 A 
ATOM     11  C   UNL     1      -0.832   0.751   0.973  1.00  0.00    -0.032 A 
ATOM     12  C   UNL     1      -0.245   1.282   2.131  1.00  0.00     0.009 A 
ATOM     13  C   UNL     1      -1.571   1.706   0.081  1.00  0.00     0.046 C 
ATOM     14  C   UNL     1       0.381   0.483   3.121  1.00  0.00    -0.038 A 
ATOM     15  C   UNL     1       0.661   1.199   4.405  1.00  0.00     0.045 C 
BRANCH   9  16
ATOM     16  S   UNL     1      -1.773  -1.535  -0.368  1.00  0.00     0.190 S 
ATOM     17  O   UNL     1      -2.836  -0.664  -0.829  1.00  0.00    -0.223 OA
ATOM     18  O   UNL     1      -2.165  -2.776   0.285  1.00  0.00    -0.223 OA
BRANCH  16  19
ATOM     19  C   UNL     1      -0.724  -1.931  -1.750  1.00  0.00     0.199 C 
ATOM     20  C   UNL     1      -0.510  -0.704  -2.639  1.00  0.00     0.036 C 
BRANCH  19  21
ATOM     21  C   UNL     1       0.610  -2.474  -1.288  1.00  0.00     0.238 C 
ATOM     22  C   UNL     1      -0.233  -4.783  -0.614  1.00  0.00     0.142 C 
ATOM     23  N   UNL     1       0.759  -3.762  -0.875  1.00  0.00    -0.358 N 
ATOM     24  H   UNL     1       1.690  -4.045  -0.731  1.00  0.00     0.163 HD
ATOM     25  O   UNL     1       1.629  -1.777  -1.309  1.00  0.00    -0.274 OA
ENDBRANCH  19  21
ENDBRANCH  16  19
ENDBRANCH   9  16
ENDBRANCH   5   8
ENDBRANCH   3   4
ENDBRANCH   2   3
ENDBRANCH   1   2
BRANCH   1  26
ATOM     26  C   UNL     1       4.875  -0.378   7.646  1.00  0.00     0.002 C 
BRANCH  26  27
ATOM     27  C   UNL     1       4.879   1.141   7.839  1.00  0.00     0.021 C 
BRANCH  27  28
ATOM     28  C   UNL     1       4.067   1.631   9.035  1.00  0.00     0.116 C 
BRANCH  28  29
ATOM     29  N   UNL     1       4.616   1.145  10.290  1.00  0.00    -0.352 N 
ATOM     30  C   UNL     1       5.167   1.852  11.329  1.00  0.00     0.251 C 
ATOM     31  H   UNL     1       4.588   0.168  10.413  1.00  0.00     0.163 HD
ATOM     32  O   UNL     1       5.816   1.277  12.197  1.00  0.00    -0.269 OA
BRANCH  30  33
ATOM     33  C   UNL     1       4.982   3.316  11.397  1.00  0.00     0.039 A 
ATOM     34  C   UNL     1       6.077   4.126  11.709  1.00  0.00     0.014 A 
ATOM     35  C   UNL     1       3.724   3.883  11.176  1.00  0.00     0.014 A 
ATOM     36  C   UNL     1       5.920   5.513  11.746  1.00  0.00     0.010 A 
ATOM     37  C   UNL     1       3.586   5.267  11.143  1.00  0.00     0.010 A 
ATOM     38  C   UNL     1       4.681   6.096  11.434  1.00  0.00    -0.014 A 
BRANCH  38  39
ATOM     39  C   UNL     1       4.505   7.569  11.415  1.00  0.00     0.031 A 
ATOM     40  C   UNL     1       3.577   8.230  12.395  1.00  0.00     0.074 A 
ATOM     41  C   UNL     1       5.127   8.301  10.471  1.00  0.00     0.049 A 
ATOM     42  N   UNL     1       3.229   9.489  12.488  1.00  0.00    -0.248 NA
ATOM     43  C   UNL     1       2.931   7.355  13.386  1.00  0.00     0.031 C 
ATOM     44  C   UNL     1       6.015   7.768   9.437  1.00  0.00     0.029 A 
ATOM     45  N   UNL     1       5.096   9.650  10.219  1.00  0.00    -0.354 N 
ATOM     46  C   UNL     1       2.316   9.552  13.532  1.00  0.00     0.074 A 
ATOM     47  C   UNL     1       2.122   8.200  14.008  1.00  0.00     0.031 C 
ATOM     48  C   UNL     1       6.459   8.780   8.675  1.00  0.00     0.029 A 
ATOM     49  C   UNL     1       5.859  10.026   9.141  1.00  0.00     0.049 A 
ATOM     50  H   UNL     1       4.575  10.287  10.759  1.00  0.00     0.167 HD
ATOM     51  C   UNL     1       1.712  10.643  14.061  1.00  0.00     0.037 A 
ATOM     52  C   UNL     1       6.046  11.239   8.586  1.00  0.00     0.037 A 
ATOM     53  C   UNL     1       1.929  11.989  13.600  1.00  0.00     0.049 A 
ATOM     54  C   UNL     1       5.361  12.435   9.191  1.00  0.00     0.074 A 
ATOM     55  C   UNL     1       1.413  13.169  14.106  1.00  0.00     0.029 A 
ATOM     56  N   UNL     1       2.729  12.334  12.520  1.00  0.00    -0.354 N 
ATOM     57  N   UNL     1       4.553  12.492  10.222  1.00  0.00    -0.248 NA
ATOM     58  C   UNL     1       5.620  13.736   8.560  1.00  0.00     0.031 C 
ATOM     59  C   UNL     1       1.862  14.223  13.304  1.00  0.00     0.029 A 
ATOM     60  C   UNL     1       2.703  13.706  12.332  1.00  0.00     0.049 A 
ATOM     61  H   UNL     1       3.240  11.697  11.970  1.00  0.00     0.167 HD
ATOM     62  C   UNL     1       4.234  13.834  10.383  1.00  0.00     0.074 A 
ATOM     63  C   UNL     1       4.944  14.559   9.350  1.00  0.00     0.031 C 
ATOM     64  C   UNL     1       3.428  14.413  11.306  1.00  0.00     0.037 A 
BRANCH  51  65
ATOM     65  C   UNL     1       0.759  10.427  15.202  1.00  0.00     0.064 A 
ATOM     66  C   UNL     1       1.207  10.022  16.469  1.00  0.00     0.173 A 
ATOM     67  C   UNL     1      -0.614  10.663  15.038  1.00  0.00     0.173 A 
ATOM     68  F   UNL     1       2.509   9.773  16.677  1.00  0.00    -0.203 F 
ATOM     69  C   UNL     1       0.313   9.831  17.519  1.00  0.00     0.198 A 
ATOM     70  C   UNL     1      -1.502  10.502  16.099  1.00  0.00     0.198 A 
ATOM     71  F   UNL     1      -1.096  11.058  13.850  1.00  0.00    -0.203 F 
ATOM     72  F   UNL     1       0.759   9.394  18.705  1.00  0.00    -0.200 F 
ATOM     73  C   UNL     1      -1.039  10.078  17.335  1.00  0.00     0.200 A 
ATOM     74  F   UNL     1      -2.806  10.755  15.924  1.00  0.00    -0.200 F 
ATOM     75  F   UNL     1      -1.897   9.902  18.349  1.00  0.00    -0.200 F 
ENDBRANCH  51  65
BRANCH  52  76
ATOM     76  C   UNL     1       6.942  11.387   7.410  1.00  0.00     0.064 A 
ATOM     77  C   UNL     1       8.173  12.049   7.522  1.00  0.00     0.173 A 
ATOM     78  C   UNL     1       6.591  10.871   6.154  1.00  0.00     0.173 A 
ATOM     79  F   UNL     1       8.544  12.576   8.698  1.00  0.00    -0.203 F 
ATOM     80  C   UNL     1       9.008  12.209   6.418  1.00  0.00     0.198 A 
ATOM     81  C   UNL     1       7.441  11.006   5.058  1.00  0.00     0.198 A 
ATOM     82  F   UNL     1       5.428  10.223   5.995  1.00  0.00    -0.203 F 
ATOM     83  F   UNL     1      10.158  12.886   6.544  1.00  0.00    -0.200 F 
ATOM     84  C   UNL     1       8.644  11.682   5.189  1.00  0.00     0.200 A 
ATOM     85  F   UNL     1       7.093  10.482   3.875  1.00  0.00    -0.200 F 
ATOM     86  F   UNL     1       9.450  11.832   4.128  1.00  0.00    -0.200 F 
ENDBRANCH  52  76
BRANCH  64  87
ATOM     87  C   UNL     1       3.303  15.908  11.273  1.00  0.00     0.064 A 
ATOM     88  C   UNL     1       2.585  16.567  10.264  1.00  0.00     0.173 A 
ATOM     89  C   UNL     1       3.867  16.688  12.295  1.00  0.00     0.173 A 
ATOM     90  F   UNL     1       2.040  15.867   9.257  1.00  0.00    -0.203 F 
ATOM     91  C   UNL     1       2.454  17.953  10.268  1.00  0.00     0.198 A 
ATOM     92  C   UNL     1       3.708  18.070  12.312  1.00  0.00     0.198 A 
ATOM     93  F   UNL     1       4.558  16.105  13.287  1.00  0.00    -0.203 F 
ATOM     94  F   UNL     1       1.801  18.565   9.271  1.00  0.00    -0.200 F 
ATOM     95  C   UNL     1       3.008  18.702  11.296  1.00  0.00     0.200 A 
ATOM     96  F   UNL     1       4.231  18.790  13.314  1.00  0.00    -0.200 F 
ATOM     97  F   UNL     1       2.871  20.035  11.305  1.00  0.00    -0.200 F 
ENDBRANCH  64  87
ENDBRANCH  38  39
ENDBRANCH  30  33
ENDBRANCH  28  29
ENDBRANCH  27  28
ENDBRANCH  26  27
ENDBRANCH   1  26
TORSDOF 16
