REMARK SMILES C[C@]12c3ccccc3[C@](C)(c3ccccc31)[C@@H]1C(=O)N(c3ccc(C(=O)NCCCCCCNC(=O)c4ccc(-c5c6nc(c(-c7c(F)c(F)c(F)c(F)c7F)c7ccc([nH]7)c(-c7c(F)c(F)c(F)c(F)c7F)c7nc(c(-c8c(F)c(F)c(F)c(F)c8F)c8ccc5[nH]8)C=C7)C=C6)cc4)cc3)C(=O)[C@H]12
REMARK SMILES IDX 31 1 30 2 29 3 28 4 27 5 25 6 26 7 24 9 21 10 22 11 101 12
REMARK SMILES IDX 23 13 100 14 20 15 1 16 2 17 16 18 3 19 104 20 15 21 11 22
REMARK SMILES IDX 8 23 4 24 17 25 102 26 14 27 12 28 9 29 7 30 5 31 18 32
REMARK SMILES IDX 103 33 13 34 10 35 6 36 19 37 32 38 33 39 34 40 35 41 36 43
REMARK SMILES IDX 37 44 38 45 99 46 39 47 98 48 40 49 41 50 42 51 92 52 43 53
REMARK SMILES IDX 97 54 91 55 93 56 44 57 96 58 90 59 89 60 45 62 77 63 57 64
REMARK SMILES IDX 76 65 58 66 61 67 75 68 94 69 59 70 60 71 74 73 95 74 62 75
REMARK SMILES IDX 46 76 47 77 55 78 48 79 49 80 53 81 56 82 50 83 51 84 54 85
REMARK SMILES IDX 52 86 78 87 79 88 87 89 80 90 81 91 85 92 88 93 82 94 83 95
REMARK SMILES IDX 86 96 84 97 63 98 64 99 72 100 65 101 66 102 70 103 73 104
REMARK SMILES IDX 67 105 68 106 71 107 69 108
REMARK H PARENT 27 8 34 42 93 61 61 72
REMARK Flexibility Score: inf
ROOT
ATOM      1  C   UNL     1       1.180  -0.594 -13.197  1.00  0.00     0.002 C 
ENDROOT
BRANCH   1   2
ATOM      2  C   UNL     1       1.954   0.314 -12.238  1.00  0.00     0.002 C 
BRANCH   2   3
ATOM      3  C   UNL     1       1.536   0.261 -10.767  1.00  0.00     0.021 C 
BRANCH   3   4
ATOM      4  C   UNL     1       1.509  -1.122 -10.123  1.00  0.00     0.116 C 
BRANCH   4   5
ATOM      5  N   UNL     1       2.802  -1.779 -10.102  1.00  0.00    -0.352 N 
ATOM      6  C   UNL     1       3.435  -2.473  -9.098  1.00  0.00     0.251 C 
ATOM      7  O   UNL     1       4.569  -2.904  -9.289  1.00  0.00    -0.269 OA
ATOM      8  H   UNL     1       3.309  -1.718 -10.944  1.00  0.00     0.163 HD
BRANCH   6   9
ATOM      9  C   UNL     1       2.801  -2.657  -7.769  1.00  0.00     0.039 A 
ATOM     10  C   UNL     1       1.656  -2.719  -5.199  1.00  0.00     0.052 A 
ATOM     11  C   UNL     1       3.032  -2.514  -5.360  1.00  0.00     0.027 A 
ATOM     12  C   UNL     1       0.881  -2.995  -6.334  1.00  0.00     0.027 A 
ATOM     13  C   UNL     1       3.605  -2.501  -6.635  1.00  0.00     0.016 A 
ATOM     14  C   UNL     1       1.451  -2.971  -7.610  1.00  0.00     0.016 A 
BRANCH  10  15
ATOM     15  N   UNL     1       1.047  -2.595  -3.930  1.00  0.00    -0.250 N 
ATOM     16  C   UNL     1       1.539  -0.410   0.006  1.00  0.00     0.022 C 
ATOM     17  C   UNL     1       0.373  -1.292  -0.438  1.00  0.00     0.030 C 
ATOM     18  C   UNL     1      -0.997  -0.568  -0.531  1.00  0.00    -0.033 A 
ATOM     19  C   UNL     1       0.088  -2.518   0.489  1.00  0.00    -0.033 A 
ATOM     20  C   UNL     1       0.692  -2.076  -1.735  1.00  0.00     0.108 C 
ATOM     21  C   UNL     1      -1.244   0.769  -0.232  1.00  0.00     0.005 A 
ATOM     22  C   UNL     1      -2.095  -1.423  -0.893  1.00  0.00    -0.033 A 
ATOM     23  C   UNL     1      -0.929  -3.395  -0.026  1.00  0.00    -0.033 A 
ATOM     24  C   UNL     1       0.768  -2.833   1.663  1.00  0.00     0.005 A 
ATOM     25  C   UNL     1      -0.627  -2.489  -2.390  1.00  0.00     0.108 C 
ATOM     26  C   UNL     1       1.462  -1.677  -2.952  1.00  0.00     0.238 C 
ATOM     27  C   UNL     1      -2.555   1.250  -0.278  1.00  0.00     0.000 A 
ATOM     28  C   UNL     1      -3.399  -0.934  -0.921  1.00  0.00     0.005 A 
ATOM     29  C   UNL     1      -1.648  -2.865  -1.292  1.00  0.00     0.030 C 
ATOM     30  C   UNL     1      -1.223  -4.576   0.648  1.00  0.00     0.005 A 
ATOM     31  C   UNL     1       0.455  -4.020   2.323  1.00  0.00     0.000 A 
ATOM     32  C   UNL     1      -0.106  -3.286  -3.539  1.00  0.00     0.238 C 
ATOM     33  O   UNL     1       2.302  -0.799  -3.011  1.00  0.00    -0.274 OA
ATOM     34  C   UNL     1      -3.622   0.406  -0.609  1.00  0.00     0.000 A 
ATOM     35  C   UNL     1      -2.767  -3.752  -1.832  1.00  0.00     0.022 C 
ATOM     36  C   UNL     1      -0.524  -4.885   1.817  1.00  0.00     0.000 A 
ATOM     37  O   UNL     1      -0.665  -4.234  -4.066  1.00  0.00    -0.274 OA
ENDBRANCH  10  15
ENDBRANCH   6   9
ENDBRANCH   4   5
ENDBRANCH   3   4
ENDBRANCH   2   3
ENDBRANCH   1   2
BRANCH   1  38
ATOM     38  C   UNL     1      -0.342  -0.478 -13.145  1.00  0.00     0.021 C 
BRANCH  38  39
ATOM     39  C   UNL     1      -0.898   0.929 -13.317  1.00  0.00     0.116 C 
BRANCH  39  40
ATOM     40  N   UNL     1      -0.610   1.507 -14.621  1.00  0.00    -0.352 N 
ATOM     41  C   UNL     1      -1.472   2.064 -15.537  1.00  0.00     0.251 C 
ATOM     42  H   UNL     1       0.338   1.498 -14.886  1.00  0.00     0.163 HD
ATOM     43  O   UNL     1      -1.075   2.392 -16.649  1.00  0.00    -0.269 OA
BRANCH  41  44
ATOM     44  C   UNL     1      -2.901   2.223 -15.187  1.00  0.00     0.039 A 
ATOM     45  C   UNL     1      -3.274   2.734 -13.943  1.00  0.00     0.014 A 
ATOM     46  C   UNL     1      -3.876   1.802 -16.094  1.00  0.00     0.014 A 
ATOM     47  C   UNL     1      -4.597   2.635 -13.530  1.00  0.00     0.010 A 
ATOM     48  C   UNL     1      -5.221   1.801 -15.713  1.00  0.00     0.010 A 
ATOM     49  C   UNL     1      -5.587   2.159 -14.406  1.00  0.00    -0.014 A 
BRANCH  49  50
ATOM     50  C   UNL     1      -6.988   2.028 -13.926  1.00  0.00     0.031 A 
ATOM     51  C   UNL     1      -7.657   0.680 -13.857  1.00  0.00     0.074 A 
ATOM     52  C   UNL     1      -7.642   3.124 -13.495  1.00  0.00     0.049 A 
ATOM     53  N   UNL     1      -8.867   0.378 -13.456  1.00  0.00    -0.248 NA
ATOM     54  C   UNL     1      -6.869  -0.482 -14.297  1.00  0.00     0.031 C 
ATOM     55  C   UNL     1      -7.095   4.481 -13.494  1.00  0.00     0.029 A 
ATOM     56  N   UNL     1      -8.894   3.270 -12.954  1.00  0.00    -0.354 N 
ATOM     57  C   UNL     1      -8.989  -0.998 -13.610  1.00  0.00     0.074 A 
ATOM     58  C   UNL     1      -7.745  -1.470 -14.176  1.00  0.00     0.031 C 
ATOM     59  C   UNL     1      -7.982   5.312 -12.929  1.00  0.00     0.029 A 
ATOM     60  C   UNL     1      -9.189   4.563 -12.596  1.00  0.00     0.049 A 
ATOM     61  H   UNL     1      -9.521   2.521 -12.834  1.00  0.00     0.167 HD
ATOM     62  C   UNL     1     -10.037  -1.795 -13.290  1.00  0.00     0.037 A 
ATOM     63  C   UNL     1     -10.311   5.094 -12.075  1.00  0.00     0.037 A 
ATOM     64  C   UNL     1     -11.267  -1.323 -12.708  1.00  0.00     0.049 A 
ATOM     65  C   UNL     1     -11.483   4.196 -11.793  1.00  0.00     0.074 A 
ATOM     66  C   UNL     1     -12.378  -2.057 -12.329  1.00  0.00     0.029 A 
ATOM     67  N   UNL     1     -11.550   0.005 -12.421  1.00  0.00    -0.354 N 
ATOM     68  N   UNL     1     -11.579   2.896 -11.928  1.00  0.00    -0.248 NA
ATOM     69  C   UNL     1     -12.705   4.840 -11.294  1.00  0.00     0.031 C 
ATOM     70  C   UNL     1     -13.354  -1.169 -11.868  1.00  0.00     0.029 A 
ATOM     71  C   UNL     1     -12.830   0.113 -11.899  1.00  0.00     0.049 A 
ATOM     72  H   UNL     1     -10.934   0.759 -12.568  1.00  0.00     0.167 HD
ATOM     73  C   UNL     1     -12.861   2.564 -11.517  1.00  0.00     0.074 A 
ATOM     74  C   UNL     1     -13.500   3.796 -11.104  1.00  0.00     0.031 C 
ATOM     75  C   UNL     1     -13.456   1.346 -11.489  1.00  0.00     0.037 A 
BRANCH  62  76
ATOM     76  C   UNL     1      -9.913  -3.268 -13.565  1.00  0.00     0.064 A 
ATOM     77  C   UNL     1      -9.058  -4.088 -12.815  1.00  0.00     0.173 A 
ATOM     78  C   UNL     1     -10.715  -3.879 -14.542  1.00  0.00     0.173 A 
ATOM     79  F   UNL     1      -8.263  -3.555 -11.875  1.00  0.00    -0.203 F 
ATOM     80  C   UNL     1      -8.998  -5.461 -13.043  1.00  0.00     0.198 A 
ATOM     81  C   UNL     1     -10.676  -5.257 -14.746  1.00  0.00     0.198 A 
ATOM     82  F   UNL     1     -11.558  -3.144 -15.283  1.00  0.00    -0.203 F 
ATOM     83  F   UNL     1      -8.146  -6.219 -12.338  1.00  0.00    -0.200 F 
ATOM     84  C   UNL     1      -9.814  -6.046 -14.000  1.00  0.00     0.200 A 
ATOM     85  F   UNL     1     -11.479  -5.821 -15.658  1.00  0.00    -0.200 F 
ATOM     86  F   UNL     1      -9.768  -7.369 -14.204  1.00  0.00    -0.200 F 
ENDBRANCH  62  76
BRANCH  63  87
ATOM     87  C   UNL     1     -10.366   6.551 -11.787  1.00  0.00     0.064 A 
ATOM     88  C   UNL     1     -10.423   7.021 -10.469  1.00  0.00     0.173 A 
ATOM     89  C   UNL     1     -10.325   7.501 -12.819  1.00  0.00     0.173 A 
ATOM     90  F   UNL     1     -10.485   6.152  -9.450  1.00  0.00    -0.203 F 
ATOM     91  C   UNL     1     -10.440   8.387 -10.194  1.00  0.00     0.198 A 
ATOM     92  C   UNL     1     -10.308   8.866 -12.541  1.00  0.00     0.198 A 
ATOM     93  F   UNL     1     -10.266   7.102 -14.098  1.00  0.00    -0.203 F 
ATOM     94  F   UNL     1     -10.526   8.811  -8.926  1.00  0.00    -0.200 F 
ATOM     95  C   UNL     1     -10.371   9.308 -11.229  1.00  0.00     0.200 A 
ATOM     96  F   UNL     1     -10.220   9.750 -13.544  1.00  0.00    -0.200 F 
ATOM     97  F   UNL     1     -10.366  10.621 -10.962  1.00  0.00    -0.200 F 
ENDBRANCH  63  87
BRANCH  75  98
ATOM     98  C   UNL     1     -14.867   1.272 -10.982  1.00  0.00     0.064 A 
ATOM     99  C   UNL     1     -15.943   1.773 -11.731  1.00  0.00     0.173 A 
ATOM    100  C   UNL     1     -15.156   0.626  -9.770  1.00  0.00     0.173 A 
ATOM    101  F   UNL     1     -15.719   2.412 -12.889  1.00  0.00    -0.203 F 
ATOM    102  C   UNL     1     -17.253   1.643 -11.277  1.00  0.00     0.198 A 
ATOM    103  C   UNL     1     -16.469   0.469  -9.336  1.00  0.00     0.198 A 
ATOM    104  F   UNL     1     -14.165   0.122  -9.019  1.00  0.00    -0.203 F 
ATOM    105  F   UNL     1     -18.261   2.164 -11.990  1.00  0.00    -0.200 F 
ATOM    106  C   UNL     1     -17.515   0.981 -10.087  1.00  0.00     0.200 A 
ATOM    107  F   UNL     1     -16.722  -0.188  -8.195  1.00  0.00    -0.200 F 
ATOM    108  F   UNL     1     -18.779   0.840  -9.662  1.00  0.00    -0.200 F 
ENDBRANCH  75  98
ENDBRANCH  49  50
ENDBRANCH  41  44
ENDBRANCH  39  40
ENDBRANCH  38  39
ENDBRANCH   1  38
TORSDOF 14
