REMARK SMILES O=C(NCCCCCCNC(=O)[C@H]1CC2=c3ccccc3=N[C@H]2[C@H](c2ccccc2F)[NH2+]1)c1ccc(-c2c3nc(c(-c4c(F)c(F)c(F)c(F)c4F)c4ccc([nH]4)c(-c4c(F)c(F)c(F)c(F)c4F)c4nc(c(-c5c(F)c(F)c(F)c(F)c5F)c5ccc2[nH]5)C=C4)C=C3)cc1
REMARK SMILES IDX 6 1 5 2 4 3 3 4 1 5 2 6 33 8 34 9 95 10 35 11 94 12 36 13
REMARK SMILES IDX 37 14 38 15 88 16 39 17 93 18 87 19 89 20 40 21 92 22 86 23
REMARK SMILES IDX 85 24 41 26 73 27 53 28 72 29 54 30 57 31 71 32 90 33 55 34
REMARK SMILES IDX 56 35 70 37 91 38 58 39 42 40 43 41 51 42 44 43 45 44 49 45
REMARK SMILES IDX 52 46 46 47 47 48 50 49 48 50 74 51 75 52 83 53 76 54 77 55
REMARK SMILES IDX 81 56 84 57 78 58 79 59 82 60 80 61 59 62 60 63 68 64 61 65
REMARK SMILES IDX 62 66 66 67 69 68 63 69 64 70 67 71 65 72 7 73 8 74 9 75
REMARK SMILES IDX 10 76 11 77 12 79 13 80 14 81 32 82 15 83 24 84 16 87 23 88
REMARK SMILES IDX 17 89 21 90 22 91 18 92 20 93 19 94 25 95 26 96 30 97 27 98
REMARK SMILES IDX 29 99 31 100 28 101
REMARK H PARENT 3 7 89 25 57 36 10 78 32 85 32 86
REMARK Flexibility Score: inf
ROOT
ATOM      1  C   UNL     1       4.003   2.897  -2.442  1.00  0.00     0.002 C 
ENDROOT
BRANCH   1   2
ATOM      2  C   UNL     1       4.550   1.490  -2.183  1.00  0.00     0.021 C 
BRANCH   2   3
ATOM      3  C   UNL     1       4.400   0.988  -0.750  1.00  0.00     0.116 C 
BRANCH   3   4
ATOM      4  N   UNL     1       3.013   0.928  -0.330  1.00  0.00    -0.352 N 
ATOM      5  O   UNL     1       1.086  -0.015   0.349  1.00  0.00    -0.269 OA
ATOM      6  C   UNL     1       2.310  -0.108   0.221  1.00  0.00     0.251 C 
ATOM      7  H   UNL     1       2.500   1.758  -0.463  1.00  0.00     0.163 HD
BRANCH   6   8
ATOM      8  C   UNL     1       2.993  -1.343   0.660  1.00  0.00     0.039 A 
ATOM      9  C   UNL     1       2.373  -2.570   0.411  1.00  0.00     0.014 A 
ATOM     10  C   UNL     1       4.196  -1.301   1.374  1.00  0.00     0.014 A 
ATOM     11  C   UNL     1       2.961  -3.752   0.861  1.00  0.00     0.010 A 
ATOM     12  C   UNL     1       4.817  -2.487   1.766  1.00  0.00     0.010 A 
ATOM     13  C   UNL     1       4.192  -3.722   1.537  1.00  0.00    -0.014 A 
BRANCH  13  14
ATOM     14  C   UNL     1       4.791  -4.974   2.063  1.00  0.00     0.031 A 
ATOM     15  C   UNL     1       4.879  -5.197   3.548  1.00  0.00     0.074 A 
ATOM     16  C   UNL     1       5.248  -5.911   1.210  1.00  0.00     0.049 A 
ATOM     17  N   UNL     1       5.358  -6.226   4.202  1.00  0.00    -0.248 NA
ATOM     18  C   UNL     1       4.383  -4.117   4.416  1.00  0.00     0.031 C 
ATOM     19  C   UNL     1       5.244  -5.797  -0.249  1.00  0.00     0.029 A 
ATOM     20  N   UNL     1       5.795  -7.148   1.446  1.00  0.00    -0.354 N 
ATOM     21  C   UNL     1       5.225  -5.912   5.549  1.00  0.00     0.074 A 
ATOM     22  C   UNL     1       4.673  -4.579   5.624  1.00  0.00     0.031 C 
ATOM     23  C   UNL     1       5.727  -6.932  -0.779  1.00  0.00     0.029 A 
ATOM     24  C   UNL     1       6.099  -7.843   0.300  1.00  0.00     0.049 A 
ATOM     25  H   UNL     1       5.954  -7.503   2.350  1.00  0.00     0.167 HD
ATOM     26  C   UNL     1       5.509  -6.681   6.625  1.00  0.00     0.037 A 
ATOM     27  C   UNL     1       6.610  -9.080   0.141  1.00  0.00     0.037 A 
ATOM     28  C   UNL     1       6.013  -8.026   6.550  1.00  0.00     0.049 A 
ATOM     29  C   UNL     1       6.911  -9.915   1.357  1.00  0.00     0.074 A 
ATOM     30  C   UNL     1       6.287  -8.901   7.587  1.00  0.00     0.029 A 
ATOM     31  N   UNL     1       6.305  -8.693   5.371  1.00  0.00    -0.354 N 
ATOM     32  N   UNL     1       6.737  -9.623   2.622  1.00  0.00    -0.248 NA
ATOM     33  C   UNL     1       7.476 -11.253   1.123  1.00  0.00     0.031 C 
ATOM     34  C   UNL     1       6.774 -10.089   7.036  1.00  0.00     0.029 A 
ATOM     35  C   UNL     1       6.767  -9.966   5.656  1.00  0.00     0.049 A 
ATOM     36  H   UNL     1       6.200  -8.318   4.467  1.00  0.00     0.167 HD
ATOM     37  C   UNL     1       7.140 -10.745   3.332  1.00  0.00     0.074 A 
ATOM     38  C   UNL     1       7.562 -11.729   2.358  1.00  0.00     0.031 C 
ATOM     39  C   UNL     1       7.159 -10.941   4.672  1.00  0.00     0.037 A 
BRANCH  26  40
ATOM     40  C   UNL     1       5.255  -6.108   7.987  1.00  0.00     0.064 A 
ATOM     41  C   UNL     1       3.952  -5.966   8.485  1.00  0.00     0.173 A 
ATOM     42  C   UNL     1       6.324  -5.782   8.835  1.00  0.00     0.173 A 
ATOM     43  F   UNL     1       2.897  -6.255   7.708  1.00  0.00    -0.203 F 
ATOM     44  C   UNL     1       3.727  -5.510   9.781  1.00  0.00     0.198 A 
ATOM     45  C   UNL     1       6.096  -5.350  10.138  1.00  0.00     0.198 A 
ATOM     46  F   UNL     1       7.589  -5.906   8.406  1.00  0.00    -0.203 F 
ATOM     47  F   UNL     1       2.473  -5.359  10.228  1.00  0.00    -0.200 F 
ATOM     48  C   UNL     1       4.799  -5.213  10.610  1.00  0.00     0.200 A 
ATOM     49  F   UNL     1       7.132  -5.075  10.943  1.00  0.00    -0.200 F 
ATOM     50  F   UNL     1       4.581  -4.794  11.864  1.00  0.00    -0.200 F 
ENDBRANCH  26  40
BRANCH  27  51
ATOM     51  C   UNL     1       6.823  -9.621  -1.226  1.00  0.00     0.064 A 
ATOM     52  C   UNL     1       6.012 -10.649  -1.725  1.00  0.00     0.173 A 
ATOM     53  C   UNL     1       7.831  -9.120  -2.062  1.00  0.00     0.173 A 
ATOM     54  F   UNL     1       5.048 -11.174  -0.954  1.00  0.00    -0.203 F 
ATOM     55  C   UNL     1       6.209 -11.166  -3.003  1.00  0.00     0.198 A 
ATOM     56  C   UNL     1       8.011  -9.620  -3.350  1.00  0.00     0.198 A 
ATOM     57  F   UNL     1       8.631  -8.133  -1.633  1.00  0.00    -0.203 F 
ATOM     58  F   UNL     1       5.443 -12.174  -3.442  1.00  0.00    -0.200 F 
ATOM     59  C   UNL     1       7.205 -10.647  -3.817  1.00  0.00     0.200 A 
ATOM     60  F   UNL     1       8.966  -9.108  -4.138  1.00  0.00    -0.200 F 
ATOM     61  F   UNL     1       7.390 -11.139  -5.050  1.00  0.00    -0.200 F 
ENDBRANCH  27  51
BRANCH  39  62
ATOM     62  C   UNL     1       7.621 -12.272   5.181  1.00  0.00     0.064 A 
ATOM     63  C   UNL     1       8.981 -12.608   5.211  1.00  0.00     0.173 A 
ATOM     64  C   UNL     1       6.704 -13.171   5.745  1.00  0.00     0.173 A 
ATOM     65  F   UNL     1       9.892 -11.782   4.675  1.00  0.00    -0.203 F 
ATOM     66  C   UNL     1       9.408 -13.800   5.790  1.00  0.00     0.198 A 
ATOM     67  C   UNL     1       7.136 -14.351   6.343  1.00  0.00     0.198 A 
ATOM     68  F   UNL     1       5.393 -12.887   5.748  1.00  0.00    -0.203 F 
ATOM     69  F   UNL     1      10.711 -14.110   5.796  1.00  0.00    -0.200 F 
ATOM     70  C   UNL     1       8.487 -14.664   6.364  1.00  0.00     0.200 A 
ATOM     71  F   UNL     1       6.248 -15.178   6.911  1.00  0.00    -0.200 F 
ATOM     72  F   UNL     1       8.903 -15.799   6.943  1.00  0.00    -0.200 F 
ENDBRANCH  39  62
ENDBRANCH  13  14
ENDBRANCH   6   8
ENDBRANCH   3   4
ENDBRANCH   2   3
ENDBRANCH   1   2
BRANCH   1  73
ATOM     73  C   UNL     1       4.541   3.994  -1.519  1.00  0.00     0.002 C 
BRANCH  73  74
ATOM     74  C   UNL     1       6.066   4.060  -1.411  1.00  0.00     0.021 C 
BRANCH  74  75
ATOM     75  C   UNL     1       6.779   4.325  -2.734  1.00  0.00     0.116 C 
BRANCH  75  76
ATOM     76  N   UNL     1       6.602   5.700  -3.142  1.00  0.00    -0.351 N 
ATOM     77  C   UNL     1       7.498   6.716  -3.280  1.00  0.00     0.278 C 
ATOM     78  H   UNL     1       5.673   5.944  -3.357  1.00  0.00     0.163 HD
ATOM     79  O   UNL     1       7.030   7.845  -3.463  1.00  0.00    -0.268 OA
BRANCH  77  80
ATOM     80  C   UNL     1       9.024   6.495  -3.196  1.00  0.00     0.277 C 
ATOM     81  C   UNL     1       9.529   6.223  -1.758  1.00  0.00     0.109 C 
ATOM     82  N   UNL     1       9.463   5.542  -4.261  1.00  0.00    -0.327 N 
ATOM     83  C   UNL     1      10.211   4.901  -1.692  1.00  0.00    -0.024 C 
ATOM     84  C   UNL     1      10.908   5.206  -4.166  1.00  0.00     0.246 C 
ATOM     85  H   UNL     1       9.286   5.965  -5.172  1.00  0.00     0.347 HD
ATOM     86  H   UNL     1       8.936   4.677  -4.139  1.00  0.00     0.347 HD
ATOM     87  C   UNL     1       9.949   3.846  -0.929  1.00  0.00     0.002 A 
ATOM     88  C   UNL     1      11.219   4.567  -2.756  1.00  0.00     0.196 C 
ATOM     89  C   UNL     1       9.114   3.599   0.200  1.00  0.00     0.010 A 
ATOM     90  C   UNL     1      10.571   2.755  -1.702  1.00  0.00     0.066 A 
ATOM     91  N   UNL     1      11.229   3.069  -2.780  1.00  0.00    -0.270 NA
ATOM     92  C   UNL     1       8.921   2.330   0.591  1.00  0.00     0.001 A 
ATOM     93  C   UNL     1      10.295   1.383  -1.216  1.00  0.00     0.028 A 
ATOM     94  C   UNL     1       9.514   1.217  -0.133  1.00  0.00     0.002 A 
BRANCH  84  95
ATOM     95  C   UNL     1      11.839   6.378  -4.530  1.00  0.00     0.048 A 
ATOM     96  C   UNL     1      13.209   6.329  -4.202  1.00  0.00     0.013 A 
ATOM     97  C   UNL     1      11.410   7.518  -5.231  1.00  0.00     0.132 A 
ATOM     98  C   UNL     1      14.055   7.424  -4.417  1.00  0.00     0.001 A 
ATOM     99  C   UNL     1      12.244   8.617  -5.438  1.00  0.00     0.040 A 
ATOM    100  F   UNL     1      10.168   7.610  -5.725  1.00  0.00    -0.206 F 
ATOM    101  C   UNL     1      13.564   8.582  -5.007  1.00  0.00     0.003 A 
ENDBRANCH  84  95
ENDBRANCH  77  80
ENDBRANCH  75  76
ENDBRANCH  74  75
ENDBRANCH  73  74
ENDBRANCH   1  73
TORSDOF 14
