REMARK SMILES CC(C)[NH2+][C@]1(C(=O)NCCCCCCNC(=O)c2ccc(-c3c4nc(c(-c5c(F)c(F)c(F)c(F)c5F)c5ccc([nH]5)c(-c5c(F)c(F)c(F)c(F)c5F)c5nc(c(-c6c(F)c(F)c(F)c(F)c6F)c6ccc3[nH]6)C=C5)C=C4)cc2)CC[C@H]([N@H+](C)C2CCCC2)C1
REMARK SMILES IDX 11 1 10 2 9 3 8 4 6 5 7 6 5 8 81 9 91 10 82 11 83 12 4 13
REMARK SMILES IDX 2 16 1 17 3 18 84 19 85 20 86 22 87 23 90 24 88 25 89 26
REMARK SMILES IDX 12 27 13 28 14 29 15 30 16 31 17 33 18 34 19 35 80 36 20 37
REMARK SMILES IDX 79 38 21 39 22 40 23 41 73 42 24 43 78 44 72 45 74 46 25 47
REMARK SMILES IDX 77 48 71 49 70 50 26 52 58 53 38 54 57 55 39 56 42 57 56 58
REMARK SMILES IDX 75 59 40 60 41 61 55 63 76 64 43 65 27 66 28 67 36 68 29 69
REMARK SMILES IDX 30 70 34 71 37 72 31 73 32 74 35 75 33 76 59 77 60 78 68 79
REMARK SMILES IDX 61 80 62 81 66 82 69 83 63 84 64 85 67 86 65 87 44 88 45 89
REMARK SMILES IDX 53 90 46 91 47 92 51 93 54 94 48 95 49 96 52 97 50 98
REMARK H PARENT 8 7 4 14 4 15 84 21 15 32 74 51 42 62
REMARK Flexibility Score: inf
ROOT
ATOM      1  C   UNL     1       3.148  -1.060   0.318  1.00  0.00     0.002 C 
ENDROOT
BRANCH   1   2
ATOM      2  C   UNL     1       2.309  -1.332   1.567  1.00  0.00     0.021 C 
BRANCH   2   3
ATOM      3  C   UNL     1       1.334  -0.230   1.972  1.00  0.00     0.116 C 
BRANCH   3   4
ATOM      4  N   UNL     1       0.254   0.024   1.029  1.00  0.00    -0.351 N 
ATOM      5  C   UNL     1      -0.994   0.563   1.292  1.00  0.00     0.281 C 
ATOM      6  O   UNL     1      -1.682   0.919   0.334  1.00  0.00    -0.268 OA
ATOM      7  H   UNL     1       0.432  -0.217   0.091  1.00  0.00     0.163 HD
BRANCH   5   8
ATOM      8  C   UNL     1      -1.523   0.619   2.775  1.00  0.00     0.181 C 
ATOM      9  C   UNL     1      -2.873   1.338   2.956  1.00  0.00     0.085 C 
ATOM     10  C   UNL     1      -2.021  -0.823   3.029  1.00  0.00     0.144 C 
ATOM     11  C   UNL     1      -3.524   0.659   4.183  1.00  0.00     0.072 C 
ATOM     12  C   UNL     1      -3.004  -0.816   4.202  1.00  0.00     0.191 C 
BRANCH   8  13
ATOM     13  N   UNL     1      -0.458   1.287   3.564  1.00  0.00    -0.331 N 
ATOM     14  H   UNL     1       0.399   0.766   3.377  1.00  0.00     0.347 HD
ATOM     15  H   UNL     1      -0.545   2.253   3.249  1.00  0.00     0.347 HD
BRANCH  13  16
ATOM     16  C   UNL     1      -0.523   1.445   5.006  1.00  0.00     0.176 C 
ATOM     17  C   UNL     1       0.835   1.037   5.590  1.00  0.00     0.075 C 
ATOM     18  C   UNL     1      -0.835   2.881   5.427  1.00  0.00     0.075 C 
ENDBRANCH  13  16
ENDBRANCH   8  13
BRANCH  12  19
ATOM     19  N   UNL     1      -2.712  -1.508   5.485  1.00  0.00    -0.332 N 
ATOM     20  C   UNL     1      -3.516  -0.976   6.590  1.00  0.00     0.333 C 
ATOM     21  H   UNL     1      -3.003  -2.448   5.215  1.00  0.00     0.348 HD
BRANCH  19  22
ATOM     22  C   UNL     1      -1.337  -1.839   5.904  1.00  0.00     0.184 C 
ATOM     23  C   UNL     1      -1.213  -2.753   7.141  1.00  0.00     0.065 C 
ATOM     24  C   UNL     1      -0.432  -2.606   4.928  1.00  0.00     0.065 C 
ATOM     25  C   UNL     1       0.280  -3.064   7.193  1.00  0.00     0.006 C 
ATOM     26  C   UNL     1       0.690  -3.236   5.744  1.00  0.00     0.006 C 
ENDBRANCH  19  22
ENDBRANCH  12  19
ENDBRANCH   5   8
ENDBRANCH   3   4
ENDBRANCH   2   3
ENDBRANCH   1   2
BRANCH   1  27
ATOM     27  C   UNL     1       3.977   0.227   0.332  1.00  0.00     0.002 C 
BRANCH  27  28
ATOM     28  C   UNL     1       4.937   0.403   1.512  1.00  0.00     0.021 C 
BRANCH  28  29
ATOM     29  C   UNL     1       5.923  -0.739   1.741  1.00  0.00     0.116 C 
BRANCH  29  30
ATOM     30  N   UNL     1       6.794  -0.974   0.600  1.00  0.00    -0.352 N 
ATOM     31  C   UNL     1       8.160  -1.067   0.544  1.00  0.00     0.251 C 
ATOM     32  H   UNL     1       6.332  -1.082  -0.263  1.00  0.00     0.163 HD
ATOM     33  O   UNL     1       8.730  -1.121  -0.547  1.00  0.00    -0.269 OA
BRANCH  31  34
ATOM     34  C   UNL     1       8.964  -1.076   1.784  1.00  0.00     0.039 A 
ATOM     35  C   UNL     1      10.126  -0.300   1.841  1.00  0.00     0.014 A 
ATOM     36  C   UNL     1       8.591  -1.854   2.883  1.00  0.00     0.014 A 
ATOM     37  C   UNL     1      10.876  -0.255   3.018  1.00  0.00     0.010 A 
ATOM     38  C   UNL     1       9.298  -1.752   4.080  1.00  0.00     0.010 A 
ATOM     39  C   UNL     1      10.449  -0.953   4.160  1.00  0.00    -0.014 A 
BRANCH  39  40
ATOM     40  C   UNL     1      11.190  -0.852   5.444  1.00  0.00     0.031 A 
ATOM     41  C   UNL     1      11.842  -2.068   6.042  1.00  0.00     0.074 A 
ATOM     42  C   UNL     1      11.224   0.323   6.103  1.00  0.00     0.049 A 
ATOM     43  N   UNL     1      12.479  -2.193   7.179  1.00  0.00    -0.248 NA
ATOM     44  C   UNL     1      11.743  -3.317   5.271  1.00  0.00     0.031 C 
ATOM     45  C   UNL     1      10.594   1.564   5.649  1.00  0.00     0.029 A 
ATOM     46  N   UNL     1      11.804   0.664   7.300  1.00  0.00    -0.354 N 
ATOM     47  C   UNL     1      12.842  -3.531   7.265  1.00  0.00     0.074 A 
ATOM     48  C   UNL     1      12.309  -4.189   6.092  1.00  0.00     0.031 C 
ATOM     49  C   UNL     1      10.843   2.535   6.541  1.00  0.00     0.029 A 
ATOM     50  C   UNL     1      11.612   1.978   7.650  1.00  0.00     0.049 A 
ATOM     51  H   UNL     1      12.310   0.027   7.854  1.00  0.00     0.167 HD
ATOM     52  C   UNL     1      13.573  -4.149   8.224  1.00  0.00     0.037 A 
ATOM     53  C   UNL     1      12.003   2.655   8.747  1.00  0.00     0.037 A 
ATOM     54  C   UNL     1      14.119  -3.484   9.379  1.00  0.00     0.049 A 
ATOM     55  C   UNL     1      12.797   1.939   9.807  1.00  0.00     0.074 A 
ATOM     56  C   UNL     1      14.926  -4.008  10.375  1.00  0.00     0.029 A 
ATOM     57  N   UNL     1      13.908  -2.150   9.698  1.00  0.00    -0.354 N 
ATOM     58  N   UNL     1      13.198   0.692   9.841  1.00  0.00    -0.248 NA
ATOM     59  C   UNL     1      13.198   2.729  10.979  1.00  0.00     0.031 C 
ATOM     60  C   UNL     1      15.154  -3.008  11.325  1.00  0.00     0.029 A 
ATOM     61  C   UNL     1      14.544  -1.842  10.890  1.00  0.00     0.049 A 
ATOM     62  H   UNL     1      13.384  -1.516   9.156  1.00  0.00     0.167 HD
ATOM     63  C   UNL     1      13.925   0.556  11.016  1.00  0.00     0.074 A 
ATOM     64  C   UNL     1      13.921   1.853  11.661  1.00  0.00     0.031 C 
ATOM     65  C   UNL     1      14.540  -0.544  11.517  1.00  0.00     0.037 A 
BRANCH  52  66
ATOM     66  C   UNL     1      13.822  -5.622   8.070  1.00  0.00     0.064 A 
ATOM     67  C   UNL     1      14.651  -6.130   7.057  1.00  0.00     0.173 A 
ATOM     68  C   UNL     1      13.256  -6.538   8.971  1.00  0.00     0.173 A 
ATOM     69  F   UNL     1      15.210  -5.300   6.163  1.00  0.00    -0.203 F 
ATOM     70  C   UNL     1      14.877  -7.498   6.933  1.00  0.00     0.198 A 
ATOM     71  C   UNL     1      13.512  -7.902   8.864  1.00  0.00     0.198 A 
ATOM     72  F   UNL     1      12.461  -6.108   9.963  1.00  0.00    -0.203 F 
ATOM     73  F   UNL     1      15.630  -7.963   5.926  1.00  0.00    -0.200 F 
ATOM     74  C   UNL     1      14.315  -8.382   7.841  1.00  0.00     0.200 A 
ATOM     75  F   UNL     1      12.980  -8.754   9.752  1.00  0.00    -0.200 F 
ATOM     76  F   UNL     1      14.541  -9.698   7.726  1.00  0.00    -0.200 F 
ENDBRANCH  52  66
BRANCH  53  77
ATOM     77  C   UNL     1      11.668   4.097   8.892  1.00  0.00     0.064 A 
ATOM     78  C   UNL     1      12.671   5.076   8.850  1.00  0.00     0.173 A 
ATOM     79  C   UNL     1      10.347   4.526   9.085  1.00  0.00     0.173 A 
ATOM     80  F   UNL     1      13.953   4.715   8.688  1.00  0.00    -0.203 F 
ATOM     81  C   UNL     1      12.369   6.426   9.021  1.00  0.00     0.198 A 
ATOM     82  C   UNL     1      10.042   5.879   9.224  1.00  0.00     0.198 A 
ATOM     83  F   UNL     1       9.349   3.631   9.128  1.00  0.00    -0.203 F 
ATOM     84  F   UNL     1      13.354   7.334   9.030  1.00  0.00    -0.200 F 
ATOM     85  C   UNL     1      11.054   6.826   9.202  1.00  0.00     0.200 A 
ATOM     86  F   UNL     1       8.768   6.263   9.383  1.00  0.00    -0.200 F 
ATOM     87  F   UNL     1      10.763   8.124   9.364  1.00  0.00    -0.200 F 
ENDBRANCH  53  77
BRANCH  65  88
ATOM     88  C   UNL     1      15.297  -0.386  12.804  1.00  0.00     0.064 A 
ATOM     89  C   UNL     1      14.643  -0.184  14.028  1.00  0.00     0.173 A 
ATOM     90  C   UNL     1      16.698  -0.477  12.817  1.00  0.00     0.173 A 
ATOM     91  F   UNL     1      13.306  -0.075  14.069  1.00  0.00    -0.203 F 
ATOM     92  C   UNL     1      15.364  -0.050  15.212  1.00  0.00     0.198 A 
ATOM     93  C   UNL     1      17.413  -0.377  14.007  1.00  0.00     0.198 A 
ATOM     94  F   UNL     1      17.374  -0.677  11.675  1.00  0.00    -0.203 F 
ATOM     95  F   UNL     1      14.720   0.196  16.362  1.00  0.00    -0.200 F 
ATOM     96  C   UNL     1      16.746  -0.155  15.202  1.00  0.00     0.200 A 
ATOM     97  F   UNL     1      18.748  -0.496  13.997  1.00  0.00    -0.200 F 
ATOM     98  F   UNL     1      17.437  -0.035  16.344  1.00  0.00    -0.200 F 
ENDBRANCH  65  88
ENDBRANCH  39  40
ENDBRANCH  31  34
ENDBRANCH  29  30
ENDBRANCH  28  29
ENDBRANCH  27  28
ENDBRANCH   1  27
TORSDOF 17
