REMARK SMILES CC[C@@H](NC(=O)c1cscc1C)C(=O)NCCCCCCNC(=O)c1ccc(-c2c3nc(c(-c4c(F)c(F)c(F)c(F)c4F)c4ccc([nH]4)c(-c4c(F)c(F)c(F)c(F)c4F)c4nc(c(-c5c(F)c(F)c(F)c(F)c5F)c5ccc2[nH]5)C=C4)C=C3)cc1
REMARK SMILES IDX 18 1 17 2 16 3 15 4 13 5 14 6 3 8 2 9 1 10 4 11 5 12 6 14
REMARK SMILES IDX 7 15 8 16 11 17 9 18 10 19 12 20 19 21 20 22 21 23 22 24
REMARK SMILES IDX 23 25 24 27 25 28 26 29 87 30 27 31 86 32 28 33 29 34 30 35
REMARK SMILES IDX 80 36 31 37 85 38 79 39 81 40 32 41 84 42 78 43 77 44 33 46
REMARK SMILES IDX 65 47 45 48 64 49 46 50 49 51 63 52 82 53 47 54 48 55 62 57
REMARK SMILES IDX 83 58 50 59 34 60 35 61 43 62 36 63 37 64 41 65 44 66 38 67
REMARK SMILES IDX 39 68 42 69 40 70 66 71 67 72 75 73 68 74 69 75 73 76 76 77
REMARK SMILES IDX 70 78 71 79 74 80 72 81 51 82 52 83 60 84 53 85 54 86 58 87
REMARK SMILES IDX 61 88 55 89 56 90 59 91 57 92
REMARK H PARENT 15 7 4 13 22 26 81 45 49 56
REMARK Flexibility Score: inf
ROOT
ATOM      1  C   UNL     1      -3.722  -1.772   3.961  1.00  0.00     0.002 C 
ENDROOT
BRANCH   1   2
ATOM      2  C   UNL     1      -2.949  -1.251   2.747  1.00  0.00     0.021 C 
BRANCH   2   3
ATOM      3  C   UNL     1      -2.022  -0.087   3.081  1.00  0.00     0.116 C 
BRANCH   3   4
ATOM      4  N   UNL     1      -0.908  -0.561   3.878  1.00  0.00    -0.354 N 
ATOM      5  C   UNL     1       0.427  -0.488   3.627  1.00  0.00     0.242 C 
ATOM      6  O   UNL     1       1.182  -1.221   4.272  1.00  0.00    -0.273 OA
ATOM      7  H   UNL     1      -1.154  -1.001   4.724  1.00  0.00     0.163 HD
BRANCH   5   8
ATOM      8  C   UNL     1       0.967   0.377   2.471  1.00  0.00     0.171 C 
BRANCH   8   9
ATOM      9  C   UNL     1       0.814  -0.474   1.187  1.00  0.00     0.032 C 
ATOM     10  C   UNL     1       1.345   0.167  -0.085  1.00  0.00     0.006 C 
ENDBRANCH   8   9
BRANCH   8  11
ATOM     11  N   UNL     1       0.313   1.688   2.354  1.00  0.00    -0.340 N 
ATOM     12  C   UNL     1       0.083   2.684   3.273  1.00  0.00     0.253 C 
ATOM     13  H   UNL     1      -0.022   1.890   1.451  1.00  0.00     0.164 HD
ATOM     14  O   UNL     1      -0.381   3.739   2.840  1.00  0.00    -0.269 OA
BRANCH  12  15
ATOM     15  C   UNL     1       0.259   2.464   4.710  1.00  0.00     0.053 A 
ATOM     16  C   UNL     1       1.381   1.899   5.291  1.00  0.00     0.079 A 
ATOM     17  C   UNL     1      -0.686   2.880   5.739  1.00  0.00    -0.028 A 
ATOM     18  S   UNL     1       1.272   1.763   6.990  1.00  0.00    -0.151 S 
ATOM     19  C   UNL     1      -0.245   2.535   7.005  1.00  0.00     0.069 A 
ATOM     20  C   UNL     1      -1.983   3.591   5.509  1.00  0.00     0.046 C 
ENDBRANCH  12  15
ENDBRANCH   8  11
ENDBRANCH   5   8
ENDBRANCH   3   4
ENDBRANCH   2   3
ENDBRANCH   1   2
BRANCH   1  21
ATOM     21  C   UNL     1      -4.616  -0.725   4.635  1.00  0.00     0.002 C 
BRANCH  21  22
ATOM     22  C   UNL     1      -5.614  -0.045   3.696  1.00  0.00     0.021 C 
BRANCH  22  23
ATOM     23  C   UNL     1      -6.530  -1.014   2.955  1.00  0.00     0.116 C 
BRANCH  23  24
ATOM     24  N   UNL     1      -7.352  -1.790   3.871  1.00  0.00    -0.352 N 
ATOM     25  C   UNL     1      -8.715  -1.927   3.900  1.00  0.00     0.251 C 
ATOM     26  H   UNL     1      -6.861  -2.285   4.566  1.00  0.00     0.163 HD
ATOM     27  O   UNL     1      -9.272  -2.447   4.864  1.00  0.00    -0.269 OA
BRANCH  25  28
ATOM     28  C   UNL     1      -9.514  -1.421   2.768  1.00  0.00     0.039 A 
ATOM     29  C   UNL     1     -10.629  -0.622   3.030  1.00  0.00     0.014 A 
ATOM     30  C   UNL     1      -9.142  -1.713   1.453  1.00  0.00     0.014 A 
ATOM     31  C   UNL     1     -11.330  -0.053   1.966  1.00  0.00     0.010 A 
ATOM     32  C   UNL     1      -9.799  -1.090   0.398  1.00  0.00     0.010 A 
ATOM     33  C   UNL     1     -10.894  -0.247   0.645  1.00  0.00    -0.014 A 
BRANCH  33  34
ATOM     34  C   UNL     1     -11.544   0.451  -0.492  1.00  0.00     0.031 A 
ATOM     35  C   UNL     1     -12.237  -0.337  -1.566  1.00  0.00     0.074 A 
ATOM     36  C   UNL     1     -11.428   1.790  -0.598  1.00  0.00     0.049 A 
ATOM     37  N   UNL     1     -12.769   0.082  -2.686  1.00  0.00    -0.248 NA
ATOM     38  C   UNL     1     -12.321  -1.793  -1.370  1.00  0.00     0.031 C 
ATOM     39  C   UNL     1     -10.737   2.657   0.359  1.00  0.00     0.029 A 
ATOM     40  N   UNL     1     -11.869   2.655  -1.569  1.00  0.00    -0.354 N 
ATOM     41  C   UNL     1     -13.230  -1.055  -3.334  1.00  0.00     0.074 A 
ATOM     42  C   UNL     1     -12.883  -2.188  -2.504  1.00  0.00     0.031 C 
ATOM     43  C   UNL     1     -10.806   3.927  -0.069  1.00  0.00     0.029 A 
ATOM     44  C   UNL     1     -11.502   3.961  -1.351  1.00  0.00     0.049 A 
ATOM     45  H   UNL     1     -12.397   2.366  -2.348  1.00  0.00     0.167 HD
ATOM     46  C   UNL     1     -13.896  -1.141  -4.510  1.00  0.00     0.037 A 
ATOM     47  C   UNL     1     -11.683   5.058  -2.111  1.00  0.00     0.037 A 
ATOM     48  C   UNL     1     -14.267  -0.005  -5.313  1.00  0.00     0.049 A 
ATOM     49  C   UNL     1     -12.413   4.927  -3.422  1.00  0.00     0.074 A 
ATOM     50  C   UNL     1     -15.029   0.019  -6.468  1.00  0.00     0.029 A 
ATOM     51  N   UNL     1     -13.892   1.304  -5.052  1.00  0.00    -0.354 N 
ATOM     52  N   UNL     1     -12.932   3.859  -3.977  1.00  0.00    -0.248 NA
ATOM     53  C   UNL     1     -12.582   6.154  -4.214  1.00  0.00     0.031 C 
ATOM     54  C   UNL     1     -15.059   1.333  -6.943  1.00  0.00     0.029 A 
ATOM     55  C   UNL     1     -14.368   2.138  -6.051  1.00  0.00     0.049 A 
ATOM     56  H   UNL     1     -13.367   1.598  -4.273  1.00  0.00     0.167 HD
ATOM     57  C   UNL     1     -13.506   4.287  -5.166  1.00  0.00     0.074 A 
ATOM     58  C   UNL     1     -13.291   5.716  -5.244  1.00  0.00     0.031 C 
ATOM     59  C   UNL     1     -14.149   3.560  -6.112  1.00  0.00     0.037 A 
BRANCH  46  60
ATOM     60  C   UNL     1     -14.267  -2.504  -5.014  1.00  0.00     0.064 A 
ATOM     61  C   UNL     1     -15.265  -3.274  -4.399  1.00  0.00     0.173 A 
ATOM     62  C   UNL     1     -13.668  -3.014  -6.177  1.00  0.00     0.173 A 
ATOM     63  F   UNL     1     -15.864  -2.837  -3.282  1.00  0.00    -0.203 F 
ATOM     64  C   UNL     1     -15.637  -4.512  -4.920  1.00  0.00     0.198 A 
ATOM     65  C   UNL     1     -14.063  -4.237  -6.711  1.00  0.00     0.198 A 
ATOM     66  F   UNL     1     -12.712  -2.315  -6.808  1.00  0.00    -0.203 F 
ATOM     67  F   UNL     1     -16.568  -5.246  -4.295  1.00  0.00    -0.200 F 
ATOM     68  C   UNL     1     -15.044  -4.987  -6.080  1.00  0.00     0.200 A 
ATOM     69  F   UNL     1     -13.499  -4.687  -7.840  1.00  0.00    -0.200 F 
ATOM     70  F   UNL     1     -15.416  -6.170  -6.588  1.00  0.00    -0.200 F 
ENDBRANCH  46  60
BRANCH  47  71
ATOM     71  C   UNL     1     -11.151   6.374  -1.666  1.00  0.00     0.064 A 
ATOM     72  C   UNL     1     -12.013   7.428  -1.332  1.00  0.00     0.173 A 
ATOM     73  C   UNL     1      -9.771   6.615  -1.595  1.00  0.00     0.173 A 
ATOM     74  F   UNL     1     -13.341   7.255  -1.405  1.00  0.00    -0.203 F 
ATOM     75  C   UNL     1     -11.516   8.680  -0.974  1.00  0.00     0.198 A 
ATOM     76  C   UNL     1      -9.275   7.857  -1.203  1.00  0.00     0.198 A 
ATOM     77  F   UNL     1      -8.901   5.641  -1.900  1.00  0.00    -0.203 F 
ATOM     78  F   UNL     1     -12.364   9.686  -0.719  1.00  0.00    -0.200 F 
ATOM     79  C   UNL     1     -10.148   8.892  -0.905  1.00  0.00     0.200 A 
ATOM     80  F   UNL     1      -7.952   8.052  -1.123  1.00  0.00    -0.200 F 
ATOM     81  F   UNL     1      -9.671  10.097  -0.564  1.00  0.00    -0.200 F 
ENDBRANCH  47  71
BRANCH  59  82
ATOM     82  C   UNL     1     -14.685   4.296  -7.306  1.00  0.00     0.064 A 
ATOM     83  C   UNL     1     -13.834   4.809  -8.295  1.00  0.00     0.173 A 
ATOM     84  C   UNL     1     -16.069   4.436  -7.492  1.00  0.00     0.173 A 
ATOM     85  F   UNL     1     -12.503   4.715  -8.154  1.00  0.00    -0.203 F 
ATOM     86  C   UNL     1     -14.348   5.449  -9.419  1.00  0.00     0.198 A 
ATOM     87  C   UNL     1     -16.580   5.047  -8.633  1.00  0.00     0.198 A 
ATOM     88  F   UNL     1     -16.927   3.957  -6.578  1.00  0.00    -0.203 F 
ATOM     89  F   UNL     1     -13.514   5.967 -10.332  1.00  0.00    -0.200 F 
ATOM     90  C   UNL     1     -15.719   5.558  -9.593  1.00  0.00     0.200 A 
ATOM     91  F   UNL     1     -17.906   5.136  -8.807  1.00  0.00    -0.200 F 
ATOM     92  F   UNL     1     -16.212   6.159 -10.684  1.00  0.00    -0.200 F 
ENDBRANCH  59  82
ENDBRANCH  33  34
ENDBRANCH  25  28
ENDBRANCH  23  24
ENDBRANCH  22  23
ENDBRANCH  21  22
ENDBRANCH   1  21
TORSDOF 16
