REMARK SMILES CN1N=C(CC(=O)NCCCCCCNC(=O)c2ccc(-c3c4nc(c(-c5c(F)c(F)c(F)c(F)c5F)c5ccc([nH]5)c(-c5c(F)c(F)c(F)c(F)c5F)c5nc(c(-c6c(F)c(F)c(F)c(F)c6F)c6ccc3[nH]6)C=C5)C=C4)cc2)CC1=O
REMARK SMILES IDX 12 1 11 2 10 3 9 4 8 5 6 6 7 7 5 9 4 10 1 11 2 12 3 13 82 14
REMARK SMILES IDX 81 15 83 16 13 17 14 18 15 19 16 20 17 22 18 23 19 24 80 25
REMARK SMILES IDX 20 26 79 27 21 28 22 29 23 30 73 31 24 32 78 33 72 34 74 35
REMARK SMILES IDX 25 36 77 37 71 38 70 39 26 41 58 42 38 43 57 44 39 45 42 46
REMARK SMILES IDX 56 47 75 48 40 49 41 50 55 52 76 53 43 54 27 55 28 56 36 57
REMARK SMILES IDX 29 58 30 59 34 60 37 61 31 62 32 63 35 64 33 65 59 66 60 67
REMARK SMILES IDX 68 68 61 69 62 70 66 71 69 72 63 73 64 74 67 75 65 76 44 77
REMARK SMILES IDX 45 78 53 79 46 80 47 81 51 82 54 83 48 84 49 85 52 86 50 87
REMARK H PARENT 8 8 15 21 74 40 42 51
REMARK Flexibility Score: inf
ROOT
ATOM      1  C   UNL     1       6.117   3.750   3.376  1.00  0.00     0.002 C 
ENDROOT
BRANCH   1   2
ATOM      2  C   UNL     1       5.160   3.265   2.282  1.00  0.00     0.002 C 
BRANCH   2   3
ATOM      3  C   UNL     1       3.885   2.583   2.796  1.00  0.00     0.021 C 
BRANCH   3   4
ATOM      4  C   UNL     1       3.050   3.466   3.723  1.00  0.00     0.116 C 
BRANCH   4   5
ATOM      5  N   UNL     1       2.421   4.545   2.992  1.00  0.00    -0.356 N 
ATOM      6  C   UNL     1       1.125   4.666   2.584  1.00  0.00     0.225 C 
ATOM      7  O   UNL     1       0.807   5.650   1.917  1.00  0.00    -0.275 OA
ATOM      8  H   UNL     1       3.011   5.297   2.756  1.00  0.00     0.163 HD
BRANCH   6   9
ATOM      9  C   UNL     1       0.103   3.661   3.047  1.00  0.00     0.153 C 
BRANCH   9  10
ATOM     10  C   UNL     1       0.281   2.277   2.523  1.00  0.00     0.057 C 
ATOM     11  C   UNL     1       0.870  -0.070  -0.014  1.00  0.00     0.177 C 
ATOM     12  N   UNL     1       0.582   0.606   1.225  1.00  0.00    -0.237 N 
ATOM     13  N   UNL     1       0.512   1.978   1.281  1.00  0.00    -0.179 NA
ATOM     14  C   UNL     1       0.406  -0.031   2.449  1.00  0.00     0.248 C 
ATOM     15  C   UNL     1       0.165   1.079   3.422  1.00  0.00     0.156 C 
ATOM     16  O   UNL     1       0.454  -1.222   2.710  1.00  0.00    -0.273 OA
ENDBRANCH   9  10
ENDBRANCH   6   9
ENDBRANCH   4   5
ENDBRANCH   3   4
ENDBRANCH   2   3
ENDBRANCH   1   2
BRANCH   1  17
ATOM     17  C   UNL     1       6.556   2.672   4.369  1.00  0.00     0.021 C 
BRANCH  17  18
ATOM     18  C   UNL     1       7.306   1.505   3.736  1.00  0.00     0.116 C 
BRANCH  18  19
ATOM     19  N   UNL     1       8.564   1.927   3.143  1.00  0.00    -0.352 N 
ATOM     20  C   UNL     1       9.829   1.438   3.345  1.00  0.00     0.251 C 
ATOM     21  H   UNL     1       8.499   2.673   2.503  1.00  0.00     0.163 HD
ATOM     22  O   UNL     1      10.804   2.054   2.926  1.00  0.00    -0.269 OA
BRANCH  20  23
ATOM     23  C   UNL     1      10.021   0.173   4.086  1.00  0.00     0.039 A 
ATOM     24  C   UNL     1      11.055   0.090   5.021  1.00  0.00     0.014 A 
ATOM     25  C   UNL     1       9.197  -0.931   3.851  1.00  0.00     0.014 A 
ATOM     26  C   UNL     1      11.231  -1.084   5.754  1.00  0.00     0.010 A 
ATOM     27  C   UNL     1       9.320  -2.070   4.642  1.00  0.00     0.010 A 
ATOM     28  C   UNL     1      10.345  -2.163   5.595  1.00  0.00    -0.014 A 
BRANCH  28  29
ATOM     29  C   UNL     1      10.488  -3.396   6.412  1.00  0.00     0.031 A 
ATOM     30  C   UNL     1      10.789  -4.714   5.752  1.00  0.00     0.074 A 
ATOM     31  C   UNL     1      10.313  -3.332   7.747  1.00  0.00     0.049 A 
ATOM     32  N   UNL     1      10.914  -5.901   6.292  1.00  0.00    -0.248 NA
ATOM     33  C   UNL     1      10.948  -4.704   4.289  1.00  0.00     0.031 C 
ATOM     34  C   UNL     1       9.970  -2.124   8.499  1.00  0.00     0.029 A 
ATOM     35  N   UNL     1      10.395  -4.308   8.710  1.00  0.00    -0.354 N 
ATOM     36  C   UNL     1      11.168  -6.771   5.239  1.00  0.00     0.074 A 
ATOM     37  C   UNL     1      11.109  -5.992   4.022  1.00  0.00     0.031 C 
ATOM     38  C   UNL     1       9.896  -2.423   9.806  1.00  0.00     0.029 A 
ATOM     39  C   UNL     1      10.145  -3.850   9.981  1.00  0.00     0.049 A 
ATOM     40  H   UNL     1      10.613  -5.247   8.508  1.00  0.00     0.167 HD
ATOM     41  C   UNL     1      11.456  -8.094   5.286  1.00  0.00     0.037 A 
ATOM     42  C   UNL     1      10.112  -4.511  11.155  1.00  0.00     0.037 A 
ATOM     43  C   UNL     1      11.523  -8.866   6.499  1.00  0.00     0.049 A 
ATOM     44  C   UNL     1      10.416  -5.986  11.171  1.00  0.00     0.074 A 
ATOM     45  C   UNL     1      11.826 -10.208   6.653  1.00  0.00     0.029 A 
ATOM     46  N   UNL     1      11.285  -8.363   7.769  1.00  0.00    -0.354 N 
ATOM     47  N   UNL     1      10.711  -6.785  10.174  1.00  0.00    -0.248 NA
ATOM     48  C   UNL     1      10.399  -6.649  12.482  1.00  0.00     0.031 C 
ATOM     49  C   UNL     1      11.727 -10.527   8.010  1.00  0.00     0.029 A 
ATOM     50  C   UNL     1      11.426  -9.370   8.710  1.00  0.00     0.049 A 
ATOM     51  H   UNL     1      11.050  -7.428   7.972  1.00  0.00     0.167 HD
ATOM     52  C   UNL     1      10.956  -8.029  10.740  1.00  0.00     0.074 A 
ATOM     53  C   UNL     1      10.794  -7.874  12.170  1.00  0.00     0.031 C 
ATOM     54  C   UNL     1      11.285  -9.195  10.133  1.00  0.00     0.037 A 
BRANCH  41  55
ATOM     55  C   UNL     1      11.744  -8.792   3.987  1.00  0.00     0.064 A 
ATOM     56  C   UNL     1      12.916  -8.530   3.260  1.00  0.00     0.173 A 
ATOM     57  C   UNL     1      10.877  -9.779   3.496  1.00  0.00     0.173 A 
ATOM     58  F   UNL     1      13.774  -7.587   3.679  1.00  0.00    -0.203 F 
ATOM     59  C   UNL     1      13.200  -9.216   2.082  1.00  0.00     0.198 A 
ATOM     60  C   UNL     1      11.180 -10.486   2.335  1.00  0.00     0.198 A 
ATOM     61  F   UNL     1       9.745 -10.074   4.153  1.00  0.00    -0.203 F 
ATOM     62  F   UNL     1      14.305  -8.919   1.385  1.00  0.00    -0.200 F 
ATOM     63  C   UNL     1      12.337 -10.201   1.627  1.00  0.00     0.200 A 
ATOM     64  F   UNL     1      10.353 -11.450   1.904  1.00  0.00    -0.200 F 
ATOM     65  F   UNL     1      12.620 -10.874   0.503  1.00  0.00    -0.200 F 
ENDBRANCH  41  55
BRANCH  42  66
ATOM     66  C   UNL     1       9.788  -3.791  12.417  1.00  0.00     0.064 A 
ATOM     67  C   UNL     1      10.737  -3.659  13.441  1.00  0.00     0.173 A 
ATOM     68  C   UNL     1       8.508  -3.266  12.647  1.00  0.00     0.173 A 
ATOM     69  F   UNL     1      11.972  -4.159  13.279  1.00  0.00    -0.203 F 
ATOM     70  C   UNL     1      10.405  -3.074  14.662  1.00  0.00     0.198 A 
ATOM     71  C   UNL     1       8.188  -2.646  13.853  1.00  0.00     0.198 A 
ATOM     72  F   UNL     1       7.564  -3.354  11.698  1.00  0.00    -0.203 F 
ATOM     73  F   UNL     1      11.309  -3.032  15.649  1.00  0.00    -0.200 F 
ATOM     74  C   UNL     1       9.132  -2.566  14.866  1.00  0.00     0.200 A 
ATOM     75  F   UNL     1       6.962  -2.139  14.038  1.00  0.00    -0.200 F 
ATOM     76  F   UNL     1       8.809  -2.011  16.042  1.00  0.00    -0.200 F 
ENDBRANCH  42  66
BRANCH  54  77
ATOM     77  C   UNL     1      11.560 -10.379  11.018  1.00  0.00     0.064 A 
ATOM     78  C   UNL     1      10.547 -11.005  11.760  1.00  0.00     0.173 A 
ATOM     79  C   UNL     1      12.860 -10.900  11.113  1.00  0.00     0.173 A 
ATOM     80  F   UNL     1       9.290 -10.540  11.715  1.00  0.00    -0.203 F 
ATOM     81  C   UNL     1      10.835 -12.079  12.598  1.00  0.00     0.198 A 
ATOM     82  C   UNL     1      13.136 -11.999  11.921  1.00  0.00     0.198 A 
ATOM     83  F   UNL     1      13.864 -10.347  10.416  1.00  0.00    -0.203 F 
ATOM     84  F   UNL     1       9.865 -12.616  13.352  1.00  0.00    -0.200 F 
ATOM     85  C   UNL     1      12.126 -12.579  12.674  1.00  0.00     0.200 A 
ATOM     86  F   UNL     1      14.381 -12.491  11.978  1.00  0.00    -0.200 F 
ATOM     87  F   UNL     1      12.400 -13.613  13.481  1.00  0.00    -0.200 F 
ENDBRANCH  54  77
ENDBRANCH  28  29
ENDBRANCH  20  23
ENDBRANCH  18  19
ENDBRANCH  17  18
ENDBRANCH   1  17
TORSDOF 14
