REMARK SMILES O=C(NCCCCCCNC(=O)c1ccc(-c2c3nc(c(-c4c(F)c(F)c(F)c(F)c4F)c4ccc([nH]4)c(-c4c(F)c(F)c(F)c(F)c4F)c4nc(c(-c5c(F)c(F)c(F)c(F)c5F)c5ccc2[nH]5)C=C4)C=C3)cc1)C1=Cc2cc(Cl)ccc2O[C@@H]1C(F)(F)F
REMARK SMILES IDX 7 1 6 2 5 3 4 4 3 5 1 6 2 7 76 9 77 10 86 11 78 12 85 13
REMARK SMILES IDX 79 14 84 15 80 16 83 17 81 18 82 19 87 20 88 21 89 22 90 23
REMARK SMILES IDX 8 24 9 25 10 26 11 27 12 29 13 30 14 31 75 32 15 33 74 34
REMARK SMILES IDX 16 35 17 36 18 37 68 38 19 39 73 40 67 41 69 42 20 43 72 44
REMARK SMILES IDX 66 45 65 46 21 48 53 49 33 50 52 51 34 52 37 53 51 54 70 55
REMARK SMILES IDX 35 56 36 57 50 59 71 60 38 61 22 62 23 63 31 64 24 65 25 66
REMARK SMILES IDX 29 67 32 68 26 69 27 70 30 71 28 72 54 73 55 74 63 75 56 76
REMARK SMILES IDX 57 77 61 78 64 79 58 80 59 81 62 82 60 83 39 84 40 85 48 86
REMARK SMILES IDX 41 87 42 88 46 89 49 90 43 91 44 92 47 93 45 94
REMARK H PARENT 3 8 10 28 69 47 37 58
REMARK Flexibility Score: inf
ROOT
ATOM      1  C   UNL     1       4.588   3.590   2.949  1.00  0.00     0.002 C 
ENDROOT
BRANCH   1   2
ATOM      2  C   UNL     1       3.924   4.093   1.662  1.00  0.00     0.002 C 
BRANCH   2   3
ATOM      3  C   UNL     1       4.288   3.366   0.369  1.00  0.00     0.021 C 
BRANCH   3   4
ATOM      4  C   UNL     1       4.034   1.865   0.340  1.00  0.00     0.116 C 
BRANCH   4   5
ATOM      5  N   UNL     1       2.716   1.461  -0.113  1.00  0.00    -0.352 N 
ATOM      6  O   UNL     1       1.095   0.072  -0.802  1.00  0.00    -0.270 OA
ATOM      7  C   UNL     1       2.295   0.253  -0.598  1.00  0.00     0.251 C 
ATOM      8  H   UNL     1       2.023   2.158  -0.064  1.00  0.00     0.163 HD
BRANCH   7   9
ATOM      9  C   UNL     1       3.224  -0.899  -0.809  1.00  0.00     0.067 C 
ATOM     10  C   UNL     1       4.455  -0.751  -1.332  1.00  0.00     0.025 C 
ATOM     11  C   UNL     1       2.987  -2.023   0.177  1.00  0.00     0.314 C 
ATOM     12  C   UNL     1       5.496  -0.885  -0.278  1.00  0.00     0.019 A 
ATOM     13  O   UNL     1       3.944  -1.967   1.273  1.00  0.00    -0.475 OA
ATOM     14  C   UNL     1       6.729  -0.253  -0.475  1.00  0.00     0.032 A 
ATOM     15  C   UNL     1       5.157  -1.389   0.989  1.00  0.00     0.128 A 
ATOM     16  C   UNL     1       7.566  -0.037   0.617  1.00  0.00     0.041 A 
ATOM     17  C   UNL     1       6.018  -1.199   2.067  1.00  0.00     0.048 A 
ATOM     18  Cl  UNL     1       8.989   0.910   0.421  1.00  0.00    -0.084 Cl
ATOM     19  C   UNL     1       7.213  -0.498   1.886  1.00  0.00     0.024 A 
BRANCH  11  20
ATOM     20  C   UNL     1       2.981  -3.409  -0.488  1.00  0.00     0.429 C 
ATOM     21  F   UNL     1       2.627  -4.376   0.393  1.00  0.00    -0.167 F 
ATOM     22  F   UNL     1       2.100  -3.468  -1.515  1.00  0.00    -0.167 F 
ATOM     23  F   UNL     1       4.194  -3.748  -0.987  1.00  0.00    -0.167 F 
ENDBRANCH  11  20
ENDBRANCH   7   9
ENDBRANCH   4   5
ENDBRANCH   3   4
ENDBRANCH   2   3
ENDBRANCH   1   2
BRANCH   1  24
ATOM     24  C   UNL     1       6.108   3.404   2.923  1.00  0.00     0.021 C 
BRANCH  24  25
ATOM     25  C   UNL     1       6.934   4.608   2.480  1.00  0.00     0.116 C 
BRANCH  25  26
ATOM     26  N   UNL     1       6.710   5.787   3.297  1.00  0.00    -0.352 N 
ATOM     27  C   UNL     1       7.605   6.615   3.929  1.00  0.00     0.251 C 
ATOM     28  H   UNL     1       5.764   6.032   3.419  1.00  0.00     0.163 HD
ATOM     29  O   UNL     1       7.194   7.492   4.682  1.00  0.00    -0.269 OA
BRANCH  27  30
ATOM     30  C   UNL     1       9.065   6.447   3.735  1.00  0.00     0.039 A 
ATOM     31  C   UNL     1       9.904   6.578   4.846  1.00  0.00     0.014 A 
ATOM     32  C   UNL     1       9.617   6.203   2.475  1.00  0.00     0.014 A 
ATOM     33  C   UNL     1      11.283   6.407   4.705  1.00  0.00     0.010 A 
ATOM     34  C   UNL     1      10.984   5.959   2.347  1.00  0.00     0.010 A 
ATOM     35  C   UNL     1      11.833   6.064   3.460  1.00  0.00    -0.014 A 
BRANCH  35  36
ATOM     36  C   UNL     1      13.292   5.819   3.306  1.00  0.00     0.031 A 
ATOM     37  C   UNL     1      14.126   6.717   2.433  1.00  0.00     0.074 A 
ATOM     38  C   UNL     1      13.856   4.756   3.912  1.00  0.00     0.049 A 
ATOM     39  N   UNL     1      15.399   6.635   2.135  1.00  0.00    -0.248 NA
ATOM     40  C   UNL     1      13.433   7.845   1.790  1.00  0.00     0.031 C 
ATOM     41  C   UNL     1      13.149   3.788   4.753  1.00  0.00     0.029 A 
ATOM     42  N   UNL     1      15.154   4.306   3.910  1.00  0.00    -0.354 N 
ATOM     43  C   UNL     1      15.652   7.682   1.259  1.00  0.00     0.074 A 
ATOM     44  C   UNL     1      14.393   8.360   1.036  1.00  0.00     0.031 C 
ATOM     45  C   UNL     1      14.025   2.877   5.207  1.00  0.00     0.029 A 
ATOM     46  C   UNL     1      15.345   3.168   4.657  1.00  0.00     0.049 A 
ATOM     47  H   UNL     1      15.879   4.755   3.419  1.00  0.00     0.167 HD
ATOM     48  C   UNL     1      16.831   8.056   0.707  1.00  0.00     0.037 A 
ATOM     49  C   UNL     1      16.458   2.440   4.869  1.00  0.00     0.037 A 
ATOM     50  C   UNL     1      18.087   7.399   0.958  1.00  0.00     0.049 A 
ATOM     51  C   UNL     1      17.751   2.873   4.230  1.00  0.00     0.074 A 
ATOM     52  C   UNL     1      19.348   7.749   0.507  1.00  0.00     0.029 A 
ATOM     53  N   UNL     1      18.241   6.253   1.724  1.00  0.00    -0.354 N 
ATOM     54  N   UNL     1      17.993   3.912   3.469  1.00  0.00    -0.248 NA
ATOM     55  C   UNL     1      18.929   2.031   4.485  1.00  0.00     0.031 C 
ATOM     56  C   UNL     1      20.256   6.783   0.951  1.00  0.00     0.029 A 
ATOM     57  C   UNL     1      19.572   5.865   1.731  1.00  0.00     0.049 A 
ATOM     58  H   UNL     1      17.513   5.785   2.193  1.00  0.00     0.167 HD
ATOM     59  C   UNL     1      19.352   3.870   3.186  1.00  0.00     0.074 A 
ATOM     60  C   UNL     1      19.885   2.710   3.868  1.00  0.00     0.031 C 
ATOM     61  C   UNL     1      20.091   4.716   2.428  1.00  0.00     0.037 A 
BRANCH  48  62
ATOM     62  C   UNL     1      16.826   9.230  -0.230  1.00  0.00     0.064 A 
ATOM     63  C   UNL     1      16.608  10.539   0.225  1.00  0.00     0.173 A 
ATOM     64  C   UNL     1      17.099   9.049  -1.595  1.00  0.00     0.173 A 
ATOM     65  F   UNL     1      16.333  10.768   1.518  1.00  0.00    -0.203 F 
ATOM     66  C   UNL     1      16.638  11.619  -0.654  1.00  0.00     0.198 A 
ATOM     67  C   UNL     1      17.160  10.134  -2.466  1.00  0.00     0.198 A 
ATOM     68  F   UNL     1      17.323   7.819  -2.083  1.00  0.00    -0.203 F 
ATOM     69  F   UNL     1      16.382  12.855  -0.204  1.00  0.00    -0.200 F 
ATOM     70  C   UNL     1      16.923  11.417  -1.996  1.00  0.00     0.200 A 
ATOM     71  F   UNL     1      17.451   9.938  -3.759  1.00  0.00    -0.200 F 
ATOM     72  F   UNL     1      16.964  12.458  -2.838  1.00  0.00    -0.200 F 
ENDBRANCH  48  62
BRANCH  49  73
ATOM     73  C   UNL     1      16.412   1.236   5.742  1.00  0.00     0.064 A 
ATOM     74  C   UNL     1      17.087   1.214   6.971  1.00  0.00     0.173 A 
ATOM     75  C   UNL     1      15.721   0.078   5.358  1.00  0.00     0.173 A 
ATOM     76  F   UNL     1      17.780   2.289   7.373  1.00  0.00    -0.203 F 
ATOM     77  C   UNL     1      17.097   0.071   7.768  1.00  0.00     0.198 A 
ATOM     78  C   UNL     1      15.704  -1.054   6.172  1.00  0.00     0.198 A 
ATOM     79  F   UNL     1      15.056   0.046   4.194  1.00  0.00    -0.203 F 
ATOM     80  F   UNL     1      17.798   0.060   8.910  1.00  0.00    -0.200 F 
ATOM     81  C   UNL     1      16.401  -1.060   7.370  1.00  0.00     0.200 A 
ATOM     82  F   UNL     1      15.019  -2.140   5.790  1.00  0.00    -0.200 F 
ATOM     83  F   UNL     1      16.412  -2.160   8.136  1.00  0.00    -0.200 F 
ENDBRANCH  49  73
BRANCH  61  84
ATOM     84  C   UNL     1      21.566   4.449   2.334  1.00  0.00     0.064 A 
ATOM     85  C   UNL     1      22.076   3.356   1.618  1.00  0.00     0.173 A 
ATOM     86  C   UNL     1      22.483   5.324   2.938  1.00  0.00     0.173 A 
ATOM     87  F   UNL     1      21.241   2.482   1.035  1.00  0.00    -0.203 F 
ATOM     88  C   UNL     1      23.448   3.132   1.534  1.00  0.00     0.198 A 
ATOM     89  C   UNL     1      23.855   5.116   2.823  1.00  0.00     0.198 A 
ATOM     90  F   UNL     1      22.049   6.389   3.628  1.00  0.00    -0.203 F 
ATOM     91  F   UNL     1      23.910   2.052   0.890  1.00  0.00    -0.200 F 
ATOM     92  C   UNL     1      24.336   4.017   2.129  1.00  0.00     0.200 A 
ATOM     93  F   UNL     1      24.711   5.981   3.384  1.00  0.00    -0.200 F 
ATOM     94  F   UNL     1      25.656   3.804   2.040  1.00  0.00    -0.200 F 
ENDBRANCH  61  84
ENDBRANCH  35  36
ENDBRANCH  27  30
ENDBRANCH  25  26
ENDBRANCH  24  25
ENDBRANCH   1  24
TORSDOF 14
