REMARK SMILES COc1ccc(N(CN2C(=O)CC[C@H]2C(=O)NCCCCCCNC(=O)c2ccc(-c3c4nc(c(-c5c(F)c(F)c(F)c(F)c5F)c5ccc([nH]5)c(-c5c(F)c(F)c(F)c(F)c5F)c5nc(c(-c6c(F)c(F)c(F)c(F)c6F)c6ccc3[nH]6)C=C5)C=C4)cc2)C(C)=O)cc1
REMARK SMILES IDX 19 1 18 2 17 3 15 4 16 5 14 7 9 8 10 9 11 10 12 11 13 12
REMARK SMILES IDX 8 13 7 14 6 15 3 16 4 17 94 18 5 19 93 20 2 21 1 22 90 23
REMARK SMILES IDX 91 24 92 25 20 26 21 27 22 28 23 29 24 30 25 31 26 33 27 34
REMARK SMILES IDX 28 35 89 36 29 37 88 38 30 39 31 40 32 41 82 42 33 43 87 44
REMARK SMILES IDX 81 45 83 46 34 47 86 48 80 49 79 50 35 52 67 53 47 54 66 55
REMARK SMILES IDX 48 56 51 57 65 58 84 59 49 60 50 61 64 63 85 64 52 65 36 66
REMARK SMILES IDX 37 67 45 68 38 69 39 70 43 71 46 72 40 73 41 74 44 75 42 76
REMARK SMILES IDX 68 77 69 78 77 79 70 80 71 81 75 82 78 83 72 84 73 85 76 86
REMARK SMILES IDX 74 87 53 88 54 89 62 90 55 91 56 92 60 93 63 94 57 95 58 96
REMARK SMILES IDX 61 97 59 98
REMARK H PARENT 17 6 24 32 83 51 51 62
REMARK Flexibility Score: inf
ROOT
ATOM      1  C   UNL     1      -1.149  -0.543   8.824  1.00  0.00     0.021 C 
ENDROOT
BRANCH   1   2
ATOM      2  C   UNL     1       0.288  -0.288   8.351  1.00  0.00     0.116 C 
BRANCH   2   3
ATOM      3  N   UNL     1       0.260   0.408   7.082  1.00  0.00    -0.354 N 
ATOM      4  C   UNL     1       0.171   1.761   6.903  1.00  0.00     0.242 C 
ATOM      5  O   UNL     1      -0.608   2.160   6.038  1.00  0.00    -0.273 OA
ATOM      6  H   UNL     1       0.308  -0.146   6.269  1.00  0.00     0.163 HD
BRANCH   4   7
ATOM      7  C   UNL     1       1.047   2.704   7.754  1.00  0.00     0.176 C 
ATOM      8  N   UNL     1       1.028   4.086   7.290  1.00  0.00    -0.312 N 
ATOM      9  C   UNL     1       0.721   4.992   8.288  1.00  0.00     0.224 C 
ATOM     10  O   UNL     1       0.536   6.188   8.161  1.00  0.00    -0.275 OA
ATOM     11  C   UNL     1       0.731   4.259   9.596  1.00  0.00     0.103 C 
ATOM     12  C   UNL     1       0.554   2.806   9.197  1.00  0.00     0.045 C 
BRANCH   8  13
ATOM     13  C   UNL     1       1.282   4.533   5.923  1.00  0.00     0.249 C 
BRANCH  13  14
ATOM     14  N   UNL     1       2.208   3.703   5.140  1.00  0.00    -0.294 N 
BRANCH  14  15
ATOM     15  C   UNL     1       1.763   3.108   3.887  1.00  0.00     0.046 A 
ATOM     16  C   UNL     1       0.828   1.820   1.493  1.00  0.00     0.119 A 
ATOM     17  C   UNL     1      -0.047   2.510   2.314  1.00  0.00     0.048 A 
ATOM     18  C   UNL     1       2.177   1.843   1.806  1.00  0.00     0.048 A 
ATOM     19  C   UNL     1       0.413   3.133   3.486  1.00  0.00     0.030 A 
ATOM     20  C   UNL     1       2.631   2.502   2.966  1.00  0.00     0.030 A 
BRANCH  16  21
ATOM     21  O   UNL     1       0.286   1.231   0.388  1.00  0.00    -0.497 OA
ATOM     22  C   UNL     1       0.865  -0.022   0.035  1.00  0.00     0.278 C 
ENDBRANCH  16  21
ENDBRANCH  14  15
BRANCH  14  23
ATOM     23  C   UNL     1       3.501   3.692   5.680  1.00  0.00     0.225 C 
ATOM     24  C   UNL     1       4.496   2.628   5.305  1.00  0.00     0.115 C 
ATOM     25  O   UNL     1       3.856   4.494   6.554  1.00  0.00    -0.275 OA
ENDBRANCH  14  23
ENDBRANCH  13  14
ENDBRANCH   8  13
ENDBRANCH   4   7
ENDBRANCH   2   3
ENDBRANCH   1   2
BRANCH   1  26
ATOM     26  C   UNL     1      -1.877  -1.616   8.001  1.00  0.00     0.002 C 
BRANCH  26  27
ATOM     27  C   UNL     1      -1.187  -2.983   7.994  1.00  0.00     0.002 C 
BRANCH  27  28
ATOM     28  C   UNL     1      -0.909  -3.559   9.384  1.00  0.00     0.021 C 
BRANCH  28  29
ATOM     29  C   UNL     1      -2.159  -3.764  10.233  1.00  0.00     0.116 C 
BRANCH  29  30
ATOM     30  N   UNL     1      -3.068  -4.718   9.620  1.00  0.00    -0.352 N 
ATOM     31  C   UNL     1      -3.584  -5.883  10.121  1.00  0.00     0.251 C 
ATOM     32  H   UNL     1      -3.355  -4.493   8.705  1.00  0.00     0.163 HD
ATOM     33  O   UNL     1      -4.124  -6.686   9.366  1.00  0.00    -0.269 OA
BRANCH  31  34
ATOM     34  C   UNL     1      -3.485  -6.183  11.565  1.00  0.00     0.039 A 
ATOM     35  C   UNL     1      -3.235  -7.500  11.954  1.00  0.00     0.014 A 
ATOM     36  C   UNL     1      -3.679  -5.191  12.533  1.00  0.00     0.014 A 
ATOM     37  C   UNL     1      -3.141  -7.813  13.310  1.00  0.00     0.010 A 
ATOM     38  C   UNL     1      -3.499  -5.488  13.882  1.00  0.00     0.010 A 
ATOM     39  C   UNL     1      -3.242  -6.805  14.285  1.00  0.00    -0.014 A 
BRANCH  39  40
ATOM     40  C   UNL     1      -3.060  -7.141  15.720  1.00  0.00     0.031 A 
ATOM     41  C   UNL     1      -4.185  -6.980  16.703  1.00  0.00     0.074 A 
ATOM     42  C   UNL     1      -1.862  -7.596  16.135  1.00  0.00     0.049 A 
ATOM     43  N   UNL     1      -4.224  -7.297  17.973  1.00  0.00    -0.248 NA
ATOM     44  C   UNL     1      -5.422  -6.359  16.204  1.00  0.00     0.031 C 
ATOM     45  C   UNL     1      -0.673  -7.727  15.290  1.00  0.00     0.029 A 
ATOM     46  N   UNL     1      -1.448  -8.043  17.364  1.00  0.00    -0.354 N 
ATOM     47  C   UNL     1      -5.485  -6.925  18.419  1.00  0.00     0.074 A 
ATOM     48  C   UNL     1      -6.155  -6.290  17.305  1.00  0.00     0.031 C 
ATOM     49  C   UNL     1       0.321  -8.266  16.012  1.00  0.00     0.029 A 
ATOM     50  C   UNL     1      -0.147  -8.484  17.377  1.00  0.00     0.049 A 
ATOM     51  H   UNL     1      -2.027  -8.048  18.160  1.00  0.00     0.167 HD
ATOM     52  C   UNL     1      -6.045  -7.122  19.638  1.00  0.00     0.037 A 
ATOM     53  C   UNL     1       0.584  -9.014  18.375  1.00  0.00     0.037 A 
ATOM     54  C   UNL     1      -5.369  -7.751  20.745  1.00  0.00     0.049 A 
ATOM     55  C   UNL     1      -0.061  -9.227  19.717  1.00  0.00     0.074 A 
ATOM     56  C   UNL     1      -5.857  -8.031  22.010  1.00  0.00     0.029 A 
ATOM     57  N   UNL     1      -4.052  -8.190  20.721  1.00  0.00    -0.354 N 
ATOM     58  N   UNL     1      -1.281  -8.944  20.105  1.00  0.00    -0.248 NA
ATOM     59  C   UNL     1       0.770  -9.852  20.753  1.00  0.00     0.031 C 
ATOM     60  C   UNL     1      -4.819  -8.586  22.768  1.00  0.00     0.029 A 
ATOM     61  C   UNL     1      -3.705  -8.718  21.956  1.00  0.00     0.049 A 
ATOM     62  H   UNL     1      -3.453  -8.134  19.943  1.00  0.00     0.167 HD
ATOM     63  C   UNL     1      -1.373  -9.378  21.420  1.00  0.00     0.074 A 
ATOM     64  C   UNL     1      -0.093  -9.970  21.751  1.00  0.00     0.031 C 
ATOM     65  C   UNL     1      -2.422  -9.295  22.277  1.00  0.00     0.037 A 
BRANCH  52  66
ATOM     66  C   UNL     1      -7.460  -6.652  19.835  1.00  0.00     0.064 A 
ATOM     67  C   UNL     1      -8.537  -7.255  19.166  1.00  0.00     0.173 A 
ATOM     68  C   UNL     1      -7.749  -5.605  20.724  1.00  0.00     0.173 A 
ATOM     69  F   UNL     1      -8.318  -8.254  18.296  1.00  0.00    -0.203 F 
ATOM     70  C   UNL     1      -9.842  -6.806  19.351  1.00  0.00     0.198 A 
ATOM     71  C   UNL     1      -9.060  -5.182  20.934  1.00  0.00     0.198 A 
ATOM     72  F   UNL     1      -6.762  -4.995  21.396  1.00  0.00    -0.203 F 
ATOM     73  F   UNL     1     -10.845  -7.359  18.655  1.00  0.00    -0.200 F 
ATOM     74  C   UNL     1     -10.104  -5.775  20.240  1.00  0.00     0.200 A 
ATOM     75  F   UNL     1      -9.312  -4.197  21.806  1.00  0.00    -0.200 F 
ATOM     76  F   UNL     1     -11.361  -5.348  20.423  1.00  0.00    -0.200 F 
ENDBRANCH  52  66
BRANCH  53  77
ATOM     77  C   UNL     1       1.996  -9.407  18.127  1.00  0.00     0.064 A 
ATOM     78  C   UNL     1       2.388 -10.753  18.132  1.00  0.00     0.173 A 
ATOM     79  C   UNL     1       2.982  -8.442  17.872  1.00  0.00     0.173 A 
ATOM     80  F   UNL     1       1.486 -11.713  18.386  1.00  0.00    -0.203 F 
ATOM     81  C   UNL     1       3.716 -11.117  17.917  1.00  0.00     0.198 A 
ATOM     82  C   UNL     1       4.302  -8.810  17.623  1.00  0.00     0.198 A 
ATOM     83  F   UNL     1       2.658  -7.141  17.845  1.00  0.00    -0.203 F 
ATOM     84  F   UNL     1       4.072 -12.408  17.977  1.00  0.00    -0.200 F 
ATOM     85  C   UNL     1       4.670 -10.146  17.655  1.00  0.00     0.200 A 
ATOM     86  F   UNL     1       5.216  -7.869  17.349  1.00  0.00    -0.200 F 
ATOM     87  F   UNL     1       5.945 -10.497  17.439  1.00  0.00    -0.200 F 
ENDBRANCH  53  77
BRANCH  65  88
ATOM     88  C   UNL     1      -2.232  -9.890  23.645  1.00  0.00     0.064 A 
ATOM     89  C   UNL     1      -1.340  -9.338  24.578  1.00  0.00     0.173 A 
ATOM     90  C   UNL     1      -2.950 -11.035  24.026  1.00  0.00     0.173 A 
ATOM     91  F   UNL     1      -0.620  -8.250  24.262  1.00  0.00    -0.203 F 
ATOM     92  C   UNL     1      -1.132  -9.941  25.816  1.00  0.00     0.198 A 
ATOM     93  C   UNL     1      -2.770 -11.611  25.281  1.00  0.00     0.198 A 
ATOM     94  F   UNL     1      -3.825 -11.598  23.180  1.00  0.00    -0.203 F 
ATOM     95  F   UNL     1      -0.216  -9.441  26.656  1.00  0.00    -0.200 F 
ATOM     96  C   UNL     1      -1.850 -11.073  26.168  1.00  0.00     0.200 A 
ATOM     97  F   UNL     1      -3.478 -12.695  25.626  1.00  0.00    -0.200 F 
ATOM     98  F   UNL     1      -1.645 -11.655  27.357  1.00  0.00    -0.200 F 
ENDBRANCH  65  88
ENDBRANCH  39  40
ENDBRANCH  31  34
ENDBRANCH  29  30
ENDBRANCH  28  29
ENDBRANCH  27  28
ENDBRANCH  26  27
ENDBRANCH   1  26
TORSDOF 18
