REMARK SMILES O=C(NCCCCCCNC(=O)c1ccc(C[NH2+][C@H]2CCCNC2=O)nc1)c1ccc(-c2c3nc(c(-c4c(F)c(F)c(F)c(F)c4F)c4ccc([nH]4)c(-c4c(F)c(F)c(F)c(F)c4F)c4nc(c(-c5c(F)c(F)c(F)c(F)c5F)c5ccc2[nH]5)C=C4)C=C3)cc1
REMARK SMILES IDX 7 1 6 2 5 3 4 4 3 5 1 6 2 7 28 9 29 10 90 11 30 12 89 13
REMARK SMILES IDX 31 14 32 15 33 16 83 17 34 18 88 19 82 20 84 21 35 22 87 23
REMARK SMILES IDX 81 24 80 25 36 27 68 28 48 29 67 30 49 31 52 32 66 33 85 34
REMARK SMILES IDX 50 35 51 36 65 38 86 39 53 40 37 41 38 42 46 43 39 44 40 45
REMARK SMILES IDX 44 46 47 47 41 48 42 49 45 50 43 51 69 52 70 53 78 54 71 55
REMARK SMILES IDX 72 56 76 57 79 58 73 59 74 60 77 61 75 62 54 63 55 64 63 65
REMARK SMILES IDX 56 66 57 67 61 68 64 69 58 70 59 71 62 72 60 73 8 74 9 75
REMARK SMILES IDX 10 76 11 77 12 79 13 80 14 81 27 82 15 83 26 84 16 85 17 86
REMARK SMILES IDX 18 87 19 90 20 91 24 92 21 93 23 94 25 95 22 96
REMARK H PARENT 3 8 84 26 52 37 10 78 18 88 18 89 23 97
REMARK Flexibility Score: inf
ROOT
ATOM      1  C   UNL     1       4.825  -4.408  -0.455  1.00  0.00     0.002 C 
ENDROOT
BRANCH   1   2
ATOM      2  C   UNL     1       4.265  -3.847   0.855  1.00  0.00     0.002 C 
BRANCH   2   3
ATOM      3  C   UNL     1       4.739  -2.441   1.223  1.00  0.00     0.021 C 
BRANCH   3   4
ATOM      4  C   UNL     1       4.502  -1.384   0.153  1.00  0.00     0.116 C 
BRANCH   4   5
ATOM      5  N   UNL     1       3.090  -1.158  -0.105  1.00  0.00    -0.352 N 
ATOM      6  O   UNL     1       1.162   0.015  -0.181  1.00  0.00    -0.269 OA
ATOM      7  C   UNL     1       2.385   0.020  -0.095  1.00  0.00     0.251 C 
ATOM      8  H   UNL     1       2.564  -1.963  -0.317  1.00  0.00     0.163 HD
BRANCH   7   9
ATOM      9  C   UNL     1       3.108   1.303   0.044  1.00  0.00     0.039 A 
ATOM     10  C   UNL     1       4.263   1.555  -0.700  1.00  0.00     0.014 A 
ATOM     11  C   UNL     1       2.614   2.269   0.925  1.00  0.00     0.014 A 
ATOM     12  C   UNL     1       4.996   2.713  -0.466  1.00  0.00     0.010 A 
ATOM     13  C   UNL     1       3.307   3.470   1.097  1.00  0.00     0.010 A 
ATOM     14  C   UNL     1       4.517   3.690   0.422  1.00  0.00    -0.014 A 
BRANCH  14  15
ATOM     15  C   UNL     1       5.263   4.965   0.570  1.00  0.00     0.031 A 
ATOM     16  C   UNL     1       5.909   5.344   1.871  1.00  0.00     0.074 A 
ATOM     17  C   UNL     1       5.366   5.776  -0.500  1.00  0.00     0.049 A 
ATOM     18  N   UNL     1       6.609   6.412   2.163  1.00  0.00    -0.248 NA
ATOM     19  C   UNL     1       5.744   4.409   2.994  1.00  0.00     0.031 C 
ATOM     20  C   UNL     1       4.766   5.515  -1.810  1.00  0.00     0.029 A 
ATOM     21  N   UNL     1       6.019   6.969  -0.664  1.00  0.00    -0.354 N 
ATOM     22  C   UNL     1       6.953   6.288   3.503  1.00  0.00     0.074 A 
ATOM     23  C   UNL     1       6.362   5.053   3.975  1.00  0.00     0.031 C 
ATOM     24  C   UNL     1       5.116   6.494  -2.656  1.00  0.00     0.029 A 
ATOM     25  C   UNL     1       5.910   7.481  -1.933  1.00  0.00     0.049 A 
ATOM     26  H   UNL     1       6.517   7.416   0.058  1.00  0.00     0.167 HD
ATOM     27  C   UNL     1       7.700   7.126   4.263  1.00  0.00     0.037 A 
ATOM     28  C   UNL     1       6.383   8.627  -2.455  1.00  0.00     0.037 A 
ATOM     29  C   UNL     1       8.292   8.348   3.780  1.00  0.00     0.049 A 
ATOM     30  C   UNL     1       7.181   9.550  -1.583  1.00  0.00     0.074 A 
ATOM     31  C   UNL     1       9.100   9.244   4.459  1.00  0.00     0.029 A 
ATOM     32  N   UNL     1       8.130   8.853   2.497  1.00  0.00    -0.354 N 
ATOM     33  N   UNL     1       7.535   9.402  -0.329  1.00  0.00    -0.248 NA
ATOM     34  C   UNL     1       7.643  10.802  -2.196  1.00  0.00     0.031 C 
ATOM     35  C   UNL     1       9.385  10.314   3.604  1.00  0.00     0.029 A 
ATOM     36  C   UNL     1       8.800  10.061   2.374  1.00  0.00     0.049 A 
ATOM     37  H   UNL     1       7.616   8.417   1.780  1.00  0.00     0.167 HD
ATOM     38  C   UNL     1       8.272  10.531  -0.006  1.00  0.00     0.074 A 
ATOM     39  C   UNL     1       8.333  11.345  -1.203  1.00  0.00     0.031 C 
ATOM     40  C   UNL     1       8.845  10.863   1.177  1.00  0.00     0.037 A 
BRANCH  27  41
ATOM     41  C   UNL     1       7.903   6.761   5.706  1.00  0.00     0.064 A 
ATOM     42  C   UNL     1       8.716   5.683   6.089  1.00  0.00     0.173 A 
ATOM     43  C   UNL     1       7.306   7.524   6.722  1.00  0.00     0.173 A 
ATOM     44  F   UNL     1       9.302   4.915   5.159  1.00  0.00    -0.203 F 
ATOM     45  C   UNL     1       8.899   5.365   7.434  1.00  0.00     0.198 A 
ATOM     46  C   UNL     1       7.515   7.221   8.065  1.00  0.00     0.198 A 
ATOM     47  F   UNL     1       6.526   8.570   6.412  1.00  0.00    -0.203 F 
ATOM     48  F   UNL     1       9.640   4.302   7.774  1.00  0.00    -0.200 F 
ATOM     49  C   UNL     1       8.303   6.137   8.420  1.00  0.00     0.200 A 
ATOM     50  F   UNL     1       6.949   7.976   9.017  1.00  0.00    -0.200 F 
ATOM     51  F   UNL     1       8.484   5.832   9.712  1.00  0.00    -0.200 F 
ENDBRANCH  27  41
BRANCH  28  52
ATOM     52  C   UNL     1       6.109   8.950  -3.878  1.00  0.00     0.064 A 
ATOM     53  C   UNL     1       7.136   8.934  -4.831  1.00  0.00     0.173 A 
ATOM     54  C   UNL     1       4.812   9.251  -4.320  1.00  0.00     0.173 A 
ATOM     55  F   UNL     1       8.396   8.669  -4.453  1.00  0.00    -0.203 F 
ATOM     56  C   UNL     1       6.878   9.213  -6.171  1.00  0.00     0.198 A 
ATOM     57  C   UNL     1       4.550   9.501  -5.664  1.00  0.00     0.198 A 
ATOM     58  F   UNL     1       3.794   9.272  -3.447  1.00  0.00    -0.203 F 
ATOM     59  F   UNL     1       7.883   9.223  -7.056  1.00  0.00    -0.200 F 
ATOM     60  C   UNL     1       5.583   9.488  -6.588  1.00  0.00     0.200 A 
ATOM     61  F   UNL     1       3.295   9.747  -6.065  1.00  0.00    -0.200 F 
ATOM     62  F   UNL     1       5.333   9.742  -7.879  1.00  0.00    -0.200 F 
ENDBRANCH  28  52
BRANCH  40  63
ATOM     63  C   UNL     1       9.606  12.156   1.224  1.00  0.00     0.064 A 
ATOM     64  C   UNL     1       8.950  13.396   1.201  1.00  0.00     0.173 A 
ATOM     65  C   UNL     1      11.006  12.154   1.317  1.00  0.00     0.173 A 
ATOM     66  F   UNL     1       7.614  13.451   1.093  1.00  0.00    -0.203 F 
ATOM     67  C   UNL     1       9.671  14.586   1.241  1.00  0.00     0.198 A 
ATOM     68  C   UNL     1      11.721  13.346   1.388  1.00  0.00     0.198 A 
ATOM     69  F   UNL     1      11.680  10.994   1.347  1.00  0.00    -0.203 F 
ATOM     70  F   UNL     1       9.027  15.760   1.166  1.00  0.00    -0.200 F 
ATOM     71  C   UNL     1      11.054  14.560   1.342  1.00  0.00     0.200 A 
ATOM     72  F   UNL     1      13.056  13.319   1.496  1.00  0.00    -0.200 F 
ATOM     73  F   UNL     1      11.745  15.708   1.384  1.00  0.00    -0.200 F 
ENDBRANCH  40  63
ENDBRANCH  14  15
ENDBRANCH   7   9
ENDBRANCH   4   5
ENDBRANCH   3   4
ENDBRANCH   2   3
ENDBRANCH   1   2
BRANCH   1  74
ATOM     74  C   UNL     1       6.352  -4.386  -0.583  1.00  0.00     0.021 C 
BRANCH  74  75
ATOM     75  C   UNL     1       7.104  -5.061   0.561  1.00  0.00     0.116 C 
BRANCH  75  76
ATOM     76  N   UNL     1       6.784  -6.474   0.663  1.00  0.00    -0.352 N 
ATOM     77  C   UNL     1       7.635  -7.547   0.624  1.00  0.00     0.252 C 
ATOM     78  H   UNL     1       5.830  -6.689   0.774  1.00  0.00     0.163 HD
ATOM     79  O   UNL     1       7.203  -8.691   0.540  1.00  0.00    -0.269 OA
BRANCH  77  80
ATOM     80  C   UNL     1       9.082  -7.314   0.674  1.00  0.00     0.058 A 
ATOM     81  C   UNL     1       9.677  -6.601   1.714  1.00  0.00     0.017 A 
ATOM     82  C   UNL     1       9.878  -7.806  -0.343  1.00  0.00     0.125 A 
ATOM     83  C   UNL     1      11.047  -6.361   1.669  1.00  0.00     0.030 A 
ATOM     84  N   UNL     1      11.209  -7.577  -0.412  1.00  0.00    -0.255 NA
ATOM     85  C   UNL     1      11.780  -6.853   0.590  1.00  0.00     0.094 A 
BRANCH  85  86
ATOM     86  C   UNL     1      13.279  -6.614   0.516  1.00  0.00     0.318 C 
BRANCH  86  87
ATOM     87  N   UNL     1      14.019  -7.878   0.566  1.00  0.00    -0.331 N 
ATOM     88  H   UNL     1      13.865  -8.374  -0.312  1.00  0.00     0.347 HD
ATOM     89  H   UNL     1      13.670  -8.392   1.375  1.00  0.00     0.347 HD
BRANCH  87  90
ATOM     90  C   UNL     1      15.472  -7.718   0.758  1.00  0.00     0.272 C 
ATOM     91  C   UNL     1      16.125  -9.096   0.606  1.00  0.00     0.077 C 
ATOM     92  C   UNL     1      16.064  -6.718  -0.254  1.00  0.00     0.278 C 
ATOM     93  C   UNL     1      16.048  -9.567  -0.844  1.00  0.00     0.028 C 
ATOM     94  N   UNL     1      16.523  -7.203  -1.446  1.00  0.00    -0.351 N 
ATOM     95  O   UNL     1      16.053  -5.502  -0.053  1.00  0.00    -0.268 OA
ATOM     96  C   UNL     1      16.794  -8.591  -1.739  1.00  0.00     0.116 C 
ATOM     97  H   UNL     1      16.681  -6.551  -2.167  1.00  0.00     0.163 HD
ENDBRANCH  87  90
ENDBRANCH  86  87
ENDBRANCH  85  86
ENDBRANCH  77  80
ENDBRANCH  75  76
ENDBRANCH  74  75
ENDBRANCH   1  74
TORSDOF 16
