REMARK SMILES CC(C)(C)c1ccc(CSc2ccnc(C(=O)NCCCCCCNC(=O)c3ccc(-c4c5nc(c(-c6c(F)c(F)c(F)c(F)c6F)c6ccc([nH]6)c(-c6c(F)c(F)c(F)c(F)c6F)c6nc(c(-c7c(F)c(F)c(F)c(F)c7F)c7ccc4[nH]7)C=C6)C=C5)cc3)c2)cc1
REMARK SMILES IDX 20 1 19 2 18 3 16 4 17 5 15 7 11 8 12 9 91 10 13 11 14 12
REMARK SMILES IDX 10 13 9 14 8 15 5 16 6 17 93 18 7 19 92 20 2 21 1 22 3 23
REMARK SMILES IDX 4 24 21 25 22 26 23 27 24 28 25 29 26 30 27 32 28 33 29 34
REMARK SMILES IDX 90 35 30 36 89 37 31 38 32 39 33 40 83 41 34 42 88 43 82 44
REMARK SMILES IDX 84 45 35 46 87 47 81 48 80 49 36 51 68 52 48 53 67 54 49 55
REMARK SMILES IDX 52 56 66 57 85 58 50 59 51 60 65 62 86 63 53 64 37 65 38 66
REMARK SMILES IDX 46 67 39 68 40 69 44 70 47 71 41 72 42 73 45 74 43 75 69 76
REMARK SMILES IDX 70 77 78 78 71 79 72 80 76 81 79 82 73 83 74 84 77 85 75 86
REMARK SMILES IDX 54 87 55 88 63 89 56 90 57 91 61 92 64 93 58 94 59 95 62 96
REMARK SMILES IDX 60 97
REMARK H PARENT 18 6 25 31 84 50 52 61
REMARK Flexibility Score: inf
ROOT
ATOM      1  C   UNL     1      -4.044  -6.321   9.038  1.00  0.00     0.021 C 
ENDROOT
BRANCH   1   2
ATOM      2  C   UNL     1      -4.000  -5.512   7.748  1.00  0.00     0.116 C 
BRANCH   2   3
ATOM      3  N   UNL     1      -4.855  -4.340   7.752  1.00  0.00    -0.351 N 
ATOM      4  C   UNL     1      -4.624  -3.000   7.498  1.00  0.00     0.269 C 
ATOM      5  O   UNL     1      -5.600  -2.251   7.582  1.00  0.00    -0.268 OA
ATOM      6  H   UNL     1      -5.791  -4.539   7.982  1.00  0.00     0.163 HD
BRANCH   4   7
ATOM      7  C   UNL     1      -3.264  -2.427   7.188  1.00  0.00     0.129 A 
ATOM      8  C   UNL     1      -0.940  -2.651   6.620  1.00  0.00     0.011 A 
ATOM      9  C   UNL     1      -0.747  -1.336   7.020  1.00  0.00     0.035 A 
ATOM     10  C   UNL     1      -2.241  -3.160   6.612  1.00  0.00     0.049 A 
ATOM     11  C   UNL     1      -1.852  -0.608   7.429  1.00  0.00     0.113 A 
ATOM     12  N   UNL     1      -3.086  -1.134   7.562  1.00  0.00    -0.251 NA
BRANCH   8  13
ATOM     13  S   UNL     1       0.352  -3.840   6.256  1.00  0.00    -0.121 SA
BRANCH  13  14
ATOM     14  C   UNL     1       1.804  -2.833   5.790  1.00  0.00     0.110 C 
BRANCH  14  15
ATOM     15  C   UNL     1       1.567  -1.985   4.570  1.00  0.00    -0.038 A 
ATOM     16  C   UNL     1       0.915  -0.337   2.354  1.00  0.00    -0.043 A 
ATOM     17  C   UNL     1       0.767  -1.734   2.295  1.00  0.00     0.004 A 
ATOM     18  C   UNL     1       1.453   0.205   3.532  1.00  0.00     0.004 A 
ATOM     19  C   UNL     1       1.101  -2.547   3.378  1.00  0.00     0.005 A 
ATOM     20  C   UNL     1       1.784  -0.606   4.619  1.00  0.00     0.005 A 
BRANCH  16  21
ATOM     21  C   UNL     1       0.433   0.542   1.190  1.00  0.00    -0.013 C 
ATOM     22  C   UNL     1       0.965   0.012  -0.159  1.00  0.00     0.016 C 
ATOM     23  C   UNL     1       0.881   2.016   1.305  1.00  0.00     0.016 C 
ATOM     24  C   UNL     1      -1.110   0.517   1.175  1.00  0.00     0.016 C 
ENDBRANCH  16  21
ENDBRANCH  14  15
ENDBRANCH  13  14
ENDBRANCH   8  13
ENDBRANCH   4   7
ENDBRANCH   2   3
ENDBRANCH   1   2
BRANCH   1  25
ATOM     25  C   UNL     1      -5.312  -7.137   9.280  1.00  0.00     0.002 C 
BRANCH  25  26
ATOM     26  C   UNL     1      -5.733  -8.085   8.153  1.00  0.00     0.002 C 
BRANCH  26  27
ATOM     27  C   UNL     1      -4.646  -9.015   7.606  1.00  0.00     0.021 C 
BRANCH  27  28
ATOM     28  C   UNL     1      -3.967  -9.911   8.637  1.00  0.00     0.116 C 
BRANCH  28  29
ATOM     29  N   UNL     1      -4.898 -10.822   9.280  1.00  0.00    -0.352 N 
ATOM     30  C   UNL     1      -4.866 -12.191   9.370  1.00  0.00     0.251 C 
ATOM     31  H   UNL     1      -5.670 -10.392   9.715  1.00  0.00     0.163 HD
ATOM     32  O   UNL     1      -5.841 -12.803   9.794  1.00  0.00    -0.269 OA
BRANCH  30  33
ATOM     33  C   UNL     1      -3.664 -12.938   8.942  1.00  0.00     0.039 A 
ATOM     34  C   UNL     1      -3.829 -14.102   8.185  1.00  0.00     0.014 A 
ATOM     35  C   UNL     1      -2.382 -12.514   9.303  1.00  0.00     0.014 A 
ATOM     36  C   UNL     1      -2.708 -14.806   7.740  1.00  0.00     0.010 A 
ATOM     37  C   UNL     1      -1.264 -13.177   8.801  1.00  0.00     0.010 A 
ATOM     38  C   UNL     1      -1.416 -14.330   8.016  1.00  0.00    -0.014 A 
BRANCH  38  39
ATOM     39  C   UNL     1      -0.214 -15.021   7.485  1.00  0.00     0.031 A 
ATOM     40  C   UNL     1       0.771 -15.660   8.422  1.00  0.00     0.074 A 
ATOM     41  C   UNL     1       0.021 -15.015   6.159  1.00  0.00     0.049 A 
ATOM     42  N   UNL     1       1.905 -16.256   8.151  1.00  0.00    -0.248 NA
ATOM     43  C   UNL     1       0.453 -15.597   9.856  1.00  0.00     0.031 C 
ATOM     44  C   UNL     1      -0.838 -14.389   5.153  1.00  0.00     0.029 A 
ATOM     45  N   UNL     1       1.057 -15.543   5.430  1.00  0.00    -0.354 N 
ATOM     46  C   UNL     1       2.439 -16.627   9.378  1.00  0.00     0.074 A 
ATOM     47  C   UNL     1       1.534 -16.140  10.397  1.00  0.00     0.031 C 
ATOM     48  C   UNL     1      -0.307 -14.591   3.937  1.00  0.00     0.029 A 
ATOM     49  C   UNL     1       0.947 -15.324   4.079  1.00  0.00     0.049 A 
ATOM     50  H   UNL     1       1.808 -16.033   5.837  1.00  0.00     0.167 HD
ATOM     51  C   UNL     1       3.571 -17.329   9.631  1.00  0.00     0.037 A 
ATOM     52  C   UNL     1       1.768 -15.669   3.070  1.00  0.00     0.037 A 
ATOM     53  C   UNL     1       4.459 -17.825   8.612  1.00  0.00     0.049 A 
ATOM     54  C   UNL     1       3.028 -16.432   3.377  1.00  0.00     0.074 A 
ATOM     55  C   UNL     1       5.595 -18.602   8.759  1.00  0.00     0.029 A 
ATOM     56  N   UNL     1       4.314 -17.584   7.252  1.00  0.00    -0.354 N 
ATOM     57  N   UNL     1       3.486 -16.841   4.535  1.00  0.00    -0.248 NA
ATOM     58  C   UNL     1       3.882 -16.784   2.234  1.00  0.00     0.031 C 
ATOM     59  C   UNL     1       6.167 -18.785   7.495  1.00  0.00     0.029 A 
ATOM     60  C   UNL     1       5.358 -18.171   6.553  1.00  0.00     0.049 A 
ATOM     61  H   UNL     1       3.579 -17.072   6.845  1.00  0.00     0.167 HD
ATOM     62  C   UNL     1       4.666 -17.518   4.261  1.00  0.00     0.074 A 
ATOM     63  C   UNL     1       4.845 -17.479   2.823  1.00  0.00     0.031 C 
ATOM     64  C   UNL     1       5.524 -18.120   5.122  1.00  0.00     0.037 A 
BRANCH  51  65
ATOM     65  C   UNL     1       3.912 -17.595  11.069  1.00  0.00     0.064 A 
ATOM     66  C   UNL     1       3.141 -18.459  11.864  1.00  0.00     0.173 A 
ATOM     67  C   UNL     1       5.035 -16.994  11.658  1.00  0.00     0.173 A 
ATOM     68  F   UNL     1       2.052 -19.052  11.354  1.00  0.00    -0.203 F 
ATOM     69  C   UNL     1       3.458 -18.678  13.202  1.00  0.00     0.198 A 
ATOM     70  C   UNL     1       5.368 -17.242  12.988  1.00  0.00     0.198 A 
ATOM     71  F   UNL     1       5.812 -16.166  10.944  1.00  0.00    -0.203 F 
ATOM     72  F   UNL     1       2.671 -19.458  13.956  1.00  0.00    -0.200 F 
ATOM     73  C   UNL     1       4.574 -18.074  13.761  1.00  0.00     0.200 A 
ATOM     74  F   UNL     1       6.455 -16.669  13.523  1.00  0.00    -0.200 F 
ATOM     75  F   UNL     1       4.878 -18.287  15.049  1.00  0.00    -0.200 F 
ENDBRANCH  51  65
BRANCH  52  76
ATOM     76  C   UNL     1       1.405 -15.320   1.672  1.00  0.00     0.064 A 
ATOM     77  C   UNL     1       1.023 -16.314   0.761  1.00  0.00     0.173 A 
ATOM     78  C   UNL     1       1.417 -13.992   1.222  1.00  0.00     0.173 A 
ATOM     79  F   UNL     1       1.017 -17.601   1.139  1.00  0.00    -0.203 F 
ATOM     80  C   UNL     1       0.679 -15.995  -0.551  1.00  0.00     0.198 A 
ATOM     81  C   UNL     1       1.046 -13.671  -0.082  1.00  0.00     0.198 A 
ATOM     82  F   UNL     1       1.770 -13.003   2.057  1.00  0.00    -0.203 F 
ATOM     83  F   UNL     1       0.354 -16.969  -1.411  1.00  0.00    -0.200 F 
ATOM     84  C   UNL     1       0.683 -14.673  -0.969  1.00  0.00     0.200 A 
ATOM     85  F   UNL     1       1.036 -12.390  -0.477  1.00  0.00    -0.200 F 
ATOM     86  F   UNL     1       0.342 -14.365  -2.228  1.00  0.00    -0.200 F 
ENDBRANCH  52  76
BRANCH  64  87
ATOM     87  C   UNL     1       6.722 -18.805   4.531  1.00  0.00     0.064 A 
ATOM     88  C   UNL     1       7.789 -18.079   3.981  1.00  0.00     0.173 A 
ATOM     89  C   UNL     1       6.821 -20.205   4.551  1.00  0.00     0.173 A 
ATOM     90  F   UNL     1       7.735 -16.740   3.923  1.00  0.00    -0.203 F 
ATOM     91  C   UNL     1       8.899 -18.731   3.449  1.00  0.00     0.198 A 
ATOM     92  C   UNL     1       7.947 -20.851   4.047  1.00  0.00     0.198 A 
ATOM     93  F   UNL     1       5.832 -20.946   5.071  1.00  0.00    -0.203 F 
ATOM     94  F   UNL     1       9.883 -18.019   2.884  1.00  0.00    -0.200 F 
ATOM     95  C   UNL     1       8.980 -20.115   3.490  1.00  0.00     0.200 A 
ATOM     96  F   UNL     1       8.030 -22.188   4.100  1.00  0.00    -0.200 F 
ATOM     97  F   UNL     1      10.053 -20.739   2.985  1.00  0.00    -0.200 F 
ENDBRANCH  64  87
ENDBRANCH  38  39
ENDBRANCH  30  33
ENDBRANCH  28  29
ENDBRANCH  27  28
ENDBRANCH  26  27
ENDBRANCH  25  26
ENDBRANCH   1  25
TORSDOF 17
