REMARK SMILES C[C@@H](C(=O)NCCCCCCNC(=O)c1ccc(-c2c3nc(c(-c4c(F)c(F)c(F)c(F)c4F)c4ccc([nH]4)c(-c4c(F)c(F)c(F)c(F)c4F)c4nc(c(-c5c(F)c(F)c(F)c(F)c5F)c5ccc2[nH]5)C=C4)C=C3)cc1)[N@H+]1CC[N@H+]2CCCC[C@@H]2C1
REMARK SMILES IDX 9 1 8 2 7 3 6 4 5 5 3 6 4 7 2 9 1 10 78 11 79 12 87 13 80 15
REMARK SMILES IDX 86 16 81 17 85 18 82 19 84 21 83 22 10 23 11 24 12 25 13 26
REMARK SMILES IDX 14 28 15 29 16 30 77 31 17 32 76 33 18 34 19 35 20 36 70 37
REMARK SMILES IDX 21 38 75 39 69 40 71 41 22 42 74 43 68 44 67 45 23 47 55 48
REMARK SMILES IDX 35 49 54 50 36 51 39 52 53 53 72 54 37 55 38 56 52 58 73 59
REMARK SMILES IDX 40 60 24 61 25 62 33 63 26 64 27 65 31 66 34 67 28 68 29 69
REMARK SMILES IDX 32 70 30 71 56 72 57 73 65 74 58 75 59 76 63 77 66 78 60 79
REMARK SMILES IDX 61 80 64 81 62 82 41 83 42 84 50 85 43 86 44 87 48 88 51 89
REMARK SMILES IDX 45 90 46 91 49 92 47 93
REMARK H PARENT 5 8 78 14 81 20 12 27 71 46 39 57
REMARK Flexibility Score: inf
ROOT
ATOM      1  C   UNL     1       5.837  -1.146  -3.319  1.00  0.00     0.002 C 
ENDROOT
BRANCH   1   2
ATOM      2  C   UNL     1       4.890  -1.826  -2.328  1.00  0.00     0.002 C 
BRANCH   2   3
ATOM      3  C   UNL     1       4.154  -0.883  -1.371  1.00  0.00     0.021 C 
BRANCH   3   4
ATOM      4  C   UNL     1       3.265   0.159  -2.056  1.00  0.00     0.116 C 
BRANCH   4   5
ATOM      5  N   UNL     1       2.134  -0.462  -2.713  1.00  0.00    -0.351 N 
ATOM      6  C   UNL     1       0.818  -0.525  -2.343  1.00  0.00     0.278 C 
ATOM      7  O   UNL     1       0.087  -1.236  -3.038  1.00  0.00    -0.268 OA
ATOM      8  H   UNL     1       2.346  -0.912  -3.563  1.00  0.00     0.163 HD
BRANCH   6   9
ATOM      9  C   UNL     1       0.319   0.271  -1.099  1.00  0.00     0.271 C 
ATOM     10  C   UNL     1       0.774  -0.469   0.163  1.00  0.00     0.086 C 
BRANCH   9  11
ATOM     11  N   UNL     1      -1.143   0.497  -1.243  1.00  0.00    -0.315 N 
ATOM     12  C   UNL     1      -1.996   0.286  -0.067  1.00  0.00     0.325 C 
ATOM     13  C   UNL     1      -1.458   1.820  -1.820  1.00  0.00     0.328 C 
ATOM     14  H   UNL     1      -1.383  -0.260  -1.883  1.00  0.00     0.349 HD
ATOM     15  C   UNL     1      -1.956   1.417   0.985  1.00  0.00     0.324 C 
ATOM     16  C   UNL     1      -1.321   2.977  -0.790  1.00  0.00     0.239 C 
ATOM     17  N   UNL     1      -2.143   2.765   0.423  1.00  0.00    -0.323 N 
ATOM     18  C   UNL     1      -1.720   4.319  -1.421  1.00  0.00     0.071 C 
ATOM     19  C   UNL     1      -1.851   3.791   1.433  1.00  0.00     0.262 C 
ATOM     20  H   UNL     1      -3.121   2.848   0.146  1.00  0.00     0.348 HD
ATOM     21  C   UNL     1      -1.494   5.464  -0.435  1.00  0.00     0.012 C 
ATOM     22  C   UNL     1      -2.177   5.186   0.902  1.00  0.00     0.062 C 
ENDBRANCH   9  11
ENDBRANCH   6   9
ENDBRANCH   4   5
ENDBRANCH   3   4
ENDBRANCH   2   3
ENDBRANCH   1   2
BRANCH   1  23
ATOM     23  C   UNL     1       6.879  -0.214  -2.693  1.00  0.00     0.021 C 
BRANCH  23  24
ATOM     24  C   UNL     1       7.790  -0.868  -1.659  1.00  0.00     0.116 C 
BRANCH  24  25
ATOM     25  N   UNL     1       8.622  -1.909  -2.236  1.00  0.00    -0.352 N 
ATOM     26  C   UNL     1       9.968  -2.120  -2.103  1.00  0.00     0.251 C 
ATOM     27  H   UNL     1       8.149  -2.558  -2.807  1.00  0.00     0.163 HD
ATOM     28  O   UNL     1      10.531  -2.957  -2.810  1.00  0.00    -0.269 OA
BRANCH  26  29
ATOM     29  C   UNL     1      10.760  -1.345  -1.123  1.00  0.00     0.039 A 
ATOM     30  C   UNL     1      12.027  -0.886  -1.498  1.00  0.00     0.014 A 
ATOM     31  C   UNL     1      10.290  -1.116   0.173  1.00  0.00     0.014 A 
ATOM     32  C   UNL     1      12.809  -0.176  -0.585  1.00  0.00     0.010 A 
ATOM     33  C   UNL     1      11.044  -0.352   1.063  1.00  0.00     0.010 A 
ATOM     34  C   UNL     1      12.319   0.106   0.700  1.00  0.00    -0.014 A 
BRANCH  34  35
ATOM     35  C   UNL     1      13.152   0.834   1.690  1.00  0.00     0.031 A 
ATOM     36  C   UNL     1      13.645   0.125   2.921  1.00  0.00     0.074 A 
ATOM     37  C   UNL     1      13.434   2.137   1.502  1.00  0.00     0.049 A 
ATOM     38  N   UNL     1      14.355   0.590   3.919  1.00  0.00    -0.248 NA
ATOM     39  C   UNL     1      13.265  -1.289   3.066  1.00  0.00     0.031 C 
ATOM     40  C   UNL     1      12.978   2.946   0.372  1.00  0.00     0.029 A 
ATOM     41  N   UNL     1      14.169   3.010   2.264  1.00  0.00    -0.354 N 
ATOM     42  C   UNL     1      14.485  -0.464   4.814  1.00  0.00     0.074 A 
ATOM     43  C   UNL     1      13.743  -1.578   4.267  1.00  0.00     0.031 C 
ATOM     44  C   UNL     1      13.466   4.191   0.499  1.00  0.00     0.029 A 
ATOM     45  C   UNL     1      14.246   4.274   1.731  1.00  0.00     0.049 A 
ATOM     46  H   UNL     1      14.601   2.755   3.111  1.00  0.00     0.167 HD
ATOM     47  C   UNL     1      15.179  -0.505   5.977  1.00  0.00     0.037 A 
ATOM     48  C   UNL     1      14.880   5.371   2.185  1.00  0.00     0.037 A 
ATOM     49  C   UNL     1      15.954   0.590   6.497  1.00  0.00     0.049 A 
ATOM     50  C   UNL     1      15.671   5.289   3.462  1.00  0.00     0.074 A 
ATOM     51  C   UNL     1      16.748   0.627   7.629  1.00  0.00     0.029 A 
ATOM     52  N   UNL     1      16.034   1.845   5.911  1.00  0.00    -0.354 N 
ATOM     53  N   UNL     1      15.844   4.268   4.265  1.00  0.00    -0.248 NA
ATOM     54  C   UNL     1      16.367   6.511   3.889  1.00  0.00     0.031 C 
ATOM     55  C   UNL     1      17.282   1.915   7.748  1.00  0.00     0.029 A 
ATOM     56  C   UNL     1      16.855   2.667   6.666  1.00  0.00     0.049 A 
ATOM     57  H   UNL     1      15.576   2.112   5.081  1.00  0.00     0.167 HD
ATOM     58  C   UNL     1      16.694   4.711   5.270  1.00  0.00     0.074 A 
ATOM     59  C   UNL     1      17.008   6.093   4.971  1.00  0.00     0.031 C 
ATOM     60  C   UNL     1      17.172   4.034   6.342  1.00  0.00     0.037 A 
BRANCH  47  61
ATOM     61  C   UNL     1      15.134  -1.782   6.765  1.00  0.00     0.064 A 
ATOM     62  C   UNL     1      15.785  -2.944   6.324  1.00  0.00     0.173 A 
ATOM     63  C   UNL     1      14.453  -1.837   7.990  1.00  0.00     0.173 A 
ATOM     64  F   UNL     1      16.439  -2.947   5.152  1.00  0.00    -0.203 F 
ATOM     65  C   UNL     1      15.729  -4.122   7.064  1.00  0.00     0.198 A 
ATOM     66  C   UNL     1      14.423  -3.008   8.742  1.00  0.00     0.198 A 
ATOM     67  F   UNL     1      13.818  -0.753   8.461  1.00  0.00    -0.203 F 
ATOM     68  F   UNL     1      16.314  -5.233   6.597  1.00  0.00    -0.200 F 
ATOM     69  C   UNL     1      15.054  -4.152   8.275  1.00  0.00     0.200 A 
ATOM     70  F   UNL     1      13.780  -3.033   9.918  1.00  0.00    -0.200 F 
ATOM     71  F   UNL     1      15.004  -5.285   8.988  1.00  0.00    -0.200 F 
ENDBRANCH  47  61
BRANCH  48  72
ATOM     72  C   UNL     1      14.838   6.630   1.399  1.00  0.00     0.064 A 
ATOM     73  C   UNL     1      15.977   7.092   0.725  1.00  0.00     0.173 A 
ATOM     74  C   UNL     1      13.668   7.397   1.307  1.00  0.00     0.173 A 
ATOM     75  F   UNL     1      17.125   6.402   0.802  1.00  0.00    -0.203 F 
ATOM     76  C   UNL     1      15.954   8.285   0.006  1.00  0.00     0.198 A 
ATOM     77  C   UNL     1      13.639   8.577   0.566  1.00  0.00     0.198 A 
ATOM     78  F   UNL     1      12.550   6.995   1.929  1.00  0.00    -0.203 F 
ATOM     79  F   UNL     1      17.070   8.725  -0.592  1.00  0.00    -0.200 F 
ATOM     80  C   UNL     1      14.784   9.024  -0.077  1.00  0.00     0.200 A 
ATOM     81  F   UNL     1      12.504   9.283   0.478  1.00  0.00    -0.200 F 
ATOM     82  F   UNL     1      14.762  10.170  -0.771  1.00  0.00    -0.200 F 
ENDBRANCH  48  72
BRANCH  60  83
ATOM     83  C   UNL     1      18.124   4.762   7.244  1.00  0.00     0.064 A 
ATOM     84  C   UNL     1      17.689   5.773   8.113  1.00  0.00     0.173 A 
ATOM     85  C   UNL     1      19.485   4.419   7.260  1.00  0.00     0.173 A 
ATOM     86  F   UNL     1      16.401   6.147   8.123  1.00  0.00    -0.203 F 
ATOM     87  C   UNL     1      18.588   6.433   8.947  1.00  0.00     0.198 A 
ATOM     88  C   UNL     1      20.375   5.061   8.115  1.00  0.00     0.198 A 
ATOM     89  F   UNL     1      19.948   3.454   6.452  1.00  0.00    -0.203 F 
ATOM     90  F   UNL     1      18.160   7.428   9.736  1.00  0.00    -0.200 F 
ATOM     91  C   UNL     1      19.928   6.072   8.952  1.00  0.00     0.200 A 
ATOM     92  F   UNL     1      21.667   4.705   8.127  1.00  0.00    -0.200 F 
ATOM     93  F   UNL     1      20.790   6.706   9.759  1.00  0.00    -0.200 F 
ENDBRANCH  60  83
ENDBRANCH  34  35
ENDBRANCH  26  29
ENDBRANCH  24  25
ENDBRANCH  23  24
ENDBRANCH   1  23
TORSDOF 14
