REMARK SMILES O=C(Cc1ccc(-c2ccn(C(F)F)c(=O)c2)cc1)NCCCCCCNC(=O)c1ccc(-c2c3nc(c(-c4c(F)c(F)c(F)c(F)c4F)c4ccc([nH]4)c(-c4c(F)c(F)c(F)c(F)c4F)c4nc(c(-c5c(F)c(F)c(F)c(F)c5F)c5ccc2[nH]5)C=C4)C=C3)cc1
REMARK SMILES IDX 23 1 22 2 21 3 20 4 1 5 2 6 3 8 4 9 5 10 19 11 6 12 18 13
REMARK SMILES IDX 7 14 8 15 9 16 17 17 10 18 15 19 11 20 16 21 12 22 13 23
REMARK SMILES IDX 14 24 24 25 25 26 26 27 27 28 28 29 29 31 30 32 31 33 92 34
REMARK SMILES IDX 32 35 91 36 33 37 34 38 35 39 85 40 36 41 90 42 84 43 86 44
REMARK SMILES IDX 37 45 89 46 83 47 82 48 38 50 70 51 50 52 69 53 51 54 54 55
REMARK SMILES IDX 68 56 87 57 52 58 53 59 67 61 88 62 55 63 39 64 40 65 48 66
REMARK SMILES IDX 41 67 42 68 46 69 49 70 43 71 44 72 47 73 45 74 71 75 72 76
REMARK SMILES IDX 80 77 73 78 74 79 78 80 81 81 75 82 76 83 79 84 77 85 56 86
REMARK SMILES IDX 57 87 65 88 58 89 59 90 63 91 66 92 60 93 61 94 64 95 62 96
REMARK H PARENT 20 7 27 30 86 49 54 60
REMARK Flexibility Score: inf
ROOT
ATOM      1  C   UNL     1       4.054   3.651  -0.921  1.00  0.00     0.002 C 
ENDROOT
BRANCH   1   2
ATOM      2  C   UNL     1       2.547   3.438  -0.700  1.00  0.00     0.021 C 
BRANCH   2   3
ATOM      3  C   UNL     1       2.012   2.082  -1.165  1.00  0.00     0.116 C 
BRANCH   3   4
ATOM      4  N   UNL     1       2.701   1.003  -0.491  1.00  0.00    -0.356 N 
ATOM      5  O   UNL     1       0.862  -0.245   0.085  1.00  0.00    -0.275 OA
ATOM      6  C   UNL     1       2.077  -0.075   0.096  1.00  0.00     0.224 C 
ATOM      7  H   UNL     1       3.684   1.042  -0.449  1.00  0.00     0.163 HD
BRANCH   6   8
ATOM      8  C   UNL     1       3.032  -1.012   0.828  1.00  0.00     0.135 C 
BRANCH   8   9
ATOM      9  C   UNL     1       3.886  -1.855  -0.091  1.00  0.00    -0.039 A 
ATOM     10  C   UNL     1       3.557  -3.195  -0.335  1.00  0.00     0.005 A 
ATOM     11  C   UNL     1       5.007  -1.312  -0.734  1.00  0.00     0.005 A 
ATOM     12  C   UNL     1       4.305  -3.962  -1.235  1.00  0.00     0.009 A 
ATOM     13  C   UNL     1       5.733  -2.065  -1.655  1.00  0.00     0.009 A 
ATOM     14  C   UNL     1       5.381  -3.392  -1.926  1.00  0.00    -0.018 A 
BRANCH  14  15
ATOM     15  C   UNL     1       6.116  -4.122  -2.976  1.00  0.00    -0.011 A 
ATOM     16  C   UNL     1       7.556  -4.298  -2.957  1.00  0.00     0.027 A 
ATOM     17  C   UNL     1       5.424  -4.533  -4.053  1.00  0.00     0.080 A 
ATOM     18  C   UNL     1       8.194  -4.800  -4.021  1.00  0.00     0.095 A 
ATOM     19  C   UNL     1       6.115  -5.122  -5.231  1.00  0.00     0.255 A 
ATOM     20  N   UNL     1       7.496  -5.191  -5.149  1.00  0.00    -0.258 N 
ATOM     21  O   UNL     1       5.437  -5.474  -6.191  1.00  0.00    -0.269 OA
BRANCH  20  22
ATOM     22  C   UNL     1       8.195  -5.659  -6.317  1.00  0.00     0.451 C 
ATOM     23  F   UNL     1       7.789  -6.901  -6.674  1.00  0.00    -0.185 F 
ATOM     24  F   UNL     1       7.982  -4.828  -7.368  1.00  0.00    -0.185 F 
ENDBRANCH  20  22
ENDBRANCH  14  15
ENDBRANCH   8   9
ENDBRANCH   6   8
ENDBRANCH   3   4
ENDBRANCH   2   3
ENDBRANCH   1   2
BRANCH   1  25
ATOM     25  C   UNL     1       4.523   3.581  -2.377  1.00  0.00     0.002 C 
BRANCH  25  26
ATOM     26  C   UNL     1       3.868   4.593  -3.317  1.00  0.00     0.021 C 
BRANCH  26  27
ATOM     27  C   UNL     1       4.018   6.053  -2.898  1.00  0.00     0.116 C 
BRANCH  27  28
ATOM     28  N   UNL     1       5.405   6.497  -2.897  1.00  0.00    -0.352 N 
ATOM     29  C   UNL     1       5.972   7.590  -3.507  1.00  0.00     0.251 C 
ATOM     30  H   UNL     1       6.027   5.932  -2.385  1.00  0.00     0.163 HD
ATOM     31  O   UNL     1       7.193   7.721  -3.529  1.00  0.00    -0.269 OA
BRANCH  29  32
ATOM     32  C   UNL     1       5.114   8.595  -4.169  1.00  0.00     0.039 A 
ATOM     33  C   UNL     1       5.461   9.042  -5.446  1.00  0.00     0.014 A 
ATOM     34  C   UNL     1       3.963   9.084  -3.543  1.00  0.00     0.014 A 
ATOM     35  C   UNL     1       4.611   9.913  -6.130  1.00  0.00     0.010 A 
ATOM     36  C   UNL     1       3.080   9.893  -4.253  1.00  0.00     0.010 A 
ATOM     37  C   UNL     1       3.389  10.306  -5.559  1.00  0.00    -0.014 A 
BRANCH  37  38
ATOM     38  C   UNL     1       2.402  11.105  -6.331  1.00  0.00     0.031 A 
ATOM     39  C   UNL     1       2.008  12.481  -5.878  1.00  0.00     0.074 A 
ATOM     40  C   UNL     1       1.801  10.552  -7.402  1.00  0.00     0.049 A 
ATOM     41  N   UNL     1       1.113  13.294  -6.382  1.00  0.00    -0.248 NA
ATOM     42  C   UNL     1       2.691  13.002  -4.686  1.00  0.00     0.031 C 
ATOM     43  C   UNL     1       2.056   9.203  -7.908  1.00  0.00     0.029 A 
ATOM     44  N   UNL     1       0.839  11.047  -8.247  1.00  0.00    -0.354 N 
ATOM     45  C   UNL     1       1.124  14.419  -5.569  1.00  0.00     0.074 A 
ATOM     46  C   UNL     1       2.068  14.157  -4.503  1.00  0.00     0.031 C 
ATOM     47  C   UNL     1       1.280   8.981  -8.980  1.00  0.00     0.029 A 
ATOM     48  C   UNL     1       0.442  10.153  -9.211  1.00  0.00     0.049 A 
ATOM     49  H   UNL     1       0.468  11.956  -8.168  1.00  0.00     0.167 HD
ATOM     50  C   UNL     1       0.429  15.573  -5.713  1.00  0.00     0.037 A 
ATOM     51  C   UNL     1      -0.505  10.256 -10.163  1.00  0.00     0.037 A 
ATOM     52  C   UNL     1      -0.513  15.825  -6.774  1.00  0.00     0.049 A 
ATOM     53  C   UNL     1      -1.288  11.534 -10.286  1.00  0.00     0.074 A 
ATOM     54  C   UNL     1      -1.227  16.981  -7.038  1.00  0.00     0.029 A 
ATOM     55  N   UNL     1      -0.883  14.899  -7.739  1.00  0.00    -0.354 N 
ATOM     56  N   UNL     1      -1.212  12.623  -9.560  1.00  0.00    -0.248 NA
ATOM     57  C   UNL     1      -2.285  11.599 -11.364  1.00  0.00     0.031 C 
ATOM     58  C   UNL     1      -2.074  16.734  -8.125  1.00  0.00     0.029 A 
ATOM     59  C   UNL     1      -1.844  15.445  -8.578  1.00  0.00     0.049 A 
ATOM     60  H   UNL     1      -0.518  13.988  -7.817  1.00  0.00     0.167 HD
ATOM     61  C   UNL     1      -2.137  13.507 -10.099  1.00  0.00     0.074 A 
ATOM     62  C   UNL     1      -2.746  12.835 -11.228  1.00  0.00     0.031 C 
ATOM     63  C   UNL     1      -2.454  14.761  -9.691  1.00  0.00     0.037 A 
BRANCH  50  64
ATOM     64  C   UNL     1       0.659  16.648  -4.687  1.00  0.00     0.064 A 
ATOM     65  C   UNL     1       1.889  17.317  -4.583  1.00  0.00     0.173 A 
ATOM     66  C   UNL     1      -0.364  17.023  -3.803  1.00  0.00     0.173 A 
ATOM     67  F   UNL     1       2.905  16.994  -5.398  1.00  0.00    -0.203 F 
ATOM     68  C   UNL     1       2.100  18.287  -3.606  1.00  0.00     0.198 A 
ATOM     69  C   UNL     1      -0.161  18.019  -2.850  1.00  0.00     0.198 A 
ATOM     70  F   UNL     1      -1.563  16.425  -3.861  1.00  0.00    -0.203 F 
ATOM     71  F   UNL     1       3.304  18.863  -3.485  1.00  0.00    -0.200 F 
ATOM     72  C   UNL     1       1.074  18.641  -2.744  1.00  0.00     0.200 A 
ATOM     73  F   UNL     1      -1.159  18.371  -2.028  1.00  0.00    -0.200 F 
ATOM     74  F   UNL     1       1.278  19.573  -1.804  1.00  0.00    -0.200 F 
ENDBRANCH  50  64
BRANCH  51  75
ATOM     75  C   UNL     1      -0.755   9.107 -11.073  1.00  0.00     0.064 A 
ATOM     76  C   UNL     1      -0.403   9.166 -12.428  1.00  0.00     0.173 A 
ATOM     77  C   UNL     1      -1.326   7.917 -10.597  1.00  0.00     0.173 A 
ATOM     78  F   UNL     1       0.127  10.289 -12.933  1.00  0.00    -0.203 F 
ATOM     79  C   UNL     1      -0.622   8.082 -13.275  1.00  0.00     0.198 A 
ATOM     80  C   UNL     1      -1.516   6.823 -11.439  1.00  0.00     0.198 A 
ATOM     81  F   UNL     1      -1.675   7.808  -9.307  1.00  0.00    -0.203 F 
ATOM     82  F   UNL     1      -0.309   8.177 -14.575  1.00  0.00    -0.200 F 
ATOM     83  C   UNL     1      -1.170   6.908 -12.778  1.00  0.00     0.200 A 
ATOM     84  F   UNL     1      -2.029   5.686 -10.950  1.00  0.00    -0.200 F 
ATOM     85  F   UNL     1      -1.366   5.861 -13.591  1.00  0.00    -0.200 F 
ENDBRANCH  51  75
BRANCH  63  86
ATOM     86  C   UNL     1      -3.504  15.495 -10.477  1.00  0.00     0.064 A 
ATOM     87  C   UNL     1      -4.856  15.124 -10.423  1.00  0.00     0.173 A 
ATOM     88  C   UNL     1      -3.160  16.607 -11.261  1.00  0.00     0.173 A 
ATOM     89  F   UNL     1      -5.236  14.059  -9.702  1.00  0.00    -0.203 F 
ATOM     90  C   UNL     1      -5.820  15.825 -11.143  1.00  0.00     0.198 A 
ATOM     91  C   UNL     1      -4.131  17.325 -11.954  1.00  0.00     0.198 A 
ATOM     92  F   UNL     1      -1.882  17.007 -11.344  1.00  0.00    -0.203 F 
ATOM     93  F   UNL     1      -7.098  15.424 -11.115  1.00  0.00    -0.200 F 
ATOM     94  C   UNL     1      -5.458  16.930 -11.900  1.00  0.00     0.200 A 
ATOM     95  F   UNL     1      -3.781  18.401 -12.672  1.00  0.00    -0.200 F 
ATOM     96  F   UNL     1      -6.389  17.609 -12.584  1.00  0.00    -0.200 F 
ENDBRANCH  63  86
ENDBRANCH  37  38
ENDBRANCH  29  32
ENDBRANCH  27  28
ENDBRANCH  26  27
ENDBRANCH  25  26
ENDBRANCH   1  25
TORSDOF 16
