REMARK SMILES O=C(CCOc1cccc(/C=C2/SC(=S)N(c3ccc(Cl)c(Cl)c3)C2=O)c1)NCCCCCCNC(=O)c1ccc(-c2c3nc(c(-c4c(F)c(F)c(F)c(F)c4F)c4ccc([nH]4)c(-c4c(F)c(F)c(F)c(F)c4F)c4nc(c(-c5c(F)c(F)c(F)c(F)c5F)c5ccc2[nH]5)C=C4)C=C3)cc1
REMARK SMILES IDX 30 1 29 2 28 3 1 4 2 5 3 7 4 8 5 9 6 10 7 11 27 12 8 13
REMARK SMILES IDX 10 14 9 15 11 16 12 17 13 18 25 19 14 20 16 21 26 22 15 23
REMARK SMILES IDX 17 24 18 25 24 26 19 27 22 28 20 29 23 30 21 31 31 32 32 33
REMARK SMILES IDX 33 34 34 35 35 36 36 37 37 39 38 40 39 41 100 42 40 43 99 44
REMARK SMILES IDX 41 45 42 46 43 47 93 48 44 49 98 50 92 51 94 52 45 53 97 54
REMARK SMILES IDX 91 55 90 56 46 58 78 59 58 60 77 61 59 62 62 63 76 64 95 65
REMARK SMILES IDX 60 66 61 67 75 69 96 70 63 71 47 72 48 73 56 74 49 75 50 76
REMARK SMILES IDX 54 77 57 78 51 79 52 80 55 81 53 82 79 83 80 84 88 85 81 86
REMARK SMILES IDX 82 87 86 88 89 89 83 90 84 91 87 92 85 93 64 94 65 95 73 96
REMARK SMILES IDX 66 97 67 98 71 99 74 100 68 101 69 102 72 103 70 104
REMARK H PARENT 28 6 35 38 94 57 62 68
REMARK Flexibility Score: inf
ROOT
ATOM      1  C   UNL     1       4.912   2.053   0.990  1.00  0.00     0.021 C 
ENDROOT
BRANCH   1   2
ATOM      2  C   UNL     1       4.455   0.641   1.391  1.00  0.00     0.116 C 
BRANCH   2   3
ATOM      3  N   UNL     1       4.665  -0.299   0.314  1.00  0.00    -0.356 N 
ATOM      4  O   UNL     1       2.584  -1.297   0.373  1.00  0.00    -0.275 OA
ATOM      5  C   UNL     1       3.626  -1.032  -0.221  1.00  0.00     0.223 C 
ATOM      6  H   UNL     1       5.573  -0.419  -0.048  1.00  0.00     0.163 HD
BRANCH   5   7
ATOM      7  C   UNL     1       3.807  -1.341  -1.682  1.00  0.00     0.141 C 
BRANCH   7   8
ATOM      8  C   UNL     1       3.051  -0.307  -2.523  1.00  0.00     0.239 C 
BRANCH   8   9
ATOM      9  O   UNL     1       3.564   1.020  -2.407  1.00  0.00    -0.493 OA
BRANCH   9  10
ATOM     10  C   UNL     1       2.931   1.978  -1.654  1.00  0.00     0.119 A 
ATOM     11  C   UNL     1       3.394   3.268  -1.929  1.00  0.00     0.046 A 
ATOM     12  C   UNL     1       2.042   1.790  -0.575  1.00  0.00     0.054 A 
ATOM     13  C   UNL     1       2.990   4.347  -1.146  1.00  0.00     0.004 A 
ATOM     14  C   UNL     1       1.731   2.852   0.316  1.00  0.00    -0.021 A 
ATOM     15  C   UNL     1       2.165   4.140  -0.031  1.00  0.00     0.008 A 
BRANCH  14  16
ATOM     16  C   UNL     1       0.948   2.658   1.575  1.00  0.00     0.029 C 
ATOM     17  C   UNL     1       1.242   2.327   2.859  1.00  0.00     0.081 C 
ATOM     18  S   UNL     1      -0.042   2.106   4.021  1.00  0.00    -0.054 SA
ATOM     19  C   UNL     1       2.518   2.044   3.617  1.00  0.00     0.270 C 
ATOM     20  C   UNL     1       0.994   1.292   5.203  1.00  0.00     0.152 C 
ATOM     21  N   UNL     1       2.281   1.211   4.714  1.00  0.00    -0.261 N 
ATOM     22  O   UNL     1       3.567   2.603   3.374  1.00  0.00    -0.268 OA
ATOM     23  S   UNL     1       0.417   0.853   6.710  1.00  0.00    -0.051 S 
BRANCH  21  24
ATOM     24  C   UNL     1       3.333   0.391   5.269  1.00  0.00     0.052 A 
ATOM     25  C   UNL     1       4.655   0.846   5.379  1.00  0.00     0.028 A 
ATOM     26  C   UNL     1       3.094  -0.972   5.540  1.00  0.00     0.048 A 
ATOM     27  C   UNL     1       5.714  -0.037   5.645  1.00  0.00     0.024 A 
ATOM     28  C   UNL     1       4.156  -1.865   5.780  1.00  0.00     0.061 A 
ATOM     29  C   UNL     1       5.473  -1.401   5.799  1.00  0.00     0.059 A 
ATOM     30  Cl  UNL     1       3.775  -3.542   5.968  1.00  0.00    -0.083 Cl
ATOM     31  Cl  UNL     1       6.836  -2.453   5.948  1.00  0.00    -0.083 Cl
ENDBRANCH  21  24
ENDBRANCH  14  16
ENDBRANCH   9  10
ENDBRANCH   8   9
ENDBRANCH   7   8
ENDBRANCH   5   7
ENDBRANCH   2   3
ENDBRANCH   1   2
BRANCH   1  32
ATOM     32  C   UNL     1       6.095   2.659   1.735  1.00  0.00     0.002 C 
BRANCH  32  33
ATOM     33  C   UNL     1       6.247   4.175   1.459  1.00  0.00     0.002 C 
BRANCH  33  34
ATOM     34  C   UNL     1       5.102   5.130   1.868  1.00  0.00     0.021 C 
BRANCH  34  35
ATOM     35  C   UNL     1       4.957   5.492   3.347  1.00  0.00     0.116 C 
BRANCH  35  36
ATOM     36  N   UNL     1       6.122   6.197   3.844  1.00  0.00    -0.352 N 
ATOM     37  C   UNL     1       6.363   7.522   4.092  1.00  0.00     0.251 C 
ATOM     38  H   UNL     1       6.887   5.611   4.041  1.00  0.00     0.163 HD
ATOM     39  O   UNL     1       7.536   7.880   4.203  1.00  0.00    -0.269 OA
BRANCH  37  40
ATOM     40  C   UNL     1       5.294   8.543   4.257  1.00  0.00     0.039 A 
ATOM     41  C   UNL     1       5.598   9.862   3.887  1.00  0.00     0.014 A 
ATOM     42  C   UNL     1       4.083   8.291   4.908  1.00  0.00     0.014 A 
ATOM     43  C   UNL     1       4.710  10.909   4.160  1.00  0.00     0.010 A 
ATOM     44  C   UNL     1       3.168   9.334   5.134  1.00  0.00     0.010 A 
ATOM     45  C   UNL     1       3.477  10.658   4.779  1.00  0.00    -0.014 A 
BRANCH  45  46
ATOM     46  C   UNL     1       2.527  11.775   5.061  1.00  0.00     0.031 A 
ATOM     47  C   UNL     1       2.193  12.175   6.476  1.00  0.00     0.074 A 
ATOM     48  C   UNL     1       1.943  12.430   4.038  1.00  0.00     0.049 A 
ATOM     49  N   UNL     1       1.369  13.100   6.907  1.00  0.00    -0.248 NA
ATOM     50  C   UNL     1       2.858  11.422   7.548  1.00  0.00     0.031 C 
ATOM     51  C   UNL     1       2.157  12.137   2.621  1.00  0.00     0.029 A 
ATOM     52  N   UNL     1       1.046  13.472   4.030  1.00  0.00    -0.354 N 
ATOM     53  C   UNL     1       1.406  13.031   8.294  1.00  0.00     0.074 A 
ATOM     54  C   UNL     1       2.301  11.944   8.633  1.00  0.00     0.031 C 
ATOM     55  C   UNL     1       1.429  12.989   1.881  1.00  0.00     0.029 A 
ATOM     56  C   UNL     1       0.668  13.864   2.768  1.00  0.00     0.049 A 
ATOM     57  H   UNL     1       0.707  13.897   4.850  1.00  0.00     0.167 HD
ATOM     58  C   UNL     1       0.768  13.810   9.204  1.00  0.00     0.037 A 
ATOM     59  C   UNL     1      -0.199  14.814   2.366  1.00  0.00     0.037 A 
ATOM     60  C   UNL     1      -0.107  14.907   8.870  1.00  0.00     0.049 A 
ATOM     61  C   UNL     1      -0.908  15.654   3.394  1.00  0.00     0.074 A 
ATOM     62  C   UNL     1      -0.751  15.789   9.722  1.00  0.00     0.029 A 
ATOM     63  N   UNL     1      -0.467  15.268   7.580  1.00  0.00    -0.354 N 
ATOM     64  N   UNL     1      -0.817  15.615   4.700  1.00  0.00    -0.248 NA
ATOM     65  C   UNL     1      -1.838  16.674   2.888  1.00  0.00     0.031 C 
ATOM     66  C   UNL     1      -1.541  16.649   8.950  1.00  0.00     0.029 A 
ATOM     67  C   UNL     1      -1.347  16.340   7.614  1.00  0.00     0.049 A 
ATOM     68  H   UNL     1      -0.146  14.827   6.760  1.00  0.00     0.167 HD
ATOM     69  C   UNL     1      -1.654  16.618   5.172  1.00  0.00     0.074 A 
ATOM     70  C   UNL     1      -2.232  17.260   4.010  1.00  0.00     0.031 C 
ATOM     71  C   UNL     1      -1.919  16.973   6.453  1.00  0.00     0.037 A 
BRANCH  58  72
ATOM     72  C   UNL     1       0.985  13.501  10.660  1.00  0.00     0.064 A 
ATOM     73  C   UNL     1       2.219  13.730  11.289  1.00  0.00     0.173 A 
ATOM     74  C   UNL     1      -0.066  13.005  11.448  1.00  0.00     0.173 A 
ATOM     75  F   UNL     1       3.259  14.200  10.583  1.00  0.00    -0.203 F 
ATOM     76  C   UNL     1       2.403  13.439  12.639  1.00  0.00     0.198 A 
ATOM     77  C   UNL     1       0.112  12.746  12.805  1.00  0.00     0.198 A 
ATOM     78  F   UNL     1      -1.272  12.780  10.904  1.00  0.00    -0.203 F 
ATOM     79  F   UNL     1       3.606  13.616  13.203  1.00  0.00    -0.200 F 
ATOM     80  C   UNL     1       1.349  12.953  13.397  1.00  0.00     0.200 A 
ATOM     81  F   UNL     1      -0.913  12.293  13.540  1.00  0.00    -0.200 F 
ATOM     82  F   UNL     1       1.526  12.678  14.697  1.00  0.00    -0.200 F 
ENDBRANCH  58  72
BRANCH  59  83
ATOM     83  C   UNL     1      -0.428  15.036   0.914  1.00  0.00     0.064 A 
ATOM     84  C   UNL     1       0.026  16.203   0.284  1.00  0.00     0.173 A 
ATOM     85  C   UNL     1      -1.098  14.088   0.127  1.00  0.00     0.173 A 
ATOM     86  F   UNL     1       0.650  17.150   0.999  1.00  0.00    -0.203 F 
ATOM     87  C   UNL     1      -0.192  16.419  -1.075  1.00  0.00     0.198 A 
ATOM     88  C   UNL     1      -1.289  14.291  -1.238  1.00  0.00     0.198 A 
ATOM     89  F   UNL     1      -1.551  12.953   0.681  1.00  0.00    -0.203 F 
ATOM     90  F   UNL     1       0.217  17.561  -1.644  1.00  0.00    -0.200 F 
ATOM     91  C   UNL     1      -0.842  15.459  -1.837  1.00  0.00     0.200 A 
ATOM     92  F   UNL     1      -1.904  13.355  -1.973  1.00  0.00    -0.200 F 
ATOM     93  F   UNL     1      -1.042  15.662  -3.146  1.00  0.00    -0.200 F 
ENDBRANCH  59  83
BRANCH  71  94
ATOM     94  C   UNL     1      -2.856  18.128   6.668  1.00  0.00     0.064 A 
ATOM     95  C   UNL     1      -4.231  18.019   6.412  1.00  0.00     0.173 A 
ATOM     96  C   UNL     1      -2.377  19.350   7.165  1.00  0.00     0.173 A 
ATOM     97  F   UNL     1      -4.738  16.879   5.921  1.00  0.00    -0.203 F 
ATOM     98  C   UNL     1      -5.087  19.099   6.619  1.00  0.00     0.198 A 
ATOM     99  C   UNL     1      -3.240  20.418   7.401  1.00  0.00     0.198 A 
ATOM    100  F   UNL     1      -1.072  19.506   7.433  1.00  0.00    -0.203 F 
ATOM    101  F   UNL     1      -6.388  18.988   6.318  1.00  0.00    -0.200 F 
ATOM    102  C   UNL     1      -4.592  20.294   7.120  1.00  0.00     0.200 A 
ATOM    103  F   UNL     1      -2.761  21.567   7.896  1.00  0.00    -0.200 F 
ATOM    104  F   UNL     1      -5.417  21.330   7.323  1.00  0.00    -0.200 F 
ENDBRANCH  71  94
ENDBRANCH  45  46
ENDBRANCH  37  40
ENDBRANCH  35  36
ENDBRANCH  34  35
ENDBRANCH  33  34
ENDBRANCH  32  33
ENDBRANCH   1  32
TORSDOF 18
