REMARK SMILES CCC[NH2+][C@]1(C(=O)NCCCCCCNC(=O)c2ccc(-c3c4nc(c(-c5c(F)c(F)c(F)c(F)c5F)c5ccc([nH]5)c(-c5c(F)c(F)c(F)c(F)c5F)c5nc(c(-c6c(F)c(F)c(F)c(F)c6F)c6ccc3[nH]6)C=C5)C=C4)cc2)CC[C@H](n2nc(C)c(CC)c2C)C1
REMARK SMILES IDX 11 1 10 2 9 3 8 4 6 5 7 6 5 8 81 9 93 10 82 11 83 12 4 13
REMARK SMILES IDX 3 16 2 17 1 18 84 19 85 20 91 21 86 22 88 23 92 24 87 25
REMARK SMILES IDX 89 26 90 27 12 28 13 29 14 30 15 31 16 32 17 34 18 35 19 36
REMARK SMILES IDX 80 37 20 38 79 39 21 40 22 41 23 42 73 43 24 44 78 45 72 46
REMARK SMILES IDX 74 47 25 48 77 49 71 50 70 51 26 53 58 54 38 55 57 56 39 57
REMARK SMILES IDX 42 58 56 59 75 60 40 61 41 62 55 64 76 65 43 66 27 67 28 68
REMARK SMILES IDX 36 69 29 70 30 71 34 72 37 73 31 74 32 75 35 76 33 77 59 78
REMARK SMILES IDX 60 79 68 80 61 81 62 82 66 83 69 84 63 85 64 86 67 87 65 88
REMARK SMILES IDX 44 89 45 90 53 91 46 92 47 93 51 94 54 95 48 96 49 97 52 98
REMARK SMILES IDX 50 99
REMARK H PARENT 8 7 4 14 4 15 15 33 74 52 42 63
REMARK Flexibility Score: inf
ROOT
ATOM      1  C   UNL     1      -3.535   0.696  -1.821  1.00  0.00     0.002 C 
ENDROOT
BRANCH   1   2
ATOM      2  C   UNL     1      -2.899   0.027  -3.042  1.00  0.00     0.021 C 
BRANCH   2   3
ATOM      3  C   UNL     1      -1.457   0.476  -3.270  1.00  0.00     0.116 C 
BRANCH   3   4
ATOM      4  N   UNL     1      -0.544  -0.350  -2.497  1.00  0.00    -0.351 N 
ATOM      5  C   UNL     1       0.259  -1.412  -2.768  1.00  0.00     0.281 C 
ATOM      6  O   UNL     1       0.708  -1.999  -1.771  1.00  0.00    -0.268 OA
ATOM      7  H   UNL     1      -0.495  -0.074  -1.553  1.00  0.00     0.163 HD
BRANCH   5   8
ATOM      8  C   UNL     1       0.798  -1.812  -4.183  1.00  0.00     0.177 C 
ATOM      9  C   UNL     1       0.473  -3.279  -4.521  1.00  0.00     0.081 C 
ATOM     10  C   UNL     1       0.034  -1.169  -5.351  1.00  0.00     0.106 C 
ATOM     11  C   UNL     1       0.580  -3.368  -6.066  1.00  0.00     0.034 C 
ATOM     12  C   UNL     1       0.442  -1.911  -6.598  1.00  0.00     0.114 C 
BRANCH   8  13
ATOM     13  N   UNL     1       2.270  -1.506  -4.130  1.00  0.00    -0.334 N 
ATOM     14  H   UNL     1       2.412  -0.629  -4.631  1.00  0.00     0.347 HD
ATOM     15  H   UNL     1       2.484  -1.498  -3.133  1.00  0.00     0.347 HD
BRANCH  13  16
ATOM     16  C   UNL     1       3.216  -2.481  -4.688  1.00  0.00     0.261 C 
BRANCH  16  17
ATOM     17  C   UNL     1       4.682  -2.065  -4.528  1.00  0.00     0.058 C 
ATOM     18  C   UNL     1       5.195  -2.215  -3.106  1.00  0.00     0.010 C 
ENDBRANCH  16  17
ENDBRANCH  13  16
ENDBRANCH   8  13
BRANCH  12  19
ATOM     19  N   UNL     1       1.562  -1.347  -7.348  1.00  0.00    -0.266 N 
ATOM     20  N   UNL     1       1.875  -2.015  -8.486  1.00  0.00    -0.178 NA
ATOM     21  C   UNL     1       2.285  -0.166  -7.231  1.00  0.00     0.039 A 
ATOM     22  C   UNL     1       2.804  -1.271  -9.087  1.00  0.00     0.063 A 
ATOM     23  C   UNL     1       3.113  -0.113  -8.343  1.00  0.00    -0.004 A 
ATOM     24  C   UNL     1       2.245   0.889  -6.173  1.00  0.00     0.066 C 
ATOM     25  C   UNL     1       3.370  -1.704 -10.386  1.00  0.00     0.069 C 
BRANCH  23  26
ATOM     26  C   UNL     1       4.105   0.960  -8.663  1.00  0.00     0.036 C 
ATOM     27  C   UNL     1       5.528   0.543  -8.328  1.00  0.00     0.009 C 
ENDBRANCH  23  26
ENDBRANCH  12  19
ENDBRANCH   5   8
ENDBRANCH   3   4
ENDBRANCH   2   3
ENDBRANCH   1   2
BRANCH   1  28
ATOM     28  C   UNL     1      -3.605   2.228  -1.900  1.00  0.00     0.002 C 
BRANCH  28  29
ATOM     29  C   UNL     1      -4.256   2.777  -3.172  1.00  0.00     0.021 C 
BRANCH  29  30
ATOM     30  C   UNL     1      -5.696   2.320  -3.372  1.00  0.00     0.116 C 
BRANCH  30  31
ATOM     31  N   UNL     1      -6.560   2.797  -2.302  1.00  0.00    -0.352 N 
ATOM     32  C   UNL     1      -7.688   3.569  -2.389  1.00  0.00     0.251 C 
ATOM     33  H   UNL     1      -6.297   2.529  -1.392  1.00  0.00     0.163 HD
ATOM     34  O   UNL     1      -8.167   4.094  -1.385  1.00  0.00    -0.269 OA
BRANCH  32  35
ATOM     35  C   UNL     1      -8.321   3.773  -3.704  1.00  0.00     0.039 A 
ATOM     36  C   UNL     1      -8.711   5.059  -4.084  1.00  0.00     0.014 A 
ATOM     37  C   UNL     1      -8.516   2.689  -4.564  1.00  0.00     0.014 A 
ATOM     38  C   UNL     1      -9.249   5.266  -5.355  1.00  0.00     0.010 A 
ATOM     39  C   UNL     1      -8.979   2.909  -5.855  1.00  0.00     0.010 A 
ATOM     40  C   UNL     1      -9.357   4.198  -6.261  1.00  0.00    -0.014 A 
BRANCH  40  41
ATOM     41  C   UNL     1      -9.876   4.394  -7.636  1.00  0.00     0.031 A 
ATOM     42  C   UNL     1     -11.142   3.703  -8.059  1.00  0.00     0.074 A 
ATOM     43  C   UNL     1      -9.168   5.120  -8.522  1.00  0.00     0.049 A 
ATOM     44  N   UNL     1     -11.701   3.646  -9.242  1.00  0.00    -0.248 NA
ATOM     45  C   UNL     1     -11.862   2.948  -7.020  1.00  0.00     0.031 C 
ATOM     46  C   UNL     1      -7.909   5.811  -8.238  1.00  0.00     0.029 A 
ATOM     47  N   UNL     1      -9.398   5.384  -9.850  1.00  0.00    -0.354 N 
ATOM     48  C   UNL     1     -12.816   2.833  -9.093  1.00  0.00     0.074 A 
ATOM     49  C   UNL     1     -12.833   2.380  -7.720  1.00  0.00     0.031 C 
ATOM     50  C   UNL     1      -7.490   6.437  -9.349  1.00  0.00     0.029 A 
ATOM     51  C   UNL     1      -8.421   6.152 -10.436  1.00  0.00     0.049 A 
ATOM     52  H   UNL     1     -10.188   5.055 -10.335  1.00  0.00     0.167 HD
ATOM     53  C   UNL     1     -13.752   2.510 -10.016  1.00  0.00     0.037 A 
ATOM     54  C   UNL     1      -8.286   6.564 -11.711  1.00  0.00     0.037 A 
ATOM     55  C   UNL     1     -13.747   2.993 -11.371  1.00  0.00     0.049 A 
ATOM     56  C   UNL     1      -9.332   6.169 -12.722  1.00  0.00     0.074 A 
ATOM     57  C   UNL     1     -14.688   2.785 -12.364  1.00  0.00     0.029 A 
ATOM     58  N   UNL     1     -12.747   3.779 -11.926  1.00  0.00    -0.354 N 
ATOM     59  N   UNL     1     -10.421   5.460 -12.554  1.00  0.00    -0.248 NA
ATOM     60  C   UNL     1      -9.128   6.634 -14.101  1.00  0.00     0.031 C 
ATOM     61  C   UNL     1     -14.228   3.392 -13.536  1.00  0.00     0.029 A 
ATOM     62  C   UNL     1     -13.033   4.036 -13.257  1.00  0.00     0.049 A 
ATOM     63  H   UNL     1     -11.952   4.105 -11.445  1.00  0.00     0.167 HD
ATOM     64  C   UNL     1     -11.053   5.430 -13.790  1.00  0.00     0.074 A 
ATOM     65  C   UNL     1     -10.228   6.198 -14.698  1.00  0.00     0.031 C 
ATOM     66  C   UNL     1     -12.213   4.824 -14.141  1.00  0.00     0.037 A 
BRANCH  53  67
ATOM     67  C   UNL     1     -14.859   1.585  -9.600  1.00  0.00     0.064 A 
ATOM     68  C   UNL     1     -15.855   1.981  -8.695  1.00  0.00     0.173 A 
ATOM     69  C   UNL     1     -14.953   0.299 -10.156  1.00  0.00     0.173 A 
ATOM     70  F   UNL     1     -15.807   3.195  -8.126  1.00  0.00    -0.203 F 
ATOM     71  C   UNL     1     -16.889   1.117  -8.344  1.00  0.00     0.198 A 
ATOM     72  C   UNL     1     -16.007  -0.549  -9.828  1.00  0.00     0.198 A 
ATOM     73  F   UNL     1     -14.030  -0.129 -11.030  1.00  0.00    -0.203 F 
ATOM     74  F   UNL     1     -17.803   1.501  -7.441  1.00  0.00    -0.200 F 
ATOM     75  C   UNL     1     -16.970  -0.143  -8.917  1.00  0.00     0.200 A 
ATOM     76  F   UNL     1     -16.091  -1.761 -10.395  1.00  0.00    -0.200 F 
ATOM     77  F   UNL     1     -17.973  -0.968  -8.588  1.00  0.00    -0.200 F 
ENDBRANCH  53  67
BRANCH  54  78
ATOM     78  C   UNL     1      -7.130   7.410 -12.109  1.00  0.00     0.064 A 
ATOM     79  C   UNL     1      -7.319   8.740 -12.512  1.00  0.00     0.173 A 
ATOM     80  C   UNL     1      -5.821   6.907 -12.124  1.00  0.00     0.173 A 
ATOM     81  F   UNL     1      -8.555   9.262 -12.534  1.00  0.00    -0.203 F 
ATOM     82  C   UNL     1      -6.251   9.523 -12.943  1.00  0.00     0.198 A 
ATOM     83  C   UNL     1      -4.748   7.701 -12.524  1.00  0.00     0.198 A 
ATOM     84  F   UNL     1      -5.582   5.643 -11.744  1.00  0.00    -0.203 F 
ATOM     85  F   UNL     1      -6.470  10.771 -13.377  1.00  0.00    -0.200 F 
ATOM     86  C   UNL     1      -4.965   9.004 -12.944  1.00  0.00     0.200 A 
ATOM     87  F   UNL     1      -3.505   7.201 -12.509  1.00  0.00    -0.200 F 
ATOM     88  F   UNL     1      -3.937   9.757 -13.361  1.00  0.00    -0.200 F 
ENDBRANCH  54  78
BRANCH  66  89
ATOM     89  C   UNL     1     -12.697   5.012 -15.550  1.00  0.00     0.064 A 
ATOM     90  C   UNL     1     -12.062   4.401 -16.640  1.00  0.00     0.173 A 
ATOM     91  C   UNL     1     -13.853   5.769 -15.802  1.00  0.00     0.173 A 
ATOM     92  F   UNL     1     -10.946   3.680 -16.455  1.00  0.00    -0.203 F 
ATOM     93  C   UNL     1     -12.554   4.559 -17.934  1.00  0.00     0.198 A 
ATOM     94  C   UNL     1     -14.361   5.895 -17.091  1.00  0.00     0.198 A 
ATOM     95  F   UNL     1     -14.503   6.367 -14.792  1.00  0.00    -0.203 F 
ATOM     96  F   UNL     1     -11.905   4.003 -18.966  1.00  0.00    -0.200 F 
ATOM     97  C   UNL     1     -13.708   5.295 -18.156  1.00  0.00     0.200 A 
ATOM     98  F   UNL     1     -15.486   6.592 -17.301  1.00  0.00    -0.200 F 
ATOM     99  F   UNL     1     -14.188   5.432 -19.400  1.00  0.00    -0.200 F 
ENDBRANCH  66  89
ENDBRANCH  40  41
ENDBRANCH  32  35
ENDBRANCH  30  31
ENDBRANCH  29  30
ENDBRANCH  28  29
ENDBRANCH   1  28
TORSDOF 18
