REMARK SMILES C[C@@H]1CCCN(C(=O)c2ccncc2/C=C/C(=O)NCCCCCCNC(=O)c2ccc(-c3c4nc(c(-c5c(F)c(F)c(F)c(F)c5F)c5ccc([nH]5)c(-c5c(F)c(F)c(F)c(F)c5F)c5nc(c(-c6c(F)c(F)c(F)c(F)c6F)c6ccc3[nH]6)C=C5)C=C4)cc2)[C@@H]1C
REMARK SMILES IDX 22 1 21 2 20 3 19 4 17 5 18 6 16 8 15 9 14 10 9 11 10 12
REMARK SMILES IDX 11 13 13 14 12 15 7 16 8 17 6 18 1 19 2 20 3 21 92 22 4 23
REMARK SMILES IDX 93 24 5 25 23 26 24 27 25 28 26 29 27 30 28 32 29 33 30 34
REMARK SMILES IDX 91 35 31 36 90 37 32 38 33 39 34 40 84 41 35 42 89 43 83 44
REMARK SMILES IDX 85 45 36 46 88 47 82 48 81 49 37 51 69 52 49 53 68 54 50 55
REMARK SMILES IDX 53 56 67 57 86 58 51 59 52 60 66 62 87 63 54 64 38 65 39 66
REMARK SMILES IDX 47 67 40 68 41 69 45 70 48 71 42 72 43 73 46 74 44 75 70 76
REMARK SMILES IDX 71 77 79 78 72 79 73 80 77 81 80 82 74 83 75 84 78 85 76 86
REMARK SMILES IDX 55 87 56 88 64 89 57 90 58 91 62 92 65 93 59 94 60 95 63 96
REMARK SMILES IDX 61 97
REMARK H PARENT 19 7 26 31 85 50 53 61
REMARK Flexibility Score: inf
ROOT
ATOM      1  C   UNL     1       4.733  -2.153   0.143  1.00  0.00     0.002 C 
ENDROOT
BRANCH   1   2
ATOM      2  C   UNL     1       4.214  -0.998  -0.722  1.00  0.00     0.021 C 
BRANCH   2   3
ATOM      3  C   UNL     1       5.309  -0.257  -1.488  1.00  0.00     0.116 C 
BRANCH   3   4
ATOM      4  N   UNL     1       5.643  -0.968  -2.708  1.00  0.00    -0.353 N 
ATOM      5  C   UNL     1       5.419  -0.638  -4.006  1.00  0.00     0.244 C 
ATOM      6  O   UNL     1       5.850  -1.358  -4.905  1.00  0.00    -0.270 OA
ATOM      7  H   UNL     1       6.106  -1.827  -2.574  1.00  0.00     0.163 HD
BRANCH   5   8
ATOM      8  C   UNL     1       4.745   0.630  -4.364  1.00  0.00     0.072 C 
ATOM      9  C   UNL     1       3.563   1.039  -3.875  1.00  0.00     0.016 C 
BRANCH   9  10
ATOM     10  C   UNL     1       2.938   2.314  -4.269  1.00  0.00     0.006 A 
ATOM     11  C   UNL     1       2.313   3.181  -3.358  1.00  0.00     0.050 A 
ATOM     12  C   UNL     1       1.784   4.406  -3.786  1.00  0.00     0.034 A 
ATOM     13  C   UNL     1       1.826   4.698  -5.134  1.00  0.00     0.112 A 
ATOM     14  C   UNL     1       2.905   2.715  -5.603  1.00  0.00     0.119 A 
ATOM     15  N   UNL     1       2.360   3.872  -6.054  1.00  0.00    -0.264 NA
BRANCH  11  16
ATOM     16  C   UNL     1       2.279   2.880  -1.907  1.00  0.00     0.254 C 
ATOM     17  O   UNL     1       3.373   2.785  -1.357  1.00  0.00    -0.269 OA
BRANCH  16  18
ATOM     18  N   UNL     1       1.042   2.742  -1.262  1.00  0.00    -0.336 N 
ATOM     19  C   UNL     1       0.823   0.058   0.359  1.00  0.00     0.010 C 
ATOM     20  C   UNL     1       0.081   1.373   0.604  1.00  0.00     0.008 C 
ATOM     21  C   UNL     1      -1.268   1.379  -0.130  1.00  0.00     0.007 C 
ATOM     22  C   UNL     1       0.913   2.626   0.214  1.00  0.00     0.085 C 
ATOM     23  C   UNL     1      -1.094   1.532  -1.636  1.00  0.00     0.022 C 
ATOM     24  C   UNL     1       2.190   2.724   1.057  1.00  0.00     0.031 C 
ATOM     25  C   UNL     1      -0.243   2.750  -1.977  1.00  0.00     0.120 C 
ENDBRANCH  16  18
ENDBRANCH  11  16
ENDBRANCH   9  10
ENDBRANCH   5   8
ENDBRANCH   3   4
ENDBRANCH   2   3
ENDBRANCH   1   2
BRANCH   1  26
ATOM     26  C   UNL     1       5.582  -1.727   1.349  1.00  0.00     0.002 C 
BRANCH  26  27
ATOM     27  C   UNL     1       4.908  -0.753   2.321  1.00  0.00     0.021 C 
BRANCH  27  28
ATOM     28  C   UNL     1       3.619  -1.266   2.959  1.00  0.00     0.116 C 
BRANCH  28  29
ATOM     29  N   UNL     1       3.852  -2.412   3.821  1.00  0.00    -0.352 N 
ATOM     30  C   UNL     1       3.571  -2.594   5.151  1.00  0.00     0.251 C 
ATOM     31  H   UNL     1       4.280  -3.180   3.380  1.00  0.00     0.163 HD
ATOM     32  O   UNL     1       4.026  -3.572   5.738  1.00  0.00    -0.269 OA
BRANCH  30  33
ATOM     33  C   UNL     1       2.740  -1.622   5.897  1.00  0.00     0.039 A 
ATOM     34  C   UNL     1       3.119  -1.291   7.201  1.00  0.00     0.014 A 
ATOM     35  C   UNL     1       1.569  -1.082   5.356  1.00  0.00     0.014 A 
ATOM     36  C   UNL     1       2.356  -0.387   7.942  1.00  0.00     0.010 A 
ATOM     37  C   UNL     1       0.841  -0.131   6.073  1.00  0.00     0.010 A 
ATOM     38  C   UNL     1       1.226   0.225   7.375  1.00  0.00    -0.014 A 
BRANCH  38  39
ATOM     39  C   UNL     1       0.466   1.249   8.137  1.00  0.00     0.031 A 
ATOM     40  C   UNL     1      -0.945   0.990   8.588  1.00  0.00     0.074 A 
ATOM     41  C   UNL     1       1.049   2.434   8.405  1.00  0.00     0.049 A 
ATOM     42  N   UNL     1      -1.747   1.761   9.281  1.00  0.00    -0.248 NA
ATOM     43  C   UNL     1      -1.542  -0.294   8.193  1.00  0.00     0.031 C 
ATOM     44  C   UNL     1       2.391   2.828   7.976  1.00  0.00     0.029 A 
ATOM     45  N   UNL     1       0.590   3.522   9.104  1.00  0.00    -0.354 N 
ATOM     46  C   UNL     1      -2.939   1.060   9.401  1.00  0.00     0.074 A 
ATOM     47  C   UNL     1      -2.776  -0.176   8.665  1.00  0.00     0.031 C 
ATOM     48  C   UNL     1       2.661   4.055   8.447  1.00  0.00     0.029 A 
ATOM     49  C   UNL     1       1.502   4.546   9.187  1.00  0.00     0.049 A 
ATOM     50  H   UNL     1      -0.307   3.565   9.507  1.00  0.00     0.167 HD
ATOM     51  C   UNL     1      -4.059   1.405  10.082  1.00  0.00     0.037 A 
ATOM     52  C   UNL     1       1.417   5.743   9.796  1.00  0.00     0.037 A 
ATOM     53  C   UNL     1      -4.215   2.628  10.828  1.00  0.00     0.049 A 
ATOM     54  C   UNL     1       0.166   6.096  10.552  1.00  0.00     0.074 A 
ATOM     55  C   UNL     1      -5.290   3.042  11.596  1.00  0.00     0.029 A 
ATOM     56  N   UNL     1      -3.267   3.639  10.894  1.00  0.00    -0.354 N 
ATOM     57  N   UNL     1      -0.927   5.392  10.720  1.00  0.00    -0.248 NA
ATOM     58  C   UNL     1       0.144   7.407  11.215  1.00  0.00     0.031 C 
ATOM     59  C   UNL     1      -5.012   4.322  12.089  1.00  0.00     0.029 A 
ATOM     60  C   UNL     1      -3.742   4.686  11.671  1.00  0.00     0.049 A 
ATOM     61  H   UNL     1      -2.386   3.617  10.455  1.00  0.00     0.167 HD
ATOM     62  C   UNL     1      -1.758   6.164  11.521  1.00  0.00     0.074 A 
ATOM     63  C   UNL     1      -1.030   7.378  11.828  1.00  0.00     0.031 C 
ATOM     64  C   UNL     1      -3.012   5.893  11.960  1.00  0.00     0.037 A 
BRANCH  51  65
ATOM     65  C   UNL     1      -5.211   0.440  10.058  1.00  0.00     0.064 A 
ATOM     66  C   UNL     1      -5.156  -0.788  10.734  1.00  0.00     0.173 A 
ATOM     67  C   UNL     1      -6.400   0.765   9.387  1.00  0.00     0.173 A 
ATOM     68  F   UNL     1      -4.039  -1.152  11.383  1.00  0.00    -0.203 F 
ATOM     69  C   UNL     1      -6.236  -1.667  10.715  1.00  0.00     0.198 A 
ATOM     70  C   UNL     1      -7.489  -0.103   9.395  1.00  0.00     0.198 A 
ATOM     71  F   UNL     1      -6.509   1.929   8.729  1.00  0.00    -0.203 F 
ATOM     72  F   UNL     1      -6.143  -2.855  11.329  1.00  0.00    -0.200 F 
ATOM     73  C   UNL     1      -7.404  -1.321  10.053  1.00  0.00     0.200 A 
ATOM     74  F   UNL     1      -8.621   0.239   8.765  1.00  0.00    -0.200 F 
ATOM     75  F   UNL     1      -8.446  -2.164  10.042  1.00  0.00    -0.200 F 
ENDBRANCH  51  65
BRANCH  52  76
ATOM     76  C   UNL     1       2.566   6.684   9.744  1.00  0.00     0.064 A 
ATOM     77  C   UNL     1       3.321   6.962  10.892  1.00  0.00     0.173 A 
ATOM     78  C   UNL     1       2.929   7.326   8.551  1.00  0.00     0.173 A 
ATOM     79  F   UNL     1       2.999   6.388  12.060  1.00  0.00    -0.203 F 
ATOM     80  C   UNL     1       4.383   7.862  10.853  1.00  0.00     0.198 A 
ATOM     81  C   UNL     1       4.009   8.204   8.508  1.00  0.00     0.198 A 
ATOM     82  F   UNL     1       2.240   7.091   7.425  1.00  0.00    -0.203 F 
ATOM     83  F   UNL     1       5.059   8.146  11.975  1.00  0.00    -0.200 F 
ATOM     84  C   UNL     1       4.730   8.479   9.660  1.00  0.00     0.200 A 
ATOM     85  F   UNL     1       4.349   8.787   7.350  1.00  0.00    -0.200 F 
ATOM     86  F   UNL     1       5.753   9.342   9.623  1.00  0.00    -0.200 F 
ENDBRANCH  52  76
BRANCH  64  87
ATOM     87  C   UNL     1      -3.665   6.928  12.831  1.00  0.00     0.064 A 
ATOM     88  C   UNL     1      -4.083   8.165  12.316  1.00  0.00     0.173 A 
ATOM     89  C   UNL     1      -3.876   6.681  14.196  1.00  0.00     0.173 A 
ATOM     90  F   UNL     1      -3.889   8.457  11.021  1.00  0.00    -0.203 F 
ATOM     91  C   UNL     1      -4.651   9.130  13.144  1.00  0.00     0.198 A 
ATOM     92  C   UNL     1      -4.474   7.636  15.014  1.00  0.00     0.198 A 
ATOM     93  F   UNL     1      -3.502   5.512  14.738  1.00  0.00    -0.203 F 
ATOM     94  F   UNL     1      -4.983  10.328  12.642  1.00  0.00    -0.200 F 
ATOM     95  C   UNL     1      -4.850   8.864  14.490  1.00  0.00     0.200 A 
ATOM     96  F   UNL     1      -4.677   7.372  16.312  1.00  0.00    -0.200 F 
ATOM     97  F   UNL     1      -5.393   9.795  15.285  1.00  0.00    -0.200 F 
ENDBRANCH  64  87
ENDBRANCH  38  39
ENDBRANCH  30  33
ENDBRANCH  28  29
ENDBRANCH  27  28
ENDBRANCH  26  27
ENDBRANCH   1  26
TORSDOF 16
