REMARK SMILES CC[C@H](C)CN(CC)c1nc(C(=O)NCCCCCCNC(=O)c2ccc(-c3c4nc(c(-c5c(F)c(F)c(F)c(F)c5F)c5ccc([nH]5)c(-c5c(F)c(F)c(F)c(F)c5F)c5nc(c(-c6c(F)c(F)c(F)c(F)c6F)c6ccc3[nH]6)C=C5)C=C4)cc2)cc2ccccc12
REMARK SMILES IDX 16 1 15 2 14 3 12 4 13 5 11 7 9 8 10 9 93 10 88 11 92 12
REMARK SMILES IDX 87 13 89 14 91 15 90 16 6 17 5 18 3 19 4 20 2 21 1 22 7 23
REMARK SMILES IDX 8 24 17 25 18 26 19 27 20 28 21 29 22 30 23 32 24 33 25 34
REMARK SMILES IDX 86 35 26 36 85 37 27 38 28 39 29 40 79 41 30 42 84 43 78 44
REMARK SMILES IDX 80 45 31 46 83 47 77 48 76 49 32 51 64 52 44 53 63 54 45 55
REMARK SMILES IDX 48 56 62 57 81 58 46 59 47 60 61 62 82 63 49 64 33 65 34 66
REMARK SMILES IDX 42 67 35 68 36 69 40 70 43 71 37 72 38 73 41 74 39 75 65 76
REMARK SMILES IDX 66 77 74 78 67 79 68 80 72 81 75 82 69 83 70 84 73 85 71 86
REMARK SMILES IDX 50 87 51 88 59 89 52 90 53 91 57 92 60 93 54 94 55 95 58 96
REMARK SMILES IDX 56 97
REMARK H PARENT 14 6 21 31 80 50 48 61
REMARK Flexibility Score: inf
ROOT
ATOM      1  C   UNL     1      -2.084  -7.405   3.583  1.00  0.00     0.021 C 
ENDROOT
BRANCH   1   2
ATOM      2  C   UNL     1      -0.952  -6.935   2.674  1.00  0.00     0.116 C 
BRANCH   2   3
ATOM      3  N   UNL     1      -1.188  -7.263   1.287  1.00  0.00    -0.351 N 
ATOM      4  C   UNL     1      -0.886  -6.561   0.144  1.00  0.00     0.269 C 
ATOM      5  O   UNL     1      -1.225  -7.072  -0.927  1.00  0.00    -0.268 OA
ATOM      6  H   UNL     1      -1.635  -8.127   1.136  1.00  0.00     0.163 HD
BRANCH   4   7
ATOM      7  C   UNL     1      -0.169  -5.239   0.137  1.00  0.00     0.131 A 
ATOM      8  C   UNL     1       1.089  -3.607   1.214  1.00  0.00     0.137 A 
ATOM      9  N   UNL     1       0.384  -4.761   1.279  1.00  0.00    -0.225 NA
ATOM     10  C   UNL     1       1.358  -2.958  -0.019  1.00  0.00     0.024 A 
ATOM     11  C   UNL     1       0.673  -3.411  -1.162  1.00  0.00    -0.012 A 
ATOM     12  C   UNL     1       2.231  -1.855  -0.165  1.00  0.00     0.012 A 
ATOM     13  C   UNL     1      -0.094  -4.569  -1.077  1.00  0.00     0.043 A 
ATOM     14  C   UNL     1       0.752  -2.683  -2.362  1.00  0.00     0.009 A 
ATOM     15  C   UNL     1       2.320  -1.149  -1.365  1.00  0.00     0.001 A 
ATOM     16  C   UNL     1       1.552  -1.544  -2.454  1.00  0.00     0.001 A 
BRANCH   8  17
ATOM     17  N   UNL     1       1.403  -2.958   2.417  1.00  0.00    -0.356 N 
BRANCH  17  18
ATOM     18  C   UNL     1       0.348  -2.070   2.961  1.00  0.00     0.121 C 
BRANCH  18  19
ATOM     19  C   UNL     1       0.395  -0.638   2.367  1.00  0.00     0.005 C 
ATOM     20  C   UNL     1      -0.462  -0.477   1.098  1.00  0.00     0.009 C 
BRANCH  19  21
ATOM     21  C   UNL     1       0.007   0.454   3.387  1.00  0.00     0.002 C 
ATOM     22  C   UNL     1      -1.378   0.301   4.003  1.00  0.00     0.004 C 
ENDBRANCH  19  21
ENDBRANCH  18  19
ENDBRANCH  17  18
BRANCH  17  23
ATOM     23  C   UNL     1       2.256  -3.676   3.366  1.00  0.00     0.114 C 
ATOM     24  C   UNL     1       1.556  -4.803   4.111  1.00  0.00     0.027 C 
ENDBRANCH  17  23
ENDBRANCH   8  17
ENDBRANCH   4   7
ENDBRANCH   2   3
ENDBRANCH   1   2
BRANCH   1  25
ATOM     25  C   UNL     1      -2.281  -8.920   3.679  1.00  0.00     0.002 C 
BRANCH  25  26
ATOM     26  C   UNL     1      -1.061  -9.729   4.125  1.00  0.00     0.002 C 
BRANCH  26  27
ATOM     27  C   UNL     1      -0.390  -9.268   5.421  1.00  0.00     0.021 C 
BRANCH  27  28
ATOM     28  C   UNL     1      -1.311  -9.120   6.626  1.00  0.00     0.116 C 
BRANCH  28  29
ATOM     29  N   UNL     1      -1.982 -10.358   6.980  1.00  0.00    -0.352 N 
ATOM     30  C   UNL     1      -2.153 -10.943   8.209  1.00  0.00     0.251 C 
ATOM     31  H   UNL     1      -2.373 -10.852   6.224  1.00  0.00     0.163 HD
ATOM     32  O   UNL     1      -2.637 -12.067   8.286  1.00  0.00    -0.269 OA
BRANCH  30  33
ATOM     33  C   UNL     1      -1.741 -10.239   9.446  1.00  0.00     0.039 A 
ATOM     34  C   UNL     1      -1.133 -10.984  10.461  1.00  0.00     0.014 A 
ATOM     35  C   UNL     1      -1.989  -8.877   9.637  1.00  0.00     0.014 A 
ATOM     36  C   UNL     1      -0.752 -10.361  11.651  1.00  0.00     0.010 A 
ATOM     37  C   UNL     1      -1.539  -8.240  10.793  1.00  0.00     0.010 A 
ATOM     38  C   UNL     1      -0.937  -8.980  11.822  1.00  0.00    -0.014 A 
BRANCH  38  39
ATOM     39  C   UNL     1      -0.543  -8.315  13.091  1.00  0.00     0.031 A 
ATOM     40  C   UNL     1      -1.590  -7.708  13.985  1.00  0.00     0.074 A 
ATOM     41  C   UNL     1       0.758  -8.240  13.430  1.00  0.00     0.049 A 
ATOM     42  N   UNL     1      -1.446  -7.093  15.133  1.00  0.00    -0.248 NA
ATOM     43  C   UNL     1      -2.983  -7.775  13.515  1.00  0.00     0.031 C 
ATOM     44  C   UNL     1       1.871  -8.743  12.625  1.00  0.00     0.029 A 
ATOM     45  N   UNL     1       1.364  -7.714  14.543  1.00  0.00    -0.354 N 
ATOM     46  C   UNL     1      -2.722  -6.697  15.513  1.00  0.00     0.074 A 
ATOM     47  C   UNL     1      -3.619  -7.082  14.446  1.00  0.00     0.031 C 
ATOM     48  C   UNL     1       3.022  -8.531  13.284  1.00  0.00     0.029 A 
ATOM     49  C   UNL     1       2.730  -7.853  14.544  1.00  0.00     0.049 A 
ATOM     50  H   UNL     1       0.866  -7.278  15.272  1.00  0.00     0.167 HD
ATOM     51  C   UNL     1      -3.115  -6.092  16.660  1.00  0.00     0.037 A 
ATOM     52  C   UNL     1       3.643  -7.483  15.463  1.00  0.00     0.037 A 
ATOM     53  C   UNL     1      -2.224  -5.733  17.732  1.00  0.00     0.049 A 
ATOM     54  C   UNL     1       3.178  -6.828  16.735  1.00  0.00     0.074 A 
ATOM     55  C   UNL     1      -2.529  -5.164  18.956  1.00  0.00     0.029 A 
ATOM     56  N   UNL     1      -0.848  -5.910  17.705  1.00  0.00    -0.354 N 
ATOM     57  N   UNL     1       1.961  -6.523  17.115  1.00  0.00    -0.248 NA
ATOM     58  C   UNL     1       4.216  -6.481  17.715  1.00  0.00     0.031 C 
ATOM     59  C   UNL     1      -1.333  -4.956  19.652  1.00  0.00     0.029 A 
ATOM     60  C   UNL     1      -0.288  -5.446  18.886  1.00  0.00     0.049 A 
ATOM     61  H   UNL     1      -0.344  -6.307  16.959  1.00  0.00     0.167 HD
ATOM     62  C   UNL     1       2.083  -5.980  18.387  1.00  0.00     0.074 A 
ATOM     63  C   UNL     1       3.491  -6.015  18.722  1.00  0.00     0.031 C 
ATOM     64  C   UNL     1       1.116  -5.495  19.206  1.00  0.00     0.037 A 
BRANCH  51  65
ATOM     65  C   UNL     1      -4.579  -5.787  16.816  1.00  0.00     0.064 A 
ATOM     66  C   UNL     1      -5.530  -6.806  16.978  1.00  0.00     0.173 A 
ATOM     67  C   UNL     1      -5.033  -4.460  16.831  1.00  0.00     0.173 A 
ATOM     68  F   UNL     1      -5.151  -8.093  16.960  1.00  0.00    -0.203 F 
ATOM     69  C   UNL     1      -6.884  -6.510  17.115  1.00  0.00     0.198 A 
ATOM     70  C   UNL     1      -6.384  -4.166  17.001  1.00  0.00     0.198 A 
ATOM     71  F   UNL     1      -4.167  -3.446  16.686  1.00  0.00    -0.203 F 
ATOM     72  F   UNL     1      -7.779  -7.503  17.212  1.00  0.00    -0.200 F 
ATOM     73  C   UNL     1      -7.309  -5.191  17.134  1.00  0.00     0.200 A 
ATOM     74  F   UNL     1      -6.792  -2.890  17.032  1.00  0.00    -0.200 F 
ATOM     75  F   UNL     1      -8.611  -4.906  17.271  1.00  0.00    -0.200 F 
ENDBRANCH  51  65
BRANCH  52  76
ATOM     76  C   UNL     1       5.084  -7.762  15.233  1.00  0.00     0.064 A 
ATOM     77  C   UNL     1       5.766  -8.714  16.004  1.00  0.00     0.173 A 
ATOM     78  C   UNL     1       5.812  -7.078  14.248  1.00  0.00     0.173 A 
ATOM     79  F   UNL     1       5.118  -9.380  16.971  1.00  0.00    -0.203 F 
ATOM     80  C   UNL     1       7.126  -8.953  15.818  1.00  0.00     0.198 A 
ATOM     81  C   UNL     1       7.165  -7.339  14.042  1.00  0.00     0.198 A 
ATOM     82  F   UNL     1       5.206  -6.162  13.479  1.00  0.00    -0.203 F 
ATOM     83  F   UNL     1       7.764  -9.831  16.604  1.00  0.00    -0.200 F 
ATOM     84  C   UNL     1       7.823  -8.269  14.833  1.00  0.00     0.200 A 
ATOM     85  F   UNL     1       7.832  -6.687  13.081  1.00  0.00    -0.200 F 
ATOM     86  F   UNL     1       9.131  -8.499  14.653  1.00  0.00    -0.200 F 
ENDBRANCH  52  76
BRANCH  64  87
ATOM     87  C   UNL     1       1.547  -5.003  20.558  1.00  0.00     0.064 A 
ATOM     88  C   UNL     1       2.298  -3.828  20.713  1.00  0.00     0.173 A 
ATOM     89  C   UNL     1       1.190  -5.711  21.716  1.00  0.00     0.173 A 
ATOM     90  F   UNL     1       2.676  -3.121  19.637  1.00  0.00    -0.203 F 
ATOM     91  C   UNL     1       2.709  -3.402  21.973  1.00  0.00     0.198 A 
ATOM     92  C   UNL     1       1.574  -5.263  22.977  1.00  0.00     0.198 A 
ATOM     93  F   UNL     1       0.465  -6.836  21.625  1.00  0.00    -0.203 F 
ATOM     94  F   UNL     1       3.478  -2.311  22.091  1.00  0.00    -0.200 F 
ATOM     95  C   UNL     1       2.342  -4.117  23.104  1.00  0.00     0.200 A 
ATOM     96  F   UNL     1       1.206  -5.947  24.070  1.00  0.00    -0.200 F 
ATOM     97  F   UNL     1       2.739  -3.705  24.316  1.00  0.00    -0.200 F 
ENDBRANCH  64  87
ENDBRANCH  38  39
ENDBRANCH  30  33
ENDBRANCH  28  29
ENDBRANCH  27  28
ENDBRANCH  26  27
ENDBRANCH  25  26
ENDBRANCH   1  25
TORSDOF 18
