REMARK SMILES Cc1nn(-c2ccncn2)c(C)c1[C@@H](C)C(=O)NCCCCCCNC(=O)c1ccc(-c2c3nc(c(-c4c(F)c(F)c(F)c(F)c4F)c4ccc([nH]4)c(-c4c(F)c(F)c(F)c(F)c4F)c4nc(c(-c5c(F)c(F)c(F)c(F)c5F)c5ccc2[nH]5)C=C4)C=C3)cc1
REMARK SMILES IDX 21 1 20 2 19 3 18 4 16 5 17 6 14 8 15 9 13 10 1 11 2 12 3 13
REMARK SMILES IDX 4 14 11 15 12 16 5 17 6 18 10 19 7 20 9 21 8 22 22 23 23 24
REMARK SMILES IDX 24 25 25 26 26 27 27 29 28 30 29 31 90 32 30 33 89 34 31 35
REMARK SMILES IDX 32 36 33 37 83 38 34 39 88 40 82 41 84 42 35 43 87 44 81 45
REMARK SMILES IDX 80 46 36 48 68 49 48 50 67 51 49 52 52 53 66 54 85 55 50 56
REMARK SMILES IDX 51 57 65 59 86 60 53 61 37 62 38 63 46 64 39 65 40 66 44 67
REMARK SMILES IDX 47 68 41 69 42 70 45 71 43 72 69 73 70 74 78 75 71 76 72 77
REMARK SMILES IDX 76 78 79 79 73 80 74 81 77 82 75 83 54 84 55 85 63 86 56 87
REMARK SMILES IDX 57 88 61 89 64 90 58 91 59 92 62 93 60 94
REMARK H PARENT 18 7 25 28 84 47 52 58
REMARK Flexibility Score: inf
ROOT
ATOM      1  C   UNL     1       1.118   0.686   7.597  1.00  0.00     0.002 C 
ENDROOT
BRANCH   1   2
ATOM      2  C   UNL     1       0.662   0.292   6.188  1.00  0.00     0.021 C 
BRANCH   2   3
ATOM      3  C   UNL     1      -0.049   1.413   5.427  1.00  0.00     0.116 C 
BRANCH   3   4
ATOM      4  N   UNL     1       0.799   2.077   4.466  1.00  0.00    -0.356 N 
ATOM      5  C   UNL     1       0.695   2.171   3.109  1.00  0.00     0.227 C 
ATOM      6  O   UNL     1       1.534   2.877   2.537  1.00  0.00    -0.274 OA
ATOM      7  H   UNL     1       1.580   2.536   4.852  1.00  0.00     0.163 HD
BRANCH   5   8
ATOM      8  C   UNL     1      -0.431   1.499   2.294  1.00  0.00     0.109 C 
ATOM      9  C   UNL     1      -1.768   2.195   2.493  1.00  0.00     0.023 C 
BRANCH   8  10
ATOM     10  C   UNL     1      -0.400  -0.014   2.386  1.00  0.00     0.009 A 
ATOM     11  C   UNL     1       1.266  -0.517   0.405  1.00  0.00     0.069 C 
ATOM     12  C   UNL     1       0.454  -0.850   1.607  1.00  0.00     0.064 A 
ATOM     13  N   UNL     1       0.482  -2.098   2.073  1.00  0.00    -0.171 NA
ATOM     14  N   UNL     1      -0.426  -2.130   3.073  1.00  0.00    -0.219 N 
ATOM     15  C   UNL     1      -1.149  -0.931   3.131  1.00  0.00     0.047 A 
ATOM     16  C   UNL     1      -2.362  -0.754   3.975  1.00  0.00     0.067 C 
BRANCH  14  17
ATOM     17  C   UNL     1      -0.459  -3.251   3.971  1.00  0.00     0.156 A 
ATOM     18  C   UNL     1      -1.642  -3.654   4.556  1.00  0.00     0.069 A 
ATOM     19  N   UNL     1       0.725  -3.833   4.286  1.00  0.00    -0.217 NA
ATOM     20  C   UNL     1      -1.545  -4.622   5.528  1.00  0.00     0.117 A 
ATOM     21  C   UNL     1       0.701  -4.761   5.248  1.00  0.00     0.224 A 
ATOM     22  N   UNL     1      -0.386  -5.174   5.916  1.00  0.00    -0.245 NA
ENDBRANCH  14  17
ENDBRANCH   8  10
ENDBRANCH   5   8
ENDBRANCH   3   4
ENDBRANCH   2   3
ENDBRANCH   1   2
BRANCH   1  23
ATOM     23  C   UNL     1       0.029   1.246   8.531  1.00  0.00     0.002 C 
BRANCH  23  24
ATOM     24  C   UNL     1      -1.237   0.395   8.708  1.00  0.00     0.021 C 
BRANCH  24  25
ATOM     25  C   UNL     1      -0.987  -0.935   9.402  1.00  0.00     0.116 C 
BRANCH  25  26
ATOM     26  N   UNL     1      -0.466  -0.772  10.760  1.00  0.00    -0.352 N 
ATOM     27  C   UNL     1      -0.089  -1.739  11.674  1.00  0.00     0.251 C 
ATOM     28  H   UNL     1      -0.370   0.159  11.066  1.00  0.00     0.163 HD
ATOM     29  O   UNL     1       0.016  -1.478  12.859  1.00  0.00    -0.269 OA
BRANCH  27  30
ATOM     30  C   UNL     1       0.183  -3.103  11.185  1.00  0.00     0.039 A 
ATOM     31  C   UNL     1      -0.198  -4.232  11.915  1.00  0.00     0.014 A 
ATOM     32  C   UNL     1       0.815  -3.234   9.956  1.00  0.00     0.014 A 
ATOM     33  C   UNL     1      -0.006  -5.491  11.350  1.00  0.00     0.010 A 
ATOM     34  C   UNL     1       0.822  -4.447   9.325  1.00  0.00     0.010 A 
ATOM     35  C   UNL     1       0.488  -5.587  10.039  1.00  0.00    -0.014 A 
BRANCH  35  36
ATOM     36  C   UNL     1       0.572  -6.868   9.347  1.00  0.00     0.031 A 
ATOM     37  C   UNL     1      -0.703  -7.634   9.313  1.00  0.00     0.074 A 
ATOM     38  C   UNL     1       1.640  -7.224   8.599  1.00  0.00     0.049 A 
ATOM     39  N   UNL     1      -0.947  -8.789   9.838  1.00  0.00    -0.248 NA
ATOM     40  C   UNL     1      -1.890  -6.985   8.733  1.00  0.00     0.031 C 
ATOM     41  C   UNL     1       2.841  -6.443   8.275  1.00  0.00     0.029 A 
ATOM     42  N   UNL     1       1.829  -8.357   7.871  1.00  0.00    -0.354 N 
ATOM     43  C   UNL     1      -2.260  -9.100   9.495  1.00  0.00     0.074 A 
ATOM     44  C   UNL     1      -2.839  -7.895   8.961  1.00  0.00     0.031 C 
ATOM     45  C   UNL     1       3.500  -7.021   7.246  1.00  0.00     0.029 A 
ATOM     46  C   UNL     1       2.874  -8.296   6.956  1.00  0.00     0.049 A 
ATOM     47  H   UNL     1       1.268  -9.158   7.983  1.00  0.00     0.167 HD
ATOM     48  C   UNL     1      -2.688 -10.392   9.463  1.00  0.00     0.037 A 
ATOM     49  C   UNL     1       3.179  -9.225   6.015  1.00  0.00     0.037 A 
ATOM     50  C   UNL     1      -1.805 -11.252  10.210  1.00  0.00     0.049 A 
ATOM     51  C   UNL     1       2.527 -10.492   6.433  1.00  0.00     0.074 A 
ATOM     52  C   UNL     1      -1.380 -11.282  11.526  1.00  0.00     0.029 A 
ATOM     53  N   UNL     1      -0.893 -12.010   9.516  1.00  0.00    -0.354 N 
ATOM     54  N   UNL     1       2.882 -11.176   7.485  1.00  0.00    -0.248 NA
ATOM     55  C   UNL     1       1.177 -10.741   5.949  1.00  0.00     0.031 C 
ATOM     56  C   UNL     1       0.010 -11.596  11.455  1.00  0.00     0.029 A 
ATOM     57  C   UNL     1       0.328 -11.823  10.116  1.00  0.00     0.049 A 
ATOM     58  H   UNL     1      -1.080 -12.580   8.735  1.00  0.00     0.167 HD
ATOM     59  C   UNL     1       1.687 -11.594   8.050  1.00  0.00     0.074 A 
ATOM     60  C   UNL     1       0.676 -11.365   7.018  1.00  0.00     0.031 C 
ATOM     61  C   UNL     1       1.578 -11.808   9.394  1.00  0.00     0.037 A 
BRANCH  48  62
ATOM     62  C   UNL     1      -3.692 -10.924   8.472  1.00  0.00     0.064 A 
ATOM     63  C   UNL     1      -4.197 -12.229   8.630  1.00  0.00     0.173 A 
ATOM     64  C   UNL     1      -3.955 -10.318   7.224  1.00  0.00     0.173 A 
ATOM     65  F   UNL     1      -3.983 -12.912   9.765  1.00  0.00    -0.203 F 
ATOM     66  C   UNL     1      -4.858 -12.896   7.593  1.00  0.00     0.198 A 
ATOM     67  C   UNL     1      -4.662 -10.965   6.212  1.00  0.00     0.198 A 
ATOM     68  F   UNL     1      -3.449  -9.125   6.890  1.00  0.00    -0.203 F 
ATOM     69  F   UNL     1      -5.216 -14.178   7.748  1.00  0.00    -0.200 F 
ATOM     70  C   UNL     1      -5.087 -12.264   6.385  1.00  0.00     0.200 A 
ATOM     71  F   UNL     1      -4.856 -10.340   5.042  1.00  0.00    -0.200 F 
ATOM     72  F   UNL     1      -5.670 -12.918   5.372  1.00  0.00    -0.200 F 
ENDBRANCH  48  62
BRANCH  49  73
ATOM     73  C   UNL     1       3.727  -9.035   4.650  1.00  0.00     0.064 A 
ATOM     74  C   UNL     1       4.223 -10.123   3.912  1.00  0.00     0.173 A 
ATOM     75  C   UNL     1       3.501  -7.848   3.928  1.00  0.00     0.173 A 
ATOM     76  F   UNL     1       4.438 -11.302   4.513  1.00  0.00    -0.203 F 
ATOM     77  C   UNL     1       4.432 -10.041   2.531  1.00  0.00     0.198 A 
ATOM     78  C   UNL     1       3.710  -7.765   2.551  1.00  0.00     0.198 A 
ATOM     79  F   UNL     1       2.983  -6.771   4.531  1.00  0.00    -0.203 F 
ATOM     80  F   UNL     1       4.840 -11.123   1.852  1.00  0.00    -0.200 F 
ATOM     81  C   UNL     1       4.160  -8.867   1.849  1.00  0.00     0.200 A 
ATOM     82  F   UNL     1       3.411  -6.633   1.899  1.00  0.00    -0.200 F 
ATOM     83  F   UNL     1       4.290  -8.811   0.516  1.00  0.00    -0.200 F 
ENDBRANCH  49  73
BRANCH  61  84
ATOM     84  C   UNL     1       2.843 -11.804  10.213  1.00  0.00     0.064 A 
ATOM     85  C   UNL     1       3.702 -10.697  10.342  1.00  0.00     0.173 A 
ATOM     86  C   UNL     1       3.123 -12.924  11.006  1.00  0.00     0.173 A 
ATOM     87  F   UNL     1       3.454  -9.550   9.701  1.00  0.00    -0.203 F 
ATOM     88  C   UNL     1       4.812 -10.732  11.185  1.00  0.00     0.198 A 
ATOM     89  C   UNL     1       4.210 -12.942  11.877  1.00  0.00     0.198 A 
ATOM     90  F   UNL     1       2.311 -13.991  10.972  1.00  0.00    -0.203 F 
ATOM     91  F   UNL     1       5.623  -9.666  11.275  1.00  0.00    -0.200 F 
ATOM     92  C   UNL     1       5.061 -11.852  11.957  1.00  0.00     0.200 A 
ATOM     93  F   UNL     1       4.418 -14.011  12.659  1.00  0.00    -0.200 F 
ATOM     94  F   UNL     1       6.106 -11.874  12.797  1.00  0.00    -0.200 F 
ENDBRANCH  61  84
ENDBRANCH  35  36
ENDBRANCH  27  30
ENDBRANCH  25  26
ENDBRANCH  24  25
ENDBRANCH  23  24
ENDBRANCH   1  23
TORSDOF 15
