REMARK SMILES C[C@@H]1[C@@H](C(=O)NCCCCCCNC(=O)c2ccc(-c3c4nc(c(-c5c(F)c(F)c(F)c(F)c5F)c5ccc([nH]5)c(-c5c(F)c(F)c(F)c(F)c5F)c5nc(c(-c6c(F)c(F)c(F)c(F)c6F)c6ccc3[nH]6)C=C5)C=C4)cc2)CCN1C(=O)[C@]1([NH3+])CCOC1
REMARK SMILES IDX 9 1 8 2 7 3 6 4 4 5 5 6 3 8 1 9 2 10 81 11 79 12 80 13 82 14
REMARK SMILES IDX 83 15 84 16 86 17 89 18 87 19 88 20 85 21 10 25 11 26 12 27
REMARK SMILES IDX 13 28 14 29 15 31 16 32 17 33 78 34 18 35 77 36 19 37 20 38
REMARK SMILES IDX 21 39 71 40 22 41 76 42 70 43 72 44 23 45 75 46 69 47 68 48
REMARK SMILES IDX 24 50 56 51 36 52 55 53 37 54 40 55 54 56 73 57 38 58 39 59
REMARK SMILES IDX 53 61 74 62 41 63 25 64 26 65 34 66 27 67 28 68 32 69 35 70
REMARK SMILES IDX 29 71 30 72 33 73 31 74 57 75 58 76 66 77 59 78 60 79 64 80
REMARK SMILES IDX 67 81 61 82 62 83 65 84 63 85 42 86 43 87 51 88 44 89 45 90
REMARK SMILES IDX 49 91 52 92 46 93 47 94 50 95 48 96
REMARK H PARENT 6 7 85 22 85 23 85 24 13 30 72 49 40 60
REMARK Flexibility Score: inf
ROOT
ATOM      1  C   UNL     1       7.728  -4.073   1.480  1.00  0.00     0.002 C 
ENDROOT
BRANCH   1   2
ATOM      2  C   UNL     1       7.109  -3.829   0.097  1.00  0.00     0.021 C 
BRANCH   2   3
ATOM      3  C   UNL     1       6.945  -5.081  -0.765  1.00  0.00     0.116 C 
BRANCH   3   4
ATOM      4  N   UNL     1       6.075  -6.050  -0.127  1.00  0.00    -0.356 N 
ATOM      5  C   UNL     1       4.975  -6.695  -0.599  1.00  0.00     0.225 C 
ATOM      6  O   UNL     1       4.409  -7.487   0.155  1.00  0.00    -0.275 OA
ATOM      7  H   UNL     1       6.321  -6.278   0.799  1.00  0.00     0.163 HD
BRANCH   5   8
ATOM      8  C   UNL     1       4.522  -6.460  -2.032  1.00  0.00     0.102 C 
ATOM      9  C   UNL     1       3.991  -4.646  -3.674  1.00  0.00     0.032 C 
ATOM     10  C   UNL     1       3.819  -5.101  -2.219  1.00  0.00     0.094 C 
ATOM     11  N   UNL     1       2.410  -5.369  -1.911  1.00  0.00    -0.334 N 
ATOM     12  C   UNL     1       3.436  -7.455  -2.450  1.00  0.00     0.037 C 
ATOM     13  C   UNL     1       2.150  -6.807  -1.960  1.00  0.00     0.121 C 
BRANCH  11  14
ATOM     14  C   UNL     1       1.393  -4.548  -1.474  1.00  0.00     0.286 C 
ATOM     15  O   UNL     1       0.259  -5.038  -1.331  1.00  0.00    -0.267 OA
BRANCH  14  16
ATOM     16  C   UNL     1       1.573  -3.027  -1.101  1.00  0.00     0.199 C 
ATOM     17  C   UNL     1       1.921  -2.105  -2.251  1.00  0.00     0.110 C 
ATOM     18  C   UNL     1       2.671  -2.782  -0.072  1.00  0.00     0.239 C 
ATOM     19  C   UNL     1       3.343  -1.650  -1.998  1.00  0.00     0.167 C 
ATOM     20  O   UNL     1       3.782  -2.161  -0.739  1.00  0.00    -0.374 OA
BRANCH  16  21
ATOM     21  N   UNL     1       0.256  -2.566  -0.548  1.00  0.00    -0.343 N 
ATOM     22  H   UNL     1       0.321  -1.581  -0.290  1.00  0.00     0.345 HD
ATOM     23  H   UNL     1       0.021  -3.118   0.277  1.00  0.00     0.345 HD
ATOM     24  H   UNL     1      -0.470  -2.684  -1.255  1.00  0.00     0.345 HD
ENDBRANCH  16  21
ENDBRANCH  14  16
ENDBRANCH  11  14
ENDBRANCH   5   8
ENDBRANCH   3   4
ENDBRANCH   2   3
ENDBRANCH   1   2
BRANCH   1  25
ATOM     25  C   UNL     1       9.110  -4.734   1.478  1.00  0.00     0.002 C 
BRANCH  25  26
ATOM     26  C   UNL     1      10.191  -3.988   0.694  1.00  0.00     0.021 C 
BRANCH  26  27
ATOM     27  C   UNL     1      10.434  -2.546   1.132  1.00  0.00     0.116 C 
BRANCH  27  28
ATOM     28  N   UNL     1      10.899  -2.449   2.505  1.00  0.00    -0.352 N 
ATOM     29  C   UNL     1      11.950  -1.740   3.030  1.00  0.00     0.251 C 
ATOM     30  H   UNL     1      10.380  -2.972   3.159  1.00  0.00     0.163 HD
ATOM     31  O   UNL     1      12.275  -1.908   4.202  1.00  0.00    -0.269 OA
BRANCH  29  32
ATOM     32  C   UNL     1      12.715  -0.790   2.190  1.00  0.00     0.039 A 
ATOM     33  C   UNL     1      14.106  -0.754   2.323  1.00  0.00     0.014 A 
ATOM     34  C   UNL     1      12.078   0.085   1.307  1.00  0.00     0.014 A 
ATOM     35  C   UNL     1      14.860   0.121   1.538  1.00  0.00     0.010 A 
ATOM     36  C   UNL     1      12.834   0.910   0.474  1.00  0.00     0.010 A 
ATOM     37  C   UNL     1      14.232   0.942   0.587  1.00  0.00    -0.014 A 
BRANCH  37  38
ATOM     38  C   UNL     1      15.029   1.843  -0.285  1.00  0.00     0.031 A 
ATOM     39  C   UNL     1      14.891   3.336  -0.165  1.00  0.00     0.074 A 
ATOM     40  C   UNL     1      15.849   1.317  -1.215  1.00  0.00     0.049 A 
ATOM     41  N   UNL     1      15.481   4.281  -0.854  1.00  0.00    -0.248 NA
ATOM     42  C   UNL     1      13.948   3.834   0.849  1.00  0.00     0.031 C 
ATOM     43  C   UNL     1      16.035  -0.113  -1.464  1.00  0.00     0.029 A 
ATOM     44  N   UNL     1      16.675   1.924  -2.128  1.00  0.00    -0.354 N 
ATOM     45  C   UNL     1      14.974   5.478  -0.366  1.00  0.00     0.074 A 
ATOM     46  C   UNL     1      13.990   5.142   0.639  1.00  0.00     0.031 C 
ATOM     47  C   UNL     1      16.939  -0.274  -2.444  1.00  0.00     0.029 A 
ATOM     48  C   UNL     1      17.370   1.038  -2.915  1.00  0.00     0.049 A 
ATOM     49  H   UNL     1      16.762   2.901  -2.211  1.00  0.00     0.167 HD
ATOM     50  C   UNL     1      15.317   6.744  -0.708  1.00  0.00     0.037 A 
ATOM     51  C   UNL     1      18.256   1.261  -3.905  1.00  0.00     0.037 A 
ATOM     52  C   UNL     1      16.315   7.078  -1.689  1.00  0.00     0.049 A 
ATOM     53  C   UNL     1      18.618   2.676  -4.265  1.00  0.00     0.074 A 
ATOM     54  C   UNL     1      16.777   8.329  -2.060  1.00  0.00     0.029 A 
ATOM     55  N   UNL     1      17.006   6.153  -2.459  1.00  0.00    -0.354 N 
ATOM     56  N   UNL     1      18.185   3.799  -3.746  1.00  0.00    -0.248 NA
ATOM     57  C   UNL     1      19.599   2.854  -5.345  1.00  0.00     0.031 C 
ATOM     58  C   UNL     1      17.715   8.164  -3.085  1.00  0.00     0.029 A 
ATOM     59  C   UNL     1      17.874   6.808  -3.319  1.00  0.00     0.049 A 
ATOM     60  H   UNL     1      16.896   5.177  -2.402  1.00  0.00     0.167 HD
ATOM     61  C   UNL     1      18.856   4.813  -4.416  1.00  0.00     0.074 A 
ATOM     62  C   UNL     1      19.740   4.171  -5.367  1.00  0.00     0.031 C 
ATOM     63  C   UNL     1      18.749   6.155  -4.258  1.00  0.00     0.037 A 
BRANCH  50  64
ATOM     64  C   UNL     1      14.609   7.867  -0.006  1.00  0.00     0.064 A 
ATOM     65  C   UNL     1      14.844   8.152   1.348  1.00  0.00     0.173 A 
ATOM     66  C   UNL     1      13.716   8.694  -0.705  1.00  0.00     0.173 A 
ATOM     67  F   UNL     1      15.680   7.385   2.063  1.00  0.00    -0.203 F 
ATOM     68  C   UNL     1      14.189   9.204   1.983  1.00  0.00     0.198 A 
ATOM     69  C   UNL     1      13.086   9.764  -0.073  1.00  0.00     0.198 A 
ATOM     70  F   UNL     1      13.461   8.471  -2.003  1.00  0.00    -0.203 F 
ATOM     71  F   UNL     1      14.393   9.426   3.289  1.00  0.00    -0.200 F 
ATOM     72  C   UNL     1      13.317  10.013   1.271  1.00  0.00     0.200 A 
ATOM     73  F   UNL     1      12.254  10.553  -0.766  1.00  0.00    -0.200 F 
ATOM     74  F   UNL     1      12.693  11.029   1.882  1.00  0.00    -0.200 F 
ENDBRANCH  50  64
BRANCH  51  75
ATOM     75  C   UNL     1      18.885   0.113  -4.610  1.00  0.00     0.064 A 
ATOM     76  C   UNL     1      20.245  -0.178  -4.436  1.00  0.00     0.173 A 
ATOM     77  C   UNL     1      18.146  -0.708  -5.473  1.00  0.00     0.173 A 
ATOM     78  F   UNL     1      20.998   0.592  -3.637  1.00  0.00    -0.203 F 
ATOM     79  C   UNL     1      20.847  -1.235  -5.116  1.00  0.00     0.198 A 
ATOM     80  C   UNL     1      18.743  -1.781  -6.131  1.00  0.00     0.198 A 
ATOM     81  F   UNL     1      16.840  -0.473  -5.670  1.00  0.00    -0.203 F 
ATOM     82  F   UNL     1      22.159  -1.463  -4.968  1.00  0.00    -0.200 F 
ATOM     83  C   UNL     1      20.094  -2.039  -5.958  1.00  0.00     0.200 A 
ATOM     84  F   UNL     1      18.009  -2.564  -6.934  1.00  0.00    -0.200 F 
ATOM     85  F   UNL     1      20.673  -3.057  -6.610  1.00  0.00    -0.200 F 
ENDBRANCH  51  75
BRANCH  63  86
ATOM     86  C   UNL     1      19.627   7.019  -5.116  1.00  0.00     0.064 A 
ATOM     87  C   UNL     1      19.390   7.171  -6.490  1.00  0.00     0.173 A 
ATOM     88  C   UNL     1      20.697   7.729  -4.550  1.00  0.00     0.173 A 
ATOM     89  F   UNL     1      18.390   6.501  -7.081  1.00  0.00    -0.203 F 
ATOM     90  C   UNL     1      20.209   7.982  -7.271  1.00  0.00     0.198 A 
ATOM     91  C   UNL     1      21.495   8.562  -5.329  1.00  0.00     0.198 A 
ATOM     92  F   UNL     1      20.962   7.622  -3.240  1.00  0.00    -0.203 F 
ATOM     93  F   UNL     1      19.995   8.075  -8.591  1.00  0.00    -0.200 F 
ATOM     94  C   UNL     1      21.256   8.682  -6.689  1.00  0.00     0.200 A 
ATOM     95  F   UNL     1      22.499   9.247  -4.763  1.00  0.00    -0.200 F 
ATOM     96  F   UNL     1      22.040   9.466  -7.442  1.00  0.00    -0.200 F 
ENDBRANCH  63  86
ENDBRANCH  37  38
ENDBRANCH  29  32
ENDBRANCH  27  28
ENDBRANCH  26  27
ENDBRANCH  25  26
ENDBRANCH   1  25
TORSDOF 16
