REMARK SMILES O=C(NCCCCCCNC(=O)[C@H]1CS[C@H](c2nc3ccccc3s2)[NH2+]1)c1ccc(-c2c3nc(c(-c4c(F)c(F)c(F)c(F)c4F)c4ccc([nH]4)c(-c4c(F)c(F)c(F)c(F)c4F)c4nc(c(-c5c(F)c(F)c(F)c(F)c5F)c5ccc2[nH]5)C=C4)C=C3)cc1
REMARK SMILES IDX 6 1 5 2 4 3 3 4 1 5 2 6 27 8 28 9 89 10 29 11 88 12 30 13
REMARK SMILES IDX 31 14 32 15 82 16 33 17 87 18 81 19 83 20 34 21 86 22 80 23
REMARK SMILES IDX 79 24 35 26 67 27 47 28 66 29 48 30 51 31 65 32 84 33 49 34
REMARK SMILES IDX 50 35 64 37 85 38 52 39 36 40 37 41 45 42 38 43 39 44 43 45
REMARK SMILES IDX 46 46 40 47 41 48 44 49 42 50 68 51 69 52 77 53 70 54 71 55
REMARK SMILES IDX 75 56 78 57 72 58 73 59 76 60 74 61 53 62 54 63 62 64 55 65
REMARK SMILES IDX 56 66 60 67 63 68 57 69 58 70 61 71 59 72 7 73 8 74 9 75
REMARK SMILES IDX 10 76 11 77 12 79 13 80 14 81 26 82 15 83 16 84 17 87 18 88
REMARK SMILES IDX 25 89 19 90 24 91 20 92 23 93 21 94 22 95
REMARK H PARENT 3 7 83 25 51 36 10 78 26 85 26 86
REMARK Flexibility Score: inf
ROOT
ATOM      1  C   UNL     1       3.892  -3.271  -2.256  1.00  0.00     0.002 C 
ENDROOT
BRANCH   1   2
ATOM      2  C   UNL     1       4.379  -2.615  -0.963  1.00  0.00     0.021 C 
BRANCH   2   3
ATOM      3  C   UNL     1       4.271  -1.096  -0.943  1.00  0.00     0.116 C 
BRANCH   3   4
ATOM      4  N   UNL     1       2.891  -0.638  -0.981  1.00  0.00    -0.352 N 
ATOM      5  O   UNL     1       1.003   0.310  -0.186  1.00  0.00    -0.269 OA
ATOM      6  C   UNL     1       2.219   0.170  -0.097  1.00  0.00     0.251 C 
ATOM      7  H   UNL     1       2.364  -0.953  -1.750  1.00  0.00     0.163 HD
BRANCH   6   8
ATOM      8  C   UNL     1       2.963   0.853   0.982  1.00  0.00     0.039 A 
ATOM      9  C   UNL     1       4.178   1.486   0.715  1.00  0.00     0.014 A 
ATOM     10  C   UNL     1       2.439   0.855   2.278  1.00  0.00     0.014 A 
ATOM     11  C   UNL     1       4.942   1.981   1.765  1.00  0.00     0.010 A 
ATOM     12  C   UNL     1       3.168   1.436   3.320  1.00  0.00     0.010 A 
ATOM     13  C   UNL     1       4.444   1.969   3.079  1.00  0.00    -0.014 A 
BRANCH  13  14
ATOM     14  C   UNL     1       5.266   2.556   4.168  1.00  0.00     0.031 A 
ATOM     15  C   UNL     1       5.797   1.705   5.288  1.00  0.00     0.074 A 
ATOM     16  C   UNL     1       5.571   3.867   4.112  1.00  0.00     0.049 A 
ATOM     17  N   UNL     1       6.574   2.047   6.286  1.00  0.00    -0.248 NA
ATOM     18  C   UNL     1       5.399   0.290   5.298  1.00  0.00     0.031 C 
ATOM     19  C   UNL     1       5.100   4.795   3.081  1.00  0.00     0.029 A 
ATOM     20  N   UNL     1       6.366   4.641   4.917  1.00  0.00    -0.354 N 
ATOM     21  C   UNL     1       6.737   0.901   7.054  1.00  0.00     0.074 A 
ATOM     22  C   UNL     1       5.959  -0.143   6.420  1.00  0.00     0.031 C 
ATOM     23  C   UNL     1       5.662   5.995   3.280  1.00  0.00     0.029 A 
ATOM     24  C   UNL     1       6.483   5.939   4.484  1.00  0.00     0.049 A 
ATOM     25  H   UNL     1       6.809   4.299   5.727  1.00  0.00     0.167 HD
ATOM     26  C   UNL     1       7.474   0.736   8.179  1.00  0.00     0.037 A 
ATOM     27  C   UNL     1       7.172   6.972   5.002  1.00  0.00     0.037 A 
ATOM     28  C   UNL     1       8.268   1.772   8.789  1.00  0.00     0.049 A 
ATOM     29  C   UNL     1       7.979   6.758   6.250  1.00  0.00     0.074 A 
ATOM     30  C   UNL     1       9.087   1.690   9.902  1.00  0.00     0.029 A 
ATOM     31  N   UNL     1       8.340   3.082   8.338  1.00  0.00    -0.354 N 
ATOM     32  N   UNL     1       8.158   5.659   6.941  1.00  0.00    -0.248 NA
ATOM     33  C   UNL     1       8.678   7.931   6.790  1.00  0.00     0.031 C 
ATOM     34  C   UNL     1       9.618   2.961  10.152  1.00  0.00     0.029 A 
ATOM     35  C   UNL     1       9.171   3.824   9.164  1.00  0.00     0.049 A 
ATOM     36  H   UNL     1       7.870   3.434   7.548  1.00  0.00     0.167 HD
ATOM     37  C   UNL     1       9.006   6.000   7.984  1.00  0.00     0.074 A 
ATOM     38  C   UNL     1       9.322   7.405   7.823  1.00  0.00     0.031 C 
ATOM     39  C   UNL     1       9.479   5.220   8.987  1.00  0.00     0.037 A 
BRANCH  26  40
ATOM     40  C   UNL     1       7.443  -0.612   8.843  1.00  0.00     0.064 A 
ATOM     41  C   UNL     1       8.077  -1.729   8.281  1.00  0.00     0.173 A 
ATOM     42  C   UNL     1       6.808  -0.775  10.084  1.00  0.00     0.173 A 
ATOM     43  F   UNL     1       8.690  -1.631   7.091  1.00  0.00    -0.203 F 
ATOM     44  C   UNL     1       8.055  -2.965   8.924  1.00  0.00     0.198 A 
ATOM     45  C   UNL     1       6.811  -2.005  10.737  1.00  0.00     0.198 A 
ATOM     46  F   UNL     1       6.192   0.263  10.670  1.00  0.00    -0.203 F 
ATOM     47  F   UNL     1       8.630  -4.029   8.347  1.00  0.00    -0.200 F 
ATOM     48  C   UNL     1       7.429  -3.100  10.154  1.00  0.00     0.200 A 
ATOM     49  F   UNL     1       6.216  -2.130  11.932  1.00  0.00    -0.200 F 
ATOM     50  F   UNL     1       7.415  -4.288  10.774  1.00  0.00    -0.200 F 
ENDBRANCH  26  40
BRANCH  27  51
ATOM     51  C   UNL     1       7.138   8.294   4.326  1.00  0.00     0.064 A 
ATOM     52  C   UNL     1       8.277   8.806   3.690  1.00  0.00     0.173 A 
ATOM     53  C   UNL     1       5.967   9.064   4.289  1.00  0.00     0.173 A 
ATOM     54  F   UNL     1       9.426   8.114   3.714  1.00  0.00    -0.203 F 
ATOM     55  C   UNL     1       8.250  10.047   3.057  1.00  0.00     0.198 A 
ATOM     56  C   UNL     1       5.932  10.290   3.630  1.00  0.00     0.198 A 
ATOM     57  F   UNL     1       4.849   8.614   4.877  1.00  0.00    -0.203 F 
ATOM     58  F   UNL     1       9.364  10.533   2.492  1.00  0.00    -0.200 F 
ATOM     59  C   UNL     1       7.076  10.784   3.021  1.00  0.00     0.200 A 
ATOM     60  F   UNL     1       4.791  10.991   3.582  1.00  0.00    -0.200 F 
ATOM     61  F   UNL     1       7.048  11.973   2.404  1.00  0.00    -0.200 F 
ENDBRANCH  27  51
BRANCH  39  62
ATOM     62  C   UNL     1      10.418   5.864   9.964  1.00  0.00     0.064 A 
ATOM     63  C   UNL     1       9.971   6.801  10.907  1.00  0.00     0.173 A 
ATOM     64  C   UNL     1      11.780   5.529   9.964  1.00  0.00     0.173 A 
ATOM     65  F   UNL     1       8.681   7.168  10.935  1.00  0.00    -0.203 F 
ATOM     66  C   UNL     1      10.860   7.403  11.794  1.00  0.00     0.198 A 
ATOM     67  C   UNL     1      12.661   6.109  10.872  1.00  0.00     0.198 A 
ATOM     68  F   UNL     1      12.257   4.634   9.086  1.00  0.00    -0.203 F 
ATOM     69  F   UNL     1      10.421   8.337  12.649  1.00  0.00    -0.200 F 
ATOM     70  C   UNL     1      12.202   7.053  11.779  1.00  0.00     0.200 A 
ATOM     71  F   UNL     1      13.955   5.762  10.865  1.00  0.00    -0.200 F 
ATOM     72  F   UNL     1      13.056   7.633  12.634  1.00  0.00    -0.200 F 
ENDBRANCH  39  62
ENDBRANCH  13  14
ENDBRANCH   6   8
ENDBRANCH   3   4
ENDBRANCH   2   3
ENDBRANCH   1   2
BRANCH   1  73
ATOM     73  C   UNL     1       4.590  -2.797  -3.535  1.00  0.00     0.002 C 
BRANCH  73  74
ATOM     74  C   UNL     1       6.122  -2.822  -3.494  1.00  0.00     0.021 C 
BRANCH  74  75
ATOM     75  C   UNL     1       6.713  -4.189  -3.163  1.00  0.00     0.116 C 
BRANCH  75  76
ATOM     76  N   UNL     1       6.591  -5.114  -4.272  1.00  0.00    -0.351 N 
ATOM     77  C   UNL     1       7.514  -5.620  -5.139  1.00  0.00     0.279 C 
ATOM     78  H   UNL     1       5.674  -5.435  -4.428  1.00  0.00     0.163 HD
ATOM     79  O   UNL     1       7.091  -6.310  -6.070  1.00  0.00    -0.268 OA
BRANCH  77  80
ATOM     80  C   UNL     1       9.022  -5.344  -4.987  1.00  0.00     0.284 C 
ATOM     81  C   UNL     1       9.371  -3.889  -5.288  1.00  0.00     0.151 C 
ATOM     82  N   UNL     1       9.527  -5.829  -3.674  1.00  0.00    -0.319 N 
ATOM     83  S   UNL     1      10.172  -3.255  -3.806  1.00  0.00    -0.085 SA
ATOM     84  C   UNL     1      10.574  -4.920  -3.188  1.00  0.00     0.303 C 
ATOM     85  H   UNL     1       9.913  -6.766  -3.783  1.00  0.00     0.348 HD
ATOM     86  H   UNL     1       8.759  -5.855  -3.002  1.00  0.00     0.348 HD
BRANCH  84  87
ATOM     87  C   UNL     1      12.003  -5.282  -3.552  1.00  0.00     0.163 A 
ATOM     88  N   UNL     1      13.043  -4.593  -3.120  1.00  0.00    -0.234 NA
ATOM     89  S   UNL     1      12.395  -6.625  -4.555  1.00  0.00    -0.112 S 
ATOM     90  C   UNL     1      14.207  -5.069  -3.692  1.00  0.00     0.082 A 
ATOM     91  C   UNL     1      14.055  -6.183  -4.515  1.00  0.00     0.055 A 
ATOM     92  C   UNL     1      15.491  -4.518  -3.519  1.00  0.00     0.030 A 
ATOM     93  C   UNL     1      15.146  -6.773  -5.172  1.00  0.00     0.021 A 
ATOM     94  C   UNL     1      16.583  -5.086  -4.181  1.00  0.00     0.002 A 
ATOM     95  C   UNL     1      16.410  -6.200  -4.997  1.00  0.00     0.002 A 
ENDBRANCH  84  87
ENDBRANCH  77  80
ENDBRANCH  75  76
ENDBRANCH  74  75
ENDBRANCH  73  74
ENDBRANCH   1  73
TORSDOF 14
