REMARK SMILES O=C(NCCCCCCNC(=O)c1ccc(-c2c3nc(c(-c4c(F)c(F)c(F)c(F)c4F)c4ccc([nH]4)c(-c4c(F)c(F)c(F)c(F)c4F)c4nc(c(-c5c(F)c(F)c(F)c(F)c5F)c5ccc2[nH]5)C=C4)C=C3)cc1)c1ccc(-c2ccsc2)cc1
REMARK SMILES IDX 7 1 6 2 5 3 4 4 3 5 1 6 2 7 76 9 77 10 86 11 78 12 85 13
REMARK SMILES IDX 79 14 80 15 81 16 84 17 82 18 83 19 8 20 9 21 10 22 11 23
REMARK SMILES IDX 12 25 13 26 14 27 75 28 15 29 74 30 16 31 17 32 18 33 68 34
REMARK SMILES IDX 19 35 73 36 67 37 69 38 20 39 72 40 66 41 65 42 21 44 53 45
REMARK SMILES IDX 33 46 52 47 34 48 37 49 51 50 70 51 35 52 36 53 50 55 71 56
REMARK SMILES IDX 38 57 22 58 23 59 31 60 24 61 25 62 29 63 32 64 26 65 27 66
REMARK SMILES IDX 30 67 28 68 54 69 55 70 63 71 56 72 57 73 61 74 64 75 58 76
REMARK SMILES IDX 59 77 62 78 60 79 39 80 40 81 48 82 41 83 42 84 46 85 49 86
REMARK SMILES IDX 43 87 44 88 47 89 45 90
REMARK H PARENT 3 8 10 24 69 43 37 54
REMARK Flexibility Score: inf
ROOT
ATOM      1  C   UNL     1       4.736  -2.261  -3.575  1.00  0.00     0.002 C 
ENDROOT
BRANCH   1   2
ATOM      2  C   UNL     1       4.218  -2.911  -2.289  1.00  0.00     0.002 C 
BRANCH   2   3
ATOM      3  C   UNL     1       4.714  -2.285  -0.983  1.00  0.00     0.021 C 
BRANCH   3   4
ATOM      4  C   UNL     1       4.470  -0.784  -0.849  1.00  0.00     0.116 C 
BRANCH   4   5
ATOM      5  N   UNL     1       3.055  -0.453  -0.820  1.00  0.00    -0.352 N 
ATOM      6  O   UNL     1       1.119   0.269   0.098  1.00  0.00    -0.269 OA
ATOM      7  C   UNL     1       2.343   0.207   0.151  1.00  0.00     0.251 C 
ATOM      8  H   UNL     1       2.535  -0.743  -1.604  1.00  0.00     0.163 HD
BRANCH   7   9
ATOM      9  C   UNL     1       3.063   0.822   1.284  1.00  0.00     0.039 A 
ATOM     10  C   UNL     1       4.103   1.729   1.060  1.00  0.00     0.014 A 
ATOM     11  C   UNL     1       2.703   0.466   2.585  1.00  0.00     0.014 A 
ATOM     12  C   UNL     1       4.847   2.209   2.138  1.00  0.00     0.009 A 
ATOM     13  C   UNL     1       3.443   0.957   3.664  1.00  0.00     0.009 A 
ATOM     14  C   UNL     1       4.533   1.812   3.447  1.00  0.00    -0.018 A 
BRANCH  14  15
ATOM     15  C   UNL     1       5.360   2.244   4.568  1.00  0.00    -0.008 A 
ATOM     16  C   UNL     1       5.856   1.426   5.635  1.00  0.00     0.020 A 
ATOM     17  C   UNL     1       5.782   3.552   4.709  1.00  0.00     0.073 A 
ATOM     18  C   UNL     1       6.638   2.133   6.522  1.00  0.00     0.065 A 
ATOM     19  S   UNL     1       6.768   3.781   6.089  1.00  0.00    -0.152 S 
ENDBRANCH  14  15
ENDBRANCH   7   9
ENDBRANCH   4   5
ENDBRANCH   3   4
ENDBRANCH   2   3
ENDBRANCH   1   2
BRANCH   1  20
ATOM     20  C   UNL     1       6.257  -2.135  -3.686  1.00  0.00     0.021 C 
BRANCH  20  21
ATOM     21  C   UNL     1       7.031  -3.441  -3.539  1.00  0.00     0.116 C 
BRANCH  21  22
ATOM     22  N   UNL     1       6.707  -4.403  -4.579  1.00  0.00    -0.352 N 
ATOM     23  C   UNL     1       7.542  -5.105  -5.412  1.00  0.00     0.251 C 
ATOM     24  H   UNL     1       5.746  -4.578  -4.704  1.00  0.00     0.163 HD
ATOM     25  O   UNL     1       7.077  -5.762  -6.340  1.00  0.00    -0.269 OA
BRANCH  23  26
ATOM     26  C   UNL     1       9.007  -5.052  -5.214  1.00  0.00     0.039 A 
ATOM     27  C   UNL     1       9.831  -4.889  -6.332  1.00  0.00     0.014 A 
ATOM     28  C   UNL     1       9.570  -5.176  -3.941  1.00  0.00     0.014 A 
ATOM     29  C   UNL     1      11.214  -4.786  -6.166  1.00  0.00     0.010 A 
ATOM     30  C   UNL     1      10.942  -5.001  -3.770  1.00  0.00     0.010 A 
ATOM     31  C   UNL     1      11.778  -4.807  -4.880  1.00  0.00    -0.014 A 
BRANCH  31  32
ATOM     32  C   UNL     1      13.238  -4.623  -4.678  1.00  0.00     0.031 A 
ATOM     33  C   UNL     1      14.069  -5.734  -4.100  1.00  0.00     0.074 A 
ATOM     34  C   UNL     1      13.804  -3.433  -4.955  1.00  0.00     0.049 A 
ATOM     35  N   UNL     1      15.342  -5.744  -3.791  1.00  0.00    -0.248 NA
ATOM     36  C   UNL     1      13.372  -6.995  -3.804  1.00  0.00     0.031 C 
ATOM     37  C   UNL     1      13.099  -2.263  -5.481  1.00  0.00     0.029 A 
ATOM     38  N   UNL     1      15.103  -3.006  -4.826  1.00  0.00    -0.354 N 
ATOM     39  C   UNL     1      15.591  -6.998  -3.249  1.00  0.00     0.074 A 
ATOM     40  C   UNL     1      14.329  -7.706  -3.226  1.00  0.00     0.031 C 
ATOM     41  C   UNL     1      13.975  -1.262  -5.654  1.00  0.00     0.029 A 
ATOM     42  C   UNL     1      15.296  -1.703  -5.215  1.00  0.00     0.049 A 
ATOM     43  H   UNL     1      15.827  -3.579  -4.486  1.00  0.00     0.167 HD
ATOM     44  C   UNL     1      16.769  -7.518  -2.829  1.00  0.00     0.037 A 
ATOM     45  C   UNL     1      16.411  -0.948  -5.212  1.00  0.00     0.037 A 
ATOM     46  C   UNL     1      18.028  -6.821  -2.882  1.00  0.00     0.049 A 
ATOM     47  C   UNL     1      17.704  -1.548  -4.729  1.00  0.00     0.074 A 
ATOM     48  C   UNL     1      19.288  -7.289  -2.552  1.00  0.00     0.029 A 
ATOM     49  N   UNL     1      18.185  -5.504  -3.288  1.00  0.00    -0.354 N 
ATOM     50  N   UNL     1      17.942  -2.760  -4.291  1.00  0.00    -0.248 NA
ATOM     51  C   UNL     1      18.884  -0.672  -4.743  1.00  0.00     0.031 C 
ATOM     52  C   UNL     1      20.199  -6.239  -2.706  1.00  0.00     0.029 A 
ATOM     53  C   UNL     1      19.516  -5.133  -3.187  1.00  0.00     0.049 A 
ATOM     54  H   UNL     1      17.457  -4.919  -3.602  1.00  0.00     0.167 HD
ATOM     55  C   UNL     1      19.301  -2.804  -4.011  1.00  0.00     0.074 A 
ATOM     56  C   UNL     1      19.838  -1.500  -4.338  1.00  0.00     0.031 C 
ATOM     57  C   UNL     1      20.038  -3.833  -3.526  1.00  0.00     0.037 A 
BRANCH  44  58
ATOM     58  C   UNL     1      16.753  -8.911  -2.267  1.00  0.00     0.064 A 
ATOM     59  C   UNL     1      16.517 -10.032  -3.077  1.00  0.00     0.173 A 
ATOM     60  C   UNL     1      17.014  -9.130  -0.905  1.00  0.00     0.173 A 
ATOM     61  F   UNL     1      16.252  -9.878  -4.383  1.00  0.00    -0.203 F 
ATOM     62  C   UNL     1      16.509 -11.317  -2.539  1.00  0.00     0.198 A 
ATOM     63  C   UNL     1      17.038 -10.419  -0.377  1.00  0.00     0.198 A 
ATOM     64  F   UNL     1      17.254  -8.095  -0.087  1.00  0.00    -0.203 F 
ATOM     65  F   UNL     1      16.228 -12.368  -3.322  1.00  0.00    -0.200 F 
ATOM     66  C   UNL     1      16.777 -11.510  -1.192  1.00  0.00     0.200 A 
ATOM     67  F   UNL     1      17.311 -10.604   0.922  1.00  0.00    -0.200 F 
ATOM     68  F   UNL     1      16.776 -12.747  -0.677  1.00  0.00    -0.200 F 
ENDBRANCH  44  58
BRANCH  45  69
ATOM     69  C   UNL     1      16.363   0.452  -5.711  1.00  0.00     0.064 A 
ATOM     70  C   UNL     1      17.003   0.807  -6.907  1.00  0.00     0.173 A 
ATOM     71  C   UNL     1      15.689   1.460  -5.007  1.00  0.00     0.173 A 
ATOM     72  F   UNL     1      17.679  -0.117  -7.605  1.00  0.00    -0.203 F 
ATOM     73  C   UNL     1      16.989   2.122  -7.368  1.00  0.00     0.198 A 
ATOM     74  C   UNL     1      15.651   2.768  -5.484  1.00  0.00     0.198 A 
ATOM     75  F   UNL     1      15.057   1.171  -3.860  1.00  0.00    -0.203 F 
ATOM     76  F   UNL     1      17.649   2.443  -8.489  1.00  0.00    -0.200 F 
ATOM     77  C   UNL     1      16.308   3.100  -6.659  1.00  0.00     0.200 A 
ATOM     78  F   UNL     1      14.980   3.708  -4.804  1.00  0.00    -0.200 F 
ATOM     79  F   UNL     1      16.292   4.364  -7.105  1.00  0.00    -0.200 F 
ENDBRANCH  45  69
BRANCH  57  80
ATOM     80  C   UNL     1      21.513  -3.606  -3.359  1.00  0.00     0.064 A 
ATOM     81  C   UNL     1      22.023  -2.775  -2.351  1.00  0.00     0.173 A 
ATOM     82  C   UNL     1      22.430  -4.261  -4.197  1.00  0.00     0.173 A 
ATOM     83  F   UNL     1      21.188  -2.114  -1.535  1.00  0.00    -0.203 F 
ATOM     84  C   UNL     1      23.395  -2.586  -2.205  1.00  0.00     0.198 A 
ATOM     85  C   UNL     1      23.802  -4.095  -4.027  1.00  0.00     0.198 A 
ATOM     86  F   UNL     1      21.995  -5.072  -5.173  1.00  0.00    -0.203 F 
ATOM     87  F   UNL     1      23.857  -1.748  -1.266  1.00  0.00    -0.200 F 
ATOM     88  C   UNL     1      24.282  -3.252  -3.037  1.00  0.00     0.200 A 
ATOM     89  F   UNL     1      24.658  -4.751  -4.822  1.00  0.00    -0.200 F 
ATOM     90  F   UNL     1      25.603  -3.076  -2.888  1.00  0.00    -0.200 F 
ENDBRANCH  57  80
ENDBRANCH  31  32
ENDBRANCH  23  26
ENDBRANCH  21  22
ENDBRANCH  20  21
ENDBRANCH   1  20
TORSDOF 14
