REMARK SMILES Cc1ccc(C(=O)NC2CC2)cc1NC(=O)[C@@H]1[C@@H](C(=O)NCCCCCCNC(=O)c2ccc(-c3c4nc(c(-c5c(F)c(F)c(F)c(F)c5F)c5ccc([nH]5)c(-c5c(F)c(F)c(F)c(F)c5F)c5nc(c(-c6c(F)c(F)c(F)c(F)c6F)c6ccc3[nH]6)C=C5)C=C4)cc2)[C@H]2C=C[C@@H]1C2
REMARK SMILES IDX 23 1 22 2 21 3 19 4 20 5 18 7 17 8 97 9 94 10 96 11 98 12
REMARK SMILES IDX 95 13 15 14 14 15 16 17 13 18 1 19 2 20 3 21 4 22 12 23 5 24
REMARK SMILES IDX 6 25 7 26 8 27 9 29 10 30 11 31 24 32 25 33 26 34 27 35
REMARK SMILES IDX 28 36 29 37 30 39 31 40 32 41 93 42 33 43 92 44 34 45 35 46
REMARK SMILES IDX 36 47 86 48 37 49 91 50 85 51 87 52 38 53 90 54 84 55 83 56
REMARK SMILES IDX 39 58 71 59 51 60 70 61 52 62 55 63 69 64 88 65 53 66 54 67
REMARK SMILES IDX 68 69 89 70 56 71 40 72 41 73 49 74 42 75 43 76 47 77 50 78
REMARK SMILES IDX 44 79 45 80 48 81 46 82 72 83 73 84 81 85 74 86 75 87 79 88
REMARK SMILES IDX 82 89 76 90 77 91 80 92 78 93 57 94 58 95 66 96 59 97 60 98
REMARK SMILES IDX 64 99 67 100 61 101 62 102 65 103 63 104
REMARK H PARENT 21 6 14 16 8 28 28 38 87 57 55 68
REMARK Flexibility Score: inf
ROOT
ATOM      1  C   UNL     1      -3.845   9.117   0.080  1.00  0.00     0.021 C 
ENDROOT
BRANCH   1   2
ATOM      2  C   UNL     1      -3.563   7.690   0.550  1.00  0.00     0.116 C 
BRANCH   2   3
ATOM      3  N   UNL     1      -3.042   6.845  -0.497  1.00  0.00    -0.356 N 
ATOM      4  C   UNL     1      -2.146   5.830  -0.472  1.00  0.00     0.224 C 
ATOM      5  O   UNL     1      -1.921   5.296  -1.565  1.00  0.00    -0.275 OA
ATOM      6  H   UNL     1      -3.404   7.042  -1.391  1.00  0.00     0.163 HD
BRANCH   4   7
ATOM      7  C   UNL     1      -1.345   5.413   0.763  1.00  0.00     0.098 C 
ATOM      8  C   UNL     1      -0.960   3.882   0.618  1.00  0.00     0.099 C 
ATOM      9  C   UNL     1      -1.284   3.304   2.020  1.00  0.00     0.025 C 
ATOM     10  C   UNL     1      -1.981   5.427   2.171  1.00  0.00     0.025 C 
ATOM     11  C   UNL     1      -2.790   3.277   2.168  1.00  0.00    -0.027 C 
ATOM     12  C   UNL     1      -1.009   4.503   2.924  1.00  0.00     0.017 C 
ATOM     13  C   UNL     1      -3.210   4.549   2.224  1.00  0.00    -0.027 C 
BRANCH   8  14
ATOM     14  C   UNL     1       0.476   3.614   0.205  1.00  0.00     0.228 C 
ATOM     15  N   UNL     1       0.913   2.350  -0.111  1.00  0.00    -0.326 N 
ATOM     16  H   UNL     1       1.875   2.311  -0.316  1.00  0.00     0.169 HD
ATOM     17  O   UNL     1       1.322   4.513   0.223  1.00  0.00    -0.274 OA
BRANCH  15  18
ATOM     18  C   UNL     1       0.269   1.094  -0.202  1.00  0.00     0.044 A 
ATOM     19  C   UNL     1       2.495  -0.123   0.282  1.00  0.00     0.046 C 
ATOM     20  C   UNL     1       1.005  -0.077   0.062  1.00  0.00    -0.027 A 
ATOM     21  C   UNL     1       0.330  -1.309   0.096  1.00  0.00     0.006 A 
ATOM     22  C   UNL     1      -1.045  -1.385  -0.129  1.00  0.00     0.014 A 
ATOM     23  C   UNL     1      -1.084   0.966  -0.566  1.00  0.00     0.040 A 
ATOM     24  C   UNL     1      -1.779  -0.246  -0.478  1.00  0.00     0.041 A 
BRANCH  24  25
ATOM     25  C   UNL     1      -3.246  -0.443  -0.735  1.00  0.00     0.251 C 
ATOM     26  O   UNL     1      -3.699  -1.591  -0.714  1.00  0.00    -0.269 OA
ATOM     27  N   UNL     1      -4.151   0.573  -0.960  1.00  0.00    -0.349 N 
ATOM     28  H   UNL     1      -5.079   0.268  -1.082  1.00  0.00     0.164 HD
BRANCH  27  29
ATOM     29  C   UNL     1      -3.985   1.977  -1.046  1.00  0.00     0.082 C 
ATOM     30  C   UNL     1      -3.901   2.634  -2.396  1.00  0.00     0.027 C 
ATOM     31  C   UNL     1      -5.081   2.895  -1.509  1.00  0.00     0.027 C 
ENDBRANCH  27  29
ENDBRANCH  24  25
ENDBRANCH  15  18
ENDBRANCH   8  14
ENDBRANCH   4   7
ENDBRANCH   2   3
ENDBRANCH   1   2
BRANCH   1  32
ATOM     32  C   UNL     1      -4.925   9.306  -0.994  1.00  0.00     0.002 C 
BRANCH  32  33
ATOM     33  C   UNL     1      -6.331   8.755  -0.712  1.00  0.00     0.002 C 
BRANCH  33  34
ATOM     34  C   UNL     1      -6.919   9.001   0.679  1.00  0.00     0.021 C 
BRANCH  34  35
ATOM     35  C   UNL     1      -7.000  10.459   1.109  1.00  0.00     0.116 C 
BRANCH  35  36
ATOM     36  N   UNL     1      -8.268  11.122   0.847  1.00  0.00    -0.352 N 
ATOM     37  C   UNL     1      -8.596  12.464   1.008  1.00  0.00     0.251 C 
ATOM     38  H   UNL     1      -8.990  10.544   0.511  1.00  0.00     0.163 HD
ATOM     39  O   UNL     1      -9.723  12.856   0.800  1.00  0.00    -0.269 OA
BRANCH  37  40
ATOM     40  C   UNL     1      -7.511  13.434   1.323  1.00  0.00     0.039 A 
ATOM     41  C   UNL     1      -7.412  14.588   0.538  1.00  0.00     0.014 A 
ATOM     42  C   UNL     1      -6.507  13.124   2.237  1.00  0.00     0.014 A 
ATOM     43  C   UNL     1      -6.205  15.287   0.498  1.00  0.00     0.010 A 
ATOM     44  C   UNL     1      -5.281  13.752   2.128  1.00  0.00     0.010 A 
ATOM     45  C   UNL     1      -5.112  14.794   1.213  1.00  0.00    -0.014 A 
BRANCH  45  46
ATOM     46  C   UNL     1      -3.743  15.234   0.972  1.00  0.00     0.031 A 
ATOM     47  C   UNL     1      -3.064  16.158   1.902  1.00  0.00     0.074 A 
ATOM     48  C   UNL     1      -3.064  14.783  -0.107  1.00  0.00     0.049 A 
ATOM     49  N   UNL     1      -2.202  17.042   1.520  1.00  0.00    -0.248 NA
ATOM     50  C   UNL     1      -3.312  16.173   3.338  1.00  0.00     0.031 C 
ATOM     51  C   UNL     1      -1.637  14.950  -0.374  1.00  0.00     0.029 A 
ATOM     52  N   UNL     1      -3.580  14.231  -1.291  1.00  0.00    -0.354 N 
ATOM     53  C   UNL     1      -1.599  17.547   2.646  1.00  0.00     0.074 A 
ATOM     54  C   UNL     1      -2.373  17.031   3.755  1.00  0.00     0.031 C 
ATOM     55  C   UNL     1      -1.423  14.807  -1.690  1.00  0.00     0.029 A 
ATOM     56  C   UNL     1      -2.718  14.660  -2.326  1.00  0.00     0.049 A 
ATOM     57  H   UNL     1      -4.378  13.663  -1.381  1.00  0.00     0.167 HD
ATOM     58  C   UNL     1      -0.424  18.231   2.539  1.00  0.00     0.037 A 
ATOM     59  C   UNL     1      -3.158  15.392  -3.388  1.00  0.00     0.037 A 
ATOM     60  C   UNL     1       0.061  18.255   1.165  1.00  0.00     0.049 A 
ATOM     61  C   UNL     1      -2.446  16.706  -3.570  1.00  0.00     0.074 A 
ATOM     62  C   UNL     1       0.986  17.465   0.502  1.00  0.00     0.029 A 
ATOM     63  N   UNL     1      -0.614  18.977   0.190  1.00  0.00    -0.354 N 
ATOM     64  N   UNL     1      -1.790  17.306  -2.619  1.00  0.00    -0.248 NA
ATOM     65  C   UNL     1      -2.446  17.466  -4.815  1.00  0.00     0.031 C 
ATOM     66  C   UNL     1       0.885  17.730  -0.880  1.00  0.00     0.029 A 
ATOM     67  C   UNL     1      -0.105  18.679  -1.059  1.00  0.00     0.049 A 
ATOM     68  H   UNL     1      -1.348  19.610   0.364  1.00  0.00     0.167 HD
ATOM     69  C   UNL     1      -1.301  18.503  -3.082  1.00  0.00     0.074 A 
ATOM     70  C   UNL     1      -1.724  18.547  -4.468  1.00  0.00     0.031 C 
ATOM     71  C   UNL     1      -0.596  19.338  -2.259  1.00  0.00     0.037 A 
BRANCH  58  72
ATOM     72  C   UNL     1       0.436  18.603   3.723  1.00  0.00     0.064 A 
ATOM     73  C   UNL     1       1.846  18.603   3.637  1.00  0.00     0.173 A 
ATOM     74  C   UNL     1      -0.081  18.947   4.984  1.00  0.00     0.173 A 
ATOM     75  F   UNL     1       2.482  18.406   2.476  1.00  0.00    -0.203 F 
ATOM     76  C   UNL     1       2.665  18.802   4.750  1.00  0.00     0.198 A 
ATOM     77  C   UNL     1       0.737  19.098   6.109  1.00  0.00     0.198 A 
ATOM     78  F   UNL     1      -1.391  19.177   5.153  1.00  0.00    -0.203 F 
ATOM     79  F   UNL     1       3.998  18.771   4.608  1.00  0.00    -0.200 F 
ATOM     80  C   UNL     1       2.110  19.010   5.994  1.00  0.00     0.200 A 
ATOM     81  F   UNL     1       0.182  19.324   7.309  1.00  0.00    -0.200 F 
ATOM     82  F   UNL     1       2.894  19.146   7.072  1.00  0.00    -0.200 F 
ENDBRANCH  58  72
BRANCH  59  83
ATOM     83  C   UNL     1      -4.580  15.139  -3.723  1.00  0.00     0.064 A 
ATOM     84  C   UNL     1      -4.928  13.866  -4.211  1.00  0.00     0.173 A 
ATOM     85  C   UNL     1      -5.602  15.939  -3.201  1.00  0.00     0.173 A 
ATOM     86  F   UNL     1      -3.980  13.061  -4.717  1.00  0.00    -0.203 F 
ATOM     87  C   UNL     1      -6.220  13.367  -4.068  1.00  0.00     0.198 A 
ATOM     88  C   UNL     1      -6.899  15.440  -3.070  1.00  0.00     0.198 A 
ATOM     89  F   UNL     1      -5.326  17.154  -2.705  1.00  0.00    -0.203 F 
ATOM     90  F   UNL     1      -6.494  12.106  -4.434  1.00  0.00    -0.200 F 
ATOM     91  C   UNL     1      -7.197  14.144  -3.468  1.00  0.00     0.200 A 
ATOM     92  F   UNL     1      -7.841  16.182  -2.470  1.00  0.00    -0.200 F 
ATOM     93  F   UNL     1      -8.413  13.630  -3.238  1.00  0.00    -0.200 F 
ENDBRANCH  59  83
BRANCH  71  94
ATOM     94  C   UNL     1      -0.181  20.776  -2.511  1.00  0.00     0.064 A 
ATOM     95  C   UNL     1      -0.758  21.620  -3.473  1.00  0.00     0.173 A 
ATOM     96  C   UNL     1       0.767  21.406  -1.659  1.00  0.00     0.173 A 
ATOM     97  F   UNL     1      -1.749  21.203  -4.269  1.00  0.00    -0.203 F 
ATOM     98  C   UNL     1      -0.377  22.960  -3.613  1.00  0.00     0.198 A 
ATOM     99  C   UNL     1       1.100  22.756  -1.763  1.00  0.00     0.198 A 
ATOM    100  F   UNL     1       1.384  20.742  -0.671  1.00  0.00    -0.203 F 
ATOM    101  F   UNL     1      -0.933  23.708  -4.577  1.00  0.00    -0.200 F 
ATOM    102  C   UNL     1       0.540  23.531  -2.752  1.00  0.00     0.200 A 
ATOM    103  F   UNL     1       1.952  23.301  -0.882  1.00  0.00    -0.200 F 
ATOM    104  F   UNL     1       0.863  24.826  -2.861  1.00  0.00    -0.200 F 
ENDBRANCH  71  94
ENDBRANCH  45  46
ENDBRANCH  37  40
ENDBRANCH  35  36
ENDBRANCH  34  35
ENDBRANCH  33  34
ENDBRANCH  32  33
ENDBRANCH   1  32
TORSDOF 17
