REMARK SMILES Cc1cccc(S(=O)(=O)Nc2cc(C(=O)NCCCCCCNC(=O)c3ccc(-c4c5nc(c(-c6c(F)c(F)c(F)c(F)c6F)c6ccc([nH]6)c(-c6c(F)c(F)c(F)c(F)c6F)c6nc(c(-c7c(F)c(F)c(F)c(F)c7F)c7ccc4[nH]7)C=C6)C=C5)cc3)ccc2N2CCC[C@H](C[NH+]3CCCC3)C2)c1
REMARK SMILES IDX 19 1 18 2 17 3 16 4 14 5 15 6 13 8 11 9 12 10 91 11 90 12
REMARK SMILES IDX 89 13 10 14 7 16 8 17 9 18 6 19 1 20 2 21 3 22 104 23 4 24
REMARK SMILES IDX 5 25 92 26 93 27 103 28 94 29 96 30 95 31 97 32 98 33 99 34
REMARK SMILES IDX 102 35 100 37 101 38 20 39 21 40 22 41 23 42 24 43 25 45
REMARK SMILES IDX 26 46 27 47 88 48 28 49 87 50 29 51 30 52 31 53 81 54 32 55
REMARK SMILES IDX 86 56 80 57 82 58 33 59 85 60 79 61 78 62 34 64 66 65 46 66
REMARK SMILES IDX 65 67 47 68 50 69 64 70 83 71 48 72 49 73 63 75 84 76 51 77
REMARK SMILES IDX 35 78 36 79 44 80 37 81 38 82 42 83 45 84 39 85 40 86 43 87
REMARK SMILES IDX 41 88 67 89 68 90 76 91 69 92 70 93 74 94 77 95 71 96 72 97
REMARK SMILES IDX 75 98 73 99 52 100 53 101 61 102 54 103 55 104 59 105 62 106
REMARK SMILES IDX 56 107 57 108 60 109 58 110
REMARK H PARENT 16 7 10 15 98 36 23 44 82 63 50 74
REMARK Flexibility Score: inf
ROOT
ATOM      1  C   UNL     1       0.709   0.060  -5.340  1.00  0.00     0.002 C 
ENDROOT
BRANCH   1   2
ATOM      2  C   UNL     1       0.518   1.095  -4.224  1.00  0.00     0.021 C 
BRANCH   2   3
ATOM      3  C   UNL     1       1.209   0.716  -2.914  1.00  0.00     0.116 C 
BRANCH   3   4
ATOM      4  N   UNL     1       2.591   1.158  -2.908  1.00  0.00    -0.352 N 
ATOM      5  C   UNL     1       3.244   2.162  -2.241  1.00  0.00     0.251 C 
ATOM      6  O   UNL     1       4.461   2.258  -2.401  1.00  0.00    -0.269 OA
ATOM      7  H   UNL     1       3.175   0.633  -3.501  1.00  0.00     0.163 HD
BRANCH   5   8
ATOM      8  C   UNL     1       2.573   3.082  -1.284  1.00  0.00     0.042 A 
ATOM      9  C   UNL     1       0.643   4.144  -0.294  1.00  0.00     0.073 A 
ATOM     10  C   UNL     1       1.226   3.434  -1.346  1.00  0.00     0.042 A 
ATOM     11  C   UNL     1       1.421   4.700   0.744  1.00  0.00     0.061 A 
ATOM     12  C   UNL     1       2.793   4.430   0.735  1.00  0.00     0.029 A 
ATOM     13  C   UNL     1       3.356   3.606  -0.244  1.00  0.00     0.016 A 
BRANCH   9  14
ATOM     14  N   UNL     1      -0.774   4.301  -0.273  1.00  0.00    -0.277 N 
ATOM     15  H   UNL     1      -1.160   5.183  -0.483  1.00  0.00     0.180 HD
BRANCH  14  16
ATOM     16  S   UNL     1      -1.816   3.015   0.102  1.00  0.00     0.261 S 
ATOM     17  O   UNL     1      -2.692   2.907  -1.051  1.00  0.00    -0.201 OA
ATOM     18  O   UNL     1      -2.369   3.325   1.405  1.00  0.00    -0.201 OA
BRANCH  16  19
ATOM     19  C   UNL     1      -1.031   1.418   0.266  1.00  0.00     0.088 A 
ATOM     20  C   UNL     1       2.317  -0.264   0.943  1.00  0.00     0.044 C 
ATOM     21  C   UNL     1       0.854  -0.063   0.662  1.00  0.00    -0.050 A 
ATOM     22  C   UNL     1       0.082  -1.157   0.251  1.00  0.00     0.003 A 
ATOM     23  C   UNL     1       0.266   1.213   0.739  1.00  0.00     0.025 A 
ATOM     24  C   UNL     1      -1.248  -0.977  -0.117  1.00  0.00     0.002 A 
ATOM     25  C   UNL     1      -1.794   0.306  -0.135  1.00  0.00     0.022 A 
ENDBRANCH  16  19
ENDBRANCH  14  16
ENDBRANCH   9  14
BRANCH  11  26
ATOM     26  N   UNL     1       0.901   5.532   1.719  1.00  0.00    -0.369 N 
ATOM     27  C   UNL     1       1.160   6.966   1.610  1.00  0.00     0.116 C 
ATOM     28  C   UNL     1      -0.014   5.066   2.758  1.00  0.00     0.126 C 
ATOM     29  C   UNL     1       1.609   7.511   2.962  1.00  0.00     0.022 C 
ATOM     30  C   UNL     1       0.428   5.583   4.144  1.00  0.00     0.064 C 
ATOM     31  C   UNL     1       0.633   7.108   4.066  1.00  0.00     0.013 C 
BRANCH  30  32
ATOM     32  C   UNL     1       1.655   4.769   4.636  1.00  0.00     0.267 C 
BRANCH  32  33
ATOM     33  N   UNL     1       2.082   4.850   6.035  1.00  0.00    -0.335 N 
ATOM     34  C   UNL     1       1.054   4.569   7.033  1.00  0.00     0.262 C 
ATOM     35  C   UNL     1       2.778   6.070   6.435  1.00  0.00     0.262 C 
ATOM     36  H   UNL     1       2.758   4.086   6.033  1.00  0.00     0.348 HD
ATOM     37  C   UNL     1       0.647   5.923   7.577  1.00  0.00     0.067 C 
ATOM     38  C   UNL     1       1.926   6.738   7.509  1.00  0.00     0.067 C 
ENDBRANCH  32  33
ENDBRANCH  30  32
ENDBRANCH  11  26
ENDBRANCH   5   8
ENDBRANCH   3   4
ENDBRANCH   2   3
ENDBRANCH   1   2
BRANCH   1  39
ATOM     39  C   UNL     1       0.236  -1.370  -5.019  1.00  0.00     0.002 C 
BRANCH  39  40
ATOM     40  C   UNL     1      -1.149  -1.487  -4.376  1.00  0.00     0.021 C 
BRANCH  40  41
ATOM     41  C   UNL     1      -2.292  -1.139  -5.321  1.00  0.00     0.116 C 
BRANCH  41  42
ATOM     42  N   UNL     1      -2.863  -2.295  -6.002  1.00  0.00    -0.352 N 
ATOM     43  C   UNL     1      -3.774  -2.345  -7.042  1.00  0.00     0.251 C 
ATOM     44  H   UNL     1      -2.555  -3.170  -5.672  1.00  0.00     0.163 HD
ATOM     45  O   UNL     1      -4.189  -3.418  -7.449  1.00  0.00    -0.269 OA
BRANCH  43  46
ATOM     46  C   UNL     1      -4.135  -1.092  -7.749  1.00  0.00     0.039 A 
ATOM     47  C   UNL     1      -4.063  -1.088  -9.148  1.00  0.00     0.014 A 
ATOM     48  C   UNL     1      -4.327   0.097  -7.052  1.00  0.00     0.014 A 
ATOM     49  C   UNL     1      -3.922   0.123  -9.820  1.00  0.00     0.010 A 
ATOM     50  C   UNL     1      -4.090   1.292  -7.703  1.00  0.00     0.010 A 
ATOM     51  C   UNL     1      -3.810   1.296  -9.074  1.00  0.00    -0.014 A 
BRANCH  51  52
ATOM     52  C   UNL     1      -3.271   2.541  -9.612  1.00  0.00     0.031 A 
ATOM     53  C   UNL     1      -4.145   3.704  -9.855  1.00  0.00     0.074 A 
ATOM     54  C   UNL     1      -1.933   2.658  -9.772  1.00  0.00     0.049 A 
ATOM     55  N   UNL     1      -3.820   4.723 -10.577  1.00  0.00    -0.248 NA
ATOM     56  C   UNL     1      -5.498   3.786  -9.324  1.00  0.00     0.031 C 
ATOM     57  C   UNL     1      -1.164   3.882  -9.984  1.00  0.00     0.029 A 
ATOM     58  N   UNL     1      -1.008   1.625  -9.995  1.00  0.00    -0.354 N 
ATOM     59  C   UNL     1      -4.783   5.691 -10.409  1.00  0.00     0.074 A 
ATOM     60  C   UNL     1      -5.832   5.036  -9.661  1.00  0.00     0.031 C 
ATOM     61  C   UNL     1      -0.012   3.565 -10.595  1.00  0.00     0.029 A 
ATOM     62  C   UNL     1      -0.083   2.154 -10.928  1.00  0.00     0.049 A 
ATOM     63  H   UNL     1      -1.003   0.727  -9.590  1.00  0.00     0.167 HD
ATOM     64  C   UNL     1      -4.525   6.963 -10.834  1.00  0.00     0.037 A 
ATOM     65  C   UNL     1       0.013   1.637 -12.188  1.00  0.00     0.037 A 
ATOM     66  C   UNL     1      -3.264   7.036 -11.573  1.00  0.00     0.049 A 
ATOM     67  C   UNL     1      -0.267   2.621 -13.307  1.00  0.00     0.074 A 
ATOM     68  C   UNL     1      -1.974   7.438 -11.269  1.00  0.00     0.029 A 
ATOM     69  N   UNL     1      -3.178   6.377 -12.786  1.00  0.00    -0.354 N 
ATOM     70  N   UNL     1      -0.713   3.833 -13.130  1.00  0.00    -0.248 NA
ATOM     71  C   UNL     1      -0.174   2.263 -14.724  1.00  0.00     0.031 C 
ATOM     72  C   UNL     1      -1.112   7.000 -12.316  1.00  0.00     0.029 A 
ATOM     73  C   UNL     1      -1.880   6.334 -13.252  1.00  0.00     0.049 A 
ATOM     74  H   UNL     1      -3.949   5.986 -13.258  1.00  0.00     0.167 HD
ATOM     75  C   UNL     1      -1.022   4.380 -14.345  1.00  0.00     0.074 A 
ATOM     76  C   UNL     1      -0.666   3.364 -15.316  1.00  0.00     0.031 C 
ATOM     77  C   UNL     1      -1.599   5.608 -14.476  1.00  0.00     0.037 A 
BRANCH  64  78
ATOM     78  C   UNL     1      -5.301   8.190 -10.400  1.00  0.00     0.064 A 
ATOM     79  C   UNL     1      -4.679   9.459 -10.365  1.00  0.00     0.173 A 
ATOM     80  C   UNL     1      -6.635   8.186  -9.955  1.00  0.00     0.173 A 
ATOM     81  F   UNL     1      -3.452   9.653 -10.866  1.00  0.00    -0.203 F 
ATOM     82  C   UNL     1      -5.294  10.585  -9.812  1.00  0.00     0.198 A 
ATOM     83  C   UNL     1      -7.231   9.296  -9.347  1.00  0.00     0.198 A 
ATOM     84  F   UNL     1      -7.436   7.135 -10.156  1.00  0.00    -0.203 F 
ATOM     85  F   UNL     1      -4.647  11.759  -9.804  1.00  0.00    -0.200 F 
ATOM     86  C   UNL     1      -6.555  10.494  -9.263  1.00  0.00     0.200 A 
ATOM     87  F   UNL     1      -8.472   9.194  -8.849  1.00  0.00    -0.200 F 
ATOM     88  F   UNL     1      -7.127  11.560  -8.688  1.00  0.00    -0.200 F 
ENDBRANCH  64  78
BRANCH  65  89
ATOM     89  C   UNL     1      -0.317   0.187 -12.249  1.00  0.00     0.064 A 
ATOM     90  C   UNL     1       0.436  -0.714 -11.469  1.00  0.00     0.173 A 
ATOM     91  C   UNL     1      -1.537  -0.266 -12.762  1.00  0.00     0.173 A 
ATOM     92  F   UNL     1       1.614  -0.331 -10.949  1.00  0.00    -0.203 F 
ATOM     93  C   UNL     1      -0.068  -1.964 -11.120  1.00  0.00     0.198 A 
ATOM     94  C   UNL     1      -2.027  -1.529 -12.431  1.00  0.00     0.198 A 
ATOM     95  F   UNL     1      -2.312   0.547 -13.493  1.00  0.00    -0.203 F 
ATOM     96  F   UNL     1       0.618  -2.751 -10.278  1.00  0.00    -0.200 F 
ATOM     97  C   UNL     1      -1.310  -2.361 -11.583  1.00  0.00     0.200 A 
ATOM     98  F   UNL     1      -3.242  -1.901 -12.857  1.00  0.00    -0.200 F 
ATOM     99  F   UNL     1      -1.839  -3.525 -11.180  1.00  0.00    -0.200 F 
ENDBRANCH  65  89
BRANCH  77 100
ATOM    100  C   UNL     1      -1.954   6.209 -15.800  1.00  0.00     0.064 A 
ATOM    101  C   UNL     1      -1.039   6.269 -16.861  1.00  0.00     0.173 A 
ATOM    102  C   UNL     1      -3.194   6.847 -16.002  1.00  0.00     0.173 A 
ATOM    103  F   UNL     1       0.181   5.723 -16.744  1.00  0.00    -0.203 F 
ATOM    104  C   UNL     1      -1.357   6.905 -18.062  1.00  0.00     0.198 A 
ATOM    105  C   UNL     1      -3.490   7.524 -17.182  1.00  0.00     0.198 A 
ATOM    106  F   UNL     1      -4.157   6.808 -15.069  1.00  0.00    -0.203 F 
ATOM    107  F   UNL     1      -0.474   6.902 -19.071  1.00  0.00    -0.200 F 
ATOM    108  C   UNL     1      -2.575   7.545 -18.217  1.00  0.00     0.200 A 
ATOM    109  F   UNL     1      -4.668   8.151 -17.312  1.00  0.00    -0.200 F 
ATOM    110  F   UNL     1      -2.869   8.175 -19.362  1.00  0.00    -0.200 F 
ENDBRANCH  77 100
ENDBRANCH  51  52
ENDBRANCH  43  46
ENDBRANCH  41  42
ENDBRANCH  40  41
ENDBRANCH  39  40
ENDBRANCH   1  39
TORSDOF 19
