REMARK SMILES Cn1nc(C(=O)N2C[C@@H](O)C[C@H]2C(=O)NCCCCCCNC(=O)c2ccc(-c3c4nc(c(-c5c(F)c(F)c(F)c(F)c5F)c5ccc([nH]5)c(-c5c(F)c(F)c(F)c(F)c5F)c5nc(c(-c6c(F)c(F)c(F)c(F)c6F)c6ccc3[nH]6)C=C5)C=C4)cc2)ccc1=O
REMARK SMILES IDX 18 1 17 2 16 3 15 4 13 5 14 6 12 8 7 9 8 10 9 11 11 12 5 13
REMARK SMILES IDX 6 14 4 15 1 16 2 17 3 18 90 19 89 20 91 21 88 22 10 23 19 25
REMARK SMILES IDX 20 26 21 27 22 28 23 29 24 31 25 32 26 33 87 34 27 35 86 36
REMARK SMILES IDX 28 37 29 38 30 39 80 40 31 41 85 42 79 43 81 44 32 45 84 46
REMARK SMILES IDX 78 47 77 48 33 50 65 51 45 52 64 53 46 54 49 55 63 56 82 57
REMARK SMILES IDX 47 58 48 59 62 61 83 62 50 63 34 64 35 65 43 66 36 67 37 68
REMARK SMILES IDX 41 69 44 70 38 71 39 72 42 73 40 74 66 75 67 76 75 77 68 78
REMARK SMILES IDX 69 79 73 80 76 81 70 82 71 83 74 84 72 85 51 86 52 87 60 88
REMARK SMILES IDX 53 89 54 90 58 91 61 92 55 93 56 94 59 95 57 96
REMARK H PARENT 15 7 10 24 22 30 81 49 49 60
REMARK Flexibility Score: inf
ROOT
ATOM      1  C   UNL     1      -7.436   4.728  -1.880  1.00  0.00     0.002 C 
ENDROOT
BRANCH   1   2
ATOM      2  C   UNL     1      -6.381   3.718  -1.413  1.00  0.00     0.021 C 
BRANCH   2   3
ATOM      3  C   UNL     1      -6.214   2.519  -2.337  1.00  0.00     0.116 C 
BRANCH   3   4
ATOM      4  N   UNL     1      -5.595   2.875  -3.591  1.00  0.00    -0.354 N 
ATOM      5  C   UNL     1      -4.433   2.448  -4.158  1.00  0.00     0.242 C 
ATOM      6  O   UNL     1      -4.254   2.742  -5.345  1.00  0.00    -0.273 OA
ATOM      7  H   UNL     1      -6.095   3.535  -4.124  1.00  0.00     0.163 HD
BRANCH   5   8
ATOM      8  C   UNL     1      -3.473   1.475  -3.445  1.00  0.00     0.177 C 
ATOM      9  N   UNL     1      -3.019   1.820  -2.095  1.00  0.00    -0.323 N 
ATOM     10  C   UNL     1      -3.263   0.738  -1.153  1.00  0.00     0.152 C 
ATOM     11  C   UNL     1      -3.528  -0.488  -2.021  1.00  0.00     0.136 C 
ATOM     12  C   UNL     1      -4.084   0.076  -3.327  1.00  0.00     0.069 C 
BRANCH   9  13
ATOM     13  C   UNL     1      -2.076   2.834  -1.989  1.00  0.00     0.275 C 
ATOM     14  O   UNL     1      -2.062   3.820  -2.718  1.00  0.00    -0.267 OA
BRANCH  13  15
ATOM     15  C   UNL     1      -0.918   2.662  -1.012  1.00  0.00     0.149 A 
ATOM     16  C   UNL     1       1.214   0.012   0.118  1.00  0.00     0.178 C 
ATOM     17  N   UNL     1       0.700   1.358  -0.055  1.00  0.00    -0.232 N 
ATOM     18  N   UNL     1      -0.386   1.485  -0.890  1.00  0.00    -0.165 NA
ATOM     19  C   UNL     1       1.281   2.414   0.634  1.00  0.00     0.266 A 
ATOM     20  C   UNL     1       0.656   3.740   0.427  1.00  0.00     0.076 A 
ATOM     21  O   UNL     1       2.243   2.319   1.391  1.00  0.00    -0.268 OA
ATOM     22  C   UNL     1      -0.422   3.882  -0.348  1.00  0.00     0.042 A 
ENDBRANCH  13  15
ENDBRANCH   9  13
BRANCH  11  23
ATOM     23  O   UNL     1      -4.449  -1.385  -1.420  1.00  0.00    -0.391 OA
ATOM     24  H   UNL     1      -5.288  -0.927  -1.257  1.00  0.00     0.211 HD
ENDBRANCH  11  23
ENDBRANCH   5   8
ENDBRANCH   3   4
ENDBRANCH   2   3
ENDBRANCH   1   2
BRANCH   1  25
ATOM     25  C   UNL     1      -8.842   4.158  -2.107  1.00  0.00     0.002 C 
BRANCH  25  26
ATOM     26  C   UNL     1      -9.413   3.336  -0.949  1.00  0.00     0.021 C 
BRANCH  26  27
ATOM     27  C   UNL     1      -9.486   4.079   0.380  1.00  0.00     0.116 C 
BRANCH  27  28
ATOM     28  N   UNL     1     -10.457   5.160   0.346  1.00  0.00    -0.352 N 
ATOM     29  C   UNL     1     -11.549   5.351   1.155  1.00  0.00     0.251 C 
ATOM     30  H   UNL     1     -10.311   5.845  -0.346  1.00  0.00     0.163 HD
ATOM     31  O   UNL     1     -12.381   6.215   0.901  1.00  0.00    -0.269 OA
BRANCH  29  32
ATOM     32  C   UNL     1     -11.721   4.483   2.334  1.00  0.00     0.039 A 
ATOM     33  C   UNL     1     -12.918   3.783   2.493  1.00  0.00     0.014 A 
ATOM     34  C   UNL     1     -10.685   4.349   3.265  1.00  0.00     0.014 A 
ATOM     35  C   UNL     1     -13.062   2.904   3.566  1.00  0.00     0.010 A 
ATOM     36  C   UNL     1     -10.811   3.436   4.307  1.00  0.00     0.010 A 
ATOM     37  C   UNL     1     -12.002   2.712   4.468  1.00  0.00    -0.014 A 
BRANCH  37  38
ATOM     38  C   UNL     1     -12.143   1.784   5.614  1.00  0.00     0.031 A 
ATOM     39  C   UNL     1     -12.254   2.335   7.005  1.00  0.00     0.074 A 
ATOM     40  C   UNL     1     -12.139   0.454   5.404  1.00  0.00     0.049 A 
ATOM     41  N   UNL     1     -12.373   1.696   8.140  1.00  0.00    -0.248 NA
ATOM     42  C   UNL     1     -12.210   3.800   7.142  1.00  0.00     0.031 C 
ATOM     43  C   UNL     1     -12.005  -0.195   4.100  1.00  0.00     0.029 A 
ATOM     44  N   UNL     1     -12.249  -0.591   6.288  1.00  0.00    -0.354 N 
ATOM     45  C   UNL     1     -12.426   2.677   9.119  1.00  0.00     0.074 A 
ATOM     46  C   UNL     1     -12.265   3.952   8.457  1.00  0.00     0.031 C 
ATOM     47  C   UNL     1     -12.062  -1.527   4.266  1.00  0.00     0.029 A 
ATOM     48  C   UNL     1     -12.215  -1.825   5.688  1.00  0.00     0.049 A 
ATOM     49  H   UNL     1     -12.343  -0.466   7.260  1.00  0.00     0.167 HD
ATOM     50  C   UNL     1     -12.624   2.527  10.449  1.00  0.00     0.037 A 
ATOM     51  C   UNL     1     -12.302  -3.056   6.228  1.00  0.00     0.037 A 
ATOM     52  C   UNL     1     -12.807   1.260  11.101  1.00  0.00     0.049 A 
ATOM     53  C   UNL     1     -12.480  -3.196   7.716  1.00  0.00     0.074 A 
ATOM     54  C   UNL     1     -13.073   1.008  12.435  1.00  0.00     0.029 A 
ATOM     55  N   UNL     1     -12.743   0.030  10.463  1.00  0.00    -0.354 N 
ATOM     56  N   UNL     1     -12.597  -2.258   8.624  1.00  0.00    -0.248 NA
ATOM     57  C   UNL     1     -12.539  -4.563   8.254  1.00  0.00     0.031 C 
ATOM     58  C   UNL     1     -13.133  -0.377  12.612  1.00  0.00     0.029 A 
ATOM     59  C   UNL     1     -12.939  -0.986  11.382  1.00  0.00     0.049 A 
ATOM     60  H   UNL     1     -12.582  -0.100   9.501  1.00  0.00     0.167 HD
ATOM     61  C   UNL     1     -12.765  -2.917   9.834  1.00  0.00     0.074 A 
ATOM     62  C   UNL     1     -12.744  -4.336   9.545  1.00  0.00     0.031 C 
ATOM     63  C   UNL     1     -12.922  -2.392  11.073  1.00  0.00     0.037 A 
BRANCH  50  64
ATOM     64  C   UNL     1     -12.682   3.768  11.287  1.00  0.00     0.064 A 
ATOM     65  C   UNL     1     -13.795   4.620  11.244  1.00  0.00     0.173 A 
ATOM     66  C   UNL     1     -11.648   4.077  12.181  1.00  0.00     0.173 A 
ATOM     67  F   UNL     1     -14.804   4.371  10.395  1.00  0.00    -0.203 F 
ATOM     68  C   UNL     1     -13.864   5.747  12.057  1.00  0.00     0.198 A 
ATOM     69  C   UNL     1     -11.731   5.192  13.010  1.00  0.00     0.198 A 
ATOM     70  F   UNL     1     -10.564   3.291  12.260  1.00  0.00    -0.203 F 
ATOM     71  F   UNL     1     -14.923   6.565  11.978  1.00  0.00    -0.200 F 
ATOM     72  C   UNL     1     -12.836   6.028  12.945  1.00  0.00     0.200 A 
ATOM     73  F   UNL     1     -10.742   5.458  13.874  1.00  0.00    -0.200 F 
ATOM     74  F   UNL     1     -12.910   7.106  13.737  1.00  0.00    -0.200 F 
ENDBRANCH  50  64
BRANCH  51  75
ATOM     75  C   UNL     1     -12.258  -4.254   5.351  1.00  0.00     0.064 A 
ATOM     76  C   UNL     1     -13.412  -5.016   5.124  1.00  0.00     0.173 A 
ATOM     77  C   UNL     1     -11.074  -4.656   4.718  1.00  0.00     0.173 A 
ATOM     78  F   UNL     1     -14.564  -4.680   5.723  1.00  0.00    -0.203 F 
ATOM     79  C   UNL     1     -13.381  -6.142   4.304  1.00  0.00     0.198 A 
ATOM     80  C   UNL     1     -11.048  -5.770   3.882  1.00  0.00     0.198 A 
ATOM     81  F   UNL     1      -9.944  -3.957   4.902  1.00  0.00    -0.203 F 
ATOM     82  F   UNL     1     -14.492  -6.870   4.128  1.00  0.00    -0.200 F 
ATOM     83  C   UNL     1     -12.201  -6.515   3.679  1.00  0.00     0.200 A 
ATOM     84  F   UNL     1      -9.909  -6.121   3.271  1.00  0.00    -0.200 F 
ATOM     85  F   UNL     1     -12.172  -7.594   2.886  1.00  0.00    -0.200 F 
ENDBRANCH  51  75
BRANCH  63  86
ATOM     86  C   UNL     1     -13.093  -3.343  12.217  1.00  0.00     0.064 A 
ATOM     87  C   UNL     1     -11.999  -4.034  12.755  1.00  0.00     0.173 A 
ATOM     88  C   UNL     1     -14.339  -3.482  12.847  1.00  0.00     0.173 A 
ATOM     89  F   UNL     1     -10.792  -3.941  12.177  1.00  0.00    -0.203 F 
ATOM     90  C   UNL     1     -12.146  -4.831  13.886  1.00  0.00     0.198 A 
ATOM     91  C   UNL     1     -14.477  -4.262  13.992  1.00  0.00     0.198 A 
ATOM     92  F   UNL     1     -15.412  -2.833  12.372  1.00  0.00    -0.203 F 
ATOM     93  F   UNL     1     -11.091  -5.496  14.377  1.00  0.00    -0.200 F 
ATOM     94  C   UNL     1     -13.381  -4.935  14.510  1.00  0.00     0.200 A 
ATOM     95  F   UNL     1     -15.667  -4.349  14.601  1.00  0.00    -0.200 F 
ATOM     96  F   UNL     1     -13.514  -5.683  15.614  1.00  0.00    -0.200 F 
ENDBRANCH  63  86
ENDBRANCH  37  38
ENDBRANCH  29  32
ENDBRANCH  27  28
ENDBRANCH  26  27
ENDBRANCH  25  26
ENDBRANCH   1  25
TORSDOF 16
