REMARK SMILES CCCCOC(=O)c1ccc(N2C[C@H](C(=O)NCCCCCCNC(=O)c3ccc(-c4c5nc(c(-c6c(F)c(F)c(F)c(F)c6F)c6ccc([nH]6)c(-c6c(F)c(F)c(F)c(F)c6F)c6nc(c(-c7c(F)c(F)c(F)c(F)c7F)c7ccc4[nH]7)C=C6)C=C5)cc3)CC2=O)cc1
REMARK SMILES IDX 18 1 17 2 15 3 16 4 14 6 12 7 13 8 91 9 90 10 92 11 11 12
REMARK SMILES IDX 8 13 9 14 94 15 10 16 93 17 6 18 7 19 5 20 4 21 3 22 2 23
REMARK SMILES IDX 1 24 19 25 20 26 21 27 22 28 23 29 24 30 25 31 26 33 27 34
REMARK SMILES IDX 28 35 89 36 29 37 88 38 30 39 31 40 32 41 82 42 33 43 87 44
REMARK SMILES IDX 81 45 83 46 34 47 86 48 80 49 79 50 35 52 67 53 47 54 66 55
REMARK SMILES IDX 48 56 51 57 65 58 84 59 49 60 50 61 64 63 85 64 52 65 36 66
REMARK SMILES IDX 37 67 45 68 38 69 39 70 43 71 46 72 40 73 41 74 44 75 42 76
REMARK SMILES IDX 68 77 69 78 77 79 70 80 71 81 75 82 78 83 72 84 73 85 76 86
REMARK SMILES IDX 74 87 53 88 54 89 62 90 55 91 56 92 60 93 63 94 57 95 58 96
REMARK SMILES IDX 61 97 59 98
REMARK H PARENT 17 5 24 32 83 51 51 62
REMARK Flexibility Score: inf
ROOT
ATOM      1  C   UNL     1     -12.020  -0.116  -0.089  1.00  0.00     0.116 C 
ENDROOT
BRANCH   1   2
ATOM      2  N   UNL     1     -10.884  -0.423   0.757  1.00  0.00    -0.356 N 
ATOM      3  C   UNL     1      -9.672   0.183   0.874  1.00  0.00     0.225 C 
ATOM      4  O   UNL     1      -8.846  -0.349   1.616  1.00  0.00    -0.275 OA
ATOM      5  H   UNL     1     -11.011  -1.201   1.346  1.00  0.00     0.163 HD
BRANCH   3   6
ATOM      6  C   UNL     1      -9.416   1.521   0.196  1.00  0.00     0.107 C 
ATOM      7  N   UNL     1      -7.233   1.738  -0.671  1.00  0.00    -0.312 N 
ATOM      8  C   UNL     1      -8.016   2.039   0.503  1.00  0.00     0.139 C 
ATOM      9  C   UNL     1      -8.041   1.468  -1.772  1.00  0.00     0.227 C 
ATOM     10  C   UNL     1      -9.474   1.485  -1.324  1.00  0.00     0.116 C 
ATOM     11  O   UNL     1      -7.720   1.236  -2.929  1.00  0.00    -0.274 OA
BRANCH   7  12
ATOM     12  C   UNL     1      -5.819   1.777  -0.700  1.00  0.00     0.044 A 
ATOM     13  C   UNL     1      -3.022   1.700  -0.835  1.00  0.00     0.060 A 
ATOM     14  C   UNL     1      -3.662   1.383   0.364  1.00  0.00     0.018 A 
ATOM     15  C   UNL     1      -3.755   2.078  -1.956  1.00  0.00     0.018 A 
ATOM     16  C   UNL     1      -5.060   1.438   0.431  1.00  0.00     0.027 A 
ATOM     17  C   UNL     1      -5.146   2.110  -1.884  1.00  0.00     0.027 A 
BRANCH  13  18
ATOM     18  C   UNL     1      -1.571   1.561  -0.978  1.00  0.00     0.338 C 
ATOM     19  O   UNL     1      -1.046   0.646  -1.591  1.00  0.00    -0.246 OA
BRANCH  18  20
ATOM     20  O   UNL     1      -0.979   2.633  -0.408  1.00  0.00    -0.462 OA
BRANCH  20  21
ATOM     21  C   UNL     1       0.441   2.736  -0.601  1.00  0.00     0.233 C 
BRANCH  21  22
ATOM     22  C   UNL     1       1.175   2.442   0.704  1.00  0.00     0.041 C 
BRANCH  22  23
ATOM     23  C   UNL     1       0.981   1.020   1.237  1.00  0.00     0.000 C 
ATOM     24  C   UNL     1       1.660  -0.042   0.386  1.00  0.00     0.004 C 
ENDBRANCH  22  23
ENDBRANCH  21  22
ENDBRANCH  20  21
ENDBRANCH  18  20
ENDBRANCH  13  18
ENDBRANCH   7  12
ENDBRANCH   3   6
ENDBRANCH   1   2
BRANCH   1  25
ATOM     25  C   UNL     1     -12.183  -1.179  -1.179  1.00  0.00     0.021 C 
BRANCH  25  26
ATOM     26  C   UNL     1     -12.513  -2.582  -0.651  1.00  0.00     0.002 C 
BRANCH  26  27
ATOM     27  C   UNL     1     -13.798  -2.684   0.175  1.00  0.00     0.002 C 
BRANCH  27  28
ATOM     28  C   UNL     1     -15.059  -2.160  -0.516  1.00  0.00     0.021 C 
BRANCH  28  29
ATOM     29  C   UNL     1     -15.383  -2.826  -1.851  1.00  0.00     0.116 C 
BRANCH  29  30
ATOM     30  N   UNL     1     -15.699  -4.237  -1.705  1.00  0.00    -0.352 N 
ATOM     31  C   UNL     1     -16.753  -4.946  -2.223  1.00  0.00     0.251 C 
ATOM     32  H   UNL     1     -15.067  -4.757  -1.157  1.00  0.00     0.163 HD
ATOM     33  O   UNL     1     -16.955  -6.104  -1.872  1.00  0.00    -0.269 OA
BRANCH  31  34
ATOM     34  C   UNL     1     -17.668  -4.304  -3.191  1.00  0.00     0.039 A 
ATOM     35  C   UNL     1     -19.047  -4.440  -3.006  1.00  0.00     0.014 A 
ATOM     36  C   UNL     1     -17.172  -3.581  -4.280  1.00  0.00     0.014 A 
ATOM     37  C   UNL     1     -19.930  -3.801  -3.879  1.00  0.00     0.010 A 
ATOM     38  C   UNL     1     -18.051  -2.900  -5.117  1.00  0.00     0.010 A 
ATOM     39  C   UNL     1     -19.438  -3.003  -4.924  1.00  0.00    -0.014 A 
BRANCH  39  40
ATOM     40  C   UNL     1     -20.357  -2.269  -5.829  1.00  0.00     0.031 A 
ATOM     41  C   UNL     1     -20.452  -2.651  -7.278  1.00  0.00     0.074 A 
ATOM     42  C   UNL     1     -21.052  -1.215  -5.360  1.00  0.00     0.049 A 
ATOM     43  N   UNL     1     -21.123  -2.076  -8.243  1.00  0.00    -0.248 NA
ATOM     44  C   UNL     1     -19.667  -3.820  -7.704  1.00  0.00     0.031 C 
ATOM     45  C   UNL     1     -21.013  -0.721  -3.983  1.00  0.00     0.029 A 
ATOM     46  N   UNL     1     -21.915  -0.359  -5.997  1.00  0.00    -0.354 N 
ATOM     47  C   UNL     1     -20.826  -2.798  -9.391  1.00  0.00     0.074 A 
ATOM     48  C   UNL     1     -19.887  -3.831  -9.011  1.00  0.00     0.031 C 
ATOM     49  C   UNL     1     -21.825   0.343  -3.876  1.00  0.00     0.029 A 
ATOM     50  C   UNL     1     -22.416   0.624  -5.181  1.00  0.00     0.049 A 
ATOM     51  H   UNL     1     -22.152  -0.443  -6.949  1.00  0.00     0.167 HD
ATOM     52  C   UNL     1     -21.308  -2.625 -10.645  1.00  0.00     0.037 A 
ATOM     53  C   UNL     1     -23.253   1.642  -5.457  1.00  0.00     0.037 A 
ATOM     54  C   UNL     1     -22.269  -1.620 -11.015  1.00  0.00     0.049 A 
ATOM     55  C   UNL     1     -23.786   1.802  -6.854  1.00  0.00     0.074 A 
ATOM     56  C   UNL     1     -22.865  -1.407 -12.246  1.00  0.00     0.029 A 
ATOM     57  N   UNL     1     -22.778  -0.661 -10.153  1.00  0.00    -0.354 N 
ATOM     58  N   UNL     1     -23.540   1.079  -7.919  1.00  0.00    -0.248 NA
ATOM     59  C   UNL     1     -24.716   2.916  -7.085  1.00  0.00     0.031 C 
ATOM     60  C   UNL     1     -23.713  -0.300 -12.136  1.00  0.00     0.029 A 
ATOM     61  C   UNL     1     -23.671   0.155 -10.828  1.00  0.00     0.049 A 
ATOM     62  H   UNL     1     -22.541  -0.574  -9.201  1.00  0.00     0.167 HD
ATOM     63  C   UNL     1     -24.301   1.633  -8.939  1.00  0.00     0.074 A 
ATOM     64  C   UNL     1     -25.025   2.748  -8.364  1.00  0.00     0.031 C 
ATOM     65  C   UNL     1     -24.390   1.253 -10.237  1.00  0.00     0.037 A 
BRANCH  52  66
ATOM     66  C   UNL     1     -20.803  -3.549 -11.712  1.00  0.00     0.064 A 
ATOM     67  C   UNL     1     -21.204  -4.892 -11.768  1.00  0.00     0.173 A 
ATOM     68  C   UNL     1     -19.936  -3.078 -12.710  1.00  0.00     0.173 A 
ATOM     69  F   UNL     1     -22.022  -5.391 -10.829  1.00  0.00    -0.203 F 
ATOM     70  C   UNL     1     -20.737  -5.737 -12.771  1.00  0.00     0.198 A 
ATOM     71  C   UNL     1     -19.491  -3.920 -13.726  1.00  0.00     0.198 A 
ATOM     72  F   UNL     1     -19.527  -1.801 -12.703  1.00  0.00    -0.203 F 
ATOM     73  F   UNL     1     -21.100  -7.027 -12.782  1.00  0.00    -0.200 F 
ATOM     74  C   UNL     1     -19.886  -5.249 -13.752  1.00  0.00     0.200 A 
ATOM     75  F   UNL     1     -18.676  -3.445 -14.678  1.00  0.00    -0.200 F 
ATOM     76  F   UNL     1     -19.441  -6.062 -14.720  1.00  0.00    -0.200 F 
ENDBRANCH  52  66
BRANCH  53  77
ATOM     77  C   UNL     1     -23.658   2.578  -4.378  1.00  0.00     0.064 A 
ATOM     78  C   UNL     1     -24.954   2.539  -3.847  1.00  0.00     0.173 A 
ATOM     79  C   UNL     1     -22.763   3.522  -3.856  1.00  0.00     0.173 A 
ATOM     80  F   UNL     1     -25.850   1.667  -4.332  1.00  0.00    -0.203 F 
ATOM     81  C   UNL     1     -25.346   3.421  -2.842  1.00  0.00     0.198 A 
ATOM     82  C   UNL     1     -23.149   4.388  -2.836  1.00  0.00     0.198 A 
ATOM     83  F   UNL     1     -21.511   3.594  -4.329  1.00  0.00    -0.203 F 
ATOM     84  F   UNL     1     -26.601   3.388  -2.377  1.00  0.00    -0.200 F 
ATOM     85  C   UNL     1     -24.441   4.341  -2.334  1.00  0.00     0.200 A 
ATOM     86  F   UNL     1     -22.269   5.268  -2.339  1.00  0.00    -0.200 F 
ATOM     87  F   UNL     1     -24.816   5.187  -1.364  1.00  0.00    -0.200 F 
ENDBRANCH  53  77
BRANCH  65  88
ATOM     88  C   UNL     1     -25.324   2.028 -11.115  1.00  0.00     0.064 A 
ATOM     89  C   UNL     1     -24.997   3.309 -11.582  1.00  0.00     0.173 A 
ATOM     90  C   UNL     1     -26.541   1.466 -11.527  1.00  0.00     0.173 A 
ATOM     91  F   UNL     1     -23.851   3.893 -11.201  1.00  0.00    -0.203 F 
ATOM     92  C   UNL     1     -25.864   4.006 -12.418  1.00  0.00     0.198 A 
ATOM     93  C   UNL     1     -27.395   2.157 -12.381  1.00  0.00     0.198 A 
ATOM     94  F   UNL     1     -26.896   0.241 -11.109  1.00  0.00    -0.203 F 
ATOM     95  F   UNL     1     -25.549   5.244 -12.824  1.00  0.00    -0.200 F 
ATOM     96  C   UNL     1     -27.058   3.428 -12.822  1.00  0.00     0.200 A 
ATOM     97  F   UNL     1     -28.546   1.594 -12.777  1.00  0.00    -0.200 F 
ATOM     98  F   UNL     1     -27.889   4.100 -13.632  1.00  0.00    -0.200 F 
ENDBRANCH  65  88
ENDBRANCH  39  40
ENDBRANCH  31  34
ENDBRANCH  29  30
ENDBRANCH  28  29
ENDBRANCH  27  28
ENDBRANCH  26  27
ENDBRANCH  25  26
ENDBRANCH   1  25
TORSDOF 19
