REMARK SMILES COc1ccc(NC(=O)[C@@H]2[C@@H](C(=O)NCCCCCCNC(=O)c3ccc(-c4c5nc(c(-c6c(F)c(F)c(F)c(F)c6F)c6ccc([nH]6)c(-c6c(F)c(F)c(F)c(F)c6F)c6nc(c(-c7c(F)c(F)c(F)c(F)c7F)c7ccc4[nH]7)C=C6)C=C5)cc3)[C@H]3C=C[C@@H]2C3)cc1O
REMARK SMILES IDX 17 1 16 2 15 3 14 4 12 5 13 6 11 8 10 9 90 10 87 11 89 12
REMARK SMILES IDX 91 13 88 14 8 15 7 16 9 18 6 19 3 20 4 21 93 22 5 23 92 24
REMARK SMILES IDX 2 25 1 26 94 27 18 29 19 30 20 31 21 32 22 33 23 35 24 36
REMARK SMILES IDX 25 37 86 38 26 39 85 40 27 41 28 42 29 43 79 44 30 45 84 46
REMARK SMILES IDX 78 47 80 48 31 49 83 50 77 51 76 52 32 54 64 55 44 56 63 57
REMARK SMILES IDX 45 58 48 59 62 60 81 61 46 62 47 63 61 65 82 66 49 67 33 68
REMARK SMILES IDX 34 69 42 70 35 71 36 72 40 73 43 74 37 75 38 76 41 77 39 78
REMARK SMILES IDX 65 79 66 80 74 81 67 82 68 83 72 84 75 85 69 86 70 87 73 88
REMARK SMILES IDX 71 89 50 90 51 91 59 92 52 93 53 94 57 95 60 96 54 97 55 98
REMARK SMILES IDX 58 99 56 100
REMARK H PARENT 14 7 7 17 94 28 21 34 80 53 48 64
REMARK Flexibility Score: inf
ROOT
ATOM      1  C   UNL     1      -1.848  -1.814  -0.097  1.00  0.00     0.002 C 
ENDROOT
BRANCH   1   2
ATOM      2  C   UNL     1      -0.811  -2.440   0.844  1.00  0.00     0.021 C 
BRANCH   2   3
ATOM      3  C   UNL     1      -1.155  -3.845   1.324  1.00  0.00     0.116 C 
BRANCH   3   4
ATOM      4  N   UNL     1      -1.206  -4.764   0.209  1.00  0.00    -0.356 N 
ATOM      5  C   UNL     1      -0.292  -5.687  -0.196  1.00  0.00     0.224 C 
ATOM      6  O   UNL     1      -0.444  -6.169  -1.320  1.00  0.00    -0.275 OA
ATOM      7  H   UNL     1      -2.022  -4.715  -0.338  1.00  0.00     0.163 HD
BRANCH   5   8
ATOM      8  C   UNL     1       0.861  -6.076   0.729  1.00  0.00     0.098 C 
ATOM      9  C   UNL     1       1.808  -7.144   0.062  1.00  0.00     0.099 C 
ATOM     10  C   UNL     1       1.611  -8.361   1.030  1.00  0.00     0.025 C 
ATOM     11  C   UNL     1       0.343  -6.807   2.002  1.00  0.00     0.025 C 
ATOM     12  C   UNL     1       0.179  -8.844   0.973  1.00  0.00    -0.027 C 
ATOM     13  C   UNL     1       1.560  -7.644   2.388  1.00  0.00     0.017 C 
ATOM     14  C   UNL     1      -0.580  -7.927   1.588  1.00  0.00    -0.027 C 
BRANCH   9  15
ATOM     15  C   UNL     1       3.310  -6.839   0.011  1.00  0.00     0.228 C 
ATOM     16  N   UNL     1       3.856  -5.613  -0.182  1.00  0.00    -0.326 N 
ATOM     17  H   UNL     1       4.821  -5.593   0.011  1.00  0.00     0.169 HD
ATOM     18  O   UNL     1       4.130  -7.750   0.190  1.00  0.00    -0.274 OA
BRANCH  16  19
ATOM     19  C   UNL     1       3.364  -4.372  -0.590  1.00  0.00     0.045 A 
ATOM     20  C   UNL     1       2.447  -1.794  -1.206  1.00  0.00     0.160 A 
ATOM     21  C   UNL     1       1.824  -2.914  -1.758  1.00  0.00     0.052 A 
ATOM     22  C   UNL     1       3.596  -1.969  -0.439  1.00  0.00     0.159 A 
ATOM     23  C   UNL     1       2.283  -4.204  -1.452  1.00  0.00     0.030 A 
ATOM     24  C   UNL     1       4.053  -3.244  -0.129  1.00  0.00     0.076 A 
BRANCH  20  25
ATOM     25  O   UNL     1       1.917  -0.565  -1.493  1.00  0.00    -0.493 OA
ATOM     26  C   UNL     1       1.569   0.184  -0.324  1.00  0.00     0.278 C 
ENDBRANCH  20  25
BRANCH  22  27
ATOM     27  O   UNL     1       4.336  -0.912   0.007  1.00  0.00    -0.504 OA
ATOM     28  H   UNL     1       4.062  -0.036  -0.181  1.00  0.00     0.293 HD
ENDBRANCH  22  27
ENDBRANCH  16  19
ENDBRANCH   9  15
ENDBRANCH   5   8
ENDBRANCH   3   4
ENDBRANCH   2   3
ENDBRANCH   1   2
BRANCH   1  29
ATOM     29  C   UNL     1      -3.212  -1.549   0.545  1.00  0.00     0.002 C 
BRANCH  29  30
ATOM     30  C   UNL     1      -3.165  -0.713   1.826  1.00  0.00     0.021 C 
BRANCH  30  31
ATOM     31  C   UNL     1      -2.462   0.632   1.675  1.00  0.00     0.116 C 
BRANCH  31  32
ATOM     32  N   UNL     1      -3.204   1.540   0.816  1.00  0.00    -0.352 N 
ATOM     33  C   UNL     1      -3.751   2.759   1.125  1.00  0.00     0.251 C 
ATOM     34  H   UNL     1      -3.330   1.240  -0.113  1.00  0.00     0.163 HD
ATOM     35  O   UNL     1      -4.540   3.305   0.356  1.00  0.00    -0.269 OA
BRANCH  33  36
ATOM     36  C   UNL     1      -3.401   3.410   2.404  1.00  0.00     0.039 A 
ATOM     37  C   UNL     1      -4.421   3.924   3.207  1.00  0.00     0.014 A 
ATOM     38  C   UNL     1      -2.067   3.500   2.811  1.00  0.00     0.014 A 
ATOM     39  C   UNL     1      -4.106   4.478   4.449  1.00  0.00     0.010 A 
ATOM     40  C   UNL     1      -1.762   3.984   4.080  1.00  0.00     0.010 A 
ATOM     41  C   UNL     1      -2.778   4.482   4.911  1.00  0.00    -0.014 A 
BRANCH  41  42
ATOM     42  C   UNL     1      -2.437   5.007   6.258  1.00  0.00     0.031 A 
ATOM     43  C   UNL     1      -1.555   6.217   6.397  1.00  0.00     0.074 A 
ATOM     44  C   UNL     1      -2.880   4.365   7.356  1.00  0.00     0.049 A 
ATOM     45  N   UNL     1      -1.103   6.793   7.482  1.00  0.00    -0.248 NA
ATOM     46  C   UNL     1      -1.098   6.850   5.149  1.00  0.00     0.031 C 
ATOM     47  C   UNL     1      -3.708   3.157   7.354  1.00  0.00     0.029 A 
ATOM     48  N   UNL     1      -2.691   4.633   8.690  1.00  0.00    -0.354 N 
ATOM     49  C   UNL     1      -0.311   7.848   7.049  1.00  0.00     0.074 A 
ATOM     50  C   UNL     1      -0.290   7.796   5.604  1.00  0.00     0.031 C 
ATOM     51  C   UNL     1      -3.978   2.806   8.621  1.00  0.00     0.029 A 
ATOM     52  C   UNL     1      -3.308   3.735   9.526  1.00  0.00     0.049 A 
ATOM     53  H   UNL     1      -2.163   5.398   9.015  1.00  0.00     0.167 HD
ATOM     54  C   UNL     1       0.321   8.790   7.789  1.00  0.00     0.037 A 
ATOM     55  C   UNL     1      -3.325   3.665  10.871  1.00  0.00     0.037 A 
ATOM     56  C   UNL     1       0.285   8.848   9.227  1.00  0.00     0.049 A 
ATOM     57  C   UNL     1      -2.589   4.709  11.669  1.00  0.00     0.074 A 
ATOM     58  C   UNL     1       0.856   9.789  10.067  1.00  0.00     0.029 A 
ATOM     59  N   UNL     1      -0.354   7.923  10.040  1.00  0.00    -0.354 N 
ATOM     60  N   UNL     1      -1.899   5.740  11.247  1.00  0.00    -0.248 NA
ATOM     61  C   UNL     1      -2.642   4.583  13.132  1.00  0.00     0.031 C 
ATOM     62  C   UNL     1       0.607   9.403  11.388  1.00  0.00     0.029 A 
ATOM     63  C   UNL     1      -0.171   8.257  11.372  1.00  0.00     0.049 A 
ATOM     64  H   UNL     1      -0.862   7.144   9.717  1.00  0.00     0.167 HD
ATOM     65  C   UNL     1      -1.466   6.404  12.388  1.00  0.00     0.074 A 
ATOM     66  C   UNL     1      -1.986   5.667  13.520  1.00  0.00     0.031 C 
ATOM     67  C   UNL     1      -0.707   7.522  12.489  1.00  0.00     0.037 A 
BRANCH  54  68
ATOM     68  C   UNL     1       1.103   9.843   7.057  1.00  0.00     0.064 A 
ATOM     69  C   UNL     1       0.467  10.827   6.284  1.00  0.00     0.173 A 
ATOM     70  C   UNL     1       2.501   9.900   7.167  1.00  0.00     0.173 A 
ATOM     71  F   UNL     1      -0.866  10.812   6.136  1.00  0.00    -0.203 F 
ATOM     72  C   UNL     1       1.202  11.811   5.627  1.00  0.00     0.198 A 
ATOM     73  C   UNL     1       3.230  10.905   6.536  1.00  0.00     0.198 A 
ATOM     74  F   UNL     1       3.160   8.988   7.897  1.00  0.00    -0.203 F 
ATOM     75  F   UNL     1       0.576  12.710   4.855  1.00  0.00    -0.200 F 
ATOM     76  C   UNL     1       2.582  11.854   5.761  1.00  0.00     0.200 A 
ATOM     77  F   UNL     1       4.562  10.954   6.679  1.00  0.00    -0.200 F 
ATOM     78  F   UNL     1       3.287  12.808   5.138  1.00  0.00    -0.200 F 
ENDBRANCH  54  68
BRANCH  55  79
ATOM     79  C   UNL     1      -4.075   2.578  11.556  1.00  0.00     0.064 A 
ATOM     80  C   UNL     1      -5.211   2.861  12.329  1.00  0.00     0.173 A 
ATOM     81  C   UNL     1      -3.660   1.240  11.475  1.00  0.00     0.173 A 
ATOM     82  F   UNL     1      -5.636   4.127  12.454  1.00  0.00    -0.203 F 
ATOM     83  C   UNL     1      -5.883   1.854  13.019  1.00  0.00     0.198 A 
ATOM     84  C   UNL     1      -4.353   0.229  12.139  1.00  0.00     0.198 A 
ATOM     85  F   UNL     1      -2.584   0.912  10.745  1.00  0.00    -0.203 F 
ATOM     86  F   UNL     1      -6.928   2.163  13.798  1.00  0.00    -0.200 F 
ATOM     87  C   UNL     1      -5.456   0.539  12.920  1.00  0.00     0.200 A 
ATOM     88  F   UNL     1      -3.947  -1.043  12.027  1.00  0.00    -0.200 F 
ATOM     89  F   UNL     1      -6.102  -0.429  13.585  1.00  0.00    -0.200 F 
ENDBRANCH  55  79
BRANCH  67  90
ATOM     90  C   UNL     1      -0.431   8.047  13.869  1.00  0.00     0.064 A 
ATOM     91  C   UNL     1       0.421   7.377  14.760  1.00  0.00     0.173 A 
ATOM     92  C   UNL     1      -0.997   9.260  14.291  1.00  0.00     0.173 A 
ATOM     93  F   UNL     1       0.976   6.206  14.411  1.00  0.00    -0.203 F 
ATOM     94  C   UNL     1       0.671   7.886  16.031  1.00  0.00     0.198 A 
ATOM     95  C   UNL     1      -0.717   9.784  15.549  1.00  0.00     0.198 A 
ATOM     96  F   UNL     1      -1.812   9.946  13.475  1.00  0.00    -0.203 F 
ATOM     97  F   UNL     1       1.444   7.201  16.885  1.00  0.00    -0.200 F 
ATOM     98  C   UNL     1       0.109   9.093  16.422  1.00  0.00     0.200 A 
ATOM     99  F   UNL     1      -1.248  10.958  15.918  1.00  0.00    -0.200 F 
ATOM    100  F   UNL     1       0.358   9.585  17.643  1.00  0.00    -0.200 F 
ENDBRANCH  67  90
ENDBRANCH  41  42
ENDBRANCH  33  36
ENDBRANCH  31  32
ENDBRANCH  30  31
ENDBRANCH  29  30
ENDBRANCH   1  29
TORSDOF 17
