REMARK SMILES Cc1ccc(-c2cc3cccnc3n2CCC(=O)NCCCCCCNC(=O)c2ccc(-c3c4nc(c(-c5c(F)c(F)c(F)c(F)c5F)c5ccc([nH]5)c(-c5c(F)c(F)c(F)c(F)c5F)c5nc(c(-c6c(F)c(F)c(F)c(F)c6F)c6ccc3[nH]6)C=C5)C=C4)cc2)cn1
REMARK SMILES IDX 22 1 21 2 20 3 19 4 17 5 18 6 16 8 15 9 14 10 6 11 7 12 8 13
REMARK SMILES IDX 13 14 9 15 12 16 10 17 11 18 5 19 1 20 2 21 3 22 93 23 4 24
REMARK SMILES IDX 92 25 23 26 24 27 25 28 26 29 27 30 28 32 29 33 30 34 91 35
REMARK SMILES IDX 31 36 90 37 32 38 33 39 34 40 84 41 35 42 89 43 83 44 85 45
REMARK SMILES IDX 36 46 88 47 82 48 81 49 37 51 69 52 49 53 68 54 50 55 53 56
REMARK SMILES IDX 67 57 86 58 51 59 52 60 66 62 87 63 54 64 38 65 39 66 47 67
REMARK SMILES IDX 40 68 41 69 45 70 48 71 42 72 43 73 46 74 44 75 70 76 71 77
REMARK SMILES IDX 79 78 72 79 73 80 77 81 80 82 74 83 75 84 78 85 76 86 55 87
REMARK SMILES IDX 56 88 64 89 57 90 58 91 62 92 65 93 59 94 60 95 63 96 61 97
REMARK H PARENT 19 7 26 31 85 50 53 61
REMARK Flexibility Score: inf
ROOT
ATOM      1  C   UNL     1      -1.947   0.004  -2.911  1.00  0.00     0.002 C 
ENDROOT
BRANCH   1   2
ATOM      2  C   UNL     1      -3.053  -0.205  -1.883  1.00  0.00     0.021 C 
BRANCH   2   3
ATOM      3  C   UNL     1      -3.566  -1.619  -1.631  1.00  0.00     0.116 C 
BRANCH   3   4
ATOM      4  N   UNL     1      -2.644  -2.401  -0.825  1.00  0.00    -0.356 N 
ATOM      5  C   UNL     1      -2.734  -2.846   0.459  1.00  0.00     0.221 C 
ATOM      6  O   UNL     1      -1.793  -3.513   0.901  1.00  0.00    -0.275 OA
ATOM      7  H   UNL     1      -1.812  -2.653  -1.286  1.00  0.00     0.163 HD
BRANCH   5   8
ATOM      8  C   UNL     1      -3.922  -2.537   1.347  1.00  0.00     0.122 C 
BRANCH   8   9
ATOM      9  C   UNL     1      -3.765  -1.314   2.265  1.00  0.00     0.134 C 
BRANCH   9  10
ATOM     10  N   UNL     1      -3.979  -0.032   1.608  1.00  0.00    -0.325 N 
ATOM     11  C   UNL     1      -3.065   0.962   1.245  1.00  0.00     0.052 A 
ATOM     12  C   UNL     1      -3.840   1.932   0.586  1.00  0.00     0.039 A 
ATOM     13  C   UNL     1      -5.168   1.461   0.432  1.00  0.00     0.020 A 
ATOM     14  C   UNL     1      -5.250   0.294   1.167  1.00  0.00     0.140 A 
ATOM     15  C   UNL     1      -6.304   1.849  -0.301  1.00  0.00     0.013 A 
ATOM     16  N   UNL     1      -6.346  -0.477   1.333  1.00  0.00    -0.238 NA
ATOM     17  C   UNL     1      -7.449   1.057  -0.194  1.00  0.00     0.021 A 
ATOM     18  C   UNL     1      -7.422  -0.048   0.643  1.00  0.00     0.113 A 
BRANCH  11  19
ATOM     19  C   UNL     1      -1.567   0.887   1.211  1.00  0.00     0.017 A 
ATOM     20  C   UNL     1       2.564   0.653   0.022  1.00  0.00     0.066 C 
ATOM     21  C   UNL     1       1.138   0.737   0.478  1.00  0.00     0.037 A 
ATOM     22  C   UNL     1       0.496  -0.393   0.944  1.00  0.00     0.024 A 
ATOM     23  N   UNL     1       0.519   1.937   0.436  1.00  0.00    -0.261 NA
ATOM     24  C   UNL     1      -0.844  -0.299   1.324  1.00  0.00     0.014 A 
ATOM     25  C   UNL     1      -0.796   1.979   0.798  1.00  0.00     0.121 A 
ENDBRANCH  11  19
ENDBRANCH   9  10
ENDBRANCH   8   9
ENDBRANCH   5   8
ENDBRANCH   3   4
ENDBRANCH   2   3
ENDBRANCH   1   2
BRANCH   1  26
ATOM     26  C   UNL     1      -2.328  -0.302  -4.357  1.00  0.00     0.002 C 
BRANCH  26  27
ATOM     27  C   UNL     1      -3.662   0.285  -4.829  1.00  0.00     0.021 C 
BRANCH  27  28
ATOM     28  C   UNL     1      -3.727   1.800  -4.739  1.00  0.00     0.116 C 
BRANCH  28  29
ATOM     29  N   UNL     1      -2.845   2.435  -5.706  1.00  0.00    -0.352 N 
ATOM     30  C   UNL     1      -2.999   3.651  -6.332  1.00  0.00     0.251 C 
ATOM     31  H   UNL     1      -2.033   1.931  -5.943  1.00  0.00     0.163 HD
ATOM     32  O   UNL     1      -2.381   3.914  -7.349  1.00  0.00    -0.269 OA
BRANCH  30  33
ATOM     33  C   UNL     1      -3.877   4.664  -5.715  1.00  0.00     0.039 A 
ATOM     34  C   UNL     1      -4.524   5.616  -6.513  1.00  0.00     0.014 A 
ATOM     35  C   UNL     1      -3.944   4.734  -4.321  1.00  0.00     0.014 A 
ATOM     36  C   UNL     1      -5.211   6.654  -5.896  1.00  0.00     0.010 A 
ATOM     37  C   UNL     1      -4.705   5.692  -3.712  1.00  0.00     0.010 A 
ATOM     38  C   UNL     1      -5.258   6.693  -4.499  1.00  0.00    -0.014 A 
BRANCH  38  39
ATOM     39  C   UNL     1      -5.907   7.776  -3.791  1.00  0.00     0.031 A 
ATOM     40  C   UNL     1      -7.386   7.695  -3.782  1.00  0.00     0.074 A 
ATOM     41  C   UNL     1      -5.194   8.591  -2.987  1.00  0.00     0.049 A 
ATOM     42  N   UNL     1      -8.227   8.506  -4.331  1.00  0.00    -0.248 NA
ATOM     43  C   UNL     1      -8.006   6.483  -3.219  1.00  0.00     0.031 C 
ATOM     44  C   UNL     1      -3.768   8.521  -2.647  1.00  0.00     0.029 A 
ATOM     45  N   UNL     1      -5.635   9.615  -2.211  1.00  0.00    -0.354 N 
ATOM     46  C   UNL     1      -9.488   8.010  -4.017  1.00  0.00     0.074 A 
ATOM     47  C   UNL     1      -9.289   6.672  -3.530  1.00  0.00     0.031 C 
ATOM     48  C   UNL     1      -3.514   9.324  -1.589  1.00  0.00     0.029 A 
ATOM     49  C   UNL     1      -4.718  10.069  -1.270  1.00  0.00     0.049 A 
ATOM     50  H   UNL     1      -6.534  10.005  -2.308  1.00  0.00     0.167 HD
ATOM     51  C   UNL     1     -10.568   8.835  -3.933  1.00  0.00     0.037 A 
ATOM     52  C   UNL     1      -4.979  10.955  -0.276  1.00  0.00     0.037 A 
ATOM     53  C   UNL     1     -10.296  10.104  -4.560  1.00  0.00     0.049 A 
ATOM     54  C   UNL     1      -6.231  11.668  -0.649  1.00  0.00     0.074 A 
ATOM     55  C   UNL     1      -9.981  10.499  -5.846  1.00  0.00     0.029 A 
ATOM     56  N   UNL     1      -9.930  11.152  -3.750  1.00  0.00    -0.354 N 
ATOM     57  N   UNL     1      -6.326  12.480  -1.665  1.00  0.00    -0.248 NA
ATOM     58  C   UNL     1      -7.488  11.101  -0.182  1.00  0.00     0.031 C 
ATOM     59  C   UNL     1      -9.011  11.535  -5.688  1.00  0.00     0.029 A 
ATOM     60  C   UNL     1      -8.842  11.764  -4.322  1.00  0.00     0.049 A 
ATOM     61  H   UNL     1     -10.369  11.416  -2.910  1.00  0.00     0.167 HD
ATOM     62  C   UNL     1      -7.563  12.200  -2.229  1.00  0.00     0.074 A 
ATOM     63  C   UNL     1      -8.263  11.396  -1.229  1.00  0.00     0.031 C 
ATOM     64  C   UNL     1      -7.785  12.393  -3.563  1.00  0.00     0.037 A 
BRANCH  51  65
ATOM     65  C   UNL     1     -11.722   8.631  -2.982  1.00  0.00     0.064 A 
ATOM     66  C   UNL     1     -12.862   9.450  -3.101  1.00  0.00     0.173 A 
ATOM     67  C   UNL     1     -11.654   7.858  -1.801  1.00  0.00     0.173 A 
ATOM     68  F   UNL     1     -13.021  10.248  -4.167  1.00  0.00    -0.203 F 
ATOM     69  C   UNL     1     -13.823   9.531  -2.089  1.00  0.00     0.198 A 
ATOM     70  C   UNL     1     -12.644   7.896  -0.822  1.00  0.00     0.198 A 
ATOM     71  F   UNL     1     -10.582   7.121  -1.487  1.00  0.00    -0.203 F 
ATOM     72  F   UNL     1     -14.826  10.413  -2.195  1.00  0.00    -0.200 F 
ATOM     73  C   UNL     1     -13.713   8.755  -0.950  1.00  0.00     0.200 A 
ATOM     74  F   UNL     1     -12.506   7.149   0.283  1.00  0.00    -0.200 F 
ATOM     75  F   UNL     1     -14.604   8.869   0.043  1.00  0.00    -0.200 F 
ENDBRANCH  51  65
BRANCH  52  76
ATOM     76  C   UNL     1      -4.453  10.971   1.112  1.00  0.00     0.064 A 
ATOM     77  C   UNL     1      -4.626  12.098   1.934  1.00  0.00     0.173 A 
ATOM     78  C   UNL     1      -4.048   9.785   1.755  1.00  0.00     0.173 A 
ATOM     79  F   UNL     1      -5.050  13.256   1.408  1.00  0.00    -0.203 F 
ATOM     80  C   UNL     1      -4.445  12.032   3.320  1.00  0.00     0.198 A 
ATOM     81  C   UNL     1      -3.863   9.722   3.138  1.00  0.00     0.198 A 
ATOM     82  F   UNL     1      -3.925   8.639   1.071  1.00  0.00    -0.203 F 
ATOM     83  F   UNL     1      -4.691  13.109   4.079  1.00  0.00    -0.200 F 
ATOM     84  C   UNL     1      -4.078  10.840   3.922  1.00  0.00     0.200 A 
ATOM     85  F   UNL     1      -3.546   8.553   3.712  1.00  0.00    -0.200 F 
ATOM     86  F   UNL     1      -3.976  10.756   5.256  1.00  0.00    -0.200 F 
ENDBRANCH  52  76
BRANCH  64  87
ATOM     87  C   UNL     1      -6.728  13.134  -4.342  1.00  0.00     0.064 A 
ATOM     88  C   UNL     1      -5.410  12.674  -4.521  1.00  0.00     0.173 A 
ATOM     89  C   UNL     1      -7.098  14.289  -5.042  1.00  0.00     0.173 A 
ATOM     90  F   UNL     1      -5.002  11.524  -3.975  1.00  0.00    -0.203 F 
ATOM     91  C   UNL     1      -4.497  13.366  -5.316  1.00  0.00     0.198 A 
ATOM     92  C   UNL     1      -6.197  14.957  -5.867  1.00  0.00     0.198 A 
ATOM     93  F   UNL     1      -8.357  14.747  -4.960  1.00  0.00    -0.203 F 
ATOM     94  F   UNL     1      -3.242  12.911  -5.452  1.00  0.00    -0.200 F 
ATOM     95  C   UNL     1      -4.894  14.504  -5.994  1.00  0.00     0.200 A 
ATOM     96  F   UNL     1      -6.601  16.030  -6.560  1.00  0.00    -0.200 F 
ATOM     97  F   UNL     1      -4.030  15.150  -6.790  1.00  0.00    -0.200 F 
ENDBRANCH  64  87
ENDBRANCH  38  39
ENDBRANCH  30  33
ENDBRANCH  28  29
ENDBRANCH  27  28
ENDBRANCH  26  27
ENDBRANCH   1  26
TORSDOF 16
