REMARK SMILES Cc1c(CCC(=O)N[C@@H](C)C(=O)NCCCCCCNC(=O)c2ccc(-c3c4nc(c(-c5c(F)c(F)c(F)c(F)c5F)c5ccc([nH]5)c(-c5c(F)c(F)c(F)c(F)c5F)c5nc(c(-c6c(F)c(F)c(F)c(F)c6F)c6ccc3[nH]6)C=C5)C=C4)cc2)c(=O)oc2cc3oc4c(c3cc12)CCCC4
REMARK SMILES IDX 15 1 14 2 13 3 11 4 12 5 9 7 10 8 8 9 6 10 7 11 5 13 4 14
REMARK SMILES IDX 3 15 1 16 2 17 97 18 86 19 89 20 96 21 87 22 88 23 90 24
REMARK SMILES IDX 95 25 91 26 94 27 92 28 93 29 98 30 101 31 99 32 100 33
REMARK SMILES IDX 16 34 17 35 18 36 19 37 20 38 21 39 22 41 23 42 24 43 85 44
REMARK SMILES IDX 25 45 84 46 26 47 27 48 28 49 78 50 29 51 83 52 77 53 79 54
REMARK SMILES IDX 30 55 82 56 76 57 75 58 31 60 63 61 43 62 62 63 44 64 47 65
REMARK SMILES IDX 61 66 80 67 45 68 46 69 60 71 81 72 48 73 32 74 33 75 41 76
REMARK SMILES IDX 34 77 35 78 39 79 42 80 36 81 37 82 40 83 38 84 64 85 65 86
REMARK SMILES IDX 73 87 66 88 67 89 71 90 74 91 68 92 69 93 72 94 70 95 49 96
REMARK SMILES IDX 50 97 58 98 51 99 52 100 56 101 59 102 53 103 54 104 57 105
REMARK SMILES IDX 55 106
REMARK H PARENT 13 6 8 12 20 40 79 59 47 70
REMARK Flexibility Score: inf
ROOT
ATOM      1  C   UNL     1      -3.020  -1.407   3.057  1.00  0.00     0.021 C 
ENDROOT
BRANCH   1   2
ATOM      2  C   UNL     1      -2.928  -0.102   2.269  1.00  0.00     0.116 C 
BRANCH   2   3
ATOM      3  N   UNL     1      -2.351   0.950   3.099  1.00  0.00    -0.354 N 
ATOM      4  C   UNL     1      -1.091   1.421   3.317  1.00  0.00     0.242 C 
ATOM      5  O   UNL     1      -0.946   2.086   4.351  1.00  0.00    -0.273 OA
ATOM      6  H   UNL     1      -3.030   1.431   3.625  1.00  0.00     0.163 HD
BRANCH   4   7
ATOM      7  C   UNL     1       0.096   1.283   2.324  1.00  0.00     0.168 C 
ATOM      8  C   UNL     1      -0.069   0.235   1.255  1.00  0.00     0.041 C 
BRANCH   7   9
ATOM      9  N   UNL     1       1.375   0.983   2.973  1.00  0.00    -0.345 N 
ATOM     10  C   UNL     1       2.595   1.212   2.384  1.00  0.00     0.220 C 
ATOM     11  O   UNL     1       3.433   0.312   2.373  1.00  0.00    -0.275 OA
ATOM     12  H   UNL     1       1.360   0.597   3.879  1.00  0.00     0.164 HD
BRANCH  10  13
ATOM     13  C   UNL     1       2.895   2.600   1.837  1.00  0.00     0.105 C 
BRANCH  13  14
ATOM     14  C   UNL     1       3.159   2.689   0.324  1.00  0.00     0.053 C 
BRANCH  14  15
ATOM     15  C   UNL     1       1.902   2.921  -0.484  1.00  0.00     0.042 A 
ATOM     16  C   UNL     1       2.107   0.801  -1.864  1.00  0.00     0.046 C 
ATOM     17  C   UNL     1       1.392   2.018  -1.339  1.00  0.00    -0.030 A 
ATOM     18  C   UNL     1      -0.036   2.162  -1.609  1.00  0.00     0.022 A 
ATOM     19  C   UNL     1       1.228   4.250  -0.311  1.00  0.00     0.339 A 
ATOM     20  C   UNL     1      -0.659   3.405  -1.523  1.00  0.00     0.142 A 
ATOM     21  C   UNL     1      -0.823   1.024  -1.732  1.00  0.00     0.024 A 
ATOM     22  O   UNL     1       1.706   5.114   0.415  1.00  0.00    -0.246 OA
ATOM     23  O   UNL     1       0.090   4.503  -1.075  1.00  0.00    -0.422 OA
ATOM     24  C   UNL     1      -2.024   3.604  -1.791  1.00  0.00     0.095 A 
ATOM     25  C   UNL     1      -2.209   1.175  -1.737  1.00  0.00     0.025 A 
ATOM     26  C   UNL     1      -2.752   2.432  -1.950  1.00  0.00     0.138 A 
ATOM     27  C   UNL     1      -3.277   0.260  -1.732  1.00  0.00     0.001 A 
ATOM     28  O   UNL     1      -4.024   2.275  -2.445  1.00  0.00    -0.461 OA
ATOM     29  C   UNL     1      -4.212   0.923  -2.498  1.00  0.00     0.108 A 
ATOM     30  C   UNL     1      -3.187  -1.216  -1.772  1.00  0.00     0.040 C 
ATOM     31  C   UNL     1      -4.712   0.266  -3.745  1.00  0.00     0.076 C 
ATOM     32  C   UNL     1      -2.882  -1.582  -3.228  1.00  0.00     0.005 C 
ATOM     33  C   UNL     1      -3.494  -0.578  -4.269  1.00  0.00     0.008 C 
ENDBRANCH  14  15
ENDBRANCH  13  14
ENDBRANCH  10  13
ENDBRANCH   7   9
ENDBRANCH   4   7
ENDBRANCH   2   3
ENDBRANCH   1   2
BRANCH   1  34
ATOM     34  C   UNL     1      -4.405  -1.608   3.679  1.00  0.00     0.002 C 
BRANCH  34  35
ATOM     35  C   UNL     1      -5.524  -1.912   2.669  1.00  0.00     0.002 C 
BRANCH  35  36
ATOM     36  C   UNL     1      -5.215  -3.038   1.677  1.00  0.00     0.021 C 
BRANCH  36  37
ATOM     37  C   UNL     1      -4.827  -4.353   2.351  1.00  0.00     0.116 C 
BRANCH  37  38
ATOM     38  N   UNL     1      -5.982  -5.109   2.805  1.00  0.00    -0.352 N 
ATOM     39  C   UNL     1      -6.803  -5.928   2.067  1.00  0.00     0.251 C 
ATOM     40  H   UNL     1      -6.205  -5.024   3.761  1.00  0.00     0.163 HD
ATOM     41  O   UNL     1      -7.830  -6.401   2.541  1.00  0.00    -0.269 OA
BRANCH  39  42
ATOM     42  C   UNL     1      -6.451  -6.179   0.659  1.00  0.00     0.039 A 
ATOM     43  C   UNL     1      -5.213  -6.740   0.334  1.00  0.00     0.014 A 
ATOM     44  C   UNL     1      -7.335  -5.763  -0.335  1.00  0.00     0.014 A 
ATOM     45  C   UNL     1      -4.790  -6.750  -0.988  1.00  0.00     0.010 A 
ATOM     46  C   UNL     1      -6.933  -5.830  -1.664  1.00  0.00     0.010 A 
ATOM     47  C   UNL     1      -5.640  -6.274  -1.991  1.00  0.00    -0.014 A 
BRANCH  47  48
ATOM     48  C   UNL     1      -5.126  -6.316  -3.377  1.00  0.00     0.031 A 
ATOM     49  C   UNL     1      -5.958  -7.194  -4.256  1.00  0.00     0.074 A 
ATOM     50  C   UNL     1      -4.729  -5.174  -3.979  1.00  0.00     0.049 A 
ATOM     51  N   UNL     1      -7.097  -6.844  -4.777  1.00  0.00    -0.248 NA
ATOM     52  C   UNL     1      -5.645  -8.615  -4.383  1.00  0.00     0.031 C 
ATOM     53  C   UNL     1      -5.501  -3.933  -3.893  1.00  0.00     0.029 A 
ATOM     54  N   UNL     1      -3.864  -4.983  -5.046  1.00  0.00    -0.354 N 
ATOM     55  C   UNL     1      -7.686  -7.999  -5.247  1.00  0.00     0.074 A 
ATOM     56  C   UNL     1      -6.744  -9.070  -5.000  1.00  0.00     0.031 C 
ATOM     57  C   UNL     1      -5.216  -3.188  -4.969  1.00  0.00     0.029 A 
ATOM     58  C   UNL     1      -4.142  -3.814  -5.737  1.00  0.00     0.049 A 
ATOM     59  H   UNL     1      -3.138  -5.604  -5.284  1.00  0.00     0.167 HD
ATOM     60  C   UNL     1      -8.922  -8.030  -5.803  1.00  0.00     0.037 A 
ATOM     61  C   UNL     1      -3.814  -3.497  -7.018  1.00  0.00     0.037 A 
ATOM     62  C   UNL     1      -9.610  -6.781  -5.904  1.00  0.00     0.049 A 
ATOM     63  C   UNL     1      -5.121  -3.795  -7.701  1.00  0.00     0.074 A 
ATOM     64  C   UNL     1     -10.501  -6.055  -5.146  1.00  0.00     0.029 A 
ATOM     65  N   UNL     1      -9.355  -5.991  -6.999  1.00  0.00    -0.354 N 
ATOM     66  N   UNL     1      -6.201  -3.058  -7.668  1.00  0.00    -0.248 NA
ATOM     67  C   UNL     1      -5.348  -5.203  -8.033  1.00  0.00     0.031 C 
ATOM     68  C   UNL     1     -10.390  -4.706  -5.608  1.00  0.00     0.029 A 
ATOM     69  C   UNL     1      -9.387  -4.687  -6.576  1.00  0.00     0.049 A 
ATOM     70  H   UNL     1      -9.182  -6.303  -7.917  1.00  0.00     0.167 HD
ATOM     71  C   UNL     1      -7.253  -3.979  -7.607  1.00  0.00     0.074 A 
ATOM     72  C   UNL     1      -6.665  -5.272  -7.903  1.00  0.00     0.031 C 
ATOM     73  C   UNL     1      -8.475  -3.681  -7.074  1.00  0.00     0.037 A 
BRANCH  60  74
ATOM     74  C   UNL     1      -9.486  -9.226  -6.445  1.00  0.00     0.064 A 
ATOM     75  C   UNL     1      -9.428  -9.310  -7.842  1.00  0.00     0.173 A 
ATOM     76  C   UNL     1     -10.221 -10.183  -5.744  1.00  0.00     0.173 A 
ATOM     77  F   UNL     1      -8.726  -8.402  -8.540  1.00  0.00    -0.203 F 
ATOM     78  C   UNL     1     -10.127 -10.294  -8.526  1.00  0.00     0.198 A 
ATOM     79  C   UNL     1     -10.915 -11.176  -6.433  1.00  0.00     0.198 A 
ATOM     80  F   UNL     1     -10.295 -10.135  -4.406  1.00  0.00    -0.203 F 
ATOM     81  F   UNL     1     -10.093 -10.323  -9.865  1.00  0.00    -0.200 F 
ATOM     82  C   UNL     1     -10.880 -11.220  -7.822  1.00  0.00     0.200 A 
ATOM     83  F   UNL     1     -11.641 -12.076  -5.756  1.00  0.00    -0.200 F 
ATOM     84  F   UNL     1     -11.581 -12.150  -8.483  1.00  0.00    -0.200 F 
ENDBRANCH  60  74
BRANCH  61  85
ATOM     85  C   UNL     1      -2.462  -3.864  -7.530  1.00  0.00     0.064 A 
ATOM     86  C   UNL     1      -1.331  -3.454  -6.789  1.00  0.00     0.173 A 
ATOM     87  C   UNL     1      -2.197  -4.559  -8.717  1.00  0.00     0.173 A 
ATOM     88  F   UNL     1      -1.481  -2.688  -5.698  1.00  0.00    -0.203 F 
ATOM     89  C   UNL     1      -0.033  -3.816  -7.150  1.00  0.00     0.198 A 
ATOM     90  C   UNL     1      -0.898  -4.943  -9.068  1.00  0.00     0.198 A 
ATOM     91  F   UNL     1      -3.183  -4.890  -9.559  1.00  0.00    -0.203 F 
ATOM     92  F   UNL     1       1.004  -3.430  -6.394  1.00  0.00    -0.200 F 
ATOM     93  C   UNL     1       0.181  -4.586  -8.277  1.00  0.00     0.200 A 
ATOM     94  F   UNL     1      -0.700  -5.678 -10.170  1.00  0.00    -0.200 F 
ATOM     95  F   UNL     1       1.419  -4.980  -8.603  1.00  0.00    -0.200 F 
ENDBRANCH  61  85
BRANCH  73  96
ATOM     96  C   UNL     1      -8.719  -2.244  -6.748  1.00  0.00     0.064 A 
ATOM     97  C   UNL     1      -8.886  -1.304  -7.771  1.00  0.00     0.173 A 
ATOM     98  C   UNL     1      -8.847  -1.798  -5.421  1.00  0.00     0.173 A 
ATOM     99  F   UNL     1      -8.773  -1.675  -9.056  1.00  0.00    -0.203 F 
ATOM    100  C   UNL     1      -9.203   0.021  -7.480  1.00  0.00     0.198 A 
ATOM    101  C   UNL     1      -9.194  -0.482  -5.135  1.00  0.00     0.198 A 
ATOM    102  F   UNL     1      -8.653  -2.638  -4.392  1.00  0.00    -0.203 F 
ATOM    103  F   UNL     1      -9.366   0.903  -8.476  1.00  0.00    -0.200 F 
ATOM    104  C   UNL     1      -9.376   0.426  -6.165  1.00  0.00     0.200 A 
ATOM    105  F   UNL     1      -9.369  -0.098  -3.862  1.00  0.00    -0.200 F 
ATOM    106  F   UNL     1      -9.726   1.690  -5.890  1.00  0.00    -0.200 F 
ENDBRANCH  73  96
ENDBRANCH  47  48
ENDBRANCH  39  42
ENDBRANCH  37  38
ENDBRANCH  36  37
ENDBRANCH  35  36
ENDBRANCH  34  35
ENDBRANCH   1  34
TORSDOF 17
