REMARK SMILES CC1([C@](C)(Nc2cccc(Cl)c2)C(=O)NCCCCCCNC(=O)c2ccc(-c3c4nc(c(-c5c(F)c(F)c(F)c(F)c5F)c5ccc([nH]5)c(-c5c(F)c(F)c(F)c(F)c5F)c5nc(c(-c6c(F)c(F)c(F)c(F)c6F)c6ccc3[nH]6)C=C5)C=C4)cc2)CC1
REMARK SMILES IDX 18 1 17 2 16 3 15 4 13 5 14 6 3 8 4 9 2 10 1 11 88 12 89 13
REMARK SMILES IDX 5 14 6 16 7 17 12 18 8 19 10 20 9 21 11 22 19 23 20 24 21 25
REMARK SMILES IDX 22 26 23 27 24 29 25 30 26 31 87 32 27 33 86 34 28 35 29 36
REMARK SMILES IDX 30 37 80 38 31 39 85 40 79 41 81 42 32 43 84 44 78 45 77 46
REMARK SMILES IDX 33 48 65 49 45 50 64 51 46 52 49 53 63 54 82 55 47 56 48 57
REMARK SMILES IDX 62 59 83 60 50 61 34 62 35 63 43 64 36 65 37 66 41 67 44 68
REMARK SMILES IDX 38 69 39 70 42 71 40 72 66 73 67 74 75 75 68 76 69 77 73 78
REMARK SMILES IDX 76 79 70 80 71 81 74 82 72 83 51 84 52 85 60 86 53 87 54 88
REMARK SMILES IDX 58 89 61 90 55 91 56 92 59 93 57 94
REMARK H PARENT 15 7 5 15 22 28 81 47 49 58
REMARK Flexibility Score: inf
ROOT
ATOM      1  C   UNL     1       1.183   1.835   7.172  1.00  0.00     0.002 C 
ENDROOT
BRANCH   1   2
ATOM      2  C   UNL     1       1.433   0.775   6.104  1.00  0.00     0.021 C 
BRANCH   2   3
ATOM      3  C   UNL     1       0.259   0.578   5.149  1.00  0.00     0.116 C 
BRANCH   3   4
ATOM      4  N   UNL     1      -0.200   1.801   4.512  1.00  0.00    -0.354 N 
ATOM      5  C   UNL     1      -0.078   2.203   3.201  1.00  0.00     0.245 C 
ATOM      6  O   UNL     1      -0.508   3.323   2.909  1.00  0.00    -0.272 OA
ATOM      7  H   UNL     1      -0.666   2.434   5.105  1.00  0.00     0.163 HD
BRANCH   5   8
ATOM      8  C   UNL     1       0.535   1.227   2.134  1.00  0.00     0.119 C 
ATOM      9  C   UNL     1       0.632   1.899   0.742  1.00  0.00     0.046 C 
BRANCH   8  10
ATOM     10  C   UNL     1      -0.482   0.011   1.987  1.00  0.00    -0.001 C 
ATOM     11  C   UNL     1      -1.950   0.437   2.097  1.00  0.00     0.014 C 
ATOM     12  C   UNL     1      -0.152  -1.394   2.483  1.00  0.00     0.010 C 
ATOM     13  C   UNL     1      -0.220  -1.130   1.014  1.00  0.00     0.010 C 
ENDBRANCH   8  10
BRANCH   8  14
ATOM     14  N   UNL     1       1.935   0.823   2.483  1.00  0.00    -0.371 N 
ATOM     15  H   UNL     1       2.152  -0.136   2.424  1.00  0.00     0.161 HD
BRANCH  14  16
ATOM     16  C   UNL     1       2.965   1.685   2.885  1.00  0.00     0.036 A 
ATOM     17  C   UNL     1       2.807   2.770   3.764  1.00  0.00     0.026 A 
ATOM     18  C   UNL     1       4.279   1.445   2.455  1.00  0.00     0.046 A 
ATOM     19  C   UNL     1       3.884   3.500   4.286  1.00  0.00     0.004 A 
ATOM     20  C   UNL     1       5.359   2.214   2.925  1.00  0.00     0.043 A 
ATOM     21  C   UNL     1       5.171   3.220   3.866  1.00  0.00     0.020 A 
ATOM     22  Cl  UNL     1       6.950   1.909   2.342  1.00  0.00    -0.084 Cl
ENDBRANCH  14  16
ENDBRANCH   8  14
ENDBRANCH   5   8
ENDBRANCH   3   4
ENDBRANCH   2   3
ENDBRANCH   1   2
BRANCH   1  23
ATOM     23  C   UNL     1       0.124   1.416   8.191  1.00  0.00     0.002 C 
BRANCH  23  24
ATOM     24  C   UNL     1       0.450   0.115   8.930  1.00  0.00     0.021 C 
BRANCH  24  25
ATOM     25  C   UNL     1       1.841   0.083   9.553  1.00  0.00     0.116 C 
BRANCH  25  26
ATOM     26  N   UNL     1       1.995   1.115  10.565  1.00  0.00    -0.352 N 
ATOM     27  C   UNL     1       2.337   0.970  11.885  1.00  0.00     0.251 C 
ATOM     28  H   UNL     1       1.832   2.038  10.263  1.00  0.00     0.163 HD
ATOM     29  O   UNL     1       2.187   1.887  12.680  1.00  0.00    -0.269 OA
BRANCH  27  30
ATOM     30  C   UNL     1       2.879  -0.327  12.336  1.00  0.00     0.039 A 
ATOM     31  C   UNL     1       2.337  -0.927  13.472  1.00  0.00     0.014 A 
ATOM     32  C   UNL     1       3.900  -0.955  11.614  1.00  0.00     0.014 A 
ATOM     33  C   UNL     1       2.787  -2.189  13.858  1.00  0.00     0.010 A 
ATOM     34  C   UNL     1       4.293  -2.244  11.957  1.00  0.00     0.010 A 
ATOM     35  C   UNL     1       3.745  -2.871  13.085  1.00  0.00    -0.014 A 
BRANCH  35  36
ATOM     36  C   UNL     1       4.164  -4.248  13.446  1.00  0.00     0.031 A 
ATOM     37  C   UNL     1       5.580  -4.530  13.859  1.00  0.00     0.074 A 
ATOM     38  C   UNL     1       3.269  -5.251  13.364  1.00  0.00     0.049 A 
ATOM     39  N   UNL     1       6.126  -5.665  14.216  1.00  0.00    -0.248 NA
ATOM     40  C   UNL     1       6.515  -3.394  13.844  1.00  0.00     0.031 C 
ATOM     41  C   UNL     1       1.882  -5.110  12.917  1.00  0.00     0.029 A 
ATOM     42  N   UNL     1       3.390  -6.586  13.654  1.00  0.00    -0.354 N 
ATOM     43  C   UNL     1       7.462  -5.381  14.465  1.00  0.00     0.074 A 
ATOM     44  C   UNL     1       7.661  -3.981  14.158  1.00  0.00     0.031 C 
ATOM     45  C   UNL     1       1.271  -6.302  12.996  1.00  0.00     0.029 A 
ATOM     46  C   UNL     1       2.230  -7.298  13.464  1.00  0.00     0.049 A 
ATOM     47  H   UNL     1       4.228  -6.996  13.968  1.00  0.00     0.167 HD
ATOM     48  C   UNL     1       8.429  -6.206  14.933  1.00  0.00     0.037 A 
ATOM     49  C   UNL     1       1.971  -8.606  13.647  1.00  0.00     0.037 A 
ATOM     50  C   UNL     1       8.222  -7.596  15.248  1.00  0.00     0.049 A 
ATOM     51  C   UNL     1       3.064  -9.501  14.164  1.00  0.00     0.074 A 
ATOM     52  C   UNL     1       9.120  -8.504  15.782  1.00  0.00     0.029 A 
ATOM     53  N   UNL     1       7.032  -8.283  15.047  1.00  0.00    -0.354 N 
ATOM     54  N   UNL     1       4.302  -9.203  14.477  1.00  0.00    -0.248 NA
ATOM     55  C   UNL     1       2.719 -10.915  14.364  1.00  0.00     0.031 C 
ATOM     56  C   UNL     1       8.492  -9.752  15.851  1.00  0.00     0.029 A 
ATOM     57  C   UNL     1       7.183  -9.610  15.420  1.00  0.00     0.049 A 
ATOM     58  H   UNL     1       6.204  -7.886  14.692  1.00  0.00     0.167 HD
ATOM     59  C   UNL     1       4.875 -10.382  14.934  1.00  0.00     0.074 A 
ATOM     60  C   UNL     1       3.841 -11.394  14.881  1.00  0.00     0.031 C 
ATOM     61  C   UNL     1       6.144 -10.608  15.356  1.00  0.00     0.037 A 
BRANCH  48  62
ATOM     62  C   UNL     1       9.801  -5.626  15.135  1.00  0.00     0.064 A 
ATOM     63  C   UNL     1      10.061  -4.678  16.137  1.00  0.00     0.173 A 
ATOM     64  C   UNL     1      10.877  -6.051  14.341  1.00  0.00     0.173 A 
ATOM     65  F   UNL     1       9.066  -4.229  16.916  1.00  0.00    -0.203 F 
ATOM     66  C   UNL     1      11.339  -4.155  16.316  1.00  0.00     0.198 A 
ATOM     67  C   UNL     1      12.161  -5.551  14.546  1.00  0.00     0.198 A 
ATOM     68  F   UNL     1      10.688  -6.959  13.373  1.00  0.00    -0.203 F 
ATOM     69  F   UNL     1      11.551  -3.212  17.244  1.00  0.00    -0.200 F 
ATOM     70  C   UNL     1      12.389  -4.598  15.526  1.00  0.00     0.200 A 
ATOM     71  F   UNL     1      13.178  -5.991  13.792  1.00  0.00    -0.200 F 
ATOM     72  F   UNL     1      13.621  -4.101  15.706  1.00  0.00    -0.200 F 
ENDBRANCH  48  62
BRANCH  49  73
ATOM     73  C   UNL     1       0.613  -9.141  13.367  1.00  0.00     0.064 A 
ATOM     74  C   UNL     1      -0.210  -9.603  14.404  1.00  0.00     0.173 A 
ATOM     75  C   UNL     1       0.112  -9.209  12.059  1.00  0.00     0.173 A 
ATOM     76  F   UNL     1       0.231  -9.577  15.671  1.00  0.00    -0.203 F 
ATOM     77  C   UNL     1      -1.470 -10.136  14.142  1.00  0.00     0.198 A 
ATOM     78  C   UNL     1      -1.162  -9.712  11.801  1.00  0.00     0.198 A 
ATOM     79  F   UNL     1       0.855  -8.774  11.031  1.00  0.00    -0.203 F 
ATOM     80  F   UNL     1      -2.213 -10.619  15.147  1.00  0.00    -0.200 F 
ATOM     81  C   UNL     1      -1.947 -10.185  12.841  1.00  0.00     0.200 A 
ATOM     82  F   UNL     1      -1.626  -9.740  10.544  1.00  0.00    -0.200 F 
ATOM     83  F   UNL     1      -3.161 -10.693  12.589  1.00  0.00    -0.200 F 
ENDBRANCH  49  73
BRANCH  61  84
ATOM     84  C   UNL     1       6.472 -11.999  15.820  1.00  0.00     0.064 A 
ATOM     85  C   UNL     1       6.532 -13.081  14.927  1.00  0.00     0.173 A 
ATOM     86  C   UNL     1       6.741 -12.253  17.174  1.00  0.00     0.173 A 
ATOM     87  F   UNL     1       6.270 -12.896  13.624  1.00  0.00    -0.203 F 
ATOM     88  C   UNL     1       6.807 -14.369  15.379  1.00  0.00     0.198 A 
ATOM     89  C   UNL     1       7.052 -13.535  17.616  1.00  0.00     0.198 A 
ATOM     90  F   UNL     1       6.706 -11.254  18.069  1.00  0.00    -0.203 F 
ATOM     91  F   UNL     1       6.792 -15.396  14.518  1.00  0.00    -0.200 F 
ATOM     92  C   UNL     1       7.072 -14.594  16.721  1.00  0.00     0.200 A 
ATOM     93  F   UNL     1       7.324 -13.748  18.911  1.00  0.00    -0.200 F 
ATOM     94  F   UNL     1       7.336 -15.834  17.154  1.00  0.00    -0.200 F 
ENDBRANCH  61  84
ENDBRANCH  35  36
ENDBRANCH  27  30
ENDBRANCH  25  26
ENDBRANCH  24  25
ENDBRANCH  23  24
ENDBRANCH   1  23
TORSDOF 16
